MODEL 1
REMARK VINA RESULT:      -8.4      0.000      0.000
REMARK SMILES CCN(CC)S(=O)(=O)c1ccc(F)c(C(=O)N2CCC[C@H]2C(=O)OCCOCCOCCOCCOC(=O)c2ccc(-c3c4nc(c(-c5c(F)c(F)c(F)c(F)c5F)c5ccc([nH]5)c(-c5c(F)c(F)c(F)c(F)c5F)c5nc(c(-c6c(F)c(F)c(F)c(F)c6F)c6ccc3[nH]6)C=C5)C=C4)cc2)c1
REMARK SMILES IDX 28 1 27 2 26 3 25 4 24 5 22 6 23 7 21 8 17 9 18 10 19 11
REMARK SMILES IDX 20 12 15 13 16 14 14 15 9 16 10 17 102 18 11 19 12 20 13 21
REMARK SMILES IDX 6 22 7 23 8 24 3 25 2 26 1 27 4 28 5 29 29 30 30 31 31 32
REMARK SMILES IDX 32 33 33 34 34 35 35 36 36 37 37 38 38 39 39 40 40 41 101 42
REMARK SMILES IDX 41 43 100 44 42 45 43 46 44 47 94 48 45 49 99 50 93 51 95 52
REMARK SMILES IDX 46 53 98 54 92 55 91 56 47 58 79 59 59 60 78 61 60 62 63 63
REMARK SMILES IDX 77 64 96 65 61 66 62 67 76 69 97 70 64 71 48 72 49 73 57 74
REMARK SMILES IDX 50 75 51 76 55 77 58 78 52 79 53 80 56 81 54 82 80 83 81 84
REMARK SMILES IDX 89 85 82 86 83 87 87 88 90 89 84 90 85 91 88 92 86 93 65 94
REMARK SMILES IDX 66 95 74 96 67 97 68 98 72 99 75 100 69 101 70 102 73 103
REMARK SMILES IDX 71 104
REMARK H PARENT 95 57 63 68
REMARK Flexibility Score: inf
ROOT
ATOM      1  C   UNL A   1      38.755  24.166  26.980  1.00  0.00     0.188 C 
ENDROOT
BRANCH   1   2
ATOM      2  O   UNL A   1      38.637  23.148  25.998  1.00  0.00    -0.376 OA
BRANCH   2   3
ATOM      3  C   UNL A   1      37.388  22.912  25.367  1.00  0.00     0.202 C 
BRANCH   3   4
ATOM      4  C   UNL A   1      36.139  23.656  25.860  1.00  0.00     0.261 C 
BRANCH   4   5
ATOM      5  O   UNL A   1      35.281  24.084  24.809  1.00  0.00    -0.462 OA
BRANCH   5   6
ATOM      6  C   UNL A   1      34.691  23.138  24.037  1.00  0.00     0.328 C 
ATOM      7  O   UNL A   1      34.819  23.031  22.824  1.00  0.00    -0.250 OA
BRANCH   6   8
ATOM      8  C   UNL A   1      33.918  22.175  24.942  1.00  0.00     0.195 C 
ATOM      9  N   UNL A   1      32.505  22.175  24.652  1.00  0.00    -0.325 N 
ATOM     10  C   UNL A   1      32.201  21.114  23.713  1.00  0.00     0.121 C 
ATOM     11  C   UNL A   1      33.142  19.999  24.143  1.00  0.00     0.024 C 
ATOM     12  C   UNL A   1      34.358  20.719  24.737  1.00  0.00     0.039 C 
BRANCH   9  13
ATOM     13  C   UNL A   1      31.721  23.069  25.342  1.00  0.00     0.257 C 
ATOM     14  O   UNL A   1      31.147  22.746  26.384  1.00  0.00    -0.269 OA
BRANCH  13  15
ATOM     15  C   UNL A   1      31.433  24.416  24.817  1.00  0.00     0.077 A 
ATOM     16  C   UNL A   1      31.443  26.802  25.219  1.00  0.00     0.083 A 
ATOM     17  C   UNL A   1      30.695  27.017  24.058  1.00  0.00     0.025 A 
ATOM     18  C   UNL A   1      31.840  25.515  25.589  1.00  0.00     0.038 A 
ATOM     19  C   UNL A   1      30.264  25.923  23.312  1.00  0.00     0.041 A 
ATOM     20  C   UNL A   1      30.601  24.633  23.717  1.00  0.00     0.136 A 
ATOM     21  F   UNL A   1      30.030  23.618  23.054  1.00  0.00    -0.206 F 
BRANCH  16  22
ATOM     22  S   UNL A   1      31.892  28.177  26.250  1.00  0.00     0.243 S 
ATOM     23  O   UNL A   1      31.699  27.780  27.629  1.00  0.00    -0.207 OA
ATOM     24  O   UNL A   1      31.197  29.325  25.710  1.00  0.00    -0.207 OA
BRANCH  22  25
ATOM     25  N   UNL A   1      33.574  28.364  25.987  1.00  0.00    -0.198 NA
BRANCH  25  26
ATOM     26  C   UNL A   1      34.043  28.037  24.603  1.00  0.00     0.099 C 
ATOM     27  C   UNL A   1      33.711  29.106  23.584  1.00  0.00     0.022 C 
ENDBRANCH  25  26
BRANCH  25  28
ATOM     28  C   UNL A   1      34.239  29.601  26.501  1.00  0.00     0.099 C 
ATOM     29  C   UNL A   1      35.010  29.408  27.797  1.00  0.00     0.022 C 
ENDBRANCH  25  28
ENDBRANCH  22  25
ENDBRANCH  16  22
ENDBRANCH  13  15
ENDBRANCH   9  13
ENDBRANCH   6   8
ENDBRANCH   5   6
ENDBRANCH   4   5
ENDBRANCH   3   4
ENDBRANCH   2   3
ENDBRANCH   1   2
BRANCH   1  30
ATOM     30  C   UNL A   1      40.211  24.601  27.252  1.00  0.00     0.188 C 
BRANCH  30  31
ATOM     31  O   UNL A   1      41.227  23.961  26.501  1.00  0.00    -0.377 OA
BRANCH  31  32
ATOM     32  C   UNL A   1      42.515  24.568  26.405  1.00  0.00     0.188 C 
BRANCH  32  33
ATOM     33  C   UNL A   1      42.862  25.635  25.335  1.00  0.00     0.188 C 
BRANCH  33  34
ATOM     34  O   UNL A   1      44.223  25.678  24.942  1.00  0.00    -0.376 OA
BRANCH  34  35
ATOM     35  C   UNL A   1      44.990  24.494  25.058  1.00  0.00     0.202 C 
BRANCH  35  36
ATOM     36  C   UNL A   1      46.115  24.501  26.100  1.00  0.00     0.261 C 
BRANCH  36  37
ATOM     37  O   UNL A   1      46.280  25.719  26.839  1.00  0.00    -0.460 OA
BRANCH  37  38
ATOM     38  C   UNL A   1      47.403  26.435  26.623  1.00  0.00     0.338 C 
ATOM     39  O   UNL A   1      48.435  26.060  26.092  1.00  0.00    -0.246 OA
BRANCH  38  40
ATOM     40  C   UNL A   1      47.106  27.829  27.002  1.00  0.00     0.060 A 
ATOM     41  C   UNL A   1      46.409  28.663  26.114  1.00  0.00     0.016 A 
ATOM     42  C   UNL A   1      47.506  28.296  28.254  1.00  0.00     0.016 A 
ATOM     43  C   UNL A   1      46.133  29.985  26.472  1.00  0.00     0.010 A 
ATOM     44  C   UNL A   1      47.255  29.622  28.598  1.00  0.00     0.010 A 
ATOM     45  C   UNL A   1      46.599  30.480  27.697  1.00  0.00    -0.014 A 
BRANCH  45  46
ATOM     46  C   UNL A   1      46.630  31.934  27.968  1.00  0.00     0.031 A 
ATOM     47  C   UNL A   1      45.395  32.552  28.563  1.00  0.00     0.074 A 
ATOM     48  C   UNL A   1      47.686  32.699  27.642  1.00  0.00     0.049 A 
ATOM     49  N   UNL A   1      45.071  33.811  28.684  1.00  0.00    -0.248 NA
ATOM     50  C   UNL A   1      44.377  31.616  29.075  1.00  0.00     0.031 C 
ATOM     51  C   UNL A   1      48.956  32.209  27.115  1.00  0.00     0.029 A 
ATOM     52  N   UNL A   1      47.837  34.064  27.679  1.00  0.00    -0.354 N 
ATOM     53  C   UNL A   1      43.807  33.817  29.258  1.00  0.00     0.074 A 
ATOM     54  C   UNL A   1      43.414  32.441  29.456  1.00  0.00     0.031 C 
ATOM     55  C   UNL A   1      49.750  33.263  26.846  1.00  0.00     0.029 A 
ATOM     56  C   UNL A   1      49.021  34.499  27.134  1.00  0.00     0.049 A 
ATOM     57  H   UNL A   1      47.162  34.672  28.060  1.00  0.00     0.167 HD
ATOM     58  C   UNL A   1      43.045  34.883  29.586  1.00  0.00     0.037 A 
ATOM     59  C   UNL A   1      49.441  35.751  26.857  1.00  0.00     0.037 A 
ATOM     60  C   UNL A   1      43.454  36.249  29.406  1.00  0.00     0.049 A 
ATOM     61  C   UNL A   1      48.538  36.922  27.164  1.00  0.00     0.074 A 
ATOM     62  C   UNL A   1      42.761  37.399  29.735  1.00  0.00     0.029 A 
ATOM     63  N   UNL A   1      44.659  36.645  28.848  1.00  0.00    -0.354 N 
ATOM     64  N   UNL A   1      47.345  36.926  27.706  1.00  0.00    -0.248 NA
ATOM     65  C   UNL A   1      49.033  38.262  26.810  1.00  0.00     0.031 C 
ATOM     66  C   UNL A   1      43.519  38.494  29.321  1.00  0.00     0.029 A 
ATOM     67  C   UNL A   1      44.717  38.026  28.801  1.00  0.00     0.049 A 
ATOM     68  H   UNL A   1      45.366  36.037  28.534  1.00  0.00     0.167 HD
ATOM     69  C   UNL A   1      46.969  38.261  27.796  1.00  0.00     0.074 A 
ATOM     70  C   UNL A   1      48.055  39.043  27.250  1.00  0.00     0.031 C 
ATOM     71  C   UNL A   1      45.825  38.789  28.293  1.00  0.00     0.037 A 
BRANCH  58  72
ATOM     72  C   UNL A   1      41.685  34.642  30.163  1.00  0.00     0.064 A 
ATOM     73  C   UNL A   1      40.544  34.820  29.366  1.00  0.00     0.173 A 
ATOM     74  C   UNL A   1      41.505  34.371  31.524  1.00  0.00     0.173 A 
ATOM     75  F   UNL A   1      40.668  35.083  28.056  1.00  0.00    -0.203 F 
ATOM     76  C   UNL A   1      39.270  34.777  29.922  1.00  0.00     0.198 A 
ATOM     77  C   UNL A   1      40.227  34.301  32.074  1.00  0.00     0.198 A 
ATOM     78  F   UNL A   1      42.566  34.177  32.322  1.00  0.00    -0.203 F 
ATOM     79  F   UNL A   1      38.197  35.008  29.155  1.00  0.00    -0.200 F 
ATOM     80  C   UNL A   1      39.113  34.522  31.276  1.00  0.00     0.200 A 
ATOM     81  F   UNL A   1      40.074  34.036  33.378  1.00  0.00    -0.200 F 
ATOM     82  F   UNL A   1      37.886  34.496  31.815  1.00  0.00    -0.200 F 
ENDBRANCH  58  72
BRANCH  59  83
ATOM     83  C   UNL A   1      50.762  35.970  26.211  1.00  0.00     0.064 A 
ATOM     84  C   UNL A   1      51.942  36.019  26.967  1.00  0.00     0.173 A 
ATOM     85  C   UNL A   1      50.878  36.090  24.818  1.00  0.00     0.173 A 
ATOM     86  F   UNL A   1      51.893  35.894  28.301  1.00  0.00    -0.203 F 
ATOM     87  C   UNL A   1      53.180  36.190  26.355  1.00  0.00     0.198 A 
ATOM     88  C   UNL A   1      52.122  36.233  24.207  1.00  0.00     0.198 A 
ATOM     89  F   UNL A   1      49.784  36.009  24.047  1.00  0.00    -0.203 F 
ATOM     90  F   UNL A   1      54.288  36.234  27.101  1.00  0.00    -0.200 F 
ATOM     91  C   UNL A   1      53.273  36.290  24.977  1.00  0.00     0.200 A 
ATOM     92  F   UNL A   1      52.209  36.285  22.870  1.00  0.00    -0.200 F 
ATOM     93  F   UNL A   1      54.471  36.420  24.391  1.00  0.00    -0.200 F 
ENDBRANCH  59  83
BRANCH  71  94
ATOM     94  C   UNL A   1      45.686  40.283  28.345  1.00  0.00     0.064 A 
ATOM     95  C   UNL A   1      45.995  40.971  29.530  1.00  0.00     0.173 A 
ATOM     96  C   UNL A   1      45.103  41.004  27.296  1.00  0.00     0.173 A 
ATOM     97  F   UNL A   1      46.541  40.319  30.568  1.00  0.00    -0.203 F 
ATOM     98  C   UNL A   1      45.686  42.319  29.675  1.00  0.00     0.198 A 
ATOM     99  C   UNL A   1      44.824  42.361  27.434  1.00  0.00     0.198 A 
ATOM    100  F   UNL A   1      44.797  40.391  26.143  1.00  0.00    -0.203 F 
ATOM    101  F   UNL A   1      45.930  42.940  30.837  1.00  0.00    -0.200 F 
ATOM    102  C   UNL A   1      45.098  43.013  28.628  1.00  0.00     0.200 A 
ATOM    103  F   UNL A   1      44.271  43.036  26.416  1.00  0.00    -0.200 F 
ATOM    104  F   UNL A   1      44.789  44.309  28.773  1.00  0.00    -0.200 F 
ENDBRANCH  71  94
ENDBRANCH  45  46
ENDBRANCH  38  40
ENDBRANCH  37  38
ENDBRANCH  36  37
ENDBRANCH  35  36
ENDBRANCH  34  35
ENDBRANCH  33  34
ENDBRANCH  32  33
ENDBRANCH  31  32
ENDBRANCH  30  31
ENDBRANCH   1  30
TORSDOF 26
ENDMDL
MODEL 2
REMARK VINA RESULT:      -8.1      9.694     15.540
REMARK SMILES CCN(CC)S(=O)(=O)c1ccc(F)c(C(=O)N2CCC[C@H]2C(=O)OCCOCCOCCOCCOC(=O)c2ccc(-c3c4nc(c(-c5c(F)c(F)c(F)c(F)c5F)c5ccc([nH]5)c(-c5c(F)c(F)c(F)c(F)c5F)c5nc(c(-c6c(F)c(F)c(F)c(F)c6F)c6ccc3[nH]6)C=C5)C=C4)cc2)c1
REMARK SMILES IDX 28 1 27 2 26 3 25 4 24 5 22 6 23 7 21 8 17 9 18 10 19 11
REMARK SMILES IDX 20 12 15 13 16 14 14 15 9 16 10 17 102 18 11 19 12 20 13 21
REMARK SMILES IDX 6 22 7 23 8 24 3 25 2 26 1 27 4 28 5 29 29 30 30 31 31 32
REMARK SMILES IDX 32 33 33 34 34 35 35 36 36 37 37 38 38 39 39 40 40 41 101 42
REMARK SMILES IDX 41 43 100 44 42 45 43 46 44 47 94 48 45 49 99 50 93 51 95 52
REMARK SMILES IDX 46 53 98 54 92 55 91 56 47 58 79 59 59 60 78 61 60 62 63 63
REMARK SMILES IDX 77 64 96 65 61 66 62 67 76 69 97 70 64 71 48 72 49 73 57 74
REMARK SMILES IDX 50 75 51 76 55 77 58 78 52 79 53 80 56 81 54 82 80 83 81 84
REMARK SMILES IDX 89 85 82 86 83 87 87 88 90 89 84 90 85 91 88 92 86 93 65 94
REMARK SMILES IDX 66 95 74 96 67 97 68 98 72 99 75 100 69 101 70 102 73 103
REMARK SMILES IDX 71 104
REMARK H PARENT 95 57 63 68
REMARK Flexibility Score: inf
ROOT
ATOM      1  C   UNL A   1      52.143  24.536  35.739  1.00  0.00     0.188 C 
ENDROOT
BRANCH   1   2
ATOM      2  O   UNL A   1      51.636  23.359  35.128  1.00  0.00    -0.376 OA
BRANCH   2   3
ATOM      3  C   UNL A   1      50.420  23.407  34.398  1.00  0.00     0.202 C 
BRANCH   3   4
ATOM      4  C   UNL A   1      49.515  22.169  34.354  1.00  0.00     0.261 C 
BRANCH   4   5
ATOM      5  O   UNL A   1      49.704  21.286  35.454  1.00  0.00    -0.462 OA
BRANCH   5   6
ATOM      6  C   UNL A   1      49.033  21.541  36.604  1.00  0.00     0.328 C 
ATOM      7  O   UNL A   1      49.061  22.597  37.222  1.00  0.00    -0.250 OA
BRANCH   6   8
ATOM      8  C   UNL A   1      48.167  20.326  36.949  1.00  0.00     0.195 C 
ATOM      9  N   UNL A   1      47.305  20.577  38.078  1.00  0.00    -0.325 N 
ATOM     10  C   UNL A   1      46.011  21.032  37.610  1.00  0.00     0.121 C 
ATOM     11  C   UNL A   1      45.802  20.216  36.344  1.00  0.00     0.024 C 
ATOM     12  C   UNL A   1      47.213  19.959  35.804  1.00  0.00     0.039 C 
BRANCH   9  13
ATOM     13  C   UNL A   1      47.799  20.277  39.326  1.00  0.00     0.257 C 
ATOM     14  O   UNL A   1      48.619  21.010  39.883  1.00  0.00    -0.269 OA
BRANCH  13  15
ATOM     15  C   UNL A   1      47.465  19.015  40.010  1.00  0.00     0.077 A 
ATOM     16  C   UNL A   1      45.841  17.767  41.299  1.00  0.00     0.083 A 
ATOM     17  C   UNL A   1      46.793  16.779  41.570  1.00  0.00     0.025 A 
ATOM     18  C   UNL A   1      46.159  18.868  40.500  1.00  0.00     0.038 A 
ATOM     19  C   UNL A   1      48.097  16.944  41.111  1.00  0.00     0.041 A 
ATOM     20  C   UNL A   1      48.433  18.076  40.371  1.00  0.00     0.136 A 
ATOM     21  F   UNL A   1      49.731  18.258  40.091  1.00  0.00    -0.206 F 
BRANCH  16  22
ATOM     22  S   UNL A   1      44.209  17.634  41.985  1.00  0.00     0.243 S 
ATOM     23  O   UNL A   1      43.571  18.929  41.866  1.00  0.00    -0.207 OA
ATOM     24  O   UNL A   1      44.367  17.008  43.279  1.00  0.00    -0.207 OA
BRANCH  22  25
ATOM     25  N   UNL A   1      43.401  16.551  40.932  1.00  0.00    -0.198 NA
BRANCH  25  26
ATOM     26  C   UNL A   1      44.187  16.127  39.730  1.00  0.00     0.099 C 
ATOM     27  C   UNL A   1      43.843  16.904  38.477  1.00  0.00     0.022 C 
ENDBRANCH  25  26
BRANCH  25  28
ATOM     28  C   UNL A   1      42.668  15.393  41.531  1.00  0.00     0.099 C 
ATOM     29  C   UNL A   1      41.991  14.486  40.518  1.00  0.00     0.022 C 
ENDBRANCH  25  28
ENDBRANCH  22  25
ENDBRANCH  16  22
ENDBRANCH  13  15
ENDBRANCH   9  13
ENDBRANCH   6   8
ENDBRANCH   5   6
ENDBRANCH   4   5
ENDBRANCH   3   4
ENDBRANCH   2   3
ENDBRANCH   1   2
BRANCH   1  30
ATOM     30  C   UNL A   1      52.769  25.533  34.741  1.00  0.00     0.188 C 
BRANCH  30  31
ATOM     31  O   UNL A   1      52.962  26.862  35.192  1.00  0.00    -0.377 OA
BRANCH  31  32
ATOM     32  C   UNL A   1      52.896  27.937  34.254  1.00  0.00     0.188 C 
BRANCH  32  33
ATOM     33  C   UNL A   1      52.081  29.229  34.517  1.00  0.00     0.188 C 
BRANCH  33  34
ATOM     34  O   UNL A   1      50.859  29.043  35.210  1.00  0.00    -0.376 OA
BRANCH  34  35
ATOM     35  C   UNL A   1      50.914  28.665  36.573  1.00  0.00     0.202 C 
BRANCH  35  36
ATOM     36  C   UNL A   1      49.741  27.834  37.106  1.00  0.00     0.261 C 
BRANCH  36  37
ATOM     37  O   UNL A   1      48.729  27.490  36.149  1.00  0.00    -0.460 OA
BRANCH  37  38
ATOM     38  C   UNL A   1      47.658  26.798  36.592  1.00  0.00     0.338 C 
ATOM     39  O   UNL A   1      47.570  26.133  37.611  1.00  0.00    -0.246 OA
BRANCH  38  40
ATOM     40  C   UNL A   1      46.533  27.122  35.696  1.00  0.00     0.060 A 
ATOM     41  C   UNL A   1      46.532  28.331  34.982  1.00  0.00     0.016 A 
ATOM     42  C   UNL A   1      45.490  26.208  35.552  1.00  0.00     0.016 A 
ATOM     43  C   UNL A   1      45.463  28.640  34.138  1.00  0.00     0.010 A 
ATOM     44  C   UNL A   1      44.411  26.530  34.732  1.00  0.00     0.010 A 
ATOM     45  C   UNL A   1      44.377  27.759  34.049  1.00  0.00    -0.014 A 
BRANCH  45  46
ATOM     46  C   UNL A   1      43.095  28.189  33.447  1.00  0.00     0.031 A 
ATOM     47  C   UNL A   1      42.853  27.828  32.008  1.00  0.00     0.074 A 
ATOM     48  C   UNL A   1      42.201  28.929  34.125  1.00  0.00     0.049 A 
ATOM     49  N   UNL A   1      41.940  28.267  31.183  1.00  0.00    -0.248 NA
ATOM     50  C   UNL A   1      43.782  26.849  31.414  1.00  0.00     0.031 C 
ATOM     51  C   UNL A   1      42.297  29.292  35.536  1.00  0.00     0.029 A 
ATOM     52  N   UNL A   1      41.046  29.537  33.697  1.00  0.00    -0.354 N 
ATOM     53  C   UNL A   1      42.201  27.642  29.972  1.00  0.00     0.074 A 
ATOM     54  C   UNL A   1      43.359  26.799  30.160  1.00  0.00     0.031 C 
ATOM     55  C   UNL A   1      41.259  30.088  35.852  1.00  0.00     0.029 A 
ATOM     56  C   UNL A   1      40.458  30.330  34.651  1.00  0.00     0.049 A 
ATOM     57  H   UNL A   1      40.675  29.414  32.792  1.00  0.00     0.167 HD
ATOM     58  C   UNL A   1      41.530  27.768  28.807  1.00  0.00     0.037 A 
ATOM     59  C   UNL A   1      39.423  31.189  34.548  1.00  0.00     0.037 A 
ATOM     60  C   UNL A   1      40.366  28.592  28.635  1.00  0.00     0.049 A 
ATOM     61  C   UNL A   1      38.737  31.369  33.214  1.00  0.00     0.074 A 
ATOM     62  C   UNL A   1      39.598  28.762  27.498  1.00  0.00     0.029 A 
ATOM     63  N   UNL A   1      39.805  29.382  29.626  1.00  0.00    -0.354 N 
ATOM     64  N   UNL A   1      38.984  30.778  32.071  1.00  0.00    -0.248 NA
ATOM     65  C   UNL A   1      37.635  32.344  33.151  1.00  0.00     0.031 C 
ATOM     66  C   UNL A   1      38.608  29.703  27.781  1.00  0.00     0.029 A 
ATOM     67  C   UNL A   1      38.714  30.062  29.116  1.00  0.00     0.049 A 
ATOM     68  H   UNL A   1      40.132  29.448  30.552  1.00  0.00     0.167 HD
ATOM     69  C   UNL A   1      38.047  31.274  31.171  1.00  0.00     0.074 A 
ATOM     70  C   UNL A   1      37.227  32.219  31.895  1.00  0.00     0.031 C 
ATOM     71  C   UNL A   1      37.882  30.968  29.863  1.00  0.00     0.037 A 
BRANCH  58  72
ATOM     72  C   UNL A   1      42.024  27.017  27.610  1.00  0.00     0.064 A 
ATOM     73  C   UNL A   1      41.609  25.695  27.392  1.00  0.00     0.173 A 
ATOM     74  C   UNL A   1      43.003  27.551  26.763  1.00  0.00     0.173 A 
ATOM     75  F   UNL A   1      40.675  25.140  28.178  1.00  0.00    -0.203 F 
ATOM     76  C   UNL A   1      42.190  24.919  26.393  1.00  0.00     0.198 A 
ATOM     77  C   UNL A   1      43.563  26.781  25.747  1.00  0.00     0.198 A 
ATOM     78  F   UNL A   1      43.419  28.817  26.924  1.00  0.00    -0.203 F 
ATOM     79  F   UNL A   1      41.821  23.641  26.240  1.00  0.00    -0.200 F 
ATOM     80  C   UNL A   1      43.168  25.462  25.574  1.00  0.00     0.200 A 
ATOM     81  F   UNL A   1      44.495  27.312  24.943  1.00  0.00    -0.200 F 
ATOM     82  F   UNL A   1      43.739  24.710  24.622  1.00  0.00    -0.200 F 
ENDBRANCH  58  72
BRANCH  59  83
ATOM     83  C   UNL A   1      38.993  31.988  35.726  1.00  0.00     0.064 A 
ATOM     84  C   UNL A   1      39.349  33.337  35.858  1.00  0.00     0.173 A 
ATOM     85  C   UNL A   1      38.181  31.430  36.724  1.00  0.00     0.173 A 
ATOM     86  F   UNL A   1      40.111  33.929  34.926  1.00  0.00    -0.203 F 
ATOM     87  C   UNL A   1      38.917  34.091  36.946  1.00  0.00     0.198 A 
ATOM     88  C   UNL A   1      37.727  32.195  37.797  1.00  0.00     0.198 A 
ATOM     89  F   UNL A   1      37.780  30.154  36.624  1.00  0.00    -0.203 F 
ATOM     90  F   UNL A   1      39.272  35.376  37.046  1.00  0.00    -0.200 F 
ATOM     91  C   UNL A   1      38.101  33.524  37.911  1.00  0.00     0.200 A 
ATOM     92  F   UNL A   1      36.903  31.652  38.704  1.00  0.00    -0.200 F 
ATOM     93  F   UNL A   1      37.661  34.263  38.938  1.00  0.00    -0.200 F 
ENDBRANCH  59  83
BRANCH  71  94
ATOM     94  C   UNL A   1      36.740  31.593  29.117  1.00  0.00     0.064 A 
ATOM     95  C   UNL A   1      36.752  32.973  28.852  1.00  0.00     0.173 A 
ATOM     96  C   UNL A   1      35.579  30.873  28.810  1.00  0.00     0.173 A 
ATOM     97  F   UNL A   1      37.837  33.707  29.143  1.00  0.00    -0.203 F 
ATOM     98  C   UNL A   1      35.626  33.614  28.346  1.00  0.00     0.198 A 
ATOM     99  C   UNL A   1      34.465  31.513  28.274  1.00  0.00     0.198 A 
ATOM    100  F   UNL A   1      35.524  29.552  29.038  1.00  0.00    -0.203 F 
ATOM    101  F   UNL A   1      35.638  34.941  28.164  1.00  0.00    -0.200 F 
ATOM    102  C   UNL A   1      34.483  32.884  28.060  1.00  0.00     0.200 A 
ATOM    103  F   UNL A   1      33.364  30.806  27.982  1.00  0.00    -0.200 F 
ATOM    104  F   UNL A   1      33.394  33.505  27.585  1.00  0.00    -0.200 F 
ENDBRANCH  71  94
ENDBRANCH  45  46
ENDBRANCH  38  40
ENDBRANCH  37  38
ENDBRANCH  36  37
ENDBRANCH  35  36
ENDBRANCH  34  35
ENDBRANCH  33  34
ENDBRANCH  32  33
ENDBRANCH  31  32
ENDBRANCH  30  31
ENDBRANCH   1  30
TORSDOF 26
ENDMDL
MODEL 3
REMARK VINA RESULT:      -7.8      0.707      7.035
REMARK SMILES CCN(CC)S(=O)(=O)c1ccc(F)c(C(=O)N2CCC[C@H]2C(=O)OCCOCCOCCOCCOC(=O)c2ccc(-c3c4nc(c(-c5c(F)c(F)c(F)c(F)c5F)c5ccc([nH]5)c(-c5c(F)c(F)c(F)c(F)c5F)c5nc(c(-c6c(F)c(F)c(F)c(F)c6F)c6ccc3[nH]6)C=C5)C=C4)cc2)c1
REMARK SMILES IDX 28 1 27 2 26 3 25 4 24 5 22 6 23 7 21 8 17 9 18 10 19 11
REMARK SMILES IDX 20 12 15 13 16 14 14 15 9 16 10 17 102 18 11 19 12 20 13 21
REMARK SMILES IDX 6 22 7 23 8 24 3 25 2 26 1 27 4 28 5 29 29 30 30 31 31 32
REMARK SMILES IDX 32 33 33 34 34 35 35 36 36 37 37 38 38 39 39 40 40 41 101 42
REMARK SMILES IDX 41 43 100 44 42 45 43 46 44 47 94 48 45 49 99 50 93 51 95 52
REMARK SMILES IDX 46 53 98 54 92 55 91 56 47 58 79 59 59 60 78 61 60 62 63 63
REMARK SMILES IDX 77 64 96 65 61 66 62 67 76 69 97 70 64 71 48 72 49 73 57 74
REMARK SMILES IDX 50 75 51 76 55 77 58 78 52 79 53 80 56 81 54 82 80 83 81 84
REMARK SMILES IDX 89 85 82 86 83 87 87 88 90 89 84 90 85 91 88 92 86 93 65 94
REMARK SMILES IDX 66 95 74 96 67 97 68 98 72 99 75 100 69 101 70 102 73 103
REMARK SMILES IDX 71 104
REMARK H PARENT 95 57 63 68
REMARK Flexibility Score: inf
ROOT
ATOM      1  C   UNL A   1      38.812  24.125  27.059  1.00  0.00     0.188 C 
ENDROOT
BRANCH   1   2
ATOM      2  O   UNL A   1      38.710  23.117  26.065  1.00  0.00    -0.376 OA
BRANCH   2   3
ATOM      3  C   UNL A   1      37.434  22.704  25.603  1.00  0.00     0.202 C 
BRANCH   3   4
ATOM      4  C   UNL A   1      36.179  23.445  26.083  1.00  0.00     0.261 C 
BRANCH   4   5
ATOM      5  O   UNL A   1      35.387  23.971  25.023  1.00  0.00    -0.462 OA
BRANCH   5   6
ATOM      6  C   UNL A   1      34.805  23.099  24.164  1.00  0.00     0.328 C 
ATOM      7  O   UNL A   1      34.978  23.075  22.952  1.00  0.00    -0.250 OA
BRANCH   6   8
ATOM      8  C   UNL A   1      33.973  22.095  24.968  1.00  0.00     0.195 C 
ATOM      9  N   UNL A   1      32.573  22.157  24.630  1.00  0.00    -0.325 N 
ATOM     10  C   UNL A   1      32.276  21.176  23.605  1.00  0.00     0.121 C 
ATOM     11  C   UNL A   1      33.171  20.007  23.985  1.00  0.00     0.024 C 
ATOM     12  C   UNL A   1      34.382  20.646  24.672  1.00  0.00     0.039 C 
BRANCH   9  13
ATOM     13  C   UNL A   1      31.787  23.022  25.355  1.00  0.00     0.257 C 
ATOM     14  O   UNL A   1      31.269  22.676  26.418  1.00  0.00    -0.269 OA
BRANCH  13  15
ATOM     15  C   UNL A   1      31.431  24.359  24.848  1.00  0.00     0.077 A 
ATOM     16  C   UNL A   1      31.321  26.737  25.283  1.00  0.00     0.083 A 
ATOM     17  C   UNL A   1      30.561  26.929  24.124  1.00  0.00     0.025 A 
ATOM     18  C   UNL A   1      31.782  25.467  25.635  1.00  0.00     0.038 A 
ATOM     19  C   UNL A   1      30.186  25.825  23.364  1.00  0.00     0.041 A 
ATOM     20  C   UNL A   1      30.588  24.548  23.751  1.00  0.00     0.136 A 
ATOM     21  F   UNL A   1      30.070  23.514  23.074  1.00  0.00    -0.206 F 
BRANCH  16  22
ATOM     22  S   UNL A   1      31.699  28.119  26.332  1.00  0.00     0.243 S 
ATOM     23  O   UNL A   1      31.599  27.674  27.706  1.00  0.00    -0.207 OA
ATOM     24  O   UNL A   1      30.890  29.218  25.853  1.00  0.00    -0.207 OA
BRANCH  22  25
ATOM     25  N   UNL A   1      33.348  28.450  26.005  1.00  0.00    -0.198 NA
BRANCH  25  26
ATOM     26  C   UNL A   1      33.939  27.682  24.864  1.00  0.00     0.099 C 
ATOM     27  C   UNL A   1      34.285  28.546  23.669  1.00  0.00     0.022 C 
ENDBRANCH  25  26
BRANCH  25  28
ATOM     28  C   UNL A   1      33.793  29.879  25.979  1.00  0.00     0.099 C 
ATOM     29  C   UNL A   1      34.044  30.484  27.351  1.00  0.00     0.022 C 
ENDBRANCH  25  28
ENDBRANCH  22  25
ENDBRANCH  16  22
ENDBRANCH  13  15
ENDBRANCH   9  13
ENDBRANCH   6   8
ENDBRANCH   5   6
ENDBRANCH   4   5
ENDBRANCH   3   4
ENDBRANCH   2   3
ENDBRANCH   1   2
BRANCH   1  30
ATOM     30  C   UNL A   1      40.266  24.477  27.439  1.00  0.00     0.188 C 
BRANCH  30  31
ATOM     31  O   UNL A   1      41.298  23.819  26.724  1.00  0.00    -0.377 OA
BRANCH  31  32
ATOM     32  C   UNL A   1      42.654  23.991  27.135  1.00  0.00     0.188 C 
BRANCH  32  33
ATOM     33  C   UNL A   1      43.502  25.224  26.730  1.00  0.00     0.188 C 
BRANCH  33  34
ATOM     34  O   UNL A   1      44.835  24.940  26.340  1.00  0.00    -0.376 OA
BRANCH  34  35
ATOM     35  C   UNL A   1      45.600  24.074  27.157  1.00  0.00     0.202 C 
BRANCH  35  36
ATOM     36  C   UNL A   1      46.127  24.657  28.474  1.00  0.00     0.261 C 
BRANCH  36  37
ATOM     37  O   UNL A   1      46.287  26.082  28.511  1.00  0.00    -0.460 OA
BRANCH  37  38
ATOM     38  C   UNL A   1      47.525  26.567  28.743  1.00  0.00     0.338 C 
ATOM     39  O   UNL A   1      48.549  25.933  28.942  1.00  0.00    -0.246 OA
BRANCH  38  40
ATOM     40  C   UNL A   1      47.460  28.027  28.550  1.00  0.00     0.060 A 
ATOM     41  C   UNL A   1      47.806  28.890  29.602  1.00  0.00     0.016 A 
ATOM     42  C   UNL A   1      47.073  28.535  27.309  1.00  0.00     0.016 A 
ATOM     43  C   UNL A   1      47.738  30.273  29.419  1.00  0.00     0.010 A 
ATOM     44  C   UNL A   1      46.979  29.914  27.138  1.00  0.00     0.010 A 
ATOM     45  C   UNL A   1      47.278  30.786  28.200  1.00  0.00    -0.014 A 
BRANCH  45  46
ATOM     46  C   UNL A   1      46.872  32.204  28.074  1.00  0.00     0.031 A 
ATOM     47  C   UNL A   1      47.909  33.179  27.594  1.00  0.00     0.074 A 
ATOM     48  C   UNL A   1      45.649  32.630  28.435  1.00  0.00     0.049 A 
ATOM     49  N   UNL A   1      47.895  34.485  27.613  1.00  0.00    -0.248 NA
ATOM     50  C   UNL A   1      49.142  32.598  27.031  1.00  0.00     0.031 C 
ATOM     51  C   UNL A   1      44.544  31.775  28.859  1.00  0.00     0.029 A 
ATOM     52  N   UNL A   1      45.147  33.906  28.529  1.00  0.00    -0.354 N 
ATOM     53  C   UNL A   1      49.120  34.879  27.092  1.00  0.00     0.074 A 
ATOM     54  C   UNL A   1      49.861  33.680  26.773  1.00  0.00     0.031 C 
ATOM     55  C   UNL A   1      43.500  32.553  29.201  1.00  0.00     0.029 A 
ATOM     56  C   UNL A   1      43.884  33.959  29.068  1.00  0.00     0.049 A 
ATOM     57  H   UNL A   1      45.644  34.705  28.238  1.00  0.00     0.167 HD
ATOM     58  C   UNL A   1      49.581  36.134  26.904  1.00  0.00     0.037 A 
ATOM     59  C   UNL A   1      43.149  35.022  29.453  1.00  0.00     0.037 A 
ATOM     60  C   UNL A   1      48.828  37.320  27.204  1.00  0.00     0.049 A 
ATOM     61  C   UNL A   1      43.719  36.413  29.301  1.00  0.00     0.074 A 
ATOM     62  C   UNL A   1      49.200  38.639  27.019  1.00  0.00     0.029 A 
ATOM     63  N   UNL A   1      47.555  37.330  27.751  1.00  0.00    -0.354 N 
ATOM     64  N   UNL A   1      44.876  36.784  28.809  1.00  0.00    -0.248 NA
ATOM     65  C   UNL A   1      42.887  37.534  29.769  1.00  0.00     0.031 C 
ATOM     66  C   UNL A   1      48.178  39.450  27.511  1.00  0.00     0.029 A 
ATOM     67  C   UNL A   1      47.138  38.636  27.934  1.00  0.00     0.049 A 
ATOM     68  H   UNL A   1      47.028  36.530  27.974  1.00  0.00     0.167 HD
ATOM     69  C   UNL A   1      44.891  38.172  28.868  1.00  0.00     0.074 A 
ATOM     70  C   UNL A   1      43.632  38.584  29.447  1.00  0.00     0.031 C 
ATOM     71  C   UNL A   1      45.863  39.028  28.473  1.00  0.00     0.037 A 
BRANCH  58  72
ATOM     72  C   UNL A   1      50.964  36.316  26.359  1.00  0.00     0.064 A 
ATOM     73  C   UNL A   1      52.038  36.534  27.234  1.00  0.00     0.173 A 
ATOM     74  C   UNL A   1      51.202  36.410  24.982  1.00  0.00     0.173 A 
ATOM     75  F   UNL A   1      51.857  36.456  28.561  1.00  0.00    -0.203 F 
ATOM     76  C   UNL A   1      53.295  36.882  26.750  1.00  0.00     0.198 A 
ATOM     77  C   UNL A   1      52.468  36.732  24.499  1.00  0.00     0.198 A 
ATOM     78  F   UNL A   1      50.208  36.193  24.107  1.00  0.00    -0.203 F 
ATOM     79  F   UNL A   1      54.293  37.143  27.605  1.00  0.00    -0.200 F 
ATOM     80  C   UNL A   1      53.507  36.984  25.383  1.00  0.00     0.200 A 
ATOM     81  F   UNL A   1      52.678  36.811  23.178  1.00  0.00    -0.200 F 
ATOM     82  F   UNL A   1      54.714  37.335  24.917  1.00  0.00    -0.200 F 
ENDBRANCH  58  72
BRANCH  59  83
ATOM     83  C   UNL A   1      41.809  34.822  30.066  1.00  0.00     0.064 A 
ATOM     84  C   UNL A   1      40.637  34.945  29.306  1.00  0.00     0.173 A 
ATOM     85  C   UNL A   1      41.674  34.460  31.414  1.00  0.00     0.173 A 
ATOM     86  F   UNL A   1      40.706  35.274  28.008  1.00  0.00    -0.203 F 
ATOM     87  C   UNL A   1      39.386  34.723  29.875  1.00  0.00     0.198 A 
ATOM     88  C   UNL A   1      40.422  34.211  31.973  1.00  0.00     0.198 A 
ATOM     89  F   UNL A   1      42.767  34.290  32.173  1.00  0.00    -0.203 F 
ATOM     90  F   UNL A   1      38.286  34.848  29.126  1.00  0.00    -0.200 F 
ATOM     91  C   UNL A   1      39.277  34.350  31.204  1.00  0.00     0.200 A 
ATOM     92  F   UNL A   1      40.327  33.808  33.247  1.00  0.00    -0.200 F 
ATOM     93  F   UNL A   1      38.073  34.105  31.738  1.00  0.00    -0.200 F 
ENDBRANCH  59  83
BRANCH  71  94
ATOM     94  C   UNL A   1      45.609  40.503  28.577  1.00  0.00     0.064 A 
ATOM     95  C   UNL A   1      45.076  41.198  27.478  1.00  0.00     0.173 A 
ATOM     96  C   UNL A   1      46.034  41.247  29.684  1.00  0.00     0.173 A 
ATOM     97  F   UNL A   1      44.668  40.530  26.389  1.00  0.00    -0.203 F 
ATOM     98  C   UNL A   1      45.017  42.588  27.471  1.00  0.00     0.198 A 
ATOM     99  C   UNL A   1      45.945  42.636  29.685  1.00  0.00     0.198 A 
ATOM    100  F   UNL A   1      46.543  40.627  30.759  1.00  0.00    -0.203 F 
ATOM    101  F   UNL A   1      44.566  43.232  26.386  1.00  0.00    -0.200 F 
ATOM    102  C   UNL A   1      45.455  43.306  28.573  1.00  0.00     0.200 A 
ATOM    103  F   UNL A   1      46.353  43.331  30.757  1.00  0.00    -0.200 F 
ATOM    104  F   UNL A   1      45.411  44.646  28.560  1.00  0.00    -0.200 F 
ENDBRANCH  71  94
ENDBRANCH  45  46
ENDBRANCH  38  40
ENDBRANCH  37  38
ENDBRANCH  36  37
ENDBRANCH  35  36
ENDBRANCH  34  35
ENDBRANCH  33  34
ENDBRANCH  32  33
ENDBRANCH  31  32
ENDBRANCH  30  31
ENDBRANCH   1  30
TORSDOF 26
ENDMDL
