MODEL 1
REMARK VINA RESULT:     -11.2      0.000      0.000
REMARK SMILES O=C(OCCOCCOCCOCCOC(=O)c1ccc(-c2c3nc(c(-c4c(F)c(F)c(F)c(F)c4F)c4ccc([nH]4)c(-c4c(F)c(F)c(F)c(F)c4F)c4nc(c(-c5c(F)c(F)c(F)c(F)c5F)c5ccc2[nH]5)C=C4)C=C3)cc1)C1=Cc2cc(S(F)(F)(F)(F)F)cc(Br)c2O[C@H]1C(F)(F)F
REMARK SMILES IDX 10 1 9 2 8 3 7 4 6 5 5 6 4 7 3 8 2 9 1 10 81 11 82 12 97 13
REMARK SMILES IDX 83 14 96 15 84 16 95 17 85 18 93 19 92 20 94 21 98 22 99 23
REMARK SMILES IDX 100 24 101 25 86 26 87 27 88 28 89 29 90 30 91 31 11 32
REMARK SMILES IDX 12 33 13 34 14 35 15 36 16 37 17 38 18 39 19 40 80 41 20 42
REMARK SMILES IDX 79 43 21 44 22 45 23 46 73 47 24 48 78 49 72 50 74 51 25 52
REMARK SMILES IDX 77 53 71 54 70 55 26 57 58 58 38 59 57 60 39 61 42 62 56 63
REMARK SMILES IDX 75 64 40 65 41 66 55 68 76 69 43 70 27 71 28 72 36 73 29 74
REMARK SMILES IDX 30 75 34 76 37 77 31 78 32 79 35 80 33 81 59 82 60 83 68 84
REMARK SMILES IDX 61 85 62 86 66 87 69 88 63 89 64 90 67 91 65 92 44 93 45 94
REMARK SMILES IDX 53 95 46 96 47 97 51 98 54 99 48 100 49 101 52 102 50 103
REMARK H PARENT 74 56 42 67
REMARK Flexibility Score: inf
ROOT
ATOM      1  C   UNL A   1      35.115  32.764  28.062  1.00  0.00     0.188 C 
ENDROOT
BRANCH   1   2
ATOM      2  O   UNL A   1      34.666  31.417  28.049  1.00  0.00    -0.377 OA
BRANCH   2   3
ATOM      3  C   UNL A   1      35.701  30.577  27.557  1.00  0.00     0.188 C 
BRANCH   3   4
ATOM      4  C   UNL A   1      35.177  29.157  27.418  1.00  0.00     0.188 C 
BRANCH   4   5
ATOM      5  O   UNL A   1      33.759  29.166  27.488  1.00  0.00    -0.376 OA
BRANCH   5   6
ATOM      6  C   UNL A   1      33.247  27.999  26.863  1.00  0.00     0.202 C 
BRANCH   6   7
ATOM      7  C   UNL A   1      32.288  28.397  25.752  1.00  0.00     0.261 C 
BRANCH   7   8
ATOM      8  O   UNL A   1      31.176  27.514  25.748  1.00  0.00    -0.460 OA
BRANCH   8   9
ATOM      9  C   UNL A   1      30.589  27.118  24.517  1.00  0.00     0.338 C 
ATOM     10  O   UNL A   1      29.446  26.562  24.509  1.00  0.00    -0.246 OA
BRANCH   9  11
ATOM     11  C   UNL A   1      31.327  27.358  23.210  1.00  0.00     0.087 C 
ATOM     12  C   UNL A   1      32.376  26.563  22.866  1.00  0.00     0.027 C 
ATOM     13  C   UNL A   1      30.894  28.486  22.289  1.00  0.00     0.316 C 
ATOM     14  C   UNL A   1      32.809  25.435  23.788  1.00  0.00     0.020 A 
ATOM     15  O   UNL A   1      30.528  24.863  24.132  1.00  0.00    -0.474 OA
ATOM     16  C   UNL A   1      34.156  25.330  24.092  1.00  0.00     0.036 A 
ATOM     17  C   UNL A   1      31.913  24.626  24.340  1.00  0.00     0.142 A 
ATOM     18  C   UNL A   1      34.498  24.140  24.778  1.00  0.00     0.109 A 
ATOM     19  C   UNL A   1      32.314  23.562  25.111  1.00  0.00     0.062 A 
ATOM     20  C   UNL A   1      33.633  23.362  25.404  1.00  0.00     0.044 A 
ATOM     21  Br  UNL A   1      30.972  22.311  25.803  1.00  0.00    -0.047 Br
BRANCH  13  22
ATOM     22  C   UNL A   1      29.709  29.215  22.902  1.00  0.00     0.430 C 
ATOM     23  F   UNL A   1      30.057  29.707  24.089  1.00  0.00    -0.167 F 
ATOM     24  F   UNL A   1      29.338  30.211  22.102  1.00  0.00    -0.167 F 
ATOM     25  F   UNL A   1      28.697  28.367  23.054  1.00  0.00    -0.167 F 
ENDBRANCH  13  22
BRANCH  18  26
ATOM     26  S   UNL A   1      36.240  23.651  24.798  1.00  0.00     0.310 S 
ATOM     27  F   UNL A   1      35.927  22.348  25.648  1.00  0.00    -0.094 F 
ATOM     28  F   UNL A   1      36.416  24.416  26.164  1.00  0.00    -0.094 F 
ATOM     29  F   UNL A   1      37.736  23.225  24.812  1.00  0.00    -0.094 F 
ATOM     30  F   UNL A   1      36.011  22.773  23.505  1.00  0.00    -0.094 F 
ATOM     31  F   UNL A   1      34.695  23.980  24.831  1.00  0.00    -0.094 F 
ENDBRANCH  18  26
ENDBRANCH   9  11
ENDBRANCH   8   9
ENDBRANCH   7   8
ENDBRANCH   6   7
ENDBRANCH   5   6
ENDBRANCH   4   5
ENDBRANCH   3   4
ENDBRANCH   2   3
ENDBRANCH   1   2
BRANCH   1  32
ATOM     32  C   UNL A   1      34.619  33.451  29.323  1.00  0.00     0.188 C 
BRANCH  32  33
ATOM     33  O   UNL A   1      34.603  34.857  29.122  1.00  0.00    -0.376 OA
BRANCH  33  34
ATOM     34  C   UNL A   1      33.261  35.298  28.972  1.00  0.00     0.202 C 
BRANCH  34  35
ATOM     35  C   UNL A   1      33.027  36.516  29.851  1.00  0.00     0.261 C 
BRANCH  35  36
ATOM     36  O   UNL A   1      32.186  36.159  30.939  1.00  0.00    -0.460 OA
BRANCH  36  37
ATOM     37  C   UNL A   1      32.709  36.120  32.258  1.00  0.00     0.338 C 
ATOM     38  O   UNL A   1      32.187  36.837  33.169  1.00  0.00    -0.246 OA
BRANCH  37  39
ATOM     39  C   UNL A   1      33.890  35.220  32.581  1.00  0.00     0.060 A 
ATOM     40  C   UNL A   1      35.155  35.779  32.486  1.00  0.00     0.016 A 
ATOM     41  C   UNL A   1      33.715  33.987  33.039  1.00  0.00     0.016 A 
ATOM     42  C   UNL A   1      36.206  34.844  32.631  1.00  0.00     0.010 A 
ATOM     43  C   UNL A   1      34.794  33.173  33.288  1.00  0.00     0.010 A 
ATOM     44  C   UNL A   1      36.072  33.641  33.158  1.00  0.00    -0.014 A 
BRANCH  44  45
ATOM     45  C   UNL A   1      37.273  32.819  33.598  1.00  0.00     0.031 A 
ATOM     46  C   UNL A   1      37.941  33.156  34.776  1.00  0.00     0.074 A 
ATOM     47  C   UNL A   1      37.714  31.857  32.705  1.00  0.00     0.049 A 
ATOM     48  N   UNL A   1      39.062  32.617  35.258  1.00  0.00    -0.248 NA
ATOM     49  C   UNL A   1      37.493  34.201  35.709  1.00  0.00     0.031 C 
ATOM     50  C   UNL A   1      37.040  31.506  31.520  1.00  0.00     0.029 A 
ATOM     51  N   UNL A   1      38.851  31.084  32.789  1.00  0.00    -0.354 N 
ATOM     52  C   UNL A   1      39.386  33.189  36.420  1.00  0.00     0.074 A 
ATOM     53  C   UNL A   1      38.384  34.220  36.723  1.00  0.00     0.031 C 
ATOM     54  C   UNL A   1      37.765  30.543  30.892  1.00  0.00     0.029 A 
ATOM     55  C   UNL A   1      38.904  30.275  31.676  1.00  0.00     0.049 A 
ATOM     56  H   UNL A   1      39.510  31.106  33.520  1.00  0.00     0.167 HD
ATOM     57  C   UNL A   1      40.475  32.888  37.239  1.00  0.00     0.037 A 
ATOM     58  C   UNL A   1      39.884  29.354  31.343  1.00  0.00     0.037 A 
ATOM     59  C   UNL A   1      41.432  31.935  36.927  1.00  0.00     0.049 A 
ATOM     60  C   UNL A   1      41.005  29.095  32.134  1.00  0.00     0.074 A 
ATOM     61  C   UNL A   1      42.533  31.614  37.745  1.00  0.00     0.029 A 
ATOM     62  N   UNL A   1      41.500  31.144  35.801  1.00  0.00    -0.354 N 
ATOM     63  N   UNL A   1      41.308  29.638  33.314  1.00  0.00    -0.248 NA
ATOM     64  C   UNL A   1      42.066  28.144  31.776  1.00  0.00     0.031 C 
ATOM     65  C   UNL A   1      43.258  30.652  37.118  1.00  0.00     0.029 A 
ATOM     66  C   UNL A   1      42.624  30.354  35.897  1.00  0.00     0.049 A 
ATOM     67  H   UNL A   1      40.855  31.144  35.057  1.00  0.00     0.167 HD
ATOM     68  C   UNL A   1      42.451  29.127  33.776  1.00  0.00     0.074 A 
ATOM     69  C   UNL A   1      42.959  28.163  32.790  1.00  0.00     0.031 C 
ATOM     70  C   UNL A   1      43.089  29.423  34.982  1.00  0.00     0.037 A 
BRANCH  57  71
ATOM     71  C   UNL A   1      40.621  33.649  38.547  1.00  0.00     0.064 A 
ATOM     72  C   UNL A   1      41.397  34.788  38.684  1.00  0.00     0.173 A 
ATOM     73  C   UNL A   1      39.891  33.187  39.555  1.00  0.00     0.173 A 
ATOM     74  F   UNL A   1      41.937  35.426  37.650  1.00  0.00    -0.203 F 
ATOM     75  C   UNL A   1      41.562  35.211  40.024  1.00  0.00     0.198 A 
ATOM     76  C   UNL A   1      40.003  33.738  40.809  1.00  0.00     0.198 A 
ATOM     77  F   UNL A   1      39.043  32.183  39.350  1.00  0.00    -0.203 F 
ATOM     78  F   UNL A   1      42.557  36.053  40.290  1.00  0.00    -0.200 F 
ATOM     79  C   UNL A   1      40.798  34.828  41.031  1.00  0.00     0.200 A 
ATOM     80  F   UNL A   1      39.329  33.201  41.823  1.00  0.00    -0.200 F 
ATOM     81  F   UNL A   1      40.800  35.469  42.196  1.00  0.00    -0.200 F 
ENDBRANCH  57  71
BRANCH  58  82
ATOM     82  C   UNL A   1      39.728  28.581  30.043  1.00  0.00     0.064 A 
ATOM     83  C   UNL A   1      39.146  27.323  30.014  1.00  0.00     0.173 A 
ATOM     84  C   UNL A   1      40.271  29.114  28.956  1.00  0.00     0.173 A 
ATOM     85  F   UNL A   1      38.377  26.857  30.993  1.00  0.00    -0.203 F 
ATOM     86  C   UNL A   1      39.444  26.582  28.846  1.00  0.00     0.198 A 
ATOM     87  C   UNL A   1      40.407  28.373  27.806  1.00  0.00     0.198 A 
ATOM     88  F   UNL A   1      40.685  30.378  28.978  1.00  0.00    -0.203 F 
ATOM     89  F   UNL A   1      39.243  25.267  28.881  1.00  0.00    -0.200 F 
ATOM     90  C   UNL A   1      39.907  27.104  27.725  1.00  0.00     0.200 A 
ATOM     91  F   UNL A   1      41.034  28.900  26.758  1.00  0.00    -0.200 F 
ATOM     92  F   UNL A   1      39.890  26.429  26.579  1.00  0.00    -0.200 F 
ENDBRANCH  58  82
BRANCH  70  93
ATOM     93  C   UNL A   1      44.372  28.677  35.312  1.00  0.00     0.064 A 
ATOM     94  C   UNL A   1      44.232  27.462  35.962  1.00  0.00     0.173 A 
ATOM     95  C   UNL A   1      45.559  29.102  34.895  1.00  0.00     0.173 A 
ATOM     96  F   UNL A   1      43.053  26.883  36.170  1.00  0.00    -0.203 F 
ATOM     97  C   UNL A   1      45.457  26.893  36.385  1.00  0.00     0.198 A 
ATOM     98  C   UNL A   1      46.703  28.422  35.231  1.00  0.00     0.198 A 
ATOM     99  F   UNL A   1      45.639  30.197  34.144  1.00  0.00    -0.203 F 
ATOM    100  F   UNL A   1      45.409  25.939  37.310  1.00  0.00    -0.200 F 
ATOM    101  C   UNL A   1      46.644  27.244  35.924  1.00  0.00     0.200 A 
ATOM    102  F   UNL A   1      47.887  28.914  34.878  1.00  0.00    -0.200 F 
ATOM    103  F   UNL A   1      47.723  26.492  36.122  1.00  0.00    -0.200 F 
ENDBRANCH  70  93
ENDBRANCH  44  45
ENDBRANCH  37  39
ENDBRANCH  36  37
ENDBRANCH  35  36
ENDBRANCH  34  35
ENDBRANCH  33  34
ENDBRANCH  32  33
ENDBRANCH   1  32
TORSDOF 22
ENDMDL
MODEL 2
REMARK VINA RESULT:     -11.0      1.554      3.413
REMARK SMILES O=C(OCCOCCOCCOCCOC(=O)c1ccc(-c2c3nc(c(-c4c(F)c(F)c(F)c(F)c4F)c4ccc([nH]4)c(-c4c(F)c(F)c(F)c(F)c4F)c4nc(c(-c5c(F)c(F)c(F)c(F)c5F)c5ccc2[nH]5)C=C4)C=C3)cc1)C1=Cc2cc(S(F)(F)(F)(F)F)cc(Br)c2O[C@H]1C(F)(F)F
REMARK SMILES IDX 10 1 9 2 8 3 7 4 6 5 5 6 4 7 3 8 2 9 1 10 81 11 82 12 97 13
REMARK SMILES IDX 83 14 96 15 84 16 95 17 85 18 93 19 92 20 94 21 98 22 99 23
REMARK SMILES IDX 100 24 101 25 86 26 87 27 88 28 89 29 90 30 91 31 11 32
REMARK SMILES IDX 12 33 13 34 14 35 15 36 16 37 17 38 18 39 19 40 80 41 20 42
REMARK SMILES IDX 79 43 21 44 22 45 23 46 73 47 24 48 78 49 72 50 74 51 25 52
REMARK SMILES IDX 77 53 71 54 70 55 26 57 58 58 38 59 57 60 39 61 42 62 56 63
REMARK SMILES IDX 75 64 40 65 41 66 55 68 76 69 43 70 27 71 28 72 36 73 29 74
REMARK SMILES IDX 30 75 34 76 37 77 31 78 32 79 35 80 33 81 59 82 60 83 68 84
REMARK SMILES IDX 61 85 62 86 66 87 69 88 63 89 64 90 67 91 65 92 44 93 45 94
REMARK SMILES IDX 53 95 46 96 47 97 51 98 54 99 48 100 49 101 52 102 50 103
REMARK H PARENT 74 56 42 67
REMARK Flexibility Score: inf
ROOT
ATOM      1  C   UNL A   1      35.001  32.377  27.934  1.00  0.00     0.188 C 
ENDROOT
BRANCH   1   2
ATOM      2  O   UNL A   1      34.384  31.120  27.699  1.00  0.00    -0.377 OA
BRANCH   2   3
ATOM      3  C   UNL A   1      35.369  30.097  27.724  1.00  0.00     0.188 C 
BRANCH   3   4
ATOM      4  C   UNL A   1      34.757  28.793  27.239  1.00  0.00     0.188 C 
BRANCH   4   5
ATOM      5  O   UNL A   1      33.662  29.074  26.381  1.00  0.00    -0.376 OA
BRANCH   5   6
ATOM      6  C   UNL A   1      33.574  28.069  25.381  1.00  0.00     0.202 C 
BRANCH   6   7
ATOM      7  C   UNL A   1      33.446  26.706  26.042  1.00  0.00     0.261 C 
BRANCH   7   8
ATOM      8  O   UNL A   1      33.912  25.703  25.151  1.00  0.00    -0.460 OA
BRANCH   8   9
ATOM      9  C   UNL A   1      33.184  24.492  25.001  1.00  0.00     0.338 C 
ATOM     10  O   UNL A   1      33.661  23.547  24.298  1.00  0.00    -0.246 OA
BRANCH   9  11
ATOM     11  C   UNL A   1      31.835  24.327  25.682  1.00  0.00     0.087 C 
ATOM     12  C   UNL A   1      30.740  24.963  25.185  1.00  0.00     0.027 C 
ATOM     13  C   UNL A   1      31.709  23.452  26.918  1.00  0.00     0.316 C 
ATOM     14  C   UNL A   1      30.866  25.839  23.949  1.00  0.00     0.020 A 
ATOM     15  O   UNL A   1      32.242  24.186  22.939  1.00  0.00    -0.474 OA
ATOM     16  C   UNL A   1      30.310  27.107  23.995  1.00  0.00     0.036 A 
ATOM     17  C   UNL A   1      31.551  25.426  22.890  1.00  0.00     0.142 A 
ATOM     18  C   UNL A   1      30.288  27.769  22.745  1.00  0.00     0.109 A 
ATOM     19  C   UNL A   1      31.599  26.187  21.747  1.00  0.00     0.062 A 
ATOM     20  C   UNL A   1      31.022  27.425  21.702  1.00  0.00     0.044 A 
ATOM     21  Br  UNL A   1      32.510  25.488  20.158  1.00  0.00    -0.047 Br
BRANCH  13  22
ATOM     22  C   UNL A   1      33.068  22.862  27.263  1.00  0.00     0.430 C 
ATOM     23  F   UNL A   1      33.993  23.817  27.206  1.00  0.00    -0.167 F 
ATOM     24  F   UNL A   1      33.032  22.354  28.491  1.00  0.00    -0.167 F 
ATOM     25  F   UNL A   1      33.368  21.903  26.393  1.00  0.00    -0.167 F 
ENDBRANCH  13  22
BRANCH  18  26
ATOM     26  S   UNL A   1      29.176  29.185  22.562  1.00  0.00     0.310 S 
ATOM     27  F   UNL A   1      29.484  29.695  24.032  1.00  0.00    -0.094 F 
ATOM     28  F   UNL A   1      28.012  28.322  23.179  1.00  0.00    -0.094 F 
ATOM     29  F   UNL A   1      28.225  30.406  22.405  1.00  0.00    -0.094 F 
ATOM     30  F   UNL A   1      30.387  30.077  22.077  1.00  0.00    -0.094 F 
ATOM     31  F   UNL A   1      30.178  27.991  22.822  1.00  0.00    -0.094 F 
ENDBRANCH  18  26
ENDBRANCH   9  11
ENDBRANCH   8   9
ENDBRANCH   7   8
ENDBRANCH   6   7
ENDBRANCH   5   6
ENDBRANCH   4   5
ENDBRANCH   3   4
ENDBRANCH   2   3
ENDBRANCH   1   2
BRANCH   1  32
ATOM     32  C   UNL A   1      34.401  33.010  29.178  1.00  0.00     0.188 C 
BRANCH  32  33
ATOM     33  O   UNL A   1      34.429  34.424  29.051  1.00  0.00    -0.376 OA
BRANCH  33  34
ATOM     34  C   UNL A   1      33.106  34.910  28.875  1.00  0.00     0.202 C 
BRANCH  34  35
ATOM     35  C   UNL A   1      32.939  36.213  29.639  1.00  0.00     0.261 C 
BRANCH  35  36
ATOM     36  O   UNL A   1      32.098  35.998  30.763  1.00  0.00    -0.460 OA
BRANCH  36  37
ATOM     37  C   UNL A   1      32.645  36.016  32.074  1.00  0.00     0.338 C 
ATOM     38  O   UNL A   1      32.140  36.773  32.962  1.00  0.00    -0.246 OA
BRANCH  37  39
ATOM     39  C   UNL A   1      33.832  35.130  32.414  1.00  0.00     0.060 A 
ATOM     40  C   UNL A   1      35.091  35.703  32.335  1.00  0.00     0.016 A 
ATOM     41  C   UNL A   1      33.664  33.896  32.872  1.00  0.00     0.016 A 
ATOM     42  C   UNL A   1      36.151  34.781  32.496  1.00  0.00     0.010 A 
ATOM     43  C   UNL A   1      34.749  33.094  33.137  1.00  0.00     0.010 A 
ATOM     44  C   UNL A   1      36.024  33.577  33.023  1.00  0.00    -0.014 A 
BRANCH  44  45
ATOM     45  C   UNL A   1      37.228  32.770  33.481  1.00  0.00     0.031 A 
ATOM     46  C   UNL A   1      37.879  33.119  34.665  1.00  0.00     0.074 A 
ATOM     47  C   UNL A   1      37.690  31.809  32.598  1.00  0.00     0.049 A 
ATOM     48  N   UNL A   1      38.999  32.593  35.163  1.00  0.00    -0.248 NA
ATOM     49  C   UNL A   1      37.409  34.162  35.589  1.00  0.00     0.031 C 
ATOM     50  C   UNL A   1      37.033  31.446  31.406  1.00  0.00     0.029 A 
ATOM     51  N   UNL A   1      38.833  31.049  32.698  1.00  0.00    -0.354 N 
ATOM     52  C   UNL A   1      39.303  33.173  36.326  1.00  0.00     0.074 A 
ATOM     53  C   UNL A   1      38.288  34.195  36.613  1.00  0.00     0.031 C 
ATOM     54  C   UNL A   1      37.776  30.488  30.791  1.00  0.00     0.029 A 
ATOM     55  C   UNL A   1      38.908  30.236  31.589  1.00  0.00     0.049 A 
ATOM     56  H   UNL A   1      39.484  31.080  33.436  1.00  0.00     0.167 HD
ATOM     57  C   UNL A   1      40.386  32.888  37.159  1.00  0.00     0.037 A 
ATOM     58  C   UNL A   1      39.901  29.323  31.272  1.00  0.00     0.037 A 
ATOM     59  C   UNL A   1      41.357  31.944  36.863  1.00  0.00     0.049 A 
ATOM     60  C   UNL A   1      41.016  29.079  32.077  1.00  0.00     0.074 A 
ATOM     61  C   UNL A   1      42.451  31.638  37.695  1.00  0.00     0.029 A 
ATOM     62  N   UNL A   1      41.446  31.149  35.741  1.00  0.00    -0.354 N 
ATOM     63  N   UNL A   1      41.299  29.630  33.258  1.00  0.00    -0.248 NA
ATOM     64  C   UNL A   1      42.091  28.138  31.736  1.00  0.00     0.031 C 
ATOM     65  C   UNL A   1      43.194  30.680  37.080  1.00  0.00     0.029 A 
ATOM     66  C   UNL A   1      42.577  30.371  35.853  1.00  0.00     0.049 A 
ATOM     67  H   UNL A   1      40.810  31.139  34.989  1.00  0.00     0.167 HD
ATOM     68  C   UNL A   1      42.442  29.133  33.736  1.00  0.00     0.074 A 
ATOM     69  C   UNL A   1      42.971  28.171  32.760  1.00  0.00     0.031 C 
ATOM     70  C   UNL A   1      43.063  29.441  34.948  1.00  0.00     0.037 A 
BRANCH  57  71
ATOM     71  C   UNL A   1      40.508  33.656  38.465  1.00  0.00     0.064 A 
ATOM     72  C   UNL A   1      41.294  34.786  38.614  1.00  0.00     0.173 A 
ATOM     73  C   UNL A   1      39.748  33.209  39.458  1.00  0.00     0.173 A 
ATOM     74  F   UNL A   1      41.867  35.411  37.590  1.00  0.00    -0.203 F 
ATOM     75  C   UNL A   1      41.431  35.216  39.955  1.00  0.00     0.198 A 
ATOM     76  C   UNL A   1      39.836  33.766  40.711  1.00  0.00     0.198 A 
ATOM     77  F   UNL A   1      38.894  32.214  39.238  1.00  0.00    -0.203 F 
ATOM     78  F   UNL A   1      42.429  36.048  40.240  1.00  0.00    -0.200 F 
ATOM     79  C   UNL A   1      40.637  34.849  40.945  1.00  0.00     0.200 A 
ATOM     80  F   UNL A   1      39.131  33.244  41.711  1.00  0.00    -0.200 F 
ATOM     81  F   UNL A   1      40.618  35.497  42.106  1.00  0.00    -0.200 F 
ENDBRANCH  57  71
BRANCH  58  82
ATOM     82  C   UNL A   1      39.769  28.543  29.973  1.00  0.00     0.064 A 
ATOM     83  C   UNL A   1      39.238  27.263  29.949  1.00  0.00     0.173 A 
ATOM     84  C   UNL A   1      40.283  29.097  28.882  1.00  0.00     0.173 A 
ATOM     85  F   UNL A   1      38.495  26.767  30.933  1.00  0.00    -0.203 F 
ATOM     86  C   UNL A   1      39.559  26.533  28.780  1.00  0.00     0.198 A 
ATOM     87  C   UNL A   1      40.442  28.361  27.733  1.00  0.00     0.198 A 
ATOM     88  F   UNL A   1      40.647  30.376  28.901  1.00  0.00    -0.203 F 
ATOM     89  F   UNL A   1      39.411  25.211  28.816  1.00  0.00    -0.200 F 
ATOM     90  C   UNL A   1      39.994  27.072  27.655  1.00  0.00     0.200 A 
ATOM     91  F   UNL A   1      41.041  28.911  26.680  1.00  0.00    -0.200 F 
ATOM     92  F   UNL A   1      39.997  26.396  26.510  1.00  0.00    -0.200 F 
ENDBRANCH  58  82
BRANCH  70  93
ATOM     93  C   UNL A   1      44.349  28.710  35.296  1.00  0.00     0.064 A 
ATOM     94  C   UNL A   1      44.214  27.496  35.948  1.00  0.00     0.173 A 
ATOM     95  C   UNL A   1      45.536  29.147  34.892  1.00  0.00     0.173 A 
ATOM     96  F   UNL A   1      43.039  26.904  36.144  1.00  0.00    -0.203 F 
ATOM     97  C   UNL A   1      45.440  26.941  36.388  1.00  0.00     0.198 A 
ATOM     98  C   UNL A   1      46.684  28.480  35.244  1.00  0.00     0.198 A 
ATOM     99  F   UNL A   1      45.614  30.240  34.139  1.00  0.00    -0.203 F 
ATOM    100  F   UNL A   1      45.391  25.990  37.315  1.00  0.00    -0.200 F 
ATOM    101  C   UNL A   1      46.629  27.304  35.941  1.00  0.00     0.200 A 
ATOM    102  F   UNL A   1      47.866  28.984  34.905  1.00  0.00    -0.200 F 
ATOM    103  F   UNL A   1      47.713  26.564  36.155  1.00  0.00    -0.200 F 
ENDBRANCH  70  93
ENDBRANCH  44  45
ENDBRANCH  37  39
ENDBRANCH  36  37
ENDBRANCH  35  36
ENDBRANCH  34  35
ENDBRANCH  33  34
ENDBRANCH  32  33
ENDBRANCH   1  32
TORSDOF 22
ENDMDL
MODEL 3
REMARK VINA RESULT:     -10.9      4.736      8.906
REMARK SMILES O=C(OCCOCCOCCOCCOC(=O)c1ccc(-c2c3nc(c(-c4c(F)c(F)c(F)c(F)c4F)c4ccc([nH]4)c(-c4c(F)c(F)c(F)c(F)c4F)c4nc(c(-c5c(F)c(F)c(F)c(F)c5F)c5ccc2[nH]5)C=C4)C=C3)cc1)C1=Cc2cc(S(F)(F)(F)(F)F)cc(Br)c2O[C@H]1C(F)(F)F
REMARK SMILES IDX 10 1 9 2 8 3 7 4 6 5 5 6 4 7 3 8 2 9 1 10 81 11 82 12 97 13
REMARK SMILES IDX 83 14 96 15 84 16 95 17 85 18 93 19 92 20 94 21 98 22 99 23
REMARK SMILES IDX 100 24 101 25 86 26 87 27 88 28 89 29 90 30 91 31 11 32
REMARK SMILES IDX 12 33 13 34 14 35 15 36 16 37 17 38 18 39 19 40 80 41 20 42
REMARK SMILES IDX 79 43 21 44 22 45 23 46 73 47 24 48 78 49 72 50 74 51 25 52
REMARK SMILES IDX 77 53 71 54 70 55 26 57 58 58 38 59 57 60 39 61 42 62 56 63
REMARK SMILES IDX 75 64 40 65 41 66 55 68 76 69 43 70 27 71 28 72 36 73 29 74
REMARK SMILES IDX 30 75 34 76 37 77 31 78 32 79 35 80 33 81 59 82 60 83 68 84
REMARK SMILES IDX 61 85 62 86 66 87 69 88 63 89 64 90 67 91 65 92 44 93 45 94
REMARK SMILES IDX 53 95 46 96 47 97 51 98 54 99 48 100 49 101 52 102 50 103
REMARK H PARENT 74 56 42 67
REMARK Flexibility Score: inf
ROOT
ATOM      1  C   UNL A   1      35.241  32.737  28.676  1.00  0.00     0.188 C 
ENDROOT
BRANCH   1   2
ATOM      2  O   UNL A   1      34.360  32.587  27.573  1.00  0.00    -0.377 OA
BRANCH   2   3
ATOM      3  C   UNL A   1      33.668  31.351  27.684  1.00  0.00     0.188 C 
BRANCH   3   4
ATOM      4  C   UNL A   1      34.627  30.207  27.396  1.00  0.00     0.188 C 
BRANCH   4   5
ATOM      5  O   UNL A   1      33.913  28.980  27.397  1.00  0.00    -0.376 OA
BRANCH   5   6
ATOM      6  C   UNL A   1      32.611  29.189  26.870  1.00  0.00     0.202 C 
BRANCH   6   7
ATOM      7  C   UNL A   1      31.870  27.863  26.805  1.00  0.00     0.261 C 
BRANCH   7   8
ATOM      8  O   UNL A   1      32.207  27.192  25.600  1.00  0.00    -0.460 OA
BRANCH   8   9
ATOM      9  C   UNL A   1      31.185  26.818  24.687  1.00  0.00     0.338 C 
ATOM     10  O   UNL A   1      29.970  26.822  25.057  1.00  0.00    -0.246 OA
BRANCH   9  11
ATOM     11  C   UNL A   1      31.546  26.411  23.267  1.00  0.00     0.087 C 
ATOM     12  C   UNL A   1      32.014  25.159  23.016  1.00  0.00     0.027 C 
ATOM     13  C   UNL A   1      31.385  27.405  22.128  1.00  0.00     0.316 C 
ATOM     14  C   UNL A   1      32.176  24.166  24.156  1.00  0.00     0.020 A 
ATOM     15  O   UNL A   1      30.072  24.848  25.025  1.00  0.00    -0.474 OA
ATOM     16  C   UNL A   1      33.377  23.484  24.253  1.00  0.00     0.036 A 
ATOM     17  C   UNL A   1      31.223  24.016  25.067  1.00  0.00     0.142 A 
ATOM     18  C   UNL A   1      33.367  22.437  25.205  1.00  0.00     0.109 A 
ATOM     19  C   UNL A   1      31.340  23.064  26.051  1.00  0.00     0.062 A 
ATOM     20  C   UNL A   1      32.474  22.313  26.172  1.00  0.00     0.044 A 
ATOM     21  Br  UNL A   1      29.856  22.780  27.301  1.00  0.00    -0.047 Br
BRANCH  13  22
ATOM     22  C   UNL A   1      30.850  28.719  22.673  1.00  0.00     0.430 C 
ATOM     23  F   UNL A   1      30.807  29.620  21.695  1.00  0.00    -0.167 F 
ATOM     24  F   UNL A   1      29.625  28.533  23.157  1.00  0.00    -0.167 F 
ATOM     25  F   UNL A   1      31.648  29.155  23.642  1.00  0.00    -0.167 F 
ENDBRANCH  13  22
BRANCH  18  26
ATOM     26  S   UNL A   1      34.664  21.181  25.090  1.00  0.00     0.310 S 
ATOM     27  F   UNL A   1      35.411  21.971  23.935  1.00  0.00    -0.094 F 
ATOM     28  F   UNL A   1      33.833  20.458  23.964  1.00  0.00    -0.094 F 
ATOM     29  F   UNL A   1      35.783  20.105  24.994  1.00  0.00    -0.094 F 
ATOM     30  F   UNL A   1      35.547  21.995  26.118  1.00  0.00    -0.094 F 
ATOM     31  F   UNL A   1      33.590  22.340  25.117  1.00  0.00    -0.094 F 
ENDBRANCH  18  26
ENDBRANCH   9  11
ENDBRANCH   8   9
ENDBRANCH   7   8
ENDBRANCH   6   7
ENDBRANCH   5   6
ENDBRANCH   4   5
ENDBRANCH   3   4
ENDBRANCH   2   3
ENDBRANCH   1   2
BRANCH   1  32
ATOM     32  C   UNL A   1      34.683  33.779  29.631  1.00  0.00     0.188 C 
BRANCH  32  33
ATOM     33  O   UNL A   1      34.344  33.159  30.863  1.00  0.00    -0.376 OA
BRANCH  33  34
ATOM     34  C   UNL A   1      34.106  34.157  31.845  1.00  0.00     0.202 C 
BRANCH  34  35
ATOM     35  C   UNL A   1      34.787  33.762  33.145  1.00  0.00     0.261 C 
BRANCH  35  36
ATOM     36  O   UNL A   1      35.280  32.434  33.036  1.00  0.00    -0.460 OA
BRANCH  36  37
ATOM     37  C   UNL A   1      36.557  32.105  33.562  1.00  0.00     0.338 C 
ATOM     38  O   UNL A   1      36.806  32.298  34.794  1.00  0.00    -0.246 OA
BRANCH  37  39
ATOM     39  C   UNL A   1      37.626  31.522  32.653  1.00  0.00     0.060 A 
ATOM     40  C   UNL A   1      37.511  31.781  31.296  1.00  0.00     0.016 A 
ATOM     41  C   UNL A   1      38.682  30.887  33.146  1.00  0.00     0.016 A 
ATOM     42  C   UNL A   1      38.436  31.068  30.497  1.00  0.00     0.010 A 
ATOM     43  C   UNL A   1      39.619  30.331  32.308  1.00  0.00     0.010 A 
ATOM     44  C   UNL A   1      39.536  30.496  30.953  1.00  0.00    -0.014 A 
BRANCH  44  45
ATOM     45  C   UNL A   1      40.651  30.047  30.023  1.00  0.00     0.031 A 
ATOM     46  C   UNL A   1      40.677  28.727  29.570  1.00  0.00     0.074 A 
ATOM     47  C   UNL A   1      41.663  30.964  29.796  1.00  0.00     0.049 A 
ATOM     48  N   UNL A   1      41.624  28.137  28.838  1.00  0.00    -0.248 NA
ATOM     49  C   UNL A   1      39.619  27.741  29.837  1.00  0.00     0.031 C 
ATOM     50  C   UNL A   1      41.639  32.299  30.242  1.00  0.00     0.029 A 
ATOM     51  N   UNL A   1      42.847  30.766  29.121  1.00  0.00    -0.354 N 
ATOM     52  C   UNL A   1      41.288  26.870  28.585  1.00  0.00     0.074 A 
ATOM     53  C   UNL A   1      39.996  26.597  29.229  1.00  0.00     0.031 C 
ATOM     54  C   UNL A   1      42.797  32.895  29.852  1.00  0.00     0.029 A 
ATOM     55  C   UNL A   1      43.563  31.942  29.153  1.00  0.00     0.049 A 
ATOM     56  H   UNL A   1      43.132  29.928  28.688  1.00  0.00     0.167 HD
ATOM     57  C   UNL A   1      42.006  25.934  27.839  1.00  0.00     0.037 A 
ATOM     58  C   UNL A   1      44.815  32.188  28.614  1.00  0.00     0.037 A 
ATOM     59  C   UNL A   1      43.240  26.194  27.263  1.00  0.00     0.049 A 
ATOM     60  C   UNL A   1      45.561  31.235  27.918  1.00  0.00     0.074 A 
ATOM     61  C   UNL A   1      43.974  25.265  26.501  1.00  0.00     0.029 A 
ATOM     62  N   UNL A   1      43.967  27.362  27.317  1.00  0.00    -0.354 N 
ATOM     63  N   UNL A   1      45.207  29.981  27.632  1.00  0.00    -0.248 NA
ATOM     64  C   UNL A   1      46.903  31.474  27.370  1.00  0.00     0.031 C 
ATOM     65  C   UNL A   1      45.132  25.860  26.111  1.00  0.00     0.029 A 
ATOM     66  C   UNL A   1      45.141  27.172  26.621  1.00  0.00     0.049 A 
ATOM     67  H   UNL A   1      43.695  28.191  27.774  1.00  0.00     0.167 HD
ATOM     68  C   UNL A   1      46.173  29.379  26.935  1.00  0.00     0.074 A 
ATOM     69  C   UNL A   1      47.281  30.329  26.763  1.00  0.00     0.031 C 
ATOM     70  C   UNL A   1      46.174  28.076  26.432  1.00  0.00     0.037 A 
BRANCH  57  71
ATOM     71  C   UNL A   1      41.403  24.552  27.649  1.00  0.00     0.064 A 
ATOM     72  C   UNL A   1      41.825  23.433  28.347  1.00  0.00     0.173 A 
ATOM     73  C   UNL A   1      40.379  24.493  26.804  1.00  0.00     0.173 A 
ATOM     74  F   UNL A   1      42.664  23.494  29.376  1.00  0.00    -0.203 F 
ATOM     75  C   UNL A   1      41.280  22.219  27.867  1.00  0.00     0.198 A 
ATOM     76  C   UNL A   1      39.807  23.285  26.485  1.00  0.00     0.198 A 
ATOM     77  F   UNL A   1      39.904  25.611  26.265  1.00  0.00    -0.203 F 
ATOM     78  F   UNL A   1      41.883  21.087  28.220  1.00  0.00    -0.200 F 
ATOM     79  C   UNL A   1      40.213  22.130  27.092  1.00  0.00     0.200 A 
ATOM     80  F   UNL A   1      38.842  23.240  25.569  1.00  0.00    -0.200 F 
ATOM     81  F   UNL A   1      39.571  20.980  26.913  1.00  0.00    -0.200 F 
ENDBRANCH  57  71
BRANCH  58  82
ATOM     82  C   UNL A   1      45.411  33.576  28.790  1.00  0.00     0.064 A 
ATOM     83  C   UNL A   1      46.174  33.900  29.901  1.00  0.00     0.173 A 
ATOM     84  C   UNL A   1      45.079  34.494  27.891  1.00  0.00     0.173 A 
ATOM     85  F   UNL A   1      46.739  32.986  30.684  1.00  0.00    -0.203 F 
ATOM     86  C   UNL A   1      46.299  35.292  30.124  1.00  0.00     0.198 A 
ATOM     87  C   UNL A   1      45.353  35.822  28.113  1.00  0.00     0.198 A 
ATOM     88  F   UNL A   1      44.476  34.125  26.765  1.00  0.00    -0.203 F 
ATOM     89  F   UNL A   1      46.692  35.692  31.330  1.00  0.00    -0.200 F 
ATOM     90  C   UNL A   1      46.053  36.221  29.218  1.00  0.00     0.200 A 
ATOM     91  F   UNL A   1      44.932  36.733  27.240  1.00  0.00    -0.200 F 
ATOM     92  F   UNL A   1      46.463  37.476  29.373  1.00  0.00    -0.200 F 
ENDBRANCH  58  82
BRANCH  70  93
ATOM     93  C   UNL A   1      47.381  27.622  25.628  1.00  0.00     0.064 A 
ATOM     94  C   UNL A   1      48.405  27.016  26.337  1.00  0.00     0.173 A 
ATOM     95  C   UNL A   1      47.408  27.689  24.302  1.00  0.00     0.173 A 
ATOM     96  F   UNL A   1      48.307  26.701  27.626  1.00  0.00    -0.203 F 
ATOM     97  C   UNL A   1      49.564  26.761  25.567  1.00  0.00     0.198 A 
ATOM     98  C   UNL A   1      48.523  27.296  23.604  1.00  0.00     0.198 A 
ATOM     99  F   UNL A   1      46.344  28.141  23.644  1.00  0.00    -0.203 F 
ATOM    100  F   UNL A   1      50.699  26.523  26.217  1.00  0.00    -0.200 F 
ATOM    101  C   UNL A   1      49.596  26.742  24.246  1.00  0.00     0.200 A 
ATOM    102  F   UNL A   1      48.561  27.455  22.284  1.00  0.00    -0.200 F 
ATOM    103  F   UNL A   1      50.616  26.213  23.578  1.00  0.00    -0.200 F 
ENDBRANCH  70  93
ENDBRANCH  44  45
ENDBRANCH  37  39
ENDBRANCH  36  37
ENDBRANCH  35  36
ENDBRANCH  34  35
ENDBRANCH  33  34
ENDBRANCH  32  33
ENDBRANCH   1  32
TORSDOF 22
ENDMDL
