MODEL 1
REMARK VINA RESULT:      -7.9      0.000      0.000
REMARK SMILES Cc1c(CC(=O)OCCOCCOCCOCCOC(=O)c2ccc(-c3c4nc(c(-c5c(F)c(F)c(F)c(F)c5F)c5ccc([nH]5)c(-c5c(F)c(F)c(F)c(F)c5F)c5nc(c(-c6c(F)c(F)c(F)c(F)c6F)c6ccc3[nH]6)C=C5)C=C4)cc2)c2ccccc2n1C(=O)c1ccc(Cl)cc1
REMARK SMILES IDX 12 1 11 2 10 3 9 4 8 5 7 6 5 7 6 8 4 9 3 10 1 11 2 12 91 13
REMARK SMILES IDX 85 14 90 15 86 16 89 17 87 18 88 19 92 20 93 21 94 22 95 23
REMARK SMILES IDX 100 24 96 25 99 26 97 27 98 28 13 29 14 30 15 31 16 32 17 33
REMARK SMILES IDX 18 34 19 35 20 36 21 37 22 38 23 39 84 40 24 41 83 42 25 43
REMARK SMILES IDX 26 44 27 45 77 46 28 47 82 48 76 49 78 50 29 51 81 52 75 53
REMARK SMILES IDX 74 54 30 56 62 57 42 58 61 59 43 60 46 61 60 62 79 63 44 64
REMARK SMILES IDX 45 65 59 67 80 68 47 69 31 70 32 71 40 72 33 73 34 74 38 75
REMARK SMILES IDX 41 76 35 77 36 78 39 79 37 80 63 81 64 82 72 83 65 84 66 85
REMARK SMILES IDX 70 86 73 87 67 88 68 89 71 90 69 91 48 92 49 93 57 94 50 95
REMARK SMILES IDX 51 96 55 97 58 98 52 99 53 100 56 101 54 102
REMARK H PARENT 78 55 46 66
REMARK Flexibility Score: inf
ROOT
ATOM      1  C   UNL A   1      45.045  22.197  35.394  1.00  0.00     0.188 C 
ENDROOT
BRANCH   1   2
ATOM      2  C   UNL A   1      45.769  20.923  34.960  1.00  0.00     0.188 C 
BRANCH   2   3
ATOM      3  O   UNL A   1      45.557  19.698  35.653  1.00  0.00    -0.376 OA
BRANCH   3   4
ATOM      4  C   UNL A   1      46.006  19.544  36.991  1.00  0.00     0.202 C 
BRANCH   4   5
ATOM      5  C   UNL A   1      47.233  20.322  37.517  1.00  0.00     0.261 C 
BRANCH   5   6
ATOM      6  O   UNL A   1      48.510  19.642  37.577  1.00  0.00    -0.463 OA
BRANCH   6   7
ATOM      7  C   UNL A   1      49.386  19.892  36.577  1.00  0.00     0.310 C 
ATOM      8  O   UNL A   1      49.155  19.624  35.398  1.00  0.00    -0.252 OA
BRANCH   7   9
ATOM      9  C   UNL A   1      50.679  20.608  36.947  1.00  0.00     0.160 C 
BRANCH   9  10
ATOM     10  C   UNL A   1      51.299  21.677  36.068  1.00  0.00    -0.008 A 
ATOM     11  C   UNL A   1      50.703  23.800  37.423  1.00  0.00     0.065 C 
ATOM     12  C   UNL A   1      51.301  23.051  36.275  1.00  0.00     0.028 A 
ATOM     13  N   UNL A   1      52.000  23.687  35.232  1.00  0.00    -0.280 N 
ATOM     14  C   UNL A   1      52.125  21.447  34.917  1.00  0.00     0.004 A 
ATOM     15  C   UNL A   1      52.468  22.687  34.363  1.00  0.00     0.056 A 
ATOM     16  C   UNL A   1      52.549  20.264  34.256  1.00  0.00     0.010 A 
ATOM     17  C   UNL A   1      53.172  22.739  33.136  1.00  0.00     0.027 A 
ATOM     18  C   UNL A   1      53.209  20.329  33.027  1.00  0.00     0.001 A 
ATOM     19  C   UNL A   1      53.508  21.558  32.471  1.00  0.00     0.002 A 
BRANCH  13  20
ATOM     20  C   UNL A   1      52.213  25.094  35.105  1.00  0.00     0.262 C 
ATOM     21  O   UNL A   1      53.285  25.573  35.476  1.00  0.00    -0.268 OA
BRANCH  20  22
ATOM     22  C   UNL A   1      51.262  26.062  34.534  1.00  0.00     0.040 A 
ATOM     23  C   UNL A   1      50.556  26.930  35.376  1.00  0.00     0.015 A 
ATOM     24  C   UNL A   1      51.101  26.126  33.146  1.00  0.00     0.015 A 
ATOM     25  C   UNL A   1      49.631  27.820  34.822  1.00  0.00     0.021 A 
ATOM     26  C   UNL A   1      50.184  27.027  32.597  1.00  0.00     0.021 A 
ATOM     27  C   UNL A   1      49.444  27.860  33.439  1.00  0.00     0.041 A 
ATOM     28  Cl  UNL A   1      48.286  28.942  32.765  1.00  0.00    -0.084 Cl
ENDBRANCH  20  22
ENDBRANCH  13  20
ENDBRANCH   9  10
ENDBRANCH   7   9
ENDBRANCH   6   7
ENDBRANCH   5   6
ENDBRANCH   4   5
ENDBRANCH   3   4
ENDBRANCH   2   3
ENDBRANCH   1   2
BRANCH   1  29
ATOM     29  O   UNL A   1      43.757  22.358  34.864  1.00  0.00    -0.377 OA
BRANCH  29  30
ATOM     30  C   UNL A   1      43.481  23.585  34.243  1.00  0.00     0.188 C 
BRANCH  30  31
ATOM     31  C   UNL A   1      42.656  24.636  34.990  1.00  0.00     0.188 C 
BRANCH  31  32
ATOM     32  O   UNL A   1      42.669  24.461  36.401  1.00  0.00    -0.376 OA
BRANCH  32  33
ATOM     33  C   UNL A   1      43.429  25.376  37.184  1.00  0.00     0.202 C 
BRANCH  33  34
ATOM     34  C   UNL A   1      44.857  24.976  37.605  1.00  0.00     0.261 C 
BRANCH  34  35
ATOM     35  O   UNL A   1      45.903  25.675  36.914  1.00  0.00    -0.460 OA
BRANCH  35  36
ATOM     36  C   UNL A   1      46.936  24.988  36.360  1.00  0.00     0.338 C 
ATOM     37  O   UNL A   1      47.503  24.033  36.813  1.00  0.00    -0.246 OA
BRANCH  36  38
ATOM     38  C   UNL A   1      46.940  25.425  34.931  1.00  0.00     0.060 A 
ATOM     39  C   UNL A   1      46.119  26.466  34.486  1.00  0.00     0.016 A 
ATOM     40  C   UNL A   1      47.498  24.520  34.016  1.00  0.00     0.016 A 
ATOM     41  C   UNL A   1      45.721  26.481  33.151  1.00  0.00     0.010 A 
ATOM     42  C   UNL A   1      47.083  24.529  32.682  1.00  0.00     0.010 A 
ATOM     43  C   UNL A   1      46.139  25.464  32.263  1.00  0.00    -0.014 A 
BRANCH  43  44
ATOM     44  C   UNL A   1      45.675  25.557  30.868  1.00  0.00     0.031 A 
ATOM     45  C   UNL A   1      46.528  26.487  30.086  1.00  0.00     0.074 A 
ATOM     46  C   UNL A   1      44.714  24.840  30.240  1.00  0.00     0.049 A 
ATOM     47  N   UNL A   1      46.185  27.563  29.461  1.00  0.00    -0.248 NA
ATOM     48  C   UNL A   1      47.980  26.246  30.139  1.00  0.00     0.031 C 
ATOM     49  C   UNL A   1      44.014  23.656  30.743  1.00  0.00     0.029 A 
ATOM     50  N   UNL A   1      44.225  24.960  28.957  1.00  0.00    -0.354 N 
ATOM     51  C   UNL A   1      47.362  28.050  28.904  1.00  0.00     0.074 A 
ATOM     52  C   UNL A   1      48.448  27.305  29.484  1.00  0.00     0.031 C 
ATOM     53  C   UNL A   1      43.375  23.045  29.717  1.00  0.00     0.029 A 
ATOM     54  C   UNL A   1      43.509  23.852  28.513  1.00  0.00     0.049 A 
ATOM     55  H   UNL A   1      44.369  25.761  28.402  1.00  0.00     0.167 HD
ATOM     56  C   UNL A   1      47.350  28.846  27.806  1.00  0.00     0.037 A 
ATOM     57  C   UNL A   1      43.112  23.575  27.243  1.00  0.00     0.037 A 
ATOM     58  C   UNL A   1      46.060  29.422  27.562  1.00  0.00     0.049 A 
ATOM     59  C   UNL A   1      43.089  24.831  26.455  1.00  0.00     0.074 A 
ATOM     60  C   UNL A   1      45.366  30.536  27.970  1.00  0.00     0.029 A 
ATOM     61  N   UNL A   1      45.164  28.570  26.983  1.00  0.00    -0.354 N 
ATOM     62  N   UNL A   1      42.246  25.805  26.647  1.00  0.00    -0.248 NA
ATOM     63  C   UNL A   1      44.200  25.132  25.556  1.00  0.00     0.031 C 
ATOM     64  C   UNL A   1      43.990  30.283  27.692  1.00  0.00     0.029 A 
ATOM     65  C   UNL A   1      43.879  29.026  27.109  1.00  0.00     0.049 A 
ATOM     66  H   UNL A   1      45.412  27.732  26.530  1.00  0.00     0.167 HD
ATOM     67  C   UNL A   1      42.934  26.929  26.245  1.00  0.00     0.074 A 
ATOM     68  C   UNL A   1      44.036  26.449  25.428  1.00  0.00     0.031 C 
ATOM     69  C   UNL A   1      42.777  28.117  26.892  1.00  0.00     0.037 A 
BRANCH  56  70
ATOM     70  C   UNL A   1      48.386  28.749  26.717  1.00  0.00     0.064 A 
ATOM     71  C   UNL A   1      48.324  27.702  25.781  1.00  0.00     0.173 A 
ATOM     72  C   UNL A   1      49.592  29.485  26.738  1.00  0.00     0.173 A 
ATOM     73  F   UNL A   1      47.246  26.907  25.717  1.00  0.00    -0.203 F 
ATOM     74  C   UNL A   1      49.400  27.410  24.938  1.00  0.00     0.198 A 
ATOM     75  C   UNL A   1      50.638  29.230  25.855  1.00  0.00     0.198 A 
ATOM     76  F   UNL A   1      49.847  30.399  27.684  1.00  0.00    -0.203 F 
ATOM     77  F   UNL A   1      49.339  26.346  24.125  1.00  0.00    -0.200 F 
ATOM     78  C   UNL A   1      50.551  28.179  24.969  1.00  0.00     0.200 A 
ATOM     79  F   UNL A   1      51.754  29.968  25.926  1.00  0.00    -0.200 F 
ATOM     80  F   UNL A   1      51.594  27.879  24.184  1.00  0.00    -0.200 F 
ENDBRANCH  56  70
BRANCH  57  81
ATOM     81  C   UNL A   1      42.985  22.256  26.562  1.00  0.00     0.064 A 
ATOM     82  C   UNL A   1      44.119  21.569  26.086  1.00  0.00     0.173 A 
ATOM     83  C   UNL A   1      41.799  21.505  26.646  1.00  0.00     0.173 A 
ATOM     84  F   UNL A   1      45.304  22.194  26.004  1.00  0.00    -0.203 F 
ATOM     85  C   UNL A   1      44.079  20.206  25.767  1.00  0.00     0.198 A 
ATOM     86  C   UNL A   1      41.756  20.148  26.316  1.00  0.00     0.198 A 
ATOM     87  F   UNL A   1      40.678  22.043  27.148  1.00  0.00    -0.203 F 
ATOM     88  F   UNL A   1      45.200  19.571  25.398  1.00  0.00    -0.200 F 
ATOM     89  C   UNL A   1      42.900  19.493  25.898  1.00  0.00     0.200 A 
ATOM     90  F   UNL A   1      40.615  19.462  26.478  1.00  0.00    -0.200 F 
ATOM     91  F   UNL A   1      42.875  18.173  25.668  1.00  0.00    -0.200 F 
ENDBRANCH  57  81
BRANCH  69  92
ATOM     92  C   UNL A   1      41.465  28.395  27.547  1.00  0.00     0.064 A 
ATOM     93  C   UNL A   1      40.350  28.950  26.906  1.00  0.00     0.173 A 
ATOM     94  C   UNL A   1      41.323  28.029  28.896  1.00  0.00     0.173 A 
ATOM     95  F   UNL A   1      40.376  29.253  25.599  1.00  0.00    -0.203 F 
ATOM     96  C   UNL A   1      39.164  29.165  27.606  1.00  0.00     0.198 A 
ATOM     97  C   UNL A   1      40.116  28.184  29.568  1.00  0.00     0.198 A 
ATOM     98  F   UNL A   1      42.356  27.485  29.558  1.00  0.00    -0.203 F 
ATOM     99  F   UNL A   1      38.133  29.765  27.005  1.00  0.00    -0.200 F 
ATOM    100  C   UNL A   1      39.038  28.761  28.925  1.00  0.00     0.200 A 
ATOM    101  F   UNL A   1      39.998  27.767  30.835  1.00  0.00    -0.200 F 
ATOM    102  F   UNL A   1      37.872  28.916  29.568  1.00  0.00    -0.200 F 
ENDBRANCH  69  92
ENDBRANCH  43  44
ENDBRANCH  36  38
ENDBRANCH  35  36
ENDBRANCH  34  35
ENDBRANCH  33  34
ENDBRANCH  32  33
ENDBRANCH  31  32
ENDBRANCH  30  31
ENDBRANCH  29  30
ENDBRANCH   1  29
TORSDOF 23
ENDMDL
MODEL 2
REMARK VINA RESULT:      -7.9      6.495     13.207
REMARK SMILES Cc1c(CC(=O)OCCOCCOCCOCCOC(=O)c2ccc(-c3c4nc(c(-c5c(F)c(F)c(F)c(F)c5F)c5ccc([nH]5)c(-c5c(F)c(F)c(F)c(F)c5F)c5nc(c(-c6c(F)c(F)c(F)c(F)c6F)c6ccc3[nH]6)C=C5)C=C4)cc2)c2ccccc2n1C(=O)c1ccc(Cl)cc1
REMARK SMILES IDX 12 1 11 2 10 3 9 4 8 5 7 6 5 7 6 8 4 9 3 10 1 11 2 12 91 13
REMARK SMILES IDX 85 14 90 15 86 16 89 17 87 18 88 19 92 20 93 21 94 22 95 23
REMARK SMILES IDX 100 24 96 25 99 26 97 27 98 28 13 29 14 30 15 31 16 32 17 33
REMARK SMILES IDX 18 34 19 35 20 36 21 37 22 38 23 39 84 40 24 41 83 42 25 43
REMARK SMILES IDX 26 44 27 45 77 46 28 47 82 48 76 49 78 50 29 51 81 52 75 53
REMARK SMILES IDX 74 54 30 56 62 57 42 58 61 59 43 60 46 61 60 62 79 63 44 64
REMARK SMILES IDX 45 65 59 67 80 68 47 69 31 70 32 71 40 72 33 73 34 74 38 75
REMARK SMILES IDX 41 76 35 77 36 78 39 79 37 80 63 81 64 82 72 83 65 84 66 85
REMARK SMILES IDX 70 86 73 87 67 88 68 89 71 90 69 91 48 92 49 93 57 94 50 95
REMARK SMILES IDX 51 96 55 97 58 98 52 99 53 100 56 101 54 102
REMARK H PARENT 78 55 46 66
REMARK Flexibility Score: inf
ROOT
ATOM      1  C   UNL A   1      36.894  32.933  29.655  1.00  0.00     0.188 C 
ENDROOT
BRANCH   1   2
ATOM      2  C   UNL A   1      36.561  32.790  28.169  1.00  0.00     0.188 C 
BRANCH   2   3
ATOM      3  O   UNL A   1      35.361  33.340  27.640  1.00  0.00    -0.376 OA
BRANCH   3   4
ATOM      4  C   UNL A   1      34.098  32.840  28.057  1.00  0.00     0.202 C 
BRANCH   4   5
ATOM      5  C   UNL A   1      33.800  31.324  28.057  1.00  0.00     0.261 C 
BRANCH   5   6
ATOM      6  O   UNL A   1      33.569  30.664  26.789  1.00  0.00    -0.463 OA
BRANCH   6   7
ATOM      7  C   UNL A   1      32.377  30.043  26.629  1.00  0.00     0.310 C 
ATOM      8  O   UNL A   1      31.358  30.629  26.264  1.00  0.00    -0.252 OA
BRANCH   7   9
ATOM      9  C   UNL A   1      32.342  28.536  26.848  1.00  0.00     0.160 C 
BRANCH   9  10
ATOM     10  C   UNL A   1      32.328  27.547  25.699  1.00  0.00    -0.008 A 
ATOM     11  C   UNL A   1      30.878  25.663  26.721  1.00  0.00     0.065 C 
ATOM     12  C   UNL A   1      31.700  26.308  25.651  1.00  0.00     0.028 A 
ATOM     13  N   UNL A   1      31.917  25.713  24.395  1.00  0.00    -0.280 N 
ATOM     14  C   UNL A   1      32.854  27.775  24.383  1.00  0.00     0.004 A 
ATOM     15  C   UNL A   1      32.678  26.610  23.626  1.00  0.00     0.056 A 
ATOM     16  C   UNL A   1      33.539  28.872  23.796  1.00  0.00     0.010 A 
ATOM     17  C   UNL A   1      33.232  26.524  22.326  1.00  0.00     0.027 A 
ATOM     18  C   UNL A   1      34.115  28.761  22.529  1.00  0.00     0.001 A 
ATOM     19  C   UNL A   1      33.968  27.592  21.807  1.00  0.00     0.002 A 
BRANCH  13  20
ATOM     20  C   UNL A   1      31.422  24.440  23.977  1.00  0.00     0.262 C 
ATOM     21  O   UNL A   1      30.345  24.380  23.384  1.00  0.00    -0.268 OA
BRANCH  20  22
ATOM     22  C   UNL A   1      32.103  23.147  24.164  1.00  0.00     0.040 A 
ATOM     23  C   UNL A   1      33.343  22.913  23.558  1.00  0.00     0.015 A 
ATOM     24  C   UNL A   1      31.513  22.175  24.981  1.00  0.00     0.015 A 
ATOM     25  C   UNL A   1      33.960  21.669  23.717  1.00  0.00     0.021 A 
ATOM     26  C   UNL A   1      32.141  20.938  25.146  1.00  0.00     0.021 A 
ATOM     27  C   UNL A   1      33.354  20.686  24.503  1.00  0.00     0.041 A 
ATOM     28  Cl  UNL A   1      34.108  19.148  24.676  1.00  0.00    -0.084 Cl
ENDBRANCH  20  22
ENDBRANCH  13  20
ENDBRANCH   9  10
ENDBRANCH   7   9
ENDBRANCH   6   7
ENDBRANCH   5   6
ENDBRANCH   4   5
ENDBRANCH   3   4
ENDBRANCH   2   3
ENDBRANCH   1   2
BRANCH   1  29
ATOM     29  O   UNL A   1      36.440  31.886  30.468  1.00  0.00    -0.377 OA
BRANCH  29  30
ATOM     30  C   UNL A   1      36.787  31.949  31.826  1.00  0.00     0.188 C 
BRANCH  30  31
ATOM     31  C   UNL A   1      35.941  32.798  32.779  1.00  0.00     0.188 C 
BRANCH  31  32
ATOM     32  O   UNL A   1      36.481  34.094  33.004  1.00  0.00    -0.376 OA
BRANCH  32  33
ATOM     33  C   UNL A   1      37.229  34.312  34.196  1.00  0.00     0.202 C 
BRANCH  33  34
ATOM     34  C   UNL A   1      38.411  33.371  34.506  1.00  0.00     0.261 C 
BRANCH  34  35
ATOM     35  O   UNL A   1      39.458  33.382  33.523  1.00  0.00    -0.460 OA
BRANCH  35  36
ATOM     36  C   UNL A   1      40.661  32.816  33.801  1.00  0.00     0.338 C 
ATOM     37  O   UNL A   1      41.309  32.934  34.803  1.00  0.00    -0.246 OA
BRANCH  36  38
ATOM     38  C   UNL A   1      40.800  31.735  32.778  1.00  0.00     0.060 A 
ATOM     39  C   UNL A   1      40.091  30.534  32.888  1.00  0.00     0.016 A 
ATOM     40  C   UNL A   1      41.925  31.822  31.945  1.00  0.00     0.016 A 
ATOM     41  C   UNL A   1      40.622  29.387  32.302  1.00  0.00     0.010 A 
ATOM     42  C   UNL A   1      42.463  30.667  31.374  1.00  0.00     0.010 A 
ATOM     43  C   UNL A   1      41.854  29.436  31.610  1.00  0.00    -0.014 A 
BRANCH  43  44
ATOM     44  C   UNL A   1      42.343  28.179  31.018  1.00  0.00     0.031 A 
ATOM     45  C   UNL A   1      43.332  27.523  31.909  1.00  0.00     0.074 A 
ATOM     46  C   UNL A   1      41.920  27.542  29.901  1.00  0.00     0.049 A 
ATOM     47  N   UNL A   1      44.562  27.217  31.661  1.00  0.00    -0.248 NA
ATOM     48  C   UNL A   1      42.920  27.316  33.308  1.00  0.00     0.031 C 
ATOM     49  C   UNL A   1      40.738  27.850  29.094  1.00  0.00     0.029 A 
ATOM     50  N   UNL A   1      42.410  26.402  29.300  1.00  0.00    -0.354 N 
ATOM     51  C   UNL A   1      45.032  26.630  32.831  1.00  0.00     0.074 A 
ATOM     52  C   UNL A   1      44.047  26.865  33.852  1.00  0.00     0.031 C 
ATOM     53  C   UNL A   1      40.477  26.809  28.267  1.00  0.00     0.029 A 
ATOM     54  C   UNL A   1      41.537  25.818  28.387  1.00  0.00     0.049 A 
ATOM     55  H   UNL A   1      43.301  26.033  29.499  1.00  0.00     0.167 HD
ATOM     56  C   UNL A   1      46.072  25.758  32.817  1.00  0.00     0.037 A 
ATOM     57  C   UNL A   1      41.631  24.586  27.821  1.00  0.00     0.037 A 
ATOM     58  C   UNL A   1      46.835  25.837  31.607  1.00  0.00     0.049 A 
ATOM     59  C   UNL A   1      43.037  24.122  27.897  1.00  0.00     0.074 A 
ATOM     60  C   UNL A   1      47.886  26.584  31.130  1.00  0.00     0.029 A 
ATOM     61  N   UNL A   1      46.263  25.207  30.539  1.00  0.00    -0.354 N 
ATOM     62  N   UNL A   1      44.024  24.649  27.230  1.00  0.00    -0.248 NA
ATOM     63  C   UNL A   1      43.421  23.171  28.937  1.00  0.00     0.031 C 
ATOM     64  C   UNL A   1      47.870  26.449  29.709  1.00  0.00     0.029 A 
ATOM     65  C   UNL A   1      46.819  25.612  29.355  1.00  0.00     0.049 A 
ATOM     66  H   UNL A   1      45.541  24.542  30.612  1.00  0.00     0.167 HD
ATOM     67  C   UNL A   1      45.125  24.427  28.027  1.00  0.00     0.074 A 
ATOM     68  C   UNL A   1      44.739  23.375  28.954  1.00  0.00     0.031 C 
ATOM     69  C   UNL A   1      46.125  25.346  28.116  1.00  0.00     0.037 A 
BRANCH  56  70
ATOM     70  C   UNL A   1      46.128  24.543  33.705  1.00  0.00     0.064 A 
ATOM     71  C   UNL A   1      47.322  24.213  34.367  1.00  0.00     0.173 A 
ATOM     72  C   UNL A   1      45.132  23.541  33.698  1.00  0.00     0.173 A 
ATOM     73  F   UNL A   1      48.353  25.072  34.385  1.00  0.00    -0.203 F 
ATOM     74  C   UNL A   1      47.506  22.964  34.968  1.00  0.00     0.198 A 
ATOM     75  C   UNL A   1      45.295  22.322  34.349  1.00  0.00     0.198 A 
ATOM     76  F   UNL A   1      44.014  23.660  32.969  1.00  0.00    -0.203 F 
ATOM     77  F   UNL A   1      48.693  22.652  35.508  1.00  0.00    -0.200 F 
ATOM     78  C   UNL A   1      46.489  22.024  34.967  1.00  0.00     0.200 A 
ATOM     79  F   UNL A   1      44.308  21.415  34.307  1.00  0.00    -0.200 F 
ATOM     80  F   UNL A   1      46.676  20.816  35.513  1.00  0.00    -0.200 F 
ENDBRANCH  56  70
BRANCH  57  81
ATOM     81  C   UNL A   1      40.546  23.643  27.430  1.00  0.00     0.064 A 
ATOM     82  C   UNL A   1      39.388  24.099  26.770  1.00  0.00     0.173 A 
ATOM     83  C   UNL A   1      40.759  22.253  27.414  1.00  0.00     0.173 A 
ATOM     84  F   UNL A   1      39.118  25.412  26.704  1.00  0.00    -0.203 F 
ATOM     85  C   UNL A   1      38.531  23.224  26.091  1.00  0.00     0.198 A 
ATOM     86  C   UNL A   1      39.898  21.379  26.746  1.00  0.00     0.198 A 
ATOM     87  F   UNL A   1      41.864  21.720  27.956  1.00  0.00    -0.203 F 
ATOM     88  F   UNL A   1      37.487  23.708  25.404  1.00  0.00    -0.200 F 
ATOM     89  C   UNL A   1      38.796  21.866  26.067  1.00  0.00     0.200 A 
ATOM     90  F   UNL A   1      40.183  20.070  26.704  1.00  0.00    -0.200 F 
ATOM     91  F   UNL A   1      38.023  21.035  25.354  1.00  0.00    -0.200 F 
ENDBRANCH  57  81
BRANCH  69  92
ATOM     92  C   UNL A   1      46.382  26.224  26.936  1.00  0.00     0.064 A 
ATOM     93  C   UNL A   1      46.020  27.574  26.848  1.00  0.00     0.173 A 
ATOM     94  C   UNL A   1      47.082  25.668  25.853  1.00  0.00     0.173 A 
ATOM     95  F   UNL A   1      45.420  28.204  27.869  1.00  0.00    -0.203 F 
ATOM     96  C   UNL A   1      46.312  28.313  25.703  1.00  0.00     0.198 A 
ATOM     97  C   UNL A   1      47.430  26.430  24.743  1.00  0.00     0.198 A 
ATOM     98  F   UNL A   1      47.462  24.381  25.887  1.00  0.00    -0.203 F 
ATOM     99  F   UNL A   1      45.894  29.578  25.599  1.00  0.00    -0.200 F 
ATOM    100  C   UNL A   1      47.036  27.752  24.664  1.00  0.00     0.200 A 
ATOM    101  F   UNL A   1      48.152  25.884  23.756  1.00  0.00    -0.200 F 
ATOM    102  F   UNL A   1      47.365  28.491  23.595  1.00  0.00    -0.200 F 
ENDBRANCH  69  92
ENDBRANCH  43  44
ENDBRANCH  36  38
ENDBRANCH  35  36
ENDBRANCH  34  35
ENDBRANCH  33  34
ENDBRANCH  32  33
ENDBRANCH  31  32
ENDBRANCH  30  31
ENDBRANCH  29  30
ENDBRANCH   1  29
TORSDOF 23
ENDMDL
MODEL 3
REMARK VINA RESULT:      -7.9      6.752     13.200
REMARK SMILES Cc1c(CC(=O)OCCOCCOCCOCCOC(=O)c2ccc(-c3c4nc(c(-c5c(F)c(F)c(F)c(F)c5F)c5ccc([nH]5)c(-c5c(F)c(F)c(F)c(F)c5F)c5nc(c(-c6c(F)c(F)c(F)c(F)c6F)c6ccc3[nH]6)C=C5)C=C4)cc2)c2ccccc2n1C(=O)c1ccc(Cl)cc1
REMARK SMILES IDX 12 1 11 2 10 3 9 4 8 5 7 6 5 7 6 8 4 9 3 10 1 11 2 12 91 13
REMARK SMILES IDX 85 14 90 15 86 16 89 17 87 18 88 19 92 20 93 21 94 22 95 23
REMARK SMILES IDX 100 24 96 25 99 26 97 27 98 28 13 29 14 30 15 31 16 32 17 33
REMARK SMILES IDX 18 34 19 35 20 36 21 37 22 38 23 39 84 40 24 41 83 42 25 43
REMARK SMILES IDX 26 44 27 45 77 46 28 47 82 48 76 49 78 50 29 51 81 52 75 53
REMARK SMILES IDX 74 54 30 56 62 57 42 58 61 59 43 60 46 61 60 62 79 63 44 64
REMARK SMILES IDX 45 65 59 67 80 68 47 69 31 70 32 71 40 72 33 73 34 74 38 75
REMARK SMILES IDX 41 76 35 77 36 78 39 79 37 80 63 81 64 82 72 83 65 84 66 85
REMARK SMILES IDX 70 86 73 87 67 88 68 89 71 90 69 91 48 92 49 93 57 94 50 95
REMARK SMILES IDX 51 96 55 97 58 98 52 99 53 100 56 101 54 102
REMARK H PARENT 78 55 46 66
REMARK Flexibility Score: inf
ROOT
ATOM      1  C   UNL A   1      36.588  32.651  29.937  1.00  0.00     0.188 C 
ENDROOT
BRANCH   1   2
ATOM      2  C   UNL A   1      36.549  32.460  28.420  1.00  0.00     0.188 C 
BRANCH   2   3
ATOM      3  O   UNL A   1      35.498  33.025  27.646  1.00  0.00    -0.376 OA
BRANCH   3   4
ATOM      4  C   UNL A   1      34.154  32.614  27.855  1.00  0.00     0.202 C 
BRANCH   4   5
ATOM      5  C   UNL A   1      33.791  31.121  28.018  1.00  0.00     0.261 C 
BRANCH   5   6
ATOM      6  O   UNL A   1      33.474  30.353  26.831  1.00  0.00    -0.463 OA
BRANCH   6   7
ATOM      7  C   UNL A   1      32.164  30.127  26.579  1.00  0.00     0.310 C 
ATOM      8  O   UNL A   1      31.385  31.013  26.226  1.00  0.00    -0.252 OA
BRANCH   7   9
ATOM      9  C   UNL A   1      31.675  28.687  26.672  1.00  0.00     0.160 C 
BRANCH   9  10
ATOM     10  C   UNL A   1      31.876  27.685  25.551  1.00  0.00    -0.008 A 
ATOM     11  C   UNL A   1      30.396  25.737  26.396  1.00  0.00     0.065 C 
ATOM     12  C   UNL A   1      31.326  26.414  25.440  1.00  0.00     0.028 A 
ATOM     13  N   UNL A   1      31.750  25.817  24.239  1.00  0.00    -0.280 N 
ATOM     14  C   UNL A   1      32.570  27.927  24.318  1.00  0.00     0.004 A 
ATOM     15  C   UNL A   1      32.565  26.745  23.567  1.00  0.00     0.056 A 
ATOM     16  C   UNL A   1      33.273  29.053  23.814  1.00  0.00     0.010 A 
ATOM     17  C   UNL A   1      33.301  26.674  22.361  1.00  0.00     0.027 A 
ATOM     18  C   UNL A   1      34.028  28.958  22.643  1.00  0.00     0.001 A 
ATOM     19  C   UNL A   1      34.047  27.774  21.930  1.00  0.00     0.002 A 
BRANCH  13  20
ATOM     20  C   UNL A   1      31.388  24.514  23.780  1.00  0.00     0.262 C 
ATOM     21  O   UNL A   1      30.340  24.370  23.150  1.00  0.00    -0.268 OA
BRANCH  20  22
ATOM     22  C   UNL A   1      32.177  23.284  23.965  1.00  0.00     0.040 A 
ATOM     23  C   UNL A   1      31.821  22.114  23.285  1.00  0.00     0.015 A 
ATOM     24  C   UNL A   1      33.301  23.312  24.799  1.00  0.00     0.015 A 
ATOM     25  C   UNL A   1      32.559  20.946  23.498  1.00  0.00     0.021 A 
ATOM     26  C   UNL A   1      34.043  22.144  24.997  1.00  0.00     0.021 A 
ATOM     27  C   UNL A   1      33.660  20.964  24.357  1.00  0.00     0.041 A 
ATOM     28  Cl  UNL A   1      34.551  19.516  24.633  1.00  0.00    -0.084 Cl
ENDBRANCH  20  22
ENDBRANCH  13  20
ENDBRANCH   9  10
ENDBRANCH   7   9
ENDBRANCH   6   7
ENDBRANCH   5   6
ENDBRANCH   4   5
ENDBRANCH   3   4
ENDBRANCH   2   3
ENDBRANCH   1   2
BRANCH   1  29
ATOM     29  O   UNL A   1      36.007  31.615  30.680  1.00  0.00    -0.377 OA
BRANCH  29  30
ATOM     30  C   UNL A   1      35.757  31.877  32.035  1.00  0.00     0.188 C 
BRANCH  30  31
ATOM     31  C   UNL A   1      34.530  32.707  32.426  1.00  0.00     0.188 C 
BRANCH  31  32
ATOM     32  O   UNL A   1      34.830  34.079  32.652  1.00  0.00    -0.376 OA
BRANCH  32  33
ATOM     33  C   UNL A   1      35.084  34.499  33.989  1.00  0.00     0.202 C 
BRANCH  33  34
ATOM     34  C   UNL A   1      36.476  34.232  34.594  1.00  0.00     0.261 C 
BRANCH  34  35
ATOM     35  O   UNL A   1      37.574  34.479  33.703  1.00  0.00    -0.460 OA
BRANCH  35  36
ATOM     36  C   UNL A   1      38.844  34.533  34.181  1.00  0.00     0.338 C 
ATOM     37  O   UNL A   1      39.310  35.349  34.926  1.00  0.00    -0.246 OA
BRANCH  36  38
ATOM     38  C   UNL A   1      39.397  33.173  33.900  1.00  0.00     0.060 A 
ATOM     39  C   UNL A   1      40.388  32.609  34.712  1.00  0.00     0.016 A 
ATOM     40  C   UNL A   1      39.164  32.672  32.612  1.00  0.00     0.016 A 
ATOM     41  C   UNL A   1      41.252  31.668  34.156  1.00  0.00     0.010 A 
ATOM     42  C   UNL A   1      40.045  31.742  32.054  1.00  0.00     0.010 A 
ATOM     43  C   UNL A   1      41.132  31.292  32.799  1.00  0.00    -0.014 A 
BRANCH  43  44
ATOM     44  C   UNL A   1      42.086  30.289  32.293  1.00  0.00     0.031 A 
ATOM     45  C   UNL A   1      43.021  30.895  31.313  1.00  0.00     0.074 A 
ATOM     46  C   UNL A   1      42.270  29.010  32.695  1.00  0.00     0.049 A 
ATOM     47  N   UNL A   1      43.213  30.573  30.077  1.00  0.00    -0.248 NA
ATOM     48  C   UNL A   1      43.725  32.114  31.744  1.00  0.00     0.031 C 
ATOM     49  C   UNL A   1      41.690  28.352  33.867  1.00  0.00     0.029 A 
ATOM     50  N   UNL A   1      43.111  28.042  32.187  1.00  0.00    -0.354 N 
ATOM     51  C   UNL A   1      44.186  31.455  29.620  1.00  0.00     0.074 A 
ATOM     52  C   UNL A   1      44.342  32.475  30.622  1.00  0.00     0.031 C 
ATOM     53  C   UNL A   1      42.356  27.197  34.107  1.00  0.00     0.029 A 
ATOM     54  C   UNL A   1      43.322  26.965  33.042  1.00  0.00     0.049 A 
ATOM     55  H   UNL A   1      43.526  28.107  31.297  1.00  0.00     0.167 HD
ATOM     56  C   UNL A   1      44.991  31.140  28.574  1.00  0.00     0.037 A 
ATOM     57  C   UNL A   1      44.261  25.989  32.931  1.00  0.00     0.037 A 
ATOM     58  C   UNL A   1      44.475  30.055  27.794  1.00  0.00     0.049 A 
ATOM     59  C   UNL A   1      44.719  25.913  31.523  1.00  0.00     0.074 A 
ATOM     60  C   UNL A   1      43.604  29.902  26.741  1.00  0.00     0.029 A 
ATOM     61  N   UNL A   1      44.672  28.822  28.344  1.00  0.00    -0.354 N 
ATOM     62  N   UNL A   1      43.983  25.501  30.530  1.00  0.00    -0.248 NA
ATOM     63  C   UNL A   1      45.984  26.539  31.148  1.00  0.00     0.031 C 
ATOM     64  C   UNL A   1      43.210  28.531  26.734  1.00  0.00     0.029 A 
ATOM     65  C   UNL A   1      43.861  27.877  27.774  1.00  0.00     0.049 A 
ATOM     66  H   UNL A   1      45.318  28.635  29.063  1.00  0.00     0.167 HD
ATOM     67  C   UNL A   1      44.481  26.180  29.439  1.00  0.00     0.074 A 
ATOM     68  C   UNL A   1      45.799  26.652  29.832  1.00  0.00     0.031 C 
ATOM     69  C   UNL A   1      43.656  26.615  28.447  1.00  0.00     0.037 A 
BRANCH  56  70
ATOM     70  C   UNL A   1      46.447  31.523  28.522  1.00  0.00     0.064 A 
ATOM     71  C   UNL A   1      46.930  32.301  27.456  1.00  0.00     0.173 A 
ATOM     72  C   UNL A   1      47.431  30.913  29.334  1.00  0.00     0.173 A 
ATOM     73  F   UNL A   1      46.082  32.878  26.593  1.00  0.00    -0.203 F 
ATOM     74  C   UNL A   1      48.300  32.445  27.217  1.00  0.00     0.198 A 
ATOM     75  C   UNL A   1      48.793  31.108  29.129  1.00  0.00     0.198 A 
ATOM     76  F   UNL A   1      47.112  30.020  30.280  1.00  0.00    -0.203 F 
ATOM     77  F   UNL A   1      48.721  33.116  26.136  1.00  0.00    -0.200 F 
ATOM     78  C   UNL A   1      49.230  31.856  28.058  1.00  0.00     0.200 A 
ATOM     79  F   UNL A   1      49.674  30.502  29.938  1.00  0.00    -0.200 F 
ATOM     80  F   UNL A   1      50.541  31.967  27.810  1.00  0.00    -0.200 F 
ENDBRANCH  56  70
BRANCH  57  81
ATOM     81  C   UNL A   1      44.997  25.263  34.004  1.00  0.00     0.064 A 
ATOM     82  C   UNL A   1      45.033  23.855  34.038  1.00  0.00     0.173 A 
ATOM     83  C   UNL A   1      45.929  25.924  34.824  1.00  0.00     0.173 A 
ATOM     84  F   UNL A   1      44.204  23.138  33.264  1.00  0.00    -0.203 F 
ATOM     85  C   UNL A   1      45.977  23.157  34.801  1.00  0.00     0.198 A 
ATOM     86  C   UNL A   1      46.864  25.228  35.594  1.00  0.00     0.198 A 
ATOM     87  F   UNL A   1      46.024  27.261  34.817  1.00  0.00    -0.203 F 
ATOM     88  F   UNL A   1      46.032  21.820  34.740  1.00  0.00    -0.200 F 
ATOM     89  C   UNL A   1      46.902  23.846  35.567  1.00  0.00     0.200 A 
ATOM     90  F   UNL A   1      47.774  25.907  36.306  1.00  0.00    -0.200 F 
ATOM     91  F   UNL A   1      47.856  23.185  36.237  1.00  0.00    -0.200 F 
ENDBRANCH  57  81
BRANCH  69  92
ATOM     92  C   UNL A   1      42.407  25.843  28.179  1.00  0.00     0.064 A 
ATOM     93  C   UNL A   1      41.152  26.133  28.729  1.00  0.00     0.173 A 
ATOM     94  C   UNL A   1      42.487  24.775  27.270  1.00  0.00     0.173 A 
ATOM     95  F   UNL A   1      40.972  27.184  29.542  1.00  0.00    -0.203 F 
ATOM     96  C   UNL A   1      40.041  25.354  28.409  1.00  0.00     0.198 A 
ATOM     97  C   UNL A   1      41.361  24.046  26.904  1.00  0.00     0.198 A 
ATOM     98  F   UNL A   1      43.663  24.458  26.707  1.00  0.00    -0.203 F 
ATOM     99  F   UNL A   1      38.866  25.592  28.998  1.00  0.00    -0.200 F 
ATOM    100  C   UNL A   1      40.139  24.330  27.481  1.00  0.00     0.200 A 
ATOM    101  F   UNL A   1      41.462  23.074  25.988  1.00  0.00    -0.200 F 
ATOM    102  F   UNL A   1      39.050  23.628  27.136  1.00  0.00    -0.200 F 
ENDBRANCH  69  92
ENDBRANCH  43  44
ENDBRANCH  36  38
ENDBRANCH  35  36
ENDBRANCH  34  35
ENDBRANCH  33  34
ENDBRANCH  32  33
ENDBRANCH  31  32
ENDBRANCH  30  31
ENDBRANCH  29  30
ENDBRANCH   1  29
TORSDOF 23
ENDMDL
