MODEL 1
REMARK VINA RESULT:     -10.0      0.000      0.000
REMARK SMILES C[C@@H](C(=O)OCCOCCOCCOCCOC(=O)c1ccc(-c2c3nc(c(-c4c(F)c(F)c(F)c(F)c4F)c4ccc([nH]4)c(-c4c(F)c(F)c(F)c(F)c4F)c4nc(c(-c5c(F)c(F)c(F)c(F)c5F)c5ccc2[nH]5)C=C4)C=C3)cc1)c1ccc(NC2CCCC2)cc1F
REMARK SMILES IDX 10 1 9 2 8 3 7 4 6 5 5 6 3 7 4 8 2 9 1 10 83 11 84 12 94 13
REMARK SMILES IDX 85 14 93 15 95 16 86 17 87 18 88 20 89 21 92 22 90 23 91 24
REMARK SMILES IDX 11 25 12 26 13 27 14 28 15 29 16 30 17 31 18 32 19 33 20 34
REMARK SMILES IDX 21 35 82 36 22 37 81 38 23 39 24 40 25 41 75 42 26 43 80 44
REMARK SMILES IDX 74 45 76 46 27 47 79 48 73 49 72 50 28 52 60 53 40 54 59 55
REMARK SMILES IDX 41 56 44 57 58 58 77 59 42 60 43 61 57 63 78 64 45 65 29 66
REMARK SMILES IDX 30 67 38 68 31 69 32 70 36 71 39 72 33 73 34 74 37 75 35 76
REMARK SMILES IDX 61 77 62 78 70 79 63 80 64 81 68 82 71 83 65 84 66 85 69 86
REMARK SMILES IDX 67 87 46 88 47 89 55 90 48 91 49 92 53 93 56 94 50 95 51 96
REMARK SMILES IDX 54 97 52 98
REMARK H PARENT 87 19 76 51 44 62
REMARK Flexibility Score: inf
ROOT
ATOM      1  C   UNL A   1      33.588  25.482  25.891  1.00  0.00     0.188 C 
ENDROOT
BRANCH   1   2
ATOM      2  C   UNL A   1      34.099  25.129  24.479  1.00  0.00     0.188 C 
BRANCH   2   3
ATOM      3  O   UNL A   1      35.317  24.419  24.336  1.00  0.00    -0.376 OA
BRANCH   3   4
ATOM      4  C   UNL A   1      35.961  23.893  25.485  1.00  0.00     0.202 C 
BRANCH   4   5
ATOM      5  C   UNL A   1      36.112  22.375  25.745  1.00  0.00     0.261 C 
BRANCH   5   6
ATOM      6  O   UNL A   1      34.958  21.642  26.200  1.00  0.00    -0.463 OA
BRANCH   6   7
ATOM      7  C   UNL A   1      34.582  20.568  25.456  1.00  0.00     0.313 C 
ATOM      8  O   UNL A   1      35.382  19.832  24.886  1.00  0.00    -0.252 OA
BRANCH   7   9
ATOM      9  C   UNL A   1      33.056  20.324  25.409  1.00  0.00     0.129 C 
ATOM     10  C   UNL A   1      32.533  19.070  24.694  1.00  0.00     0.025 C 
BRANCH   9  11
ATOM     11  C   UNL A   1      32.340  21.600  24.976  1.00  0.00     0.002 A 
ATOM     12  C   UNL A   1      31.589  22.387  25.855  1.00  0.00     0.010 A 
ATOM     13  C   UNL A   1      32.303  21.955  23.631  1.00  0.00     0.129 A 
ATOM     14  C   UNL A   1      30.752  23.410  25.388  1.00  0.00     0.026 A 
ATOM     15  C   UNL A   1      31.514  23.014  23.173  1.00  0.00     0.065 A 
ATOM     16  F   UNL A   1      33.033  21.268  22.741  1.00  0.00    -0.207 F 
ATOM     17  C   UNL A   1      30.691  23.748  24.039  1.00  0.00     0.037 A 
BRANCH  17  18
ATOM     18  N   UNL A   1      29.907  24.756  23.523  1.00  0.00    -0.382 N 
ATOM     19  H   UNL A   1      29.180  24.456  22.931  1.00  0.00     0.160 HD
BRANCH  18  20
ATOM     20  C   UNL A   1      29.983  26.198  23.715  1.00  0.00     0.079 C 
ATOM     21  C   UNL A   1      30.911  26.915  22.744  1.00  0.00     0.025 C 
ATOM     22  C   UNL A   1      28.650  26.937  23.648  1.00  0.00     0.025 C 
ATOM     23  C   UNL A   1      30.487  28.372  22.870  1.00  0.00     0.002 C 
ATOM     24  C   UNL A   1      28.985  28.341  23.139  1.00  0.00     0.002 C 
ENDBRANCH  18  20
ENDBRANCH  17  18
ENDBRANCH   9  11
ENDBRANCH   7   9
ENDBRANCH   6   7
ENDBRANCH   5   6
ENDBRANCH   4   5
ENDBRANCH   3   4
ENDBRANCH   2   3
ENDBRANCH   1   2
BRANCH   1  25
ATOM     25  O   UNL A   1      33.900  26.793  26.315  1.00  0.00    -0.377 OA
BRANCH  25  26
ATOM     26  C   UNL A   1      32.950  27.794  25.992  1.00  0.00     0.188 C 
BRANCH  26  27
ATOM     27  C   UNL A   1      33.401  28.969  25.102  1.00  0.00     0.188 C 
BRANCH  27  28
ATOM     28  O   UNL A   1      32.516  30.085  25.120  1.00  0.00    -0.376 OA
BRANCH  28  29
ATOM     29  C   UNL A   1      31.755  30.338  26.291  1.00  0.00     0.202 C 
BRANCH  29  30
ATOM     30  C   UNL A   1      31.842  31.752  26.889  1.00  0.00     0.261 C 
BRANCH  30  31
ATOM     31  O   UNL A   1      33.094  32.436  26.726  1.00  0.00    -0.460 OA
BRANCH  31  32
ATOM     32  C   UNL A   1      33.519  33.224  27.733  1.00  0.00     0.338 C 
ATOM     33  O   UNL A   1      32.925  34.164  28.236  1.00  0.00    -0.246 OA
BRANCH  32  34
ATOM     34  C   UNL A   1      34.754  32.626  28.282  1.00  0.00     0.060 A 
ATOM     35  C   UNL A   1      34.727  31.289  28.702  1.00  0.00     0.016 A 
ATOM     36  C   UNL A   1      35.935  33.367  28.355  1.00  0.00     0.016 A 
ATOM     37  C   UNL A   1      35.877  30.698  29.227  1.00  0.00     0.010 A 
ATOM     38  C   UNL A   1      37.079  32.783  28.909  1.00  0.00     0.010 A 
ATOM     39  C   UNL A   1      37.043  31.458  29.379  1.00  0.00    -0.014 A 
BRANCH  39  40
ATOM     40  C   UNL A   1      38.145  30.943  30.227  1.00  0.00     0.031 A 
ATOM     41  C   UNL A   1      39.091  29.943  29.621  1.00  0.00     0.074 A 
ATOM     42  C   UNL A   1      38.323  31.365  31.490  1.00  0.00     0.049 A 
ATOM     43  N   UNL A   1      40.097  29.308  30.165  1.00  0.00    -0.248 NA
ATOM     44  C   UNL A   1      38.868  29.613  28.203  1.00  0.00     0.031 C 
ATOM     45  C   UNL A   1      37.506  32.367  32.170  1.00  0.00     0.029 A 
ATOM     46  N   UNL A   1      39.252  30.991  32.429  1.00  0.00    -0.354 N 
ATOM     47  C   UNL A   1      40.616  28.498  29.163  1.00  0.00     0.074 A 
ATOM     48  C   UNL A   1      39.799  28.697  27.986  1.00  0.00     0.031 C 
ATOM     49  C   UNL A   1      37.965  32.521  33.426  1.00  0.00     0.029 A 
ATOM     50  C   UNL A   1      39.081  31.602  33.646  1.00  0.00     0.049 A 
ATOM     51  H   UNL A   1      39.973  30.345  32.247  1.00  0.00     0.167 HD
ATOM     52  C   UNL A   1      41.683  27.667  29.217  1.00  0.00     0.037 A 
ATOM     53  C   UNL A   1      39.738  31.418  34.810  1.00  0.00     0.037 A 
ATOM     54  C   UNL A   1      42.493  27.471  30.390  1.00  0.00     0.049 A 
ATOM     55  C   UNL A   1      40.870  30.420  34.867  1.00  0.00     0.074 A 
ATOM     56  C   UNL A   1      43.608  26.667  30.544  1.00  0.00     0.029 A 
ATOM     57  N   UNL A   1      42.264  28.078  31.617  1.00  0.00    -0.354 N 
ATOM     58  N   UNL A   1      41.375  29.679  33.911  1.00  0.00    -0.248 NA
ATOM     59  C   UNL A   1      41.527  30.238  36.171  1.00  0.00     0.031 C 
ATOM     60  C   UNL A   1      44.013  26.735  31.880  1.00  0.00     0.029 A 
ATOM     61  C   UNL A   1      43.197  27.638  32.542  1.00  0.00     0.049 A 
ATOM     62  H   UNL A   1      41.545  28.724  31.803  1.00  0.00     0.167 HD
ATOM     63  C   UNL A   1      42.426  28.973  34.485  1.00  0.00     0.074 A 
ATOM     64  C   UNL A   1      42.495  29.385  35.871  1.00  0.00     0.031 C 
ATOM     65  C   UNL A   1      43.260  28.068  33.916  1.00  0.00     0.037 A 
BRANCH  52  66
ATOM     66  C   UNL A   1      42.013  26.877  27.983  1.00  0.00     0.064 A 
ATOM     67  C   UNL A   1      42.955  27.324  27.045  1.00  0.00     0.173 A 
ATOM     68  C   UNL A   1      41.395  25.639  27.753  1.00  0.00     0.173 A 
ATOM     69  F   UNL A   1      43.562  28.509  27.208  1.00  0.00    -0.203 F 
ATOM     70  C   UNL A   1      43.245  26.573  25.909  1.00  0.00     0.198 A 
ATOM     71  C   UNL A   1      41.713  24.874  26.634  1.00  0.00     0.198 A 
ATOM     72  F   UNL A   1      40.487  25.164  28.619  1.00  0.00    -0.203 F 
ATOM     73  F   UNL A   1      44.110  27.045  24.998  1.00  0.00    -0.200 F 
ATOM     74  C   UNL A   1      42.632  25.345  25.709  1.00  0.00     0.200 A 
ATOM     75  F   UNL A   1      41.128  23.683  26.451  1.00  0.00    -0.200 F 
ATOM     76  F   UNL A   1      42.919  24.620  24.620  1.00  0.00    -0.200 F 
ENDBRANCH  52  66
BRANCH  53  77
ATOM     77  C   UNL A   1      39.339  32.179  36.025  1.00  0.00     0.064 A 
ATOM     78  C   UNL A   1      38.364  31.683  36.902  1.00  0.00     0.173 A 
ATOM     79  C   UNL A   1      39.896  33.434  36.315  1.00  0.00     0.173 A 
ATOM     80  F   UNL A   1      37.780  30.501  36.655  1.00  0.00    -0.203 F 
ATOM     81  C   UNL A   1      37.943  32.422  38.006  1.00  0.00     0.198 A 
ATOM     82  C   UNL A   1      39.499  34.157  37.438  1.00  0.00     0.198 A 
ATOM     83  F   UNL A   1      40.828  33.958  35.506  1.00  0.00    -0.203 F 
ATOM     84  F   UNL A   1      36.968  31.950  38.794  1.00  0.00    -0.200 F 
ATOM     85  C   UNL A   1      38.515  33.656  38.277  1.00  0.00     0.200 A 
ATOM     86  F   UNL A   1      40.063  35.344  37.701  1.00  0.00    -0.200 F 
ATOM     87  F   UNL A   1      38.110  34.367  39.338  1.00  0.00    -0.200 F 
ENDBRANCH  53  77
BRANCH  65  88
ATOM     88  C   UNL A   1      44.356  27.496  34.774  1.00  0.00     0.064 A 
ATOM     89  C   UNL A   1      45.594  28.138  34.922  1.00  0.00     0.173 A 
ATOM     90  C   UNL A   1      44.144  26.310  35.495  1.00  0.00     0.173 A 
ATOM     91  F   UNL A   1      45.854  29.269  34.248  1.00  0.00    -0.203 F 
ATOM     92  C   UNL A   1      46.588  27.600  35.736  1.00  0.00     0.198 A 
ATOM     93  C   UNL A   1      45.125  25.794  36.336  1.00  0.00     0.198 A 
ATOM     94  F   UNL A   1      42.974  25.660  35.398  1.00  0.00    -0.203 F 
ATOM     95  F   UNL A   1      47.782  28.202  35.820  1.00  0.00    -0.200 F 
ATOM     96  C   UNL A   1      46.350  26.434  36.448  1.00  0.00     0.200 A 
ATOM     97  F   UNL A   1      44.885  24.679  37.038  1.00  0.00    -0.200 F 
ATOM     98  F   UNL A   1      47.303  25.922  37.238  1.00  0.00    -0.200 F 
ENDBRANCH  65  88
ENDBRANCH  39  40
ENDBRANCH  32  34
ENDBRANCH  31  32
ENDBRANCH  30  31
ENDBRANCH  29  30
ENDBRANCH  28  29
ENDBRANCH  27  28
ENDBRANCH  26  27
ENDBRANCH  25  26
ENDBRANCH   1  25
TORSDOF 23
ENDMDL
MODEL 2
REMARK VINA RESULT:     -10.0      4.241      7.606
REMARK SMILES C[C@@H](C(=O)OCCOCCOCCOCCOC(=O)c1ccc(-c2c3nc(c(-c4c(F)c(F)c(F)c(F)c4F)c4ccc([nH]4)c(-c4c(F)c(F)c(F)c(F)c4F)c4nc(c(-c5c(F)c(F)c(F)c(F)c5F)c5ccc2[nH]5)C=C4)C=C3)cc1)c1ccc(NC2CCCC2)cc1F
REMARK SMILES IDX 10 1 9 2 8 3 7 4 6 5 5 6 3 7 4 8 2 9 1 10 83 11 84 12 94 13
REMARK SMILES IDX 85 14 93 15 95 16 86 17 87 18 88 20 89 21 92 22 90 23 91 24
REMARK SMILES IDX 11 25 12 26 13 27 14 28 15 29 16 30 17 31 18 32 19 33 20 34
REMARK SMILES IDX 21 35 82 36 22 37 81 38 23 39 24 40 25 41 75 42 26 43 80 44
REMARK SMILES IDX 74 45 76 46 27 47 79 48 73 49 72 50 28 52 60 53 40 54 59 55
REMARK SMILES IDX 41 56 44 57 58 58 77 59 42 60 43 61 57 63 78 64 45 65 29 66
REMARK SMILES IDX 30 67 38 68 31 69 32 70 36 71 39 72 33 73 34 74 37 75 35 76
REMARK SMILES IDX 61 77 62 78 70 79 63 80 64 81 68 82 71 83 65 84 66 85 69 86
REMARK SMILES IDX 67 87 46 88 47 89 55 90 48 91 49 92 53 93 56 94 50 95 51 96
REMARK SMILES IDX 54 97 52 98
REMARK H PARENT 87 19 76 51 44 62
REMARK Flexibility Score: inf
ROOT
ATOM      1  C   UNL A   1      31.720  21.996  25.675  1.00  0.00     0.188 C 
ENDROOT
BRANCH   1   2
ATOM      2  C   UNL A   1      31.607  23.310  24.876  1.00  0.00     0.188 C 
BRANCH   2   3
ATOM      3  O   UNL A   1      32.781  24.041  24.566  1.00  0.00    -0.376 OA
BRANCH   3   4
ATOM      4  C   UNL A   1      33.002  24.479  23.235  1.00  0.00     0.202 C 
BRANCH   4   5
ATOM      5  C   UNL A   1      33.566  25.878  22.891  1.00  0.00     0.261 C 
BRANCH   5   6
ATOM      6  O   UNL A   1      32.682  27.013  22.986  1.00  0.00    -0.463 OA
BRANCH   6   7
ATOM      7  C   UNL A   1      31.382  26.807  22.644  1.00  0.00     0.313 C 
ATOM      8  O   UNL A   1      31.026  26.510  21.507  1.00  0.00    -0.252 OA
BRANCH   7   9
ATOM      9  C   UNL A   1      30.383  26.945  23.815  1.00  0.00     0.129 C 
ATOM     10  C   UNL A   1      28.904  27.204  23.493  1.00  0.00     0.025 C 
BRANCH   9  11
ATOM     11  C   UNL A   1      30.941  27.901  24.864  1.00  0.00     0.002 A 
ATOM     12  C   UNL A   1      31.111  29.270  24.634  1.00  0.00     0.010 A 
ATOM     13  C   UNL A   1      31.434  27.403  26.067  1.00  0.00     0.129 A 
ATOM     14  C   UNL A   1      31.841  30.076  25.518  1.00  0.00     0.026 A 
ATOM     15  C   UNL A   1      32.111  28.220  26.977  1.00  0.00     0.065 A 
ATOM     16  F   UNL A   1      31.268  26.108  26.369  1.00  0.00    -0.207 F 
ATOM     17  C   UNL A   1      32.360  29.574  26.707  1.00  0.00     0.037 A 
BRANCH  17  18
ATOM     18  N   UNL A   1      33.066  30.320  27.627  1.00  0.00    -0.382 N 
ATOM     19  H   UNL A   1      32.646  30.391  28.514  1.00  0.00     0.160 HD
BRANCH  18  20
ATOM     20  C   UNL A   1      34.336  31.018  27.493  1.00  0.00     0.079 C 
ATOM     21  C   UNL A   1      34.453  32.281  28.336  1.00  0.00     0.025 C 
ATOM     22  C   UNL A   1      35.576  30.186  27.808  1.00  0.00     0.025 C 
ATOM     23  C   UNL A   1      35.951  32.554  28.349  1.00  0.00     0.002 C 
ATOM     24  C   UNL A   1      36.618  31.181  28.323  1.00  0.00     0.002 C 
ENDBRANCH  18  20
ENDBRANCH  17  18
ENDBRANCH   9  11
ENDBRANCH   7   9
ENDBRANCH   6   7
ENDBRANCH   5   6
ENDBRANCH   4   5
ENDBRANCH   3   4
ENDBRANCH   2   3
ENDBRANCH   1   2
BRANCH   1  25
ATOM     25  O   UNL A   1      32.142  20.884  24.913  1.00  0.00    -0.377 OA
BRANCH  25  26
ATOM     26  C   UNL A   1      33.316  20.229  25.365  1.00  0.00     0.188 C 
BRANCH  26  27
ATOM     27  C   UNL A   1      34.610  21.057  25.492  1.00  0.00     0.188 C 
BRANCH  27  28
ATOM     28  O   UNL A   1      35.115  21.540  24.251  1.00  0.00    -0.376 OA
BRANCH  28  29
ATOM     29  C   UNL A   1      36.394  22.157  24.223  1.00  0.00     0.202 C 
BRANCH  29  30
ATOM     30  C   UNL A   1      37.550  21.396  24.893  1.00  0.00     0.261 C 
BRANCH  30  31
ATOM     31  O   UNL A   1      38.039  21.940  26.129  1.00  0.00    -0.460 OA
BRANCH  31  32
ATOM     32  C   UNL A   1      39.350  21.799  26.406  1.00  0.00     0.338 C 
ATOM     33  O   UNL A   1      40.066  20.853  26.125  1.00  0.00    -0.246 OA
BRANCH  32  34
ATOM     34  C   UNL A   1      39.840  23.091  26.932  1.00  0.00     0.060 A 
ATOM     35  C   UNL A   1      39.250  24.275  26.469  1.00  0.00     0.016 A 
ATOM     36  C   UNL A   1      40.852  23.133  27.894  1.00  0.00     0.016 A 
ATOM     37  C   UNL A   1      39.694  25.509  26.945  1.00  0.00     0.010 A 
ATOM     38  C   UNL A   1      41.315  24.371  28.348  1.00  0.00     0.010 A 
ATOM     39  C   UNL A   1      40.762  25.563  27.849  1.00  0.00    -0.014 A 
BRANCH  39  40
ATOM     40  C   UNL A   1      41.444  26.858  28.096  1.00  0.00     0.031 A 
ATOM     41  C   UNL A   1      42.834  27.035  27.550  1.00  0.00     0.074 A 
ATOM     42  C   UNL A   1      40.844  27.858  28.762  1.00  0.00     0.049 A 
ATOM     43  N   UNL A   1      43.657  28.045  27.673  1.00  0.00    -0.248 NA
ATOM     44  C   UNL A   1      43.370  25.917  26.756  1.00  0.00     0.031 C 
ATOM     45  C   UNL A   1      39.484  27.824  29.294  1.00  0.00     0.029 A 
ATOM     46  N   UNL A   1      41.314  29.100  29.112  1.00  0.00    -0.354 N 
ATOM     47  C   UNL A   1      44.807  27.678  26.985  1.00  0.00     0.074 A 
ATOM     48  C   UNL A   1      44.589  26.344  26.471  1.00  0.00     0.031 C 
ATOM     49  C   UNL A   1      39.231  28.992  29.913  1.00  0.00     0.029 A 
ATOM     50  C   UNL A   1      40.424  29.836  29.853  1.00  0.00     0.049 A 
ATOM     51  H   UNL A   1      42.205  29.431  28.854  1.00  0.00     0.167 HD
ATOM     52  C   UNL A   1      45.940  28.393  26.792  1.00  0.00     0.037 A 
ATOM     53  C   UNL A   1      40.571  31.043  30.437  1.00  0.00     0.037 A 
ATOM     54  C   UNL A   1      46.152  29.720  27.306  1.00  0.00     0.049 A 
ATOM     55  C   UNL A   1      41.877  31.784  30.280  1.00  0.00     0.074 A 
ATOM     56  C   UNL A   1      47.256  30.539  27.151  1.00  0.00     0.029 A 
ATOM     57  N   UNL A   1      45.242  30.418  28.088  1.00  0.00    -0.354 N 
ATOM     58  N   UNL A   1      42.949  31.446  29.606  1.00  0.00    -0.248 NA
ATOM     59  C   UNL A   1      41.990  33.080  30.967  1.00  0.00     0.031 C 
ATOM     60  C   UNL A   1      47.043  31.704  27.893  1.00  0.00     0.029 A 
ATOM     61  C   UNL A   1      45.775  31.644  28.451  1.00  0.00     0.049 A 
ATOM     62  H   UNL A   1      44.351  30.091  28.346  1.00  0.00     0.167 HD
ATOM     63  C   UNL A   1      43.846  32.497  29.756  1.00  0.00     0.074 A 
ATOM     64  C   UNL A   1      43.187  33.491  30.575  1.00  0.00     0.031 C 
ATOM     65  C   UNL A   1      45.101  32.630  29.258  1.00  0.00     0.037 A 
BRANCH  52  66
ATOM     66  C   UNL A   1      47.053  27.739  26.026  1.00  0.00     0.064 A 
ATOM     67  C   UNL A   1      47.170  27.863  24.634  1.00  0.00     0.173 A 
ATOM     68  C   UNL A   1      48.036  27.000  26.702  1.00  0.00     0.173 A 
ATOM     69  F   UNL A   1      46.248  28.543  23.936  1.00  0.00    -0.203 F 
ATOM     70  C   UNL A   1      48.212  27.248  23.945  1.00  0.00     0.198 A 
ATOM     71  C   UNL A   1      49.096  26.416  26.015  1.00  0.00     0.198 A 
ATOM     72  F   UNL A   1      47.973  26.850  28.034  1.00  0.00    -0.203 F 
ATOM     73  F   UNL A   1      48.274  27.335  22.608  1.00  0.00    -0.200 F 
ATOM     74  C   UNL A   1      49.179  26.534  24.636  1.00  0.00     0.200 A 
ATOM     75  F   UNL A   1      50.035  25.738  26.688  1.00  0.00    -0.200 F 
ATOM     76  F   UNL A   1      50.186  25.950  23.973  1.00  0.00    -0.200 F 
ENDBRANCH  52  66
BRANCH  53  77
ATOM     77  C   UNL A   1      39.462  31.628  31.238  1.00  0.00     0.064 A 
ATOM     78  C   UNL A   1      38.678  32.676  30.735  1.00  0.00     0.173 A 
ATOM     79  C   UNL A   1      39.187  31.179  32.539  1.00  0.00     0.173 A 
ATOM     80  F   UNL A   1      38.919  33.162  29.508  1.00  0.00    -0.203 F 
ATOM     81  C   UNL A   1      37.681  33.268  31.507  1.00  0.00     0.198 A 
ATOM     82  C   UNL A   1      38.166  31.748  33.298  1.00  0.00     0.198 A 
ATOM     83  F   UNL A   1      39.909  30.183  33.073  1.00  0.00    -0.203 F 
ATOM     84  F   UNL A   1      36.988  34.306  31.022  1.00  0.00    -0.200 F 
ATOM     85  C   UNL A   1      37.421  32.799  32.786  1.00  0.00     0.200 A 
ATOM     86  F   UNL A   1      37.913  31.284  34.530  1.00  0.00    -0.200 F 
ATOM     87  F   UNL A   1      36.463  33.369  33.530  1.00  0.00    -0.200 F 
ENDBRANCH  53  77
BRANCH  65  88
ATOM     88  C   UNL A   1      45.829  33.915  29.538  1.00  0.00     0.064 A 
ATOM     89  C   UNL A   1      45.726  35.028  28.689  1.00  0.00     0.173 A 
ATOM     90  C   UNL A   1      46.605  34.050  30.701  1.00  0.00     0.173 A 
ATOM     91  F   UNL A   1      45.006  34.951  27.560  1.00  0.00    -0.203 F 
ATOM     92  C   UNL A   1      46.395  36.214  28.979  1.00  0.00     0.198 A 
ATOM     93  C   UNL A   1      47.243  35.249  31.006  1.00  0.00     0.198 A 
ATOM     94  F   UNL A   1      46.729  33.021  31.553  1.00  0.00    -0.203 F 
ATOM     95  F   UNL A   1      46.325  37.245  28.126  1.00  0.00    -0.200 F 
ATOM     96  C   UNL A   1      47.145  36.327  30.139  1.00  0.00     0.200 A 
ATOM     97  F   UNL A   1      47.950  35.361  32.138  1.00  0.00    -0.200 F 
ATOM     98  F   UNL A   1      47.780  37.472  30.422  1.00  0.00    -0.200 F 
ENDBRANCH  65  88
ENDBRANCH  39  40
ENDBRANCH  32  34
ENDBRANCH  31  32
ENDBRANCH  30  31
ENDBRANCH  29  30
ENDBRANCH  28  29
ENDBRANCH  27  28
ENDBRANCH  26  27
ENDBRANCH  25  26
ENDBRANCH   1  25
TORSDOF 23
ENDMDL
MODEL 3
REMARK VINA RESULT:      -9.8      2.395      8.362
REMARK SMILES C[C@@H](C(=O)OCCOCCOCCOCCOC(=O)c1ccc(-c2c3nc(c(-c4c(F)c(F)c(F)c(F)c4F)c4ccc([nH]4)c(-c4c(F)c(F)c(F)c(F)c4F)c4nc(c(-c5c(F)c(F)c(F)c(F)c5F)c5ccc2[nH]5)C=C4)C=C3)cc1)c1ccc(NC2CCCC2)cc1F
REMARK SMILES IDX 10 1 9 2 8 3 7 4 6 5 5 6 3 7 4 8 2 9 1 10 83 11 84 12 94 13
REMARK SMILES IDX 85 14 93 15 95 16 86 17 87 18 88 20 89 21 92 22 90 23 91 24
REMARK SMILES IDX 11 25 12 26 13 27 14 28 15 29 16 30 17 31 18 32 19 33 20 34
REMARK SMILES IDX 21 35 82 36 22 37 81 38 23 39 24 40 25 41 75 42 26 43 80 44
REMARK SMILES IDX 74 45 76 46 27 47 79 48 73 49 72 50 28 52 60 53 40 54 59 55
REMARK SMILES IDX 41 56 44 57 58 58 77 59 42 60 43 61 57 63 78 64 45 65 29 66
REMARK SMILES IDX 30 67 38 68 31 69 32 70 36 71 39 72 33 73 34 74 37 75 35 76
REMARK SMILES IDX 61 77 62 78 70 79 63 80 64 81 68 82 71 83 65 84 66 85 69 86
REMARK SMILES IDX 67 87 46 88 47 89 55 90 48 91 49 92 53 93 56 94 50 95 51 96
REMARK SMILES IDX 54 97 52 98
REMARK H PARENT 87 19 76 51 44 62
REMARK Flexibility Score: inf
ROOT
ATOM      1  C   UNL A   1      32.529  30.195  27.218  1.00  0.00     0.188 C 
ENDROOT
BRANCH   1   2
ATOM      2  C   UNL A   1      31.823  29.975  25.865  1.00  0.00     0.188 C 
BRANCH   2   3
ATOM      3  O   UNL A   1      32.592  29.630  24.726  1.00  0.00    -0.376 OA
BRANCH   3   4
ATOM      4  C   UNL A   1      32.772  28.264  24.389  1.00  0.00     0.202 C 
BRANCH   4   5
ATOM      5  C   UNL A   1      31.593  27.304  24.101  1.00  0.00     0.261 C 
BRANCH   5   6
ATOM      6  O   UNL A   1      31.777  25.899  24.363  1.00  0.00    -0.463 OA
BRANCH   6   7
ATOM      7  C   UNL A   1      32.107  25.550  25.635  1.00  0.00     0.313 C 
ATOM      8  O   UNL A   1      31.378  25.762  26.600  1.00  0.00    -0.252 OA
BRANCH   7   9
ATOM      9  C   UNL A   1      33.468  24.831  25.769  1.00  0.00     0.129 C 
ATOM     10  C   UNL A   1      34.688  25.426  25.051  1.00  0.00     0.025 C 
BRANCH   9  11
ATOM     11  C   UNL A   1      33.294  23.338  25.510  1.00  0.00     0.002 A 
ATOM     12  C   UNL A   1      32.698  22.830  24.352  1.00  0.00     0.010 A 
ATOM     13  C   UNL A   1      33.612  22.417  26.505  1.00  0.00     0.129 A 
ATOM     14  C   UNL A   1      32.335  21.480  24.246  1.00  0.00     0.026 A 
ATOM     15  C   UNL A   1      33.304  21.060  26.375  1.00  0.00     0.065 A 
ATOM     16  F   UNL A   1      34.223  22.832  27.623  1.00  0.00    -0.207 F 
ATOM     17  C   UNL A   1      32.626  20.563  25.252  1.00  0.00     0.037 A 
BRANCH  17  18
ATOM     18  N   UNL A   1      32.317  19.221  25.197  1.00  0.00    -0.382 N 
ATOM     19  H   UNL A   1      31.355  19.019  25.146  1.00  0.00     0.160 HD
BRANCH  18  20
ATOM     20  C   UNL A   1      33.189  18.055  25.203  1.00  0.00     0.079 C 
ATOM     21  C   UNL A   1      32.519  16.768  25.664  1.00  0.00     0.025 C 
ATOM     22  C   UNL A   1      33.852  17.729  23.867  1.00  0.00     0.025 C 
ATOM     23  C   UNL A   1      33.472  15.685  25.177  1.00  0.00     0.002 C 
ATOM     24  C   UNL A   1      34.062  16.214  23.872  1.00  0.00     0.002 C 
ENDBRANCH  18  20
ENDBRANCH  17  18
ENDBRANCH   9  11
ENDBRANCH   7   9
ENDBRANCH   6   7
ENDBRANCH   5   6
ENDBRANCH   4   5
ENDBRANCH   3   4
ENDBRANCH   2   3
ENDBRANCH   1   2
BRANCH   1  25
ATOM     25  O   UNL A   1      33.894  30.546  27.115  1.00  0.00    -0.377 OA
BRANCH  25  26
ATOM     26  C   UNL A   1      34.422  31.309  28.186  1.00  0.00     0.188 C 
BRANCH  26  27
ATOM     27  C   UNL A   1      34.758  32.791  27.930  1.00  0.00     0.188 C 
BRANCH  27  28
ATOM     28  O   UNL A   1      34.620  33.626  29.076  1.00  0.00    -0.376 OA
BRANCH  28  29
ATOM     29  C   UNL A   1      34.217  34.976  28.898  1.00  0.00     0.202 C 
BRANCH  29  30
ATOM     30  C   UNL A   1      32.907  35.409  29.575  1.00  0.00     0.261 C 
BRANCH  30  31
ATOM     31  O   UNL A   1      33.037  36.194  30.770  1.00  0.00    -0.460 OA
BRANCH  31  32
ATOM     32  C   UNL A   1      32.661  35.634  31.937  1.00  0.00     0.338 C 
ATOM     33  O   UNL A   1      31.529  35.544  32.382  1.00  0.00    -0.246 OA
BRANCH  32  34
ATOM     34  C   UNL A   1      33.841  34.949  32.507  1.00  0.00     0.060 A 
ATOM     35  C   UNL A   1      35.088  35.587  32.444  1.00  0.00     0.016 A 
ATOM     36  C   UNL A   1      33.715  33.702  33.123  1.00  0.00     0.016 A 
ATOM     37  C   UNL A   1      36.219  34.963  32.971  1.00  0.00     0.010 A 
ATOM     38  C   UNL A   1      34.854  33.065  33.623  1.00  0.00     0.010 A 
ATOM     39  C   UNL A   1      36.115  33.679  33.517  1.00  0.00    -0.014 A 
BRANCH  39  40
ATOM     40  C   UNL A   1      37.346  32.890  33.768  1.00  0.00     0.031 A 
ATOM     41  C   UNL A   1      38.101  33.152  35.043  1.00  0.00     0.074 A 
ATOM     42  C   UNL A   1      37.773  31.951  32.908  1.00  0.00     0.049 A 
ATOM     43  N   UNL A   1      39.224  32.636  35.469  1.00  0.00    -0.248 NA
ATOM     44  C   UNL A   1      37.503  34.134  35.963  1.00  0.00     0.031 C 
ATOM     45  C   UNL A   1      37.102  31.571  31.668  1.00  0.00     0.029 A 
ATOM     46  N   UNL A   1      38.887  31.149  32.949  1.00  0.00    -0.354 N 
ATOM     47  C   UNL A   1      39.473  33.238  36.696  1.00  0.00     0.074 A 
ATOM     48  C   UNL A   1      38.400  34.179  36.935  1.00  0.00     0.031 C 
ATOM     49  C   UNL A   1      37.825  30.614  31.058  1.00  0.00     0.029 A 
ATOM     50  C   UNL A   1      39.027  30.344  31.846  1.00  0.00     0.049 A 
ATOM     51  H   UNL A   1      39.526  31.152  33.699  1.00  0.00     0.167 HD
ATOM     52  C   UNL A   1      40.500  33.021  37.551  1.00  0.00     0.037 A 
ATOM     53  C   UNL A   1      40.026  29.504  31.506  1.00  0.00     0.037 A 
ATOM     54  C   UNL A   1      41.564  32.084  37.309  1.00  0.00     0.049 A 
ATOM     55  C   UNL A   1      41.204  29.345  32.436  1.00  0.00     0.074 A 
ATOM     56  C   UNL A   1      42.642  31.774  38.120  1.00  0.00     0.029 A 
ATOM     57  N   UNL A   1      41.693  31.315  36.161  1.00  0.00    -0.354 N 
ATOM     58  N   UNL A   1      41.420  29.894  33.607  1.00  0.00    -0.248 NA
ATOM     59  C   UNL A   1      42.278  28.442  31.996  1.00  0.00     0.031 C 
ATOM     60  C   UNL A   1      43.457  30.869  37.435  1.00  0.00     0.029 A 
ATOM     61  C   UNL A   1      42.851  30.557  36.228  1.00  0.00     0.049 A 
ATOM     62  H   UNL A   1      41.057  31.309  35.410  1.00  0.00     0.167 HD
ATOM     63  C   UNL A   1      42.630  29.379  34.057  1.00  0.00     0.074 A 
ATOM     64  C   UNL A   1      43.095  28.462  33.038  1.00  0.00     0.031 C 
ATOM     65  C   UNL A   1      43.294  29.638  35.210  1.00  0.00     0.037 A 
BRANCH  52  66
ATOM     66  C   UNL A   1      40.541  33.839  38.809  1.00  0.00     0.064 A 
ATOM     67  C   UNL A   1      39.869  33.443  39.975  1.00  0.00     0.173 A 
ATOM     68  C   UNL A   1      41.292  35.023  38.856  1.00  0.00     0.173 A 
ATOM     69  F   UNL A   1      39.123  32.328  39.980  1.00  0.00    -0.203 F 
ATOM     70  C   UNL A   1      39.924  34.218  41.131  1.00  0.00     0.198 A 
ATOM     71  C   UNL A   1      41.374  35.777  40.023  1.00  0.00     0.198 A 
ATOM     72  F   UNL A   1      41.956  35.447  37.770  1.00  0.00    -0.203 F 
ATOM     73  F   UNL A   1      39.230  33.848  42.218  1.00  0.00    -0.200 F 
ATOM     74  C   UNL A   1      40.683  35.378  41.157  1.00  0.00     0.200 A 
ATOM     75  F   UNL A   1      42.118  36.890  40.049  1.00  0.00    -0.200 F 
ATOM     76  F   UNL A   1      40.742  36.118  42.273  1.00  0.00    -0.200 F 
ENDBRANCH  52  66
BRANCH  53  77
ATOM     77  C   UNL A   1      39.973  28.758  30.219  1.00  0.00     0.064 A 
ATOM     78  C   UNL A   1      39.400  27.481  30.146  1.00  0.00     0.173 A 
ATOM     79  C   UNL A   1      40.527  29.290  29.045  1.00  0.00     0.173 A 
ATOM     80  F   UNL A   1      38.883  26.915  31.247  1.00  0.00    -0.203 F 
ATOM     81  C   UNL A   1      39.405  26.754  28.957  1.00  0.00     0.198 A 
ATOM     82  C   UNL A   1      40.501  28.577  27.848  1.00  0.00     0.198 A 
ATOM     83  F   UNL A   1      41.093  30.506  29.060  1.00  0.00    -0.203 F 
ATOM     84  F   UNL A   1      38.904  25.512  28.931  1.00  0.00    -0.200 F 
ATOM     85  C   UNL A   1      39.950  27.305  27.807  1.00  0.00     0.200 A 
ATOM     86  F   UNL A   1      41.020  29.118  26.737  1.00  0.00    -0.200 F 
ATOM     87  F   UNL A   1      39.956  26.606  26.663  1.00  0.00    -0.200 F 
ENDBRANCH  53  77
BRANCH  65  88
ATOM     88  C   UNL A   1      44.571  28.885  35.463  1.00  0.00     0.064 A 
ATOM     89  C   UNL A   1      45.827  29.422  35.142  1.00  0.00     0.173 A 
ATOM     90  C   UNL A   1      44.538  27.624  36.080  1.00  0.00     0.173 A 
ATOM     91  F   UNL A   1      45.916  30.618  34.541  1.00  0.00    -0.203 F 
ATOM     92  C   UNL A   1      46.997  28.713  35.401  1.00  0.00     0.198 A 
ATOM     93  C   UNL A   1      45.711  26.934  36.371  1.00  0.00     0.198 A 
ATOM     94  F   UNL A   1      43.365  27.067  36.418  1.00  0.00    -0.203 F 
ATOM     95  F   UNL A   1      48.182  29.223  35.036  1.00  0.00    -0.200 F 
ATOM     96  C   UNL A   1      46.939  27.475  36.023  1.00  0.00     0.200 A 
ATOM     97  F   UNL A   1      45.653  25.747  36.991  1.00  0.00    -0.200 F 
ATOM     98  F   UNL A   1      48.067  26.798  36.281  1.00  0.00    -0.200 F 
ENDBRANCH  65  88
ENDBRANCH  39  40
ENDBRANCH  32  34
ENDBRANCH  31  32
ENDBRANCH  30  31
ENDBRANCH  29  30
ENDBRANCH  28  29
ENDBRANCH  27  28
ENDBRANCH  26  27
ENDBRANCH  25  26
ENDBRANCH   1  25
TORSDOF 23
ENDMDL
