MODEL 1
REMARK VINA RESULT:     -11.5      0.000      0.000
REMARK SMILES O=C(OCCOCCOCCOCCOC(=O)[C@]1(NC(=O)C2CCN(C(=O)C3CC3)CC2)CCCc2ccccc21)c1ccc(-c2c3nc(c(-c4c(F)c(F)c(F)c(F)c4F)c4ccc([nH]4)c(-c4c(F)c(F)c(F)c(F)c4F)c4nc(c(-c5c(F)c(F)c(F)c(F)c5F)c5ccc2[nH]5)C=C4)C=C3)cc1
REMARK SMILES IDX 10 1 9 2 8 3 7 4 6 5 5 6 4 7 3 8 2 9 1 10 42 11 43 12 104 13
REMARK SMILES IDX 44 14 103 15 45 16 46 17 47 18 97 19 48 20 102 21 96 22
REMARK SMILES IDX 98 23 49 24 101 25 95 26 94 27 50 29 82 30 62 31 81 32 63 33
REMARK SMILES IDX 66 34 80 35 99 36 64 37 65 38 79 40 100 41 67 42 51 43 52 44
REMARK SMILES IDX 60 45 53 46 54 47 58 48 61 49 55 50 56 51 59 52 57 53 83 54
REMARK SMILES IDX 84 55 92 56 85 57 86 58 90 59 93 60 87 61 88 62 91 63 89 64
REMARK SMILES IDX 68 65 69 66 77 67 70 68 71 69 75 70 78 71 72 72 73 73 76 74
REMARK SMILES IDX 74 75 11 76 12 77 13 78 14 79 15 80 16 81 17 82 18 83 33 84
REMARK SMILES IDX 41 85 34 86 36 87 40 88 35 89 37 90 39 91 38 92 19 93 20 94
REMARK SMILES IDX 21 96 22 97 23 98 32 99 24 100 31 101 25 102 26 103 27 104
REMARK SMILES IDX 28 105 29 106 30 107
REMARK H PARENT 98 28 66 39 19 95
REMARK Flexibility Score: inf
ROOT
ATOM      1  C   UNL A   1      35.245  30.838  27.803  1.00  0.00     0.188 C 
ENDROOT
BRANCH   1   2
ATOM      2  O   UNL A   1      34.642  31.634  28.822  1.00  0.00    -0.377 OA
BRANCH   2   3
ATOM      3  C   UNL A   1      34.403  32.978  28.388  1.00  0.00     0.188 C 
BRANCH   3   4
ATOM      4  C   UNL A   1      32.985  33.180  27.862  1.00  0.00     0.188 C 
BRANCH   4   5
ATOM      5  O   UNL A   1      32.493  34.465  28.252  1.00  0.00    -0.376 OA
BRANCH   5   6
ATOM      6  C   UNL A   1      33.438  35.386  28.789  1.00  0.00     0.202 C 
BRANCH   6   7
ATOM      7  C   UNL A   1      32.871  36.442  29.734  1.00  0.00     0.261 C 
BRANCH   7   8
ATOM      8  O   UNL A   1      32.374  35.884  30.958  1.00  0.00    -0.460 OA
BRANCH   8   9
ATOM      9  C   UNL A   1      33.000  35.740  32.149  1.00  0.00     0.338 C 
ATOM     10  O   UNL A   1      32.685  36.489  33.072  1.00  0.00    -0.246 OA
BRANCH   9  11
ATOM     11  C   UNL A   1      34.143  34.793  32.394  1.00  0.00     0.060 A 
ATOM     12  C   UNL A   1      34.074  33.590  33.099  1.00  0.00     0.016 A 
ATOM     13  C   UNL A   1      35.371  35.118  31.780  1.00  0.00     0.016 A 
ATOM     14  C   UNL A   1      35.145  32.718  33.164  1.00  0.00     0.010 A 
ATOM     15  C   UNL A   1      36.488  34.286  31.907  1.00  0.00     0.010 A 
ATOM     16  C   UNL A   1      36.370  33.099  32.630  1.00  0.00    -0.014 A 
BRANCH  16  17
ATOM     17  C   UNL A   1      37.528  32.399  33.198  1.00  0.00     0.031 A 
ATOM     18  C   UNL A   1      38.171  31.374  32.309  1.00  0.00     0.074 A 
ATOM     19  C   UNL A   1      38.105  32.857  34.320  1.00  0.00     0.049 A 
ATOM     20  N   UNL A   1      39.266  30.688  32.483  1.00  0.00    -0.248 NA
ATOM     21  C   UNL A   1      37.507  31.123  31.013  1.00  0.00     0.031 C 
ATOM     22  C   UNL A   1      37.611  33.974  35.128  1.00  0.00     0.029 A 
ATOM     23  N   UNL A   1      39.256  32.470  34.946  1.00  0.00    -0.354 N 
ATOM     24  C   UNL A   1      39.423  29.944  31.320  1.00  0.00     0.074 A 
ATOM     25  C   UNL A   1      38.312  30.241  30.451  1.00  0.00     0.031 C 
ATOM     26  C   UNL A   1      38.454  34.174  36.156  1.00  0.00     0.029 A 
ATOM     27  C   UNL A   1      39.518  33.175  36.094  1.00  0.00     0.049 A 
ATOM     28  H   UNL A   1      39.840  31.754  34.607  1.00  0.00     0.167 HD
ATOM     29  C   UNL A   1      40.420  29.085  31.012  1.00  0.00     0.037 A 
ATOM     30  C   UNL A   1      40.497  32.988  36.998  1.00  0.00     0.037 A 
ATOM     31  C   UNL A   1      41.479  28.779  31.928  1.00  0.00     0.049 A 
ATOM     32  C   UNL A   1      41.506  31.905  36.705  1.00  0.00     0.074 A 
ATOM     33  C   UNL A   1      42.477  27.834  31.822  1.00  0.00     0.029 A 
ATOM     34  N   UNL A   1      41.658  29.430  33.145  1.00  0.00    -0.354 N 
ATOM     35  N   UNL A   1      41.613  31.134  35.645  1.00  0.00    -0.248 NA
ATOM     36  C   UNL A   1      42.529  31.659  37.727  1.00  0.00     0.031 C 
ATOM     37  C   UNL A   1      43.233  27.878  33.001  1.00  0.00     0.029 A 
ATOM     38  C   UNL A   1      42.744  28.896  33.810  1.00  0.00     0.049 A 
ATOM     39  H   UNL A   1      41.094  30.162  33.482  1.00  0.00     0.167 HD
ATOM     40  C   UNL A   1      42.721  30.328  35.862  1.00  0.00     0.074 A 
ATOM     41  C   UNL A   1      43.268  30.726  37.146  1.00  0.00     0.031 C 
ATOM     42  C   UNL A   1      43.243  29.342  35.088  1.00  0.00     0.037 A 
BRANCH  29  43
ATOM     43  C   UNL A   1      40.330  28.384  29.689  1.00  0.00     0.064 A 
ATOM     44  C   UNL A   1      39.585  27.205  29.524  1.00  0.00     0.173 A 
ATOM     45  C   UNL A   1      41.057  28.858  28.587  1.00  0.00     0.173 A 
ATOM     46  F   UNL A   1      38.907  26.684  30.557  1.00  0.00    -0.203 F 
ATOM     47  C   UNL A   1      39.594  26.514  28.313  1.00  0.00     0.198 A 
ATOM     48  C   UNL A   1      41.043  28.180  27.371  1.00  0.00     0.198 A 
ATOM     49  F   UNL A   1      41.803  29.967  28.696  1.00  0.00    -0.203 F 
ATOM     50  F   UNL A   1      38.928  25.357  28.198  1.00  0.00    -0.200 F 
ATOM     51  C   UNL A   1      40.319  27.004  27.237  1.00  0.00     0.200 A 
ATOM     52  F   UNL A   1      41.747  28.653  26.334  1.00  0.00    -0.200 F 
ATOM     53  F   UNL A   1      40.335  26.334  26.077  1.00  0.00    -0.200 F 
ENDBRANCH  29  43
BRANCH  30  54
ATOM     54  C   UNL A   1      40.525  33.772  38.264  1.00  0.00     0.064 A 
ATOM     55  C   UNL A   1      39.707  33.450  39.356  1.00  0.00     0.173 A 
ATOM     56  C   UNL A   1      41.349  34.904  38.390  1.00  0.00     0.173 A 
ATOM     57  F   UNL A   1      38.883  32.394  39.288  1.00  0.00    -0.203 F 
ATOM     58  C   UNL A   1      39.687  34.243  40.504  1.00  0.00     0.198 A 
ATOM     59  C   UNL A   1      41.357  35.674  39.551  1.00  0.00     0.198 A 
ATOM     60  F   UNL A   1      42.151  35.268  37.378  1.00  0.00    -0.203 F 
ATOM     61  F   UNL A   1      38.845  33.949  41.504  1.00  0.00    -0.200 F 
ATOM     62  C   UNL A   1      40.514  35.352  40.602  1.00  0.00     0.200 A 
ATOM     63  F   UNL A   1      42.167  36.737  39.642  1.00  0.00    -0.200 F 
ATOM     64  F   UNL A   1      40.488  36.119  41.701  1.00  0.00    -0.200 F 
ENDBRANCH  30  54
BRANCH  42  65
ATOM     65  C   UNL A   1      44.477  28.666  35.602  1.00  0.00     0.064 A 
ATOM     66  C   UNL A   1      44.406  27.516  36.402  1.00  0.00     0.173 A 
ATOM     67  C   UNL A   1      45.744  29.154  35.251  1.00  0.00     0.173 A 
ATOM     68  F   UNL A   1      43.215  27.022  36.771  1.00  0.00    -0.203 F 
ATOM     69  C   UNL A   1      45.565  26.899  36.862  1.00  0.00     0.198 A 
ATOM     70  C   UNL A   1      46.898  28.511  35.680  1.00  0.00     0.198 A 
ATOM     71  F   UNL A   1      45.860  30.244  34.477  1.00  0.00    -0.203 F 
ATOM     72  F   UNL A   1      45.476  25.837  37.673  1.00  0.00    -0.200 F 
ATOM     73  C   UNL A   1      46.808  27.392  36.494  1.00  0.00     0.200 A 
ATOM     74  F   UNL A   1      48.099  28.976  35.308  1.00  0.00    -0.200 F 
ATOM     75  F   UNL A   1      47.922  26.790  36.931  1.00  0.00    -0.200 F 
ENDBRANCH  42  65
ENDBRANCH  16  17
ENDBRANCH   9  11
ENDBRANCH   8   9
ENDBRANCH   7   8
ENDBRANCH   6   7
ENDBRANCH   5   6
ENDBRANCH   4   5
ENDBRANCH   3   4
ENDBRANCH   2   3
ENDBRANCH   1   2
BRANCH   1  76
ATOM     76  C   UNL A   1      34.494  29.539  27.514  1.00  0.00     0.188 C 
BRANCH  76  77
ATOM     77  O   UNL A   1      33.469  29.549  26.533  1.00  0.00    -0.376 OA
BRANCH  77  78
ATOM     78  C   UNL A   1      32.152  29.125  26.879  1.00  0.00     0.202 C 
BRANCH  78  79
ATOM     79  C   UNL A   1      31.860  27.666  27.281  1.00  0.00     0.261 C 
BRANCH  79  80
ATOM     80  O   UNL A   1      32.667  26.633  26.667  1.00  0.00    -0.461 OA
BRANCH  80  81
ATOM     81  C   UNL A   1      31.982  25.505  26.370  1.00  0.00     0.336 C 
ATOM     82  O   UNL A   1      31.346  24.898  27.237  1.00  0.00    -0.249 OA
BRANCH  81  83
ATOM     83  C   UNL A   1      32.033  24.984  24.857  1.00  0.00     0.164 C 
ATOM     84  C   UNL A   1      30.835  24.019  24.614  1.00  0.00     0.046 C 
ATOM     85  C   UNL A   1      33.356  24.175  24.920  1.00  0.00    -0.008 A 
ATOM     86  C   UNL A   1      30.823  22.784  25.520  1.00  0.00     0.008 C 
ATOM     87  C   UNL A   1      33.388  22.832  25.324  1.00  0.00    -0.042 A 
ATOM     88  C   UNL A   1      34.562  24.902  24.783  1.00  0.00     0.007 A 
ATOM     89  C   UNL A   1      32.138  22.002  25.480  1.00  0.00     0.036 C 
ATOM     90  C   UNL A   1      34.635  22.258  25.609  1.00  0.00     0.004 A 
ATOM     91  C   UNL A   1      35.785  24.315  25.059  1.00  0.00     0.000 A 
ATOM     92  C   UNL A   1      35.818  22.996  25.489  1.00  0.00     0.000 A 
BRANCH  83  93
ATOM     93  N   UNL A   1      32.230  25.788  23.597  1.00  0.00    -0.336 N 
ATOM     94  C   UNL A   1      31.804  26.898  22.971  1.00  0.00     0.224 C 
ATOM     95  H   UNL A   1      32.907  25.344  23.037  1.00  0.00     0.164 HD
ATOM     96  O   UNL A   1      32.131  27.047  21.789  1.00  0.00    -0.275 OA
BRANCH  94  97
ATOM     97  C   UNL A   1      30.987  27.940  23.661  1.00  0.00     0.082 C 
ATOM     98  C   UNL A   1      29.573  27.376  23.779  1.00  0.00     0.035 C 
ATOM     99  C   UNL A   1      31.116  29.318  22.986  1.00  0.00     0.035 C 
ATOM    100  C   UNL A   1      28.485  27.991  22.901  1.00  0.00     0.120 C 
ATOM    101  C   UNL A   1      30.001  29.612  21.988  1.00  0.00     0.120 C 
ATOM    102  N   UNL A   1      28.728  29.404  22.650  1.00  0.00    -0.342 N 
ATOM    103  C   UNL A   1      27.817  30.339  23.153  1.00  0.00     0.225 C 
ATOM    104  O   UNL A   1      26.849  29.972  23.804  1.00  0.00    -0.275 OA
BRANCH 103 105
ATOM    105  C   UNL A   1      27.917  31.820  22.960  1.00  0.00     0.079 C 
ATOM    106  C   UNL A   1      29.101  32.708  22.720  1.00  0.00     0.014 C 
ATOM    107  C   UNL A   1      28.149  32.411  21.591  1.00  0.00     0.014 C 
ENDBRANCH 103 105
ENDBRANCH  94  97
ENDBRANCH  83  93
ENDBRANCH  81  83
ENDBRANCH  80  81
ENDBRANCH  79  80
ENDBRANCH  78  79
ENDBRANCH  77  78
ENDBRANCH  76  77
ENDBRANCH   1  76
TORSDOF 23
ENDMDL
MODEL 2
REMARK VINA RESULT:     -10.4      1.354      4.336
REMARK SMILES O=C(OCCOCCOCCOCCOC(=O)[C@]1(NC(=O)C2CCN(C(=O)C3CC3)CC2)CCCc2ccccc21)c1ccc(-c2c3nc(c(-c4c(F)c(F)c(F)c(F)c4F)c4ccc([nH]4)c(-c4c(F)c(F)c(F)c(F)c4F)c4nc(c(-c5c(F)c(F)c(F)c(F)c5F)c5ccc2[nH]5)C=C4)C=C3)cc1
REMARK SMILES IDX 10 1 9 2 8 3 7 4 6 5 5 6 4 7 3 8 2 9 1 10 42 11 43 12 104 13
REMARK SMILES IDX 44 14 103 15 45 16 46 17 47 18 97 19 48 20 102 21 96 22
REMARK SMILES IDX 98 23 49 24 101 25 95 26 94 27 50 29 82 30 62 31 81 32 63 33
REMARK SMILES IDX 66 34 80 35 99 36 64 37 65 38 79 40 100 41 67 42 51 43 52 44
REMARK SMILES IDX 60 45 53 46 54 47 58 48 61 49 55 50 56 51 59 52 57 53 83 54
REMARK SMILES IDX 84 55 92 56 85 57 86 58 90 59 93 60 87 61 88 62 91 63 89 64
REMARK SMILES IDX 68 65 69 66 77 67 70 68 71 69 75 70 78 71 72 72 73 73 76 74
REMARK SMILES IDX 74 75 11 76 12 77 13 78 14 79 15 80 16 81 17 82 18 83 33 84
REMARK SMILES IDX 41 85 34 86 36 87 40 88 35 89 37 90 39 91 38 92 19 93 20 94
REMARK SMILES IDX 21 96 22 97 23 98 32 99 24 100 31 101 25 102 26 103 27 104
REMARK SMILES IDX 28 105 29 106 30 107
REMARK H PARENT 98 28 66 39 19 95
REMARK Flexibility Score: inf
ROOT
ATOM      1  C   UNL A   1      35.742  31.777  28.688  1.00  0.00     0.188 C 
ENDROOT
BRANCH   1   2
ATOM      2  O   UNL A   1      34.453  32.301  29.006  1.00  0.00    -0.377 OA
BRANCH   2   3
ATOM      3  C   UNL A   1      34.020  33.282  28.057  1.00  0.00     0.188 C 
BRANCH   3   4
ATOM      4  C   UNL A   1      34.512  34.685  28.400  1.00  0.00     0.188 C 
BRANCH   4   5
ATOM      5  O   UNL A   1      33.872  35.156  29.589  1.00  0.00    -0.376 OA
BRANCH   5   6
ATOM      6  C   UNL A   1      32.914  36.199  29.440  1.00  0.00     0.202 C 
BRANCH   6   7
ATOM      7  C   UNL A   1      32.252  36.679  30.729  1.00  0.00     0.261 C 
BRANCH   7   8
ATOM      8  O   UNL A   1      32.464  35.785  31.830  1.00  0.00    -0.460 OA
BRANCH   8   9
ATOM      9  C   UNL A   1      33.359  35.871  32.841  1.00  0.00     0.338 C 
ATOM     10  O   UNL A   1      33.290  36.832  33.606  1.00  0.00    -0.246 OA
BRANCH   9  11
ATOM     11  C   UNL A   1      34.513  34.926  33.032  1.00  0.00     0.060 A 
ATOM     12  C   UNL A   1      34.444  33.651  33.598  1.00  0.00     0.016 A 
ATOM     13  C   UNL A   1      35.759  35.340  32.513  1.00  0.00     0.016 A 
ATOM     14  C   UNL A   1      35.532  32.798  33.615  1.00  0.00     0.010 A 
ATOM     15  C   UNL A   1      36.889  34.521  32.597  1.00  0.00     0.010 A 
ATOM     16  C   UNL A   1      36.769  33.259  33.181  1.00  0.00    -0.014 A 
BRANCH  16  17
ATOM     17  C   UNL A   1      37.919  32.524  33.720  1.00  0.00     0.031 A 
ATOM     18  C   UNL A   1      38.512  31.485  32.812  1.00  0.00     0.074 A 
ATOM     19  C   UNL A   1      38.532  32.958  34.831  1.00  0.00     0.049 A 
ATOM     20  N   UNL A   1      39.591  30.768  32.958  1.00  0.00    -0.248 NA
ATOM     21  C   UNL A   1      37.814  31.261  31.529  1.00  0.00     0.031 C 
ATOM     22  C   UNL A   1      38.088  34.084  35.655  1.00  0.00     0.029 A 
ATOM     23  N   UNL A   1      39.685  32.535  35.429  1.00  0.00    -0.354 N 
ATOM     24  C   UNL A   1      39.702  30.026  31.788  1.00  0.00     0.074 A 
ATOM     25  C   UNL A   1      38.580  30.359  30.946  1.00  0.00     0.031 C 
ATOM     26  C   UNL A   1      38.959  34.254  36.666  1.00  0.00     0.029 A 
ATOM     27  C   UNL A   1      39.992  33.226  36.575  1.00  0.00     0.049 A 
ATOM     28  H   UNL A   1      40.241  31.805  35.075  1.00  0.00     0.167 HD
ATOM     29  C   UNL A   1      40.666  29.140  31.454  1.00  0.00     0.037 A 
ATOM     30  C   UNL A   1      40.985  33.006  37.457  1.00  0.00     0.037 A 
ATOM     31  C   UNL A   1      41.736  28.800  32.346  1.00  0.00     0.049 A 
ATOM     32  C   UNL A   1      41.956  31.896  37.137  1.00  0.00     0.074 A 
ATOM     33  C   UNL A   1      42.704  27.827  32.213  1.00  0.00     0.029 A 
ATOM     34  N   UNL A   1      41.960  29.438  33.562  1.00  0.00    -0.354 N 
ATOM     35  N   UNL A   1      42.018  31.129  36.070  1.00  0.00    -0.248 NA
ATOM     36  C   UNL A   1      42.993  31.616  38.135  1.00  0.00     0.031 C 
ATOM     37  C   UNL A   1      43.486  27.843  33.375  1.00  0.00     0.029 A 
ATOM     38  C   UNL A   1      43.045  28.870  34.201  1.00  0.00     0.049 A 
ATOM     39  H   UNL A   1      41.424  30.185  33.915  1.00  0.00     0.167 HD
ATOM     40  C   UNL A   1      43.106  30.290  36.260  1.00  0.00     0.074 A 
ATOM     41  C   UNL A   1      43.693  30.666  37.533  1.00  0.00     0.031 C 
ATOM     42  C   UNL A   1      43.583  29.294  35.469  1.00  0.00     0.037 A 
BRANCH  29  43
ATOM     43  C   UNL A   1      40.528  28.450  30.130  1.00  0.00     0.064 A 
ATOM     44  C   UNL A   1      39.693  27.334  29.960  1.00  0.00     0.173 A 
ATOM     45  C   UNL A   1      41.296  28.866  29.032  1.00  0.00     0.173 A 
ATOM     46  F   UNL A   1      38.970  26.868  30.989  1.00  0.00    -0.203 F 
ATOM     47  C   UNL A   1      39.653  26.646  28.749  1.00  0.00     0.198 A 
ATOM     48  C   UNL A   1      41.233  28.192  27.816  1.00  0.00     0.198 A 
ATOM     49  F   UNL A   1      42.127  29.912  29.147  1.00  0.00    -0.203 F 
ATOM     50  F   UNL A   1      38.898  25.545  28.629  1.00  0.00    -0.200 F 
ATOM     51  C   UNL A   1      40.420  27.078  27.677  1.00  0.00     0.200 A 
ATOM     52  F   UNL A   1      41.978  28.609  26.782  1.00  0.00    -0.200 F 
ATOM     53  F   UNL A   1      40.389  26.408  26.516  1.00  0.00    -0.200 F 
ENDBRANCH  29  43
BRANCH  30  54
ATOM     54  C   UNL A   1      41.063  33.782  38.726  1.00  0.00     0.064 A 
ATOM     55  C   UNL A   1      40.294  33.448  39.849  1.00  0.00     0.173 A 
ATOM     56  C   UNL A   1      41.885  34.918  38.824  1.00  0.00     0.173 A 
ATOM     57  F   UNL A   1      39.475  32.387  39.810  1.00  0.00    -0.203 F 
ATOM     58  C   UNL A   1      40.319  34.233  41.003  1.00  0.00     0.198 A 
ATOM     59  C   UNL A   1      41.938  35.681  39.989  1.00  0.00     0.198 A 
ATOM     60  F   UNL A   1      42.640  35.294  37.781  1.00  0.00    -0.203 F 
ATOM     61  F   UNL A   1      39.522  33.928  42.036  1.00  0.00    -0.200 F 
ATOM     62  C   UNL A   1      41.143  35.347  41.073  1.00  0.00     0.200 A 
ATOM     63  F   UNL A   1      42.745  36.748  40.052  1.00  0.00    -0.200 F 
ATOM     64  F   UNL A   1      41.159  36.106  42.177  1.00  0.00    -0.200 F 
ENDBRANCH  30  54
BRANCH  42  65
ATOM     65  C   UNL A   1      44.808  28.581  35.953  1.00  0.00     0.064 A 
ATOM     66  C   UNL A   1      46.096  29.033  35.632  1.00  0.00     0.173 A 
ATOM     67  C   UNL A   1      44.687  27.459  36.785  1.00  0.00     0.173 A 
ATOM     68  F   UNL A   1      46.259  30.096  34.830  1.00  0.00    -0.203 F 
ATOM     69  C   UNL A   1      47.221  28.361  36.099  1.00  0.00     0.198 A 
ATOM     70  C   UNL A   1      45.813  26.814  37.281  1.00  0.00     0.198 A 
ATOM     71  F   UNL A   1      43.474  26.999  37.129  1.00  0.00    -0.203 F 
ATOM     72  F   UNL A   1      48.442  28.773  35.733  1.00  0.00    -0.200 F 
ATOM     73  C   UNL A   1      47.079  27.259  36.929  1.00  0.00     0.200 A 
ATOM     74  F   UNL A   1      45.675  25.762  38.099  1.00  0.00    -0.200 F 
ATOM     75  F   UNL A   1      48.164  26.620  37.385  1.00  0.00    -0.200 F 
ENDBRANCH  42  65
ENDBRANCH  16  17
ENDBRANCH   9  11
ENDBRANCH   8   9
ENDBRANCH   7   8
ENDBRANCH   6   7
ENDBRANCH   5   6
ENDBRANCH   4   5
ENDBRANCH   3   4
ENDBRANCH   2   3
ENDBRANCH   1   2
BRANCH   1  76
ATOM     76  C   UNL A   1      35.696  30.457  27.921  1.00  0.00     0.188 C 
BRANCH  76  77
ATOM     77  O   UNL A   1      34.609  30.218  27.040  1.00  0.00    -0.376 OA
BRANCH  77  78
ATOM     78  C   UNL A   1      33.768  29.084  27.241  1.00  0.00     0.202 C 
BRANCH  78  79
ATOM     79  C   UNL A   1      32.245  29.167  27.018  1.00  0.00     0.261 C 
BRANCH  79  80
ATOM     80  O   UNL A   1      31.742  28.787  25.714  1.00  0.00    -0.461 OA
BRANCH  80  81
ATOM     81  C   UNL A   1      31.303  27.510  25.646  1.00  0.00     0.336 C 
ATOM     82  O   UNL A   1      30.926  26.910  26.657  1.00  0.00    -0.249 OA
BRANCH  81  83
ATOM     83  C   UNL A   1      31.297  26.804  24.209  1.00  0.00     0.164 C 
ATOM     84  C   UNL A   1      32.460  27.390  23.354  1.00  0.00     0.046 C 
ATOM     85  C   UNL A   1      29.937  27.335  23.680  1.00  0.00    -0.008 A 
ATOM     86  C   UNL A   1      32.375  28.902  23.120  1.00  0.00     0.008 C 
ATOM     87  C   UNL A   1      29.826  28.565  23.015  1.00  0.00    -0.042 A 
ATOM     88  C   UNL A   1      28.772  26.648  24.098  1.00  0.00     0.007 A 
ATOM     89  C   UNL A   1      31.029  29.340  22.538  1.00  0.00     0.036 C 
ATOM     90  C   UNL A   1      28.542  29.091  22.810  1.00  0.00     0.004 A 
ATOM     91  C   UNL A   1      27.513  27.179  23.878  1.00  0.00     0.000 A 
ATOM     92  C   UNL A   1      27.401  28.410  23.248  1.00  0.00     0.000 A 
BRANCH  83  93
ATOM     93  N   UNL A   1      31.194  25.336  23.887  1.00  0.00    -0.336 N 
ATOM     94  C   UNL A   1      31.936  24.275  23.526  1.00  0.00     0.224 C 
ATOM     95  H   UNL A   1      30.254  25.055  23.971  1.00  0.00     0.164 HD
ATOM     96  O   UNL A   1      31.338  23.259  23.161  1.00  0.00    -0.275 OA
BRANCH  94  97
ATOM     97  C   UNL A   1      33.428  24.291  23.578  1.00  0.00     0.082 C 
ATOM     98  C   UNL A   1      33.903  23.030  22.862  1.00  0.00     0.035 C 
ATOM     99  C   UNL A   1      33.955  24.498  25.011  1.00  0.00     0.035 C 
ATOM    100  C   UNL A   1      34.504  21.911  23.709  1.00  0.00     0.120 C 
ATOM    101  C   UNL A   1      34.298  23.195  25.726  1.00  0.00     0.120 C 
ATOM    102  N   UNL A   1      35.195  22.432  24.880  1.00  0.00    -0.342 N 
ATOM    103  C   UNL A   1      36.577  22.245  24.979  1.00  0.00     0.225 C 
ATOM    104  O   UNL A   1      37.189  21.671  24.089  1.00  0.00    -0.275 OA
BRANCH 103 105
ATOM    105  C   UNL A   1      37.422  22.701  26.128  1.00  0.00     0.079 C 
ATOM    106  C   UNL A   1      38.909  22.821  26.273  1.00  0.00     0.014 C 
ATOM    107  C   UNL A   1      38.070  24.063  26.121  1.00  0.00     0.014 C 
ENDBRANCH 103 105
ENDBRANCH  94  97
ENDBRANCH  83  93
ENDBRANCH  81  83
ENDBRANCH  80  81
ENDBRANCH  79  80
ENDBRANCH  78  79
ENDBRANCH  77  78
ENDBRANCH  76  77
ENDBRANCH   1  76
TORSDOF 23
ENDMDL
MODEL 3
REMARK VINA RESULT:     -10.3      2.808      8.382
REMARK SMILES O=C(OCCOCCOCCOCCOC(=O)[C@]1(NC(=O)C2CCN(C(=O)C3CC3)CC2)CCCc2ccccc21)c1ccc(-c2c3nc(c(-c4c(F)c(F)c(F)c(F)c4F)c4ccc([nH]4)c(-c4c(F)c(F)c(F)c(F)c4F)c4nc(c(-c5c(F)c(F)c(F)c(F)c5F)c5ccc2[nH]5)C=C4)C=C3)cc1
REMARK SMILES IDX 10 1 9 2 8 3 7 4 6 5 5 6 4 7 3 8 2 9 1 10 42 11 43 12 104 13
REMARK SMILES IDX 44 14 103 15 45 16 46 17 47 18 97 19 48 20 102 21 96 22
REMARK SMILES IDX 98 23 49 24 101 25 95 26 94 27 50 29 82 30 62 31 81 32 63 33
REMARK SMILES IDX 66 34 80 35 99 36 64 37 65 38 79 40 100 41 67 42 51 43 52 44
REMARK SMILES IDX 60 45 53 46 54 47 58 48 61 49 55 50 56 51 59 52 57 53 83 54
REMARK SMILES IDX 84 55 92 56 85 57 86 58 90 59 93 60 87 61 88 62 91 63 89 64
REMARK SMILES IDX 68 65 69 66 77 67 70 68 71 69 75 70 78 71 72 72 73 73 76 74
REMARK SMILES IDX 74 75 11 76 12 77 13 78 14 79 15 80 16 81 17 82 18 83 33 84
REMARK SMILES IDX 41 85 34 86 36 87 40 88 35 89 37 90 39 91 38 92 19 93 20 94
REMARK SMILES IDX 21 96 22 97 23 98 32 99 24 100 31 101 25 102 26 103 27 104
REMARK SMILES IDX 28 105 29 106 30 107
REMARK H PARENT 98 28 66 39 19 95
REMARK Flexibility Score: inf
ROOT
ATOM      1  C   UNL A   1      32.292  26.114  21.588  1.00  0.00     0.188 C 
ENDROOT
BRANCH   1   2
ATOM      2  O   UNL A   1      33.258  26.678  22.474  1.00  0.00    -0.377 OA
BRANCH   2   3
ATOM      3  C   UNL A   1      33.241  28.109  22.452  1.00  0.00     0.188 C 
BRANCH   3   4
ATOM      4  C   UNL A   1      33.646  28.721  23.790  1.00  0.00     0.188 C 
BRANCH   4   5
ATOM      5  O   UNL A   1      32.687  28.383  24.797  1.00  0.00    -0.376 OA
BRANCH   5   6
ATOM      6  C   UNL A   1      32.769  29.087  26.033  1.00  0.00     0.202 C 
BRANCH   6   7
ATOM      7  C   UNL A   1      32.370  30.559  25.984  1.00  0.00     0.261 C 
BRANCH   7   8
ATOM      8  O   UNL A   1      32.481  31.208  27.257  1.00  0.00    -0.460 OA
BRANCH   8   9
ATOM      9  C   UNL A   1      33.487  31.972  27.743  1.00  0.00     0.338 C 
ATOM     10  O   UNL A   1      33.319  33.188  27.817  1.00  0.00    -0.246 OA
BRANCH   9  11
ATOM     11  C   UNL A   1      34.851  31.447  28.100  1.00  0.00     0.060 A 
ATOM     12  C   UNL A   1      35.176  30.111  28.349  1.00  0.00     0.016 A 
ATOM     13  C   UNL A   1      35.906  32.383  28.097  1.00  0.00     0.016 A 
ATOM     14  C   UNL A   1      36.482  29.701  28.542  1.00  0.00     0.010 A 
ATOM     15  C   UNL A   1      37.221  31.996  28.372  1.00  0.00     0.010 A 
ATOM     16  C   UNL A   1      37.492  30.651  28.624  1.00  0.00    -0.014 A 
BRANCH  16  17
ATOM     17  C   UNL A   1      38.691  30.206  29.344  1.00  0.00     0.031 A 
ATOM     18  C   UNL A   1      38.823  30.697  30.757  1.00  0.00     0.074 A 
ATOM     19  C   UNL A   1      39.449  29.220  28.841  1.00  0.00     0.049 A 
ATOM     20  N   UNL A   1      39.698  30.383  31.671  1.00  0.00    -0.248 NA
ATOM     21  C   UNL A   1      37.787  31.643  31.221  1.00  0.00     0.031 C 
ATOM     22  C   UNL A   1      39.250  28.584  27.537  1.00  0.00     0.029 A 
ATOM     23  N   UNL A   1      40.507  28.549  29.386  1.00  0.00    -0.354 N 
ATOM     24  C   UNL A   1      39.308  31.078  32.809  1.00  0.00     0.074 A 
ATOM     25  C   UNL A   1      38.133  31.844  32.479  1.00  0.00     0.031 C 
ATOM     26  C   UNL A   1      40.171  27.618  27.378  1.00  0.00     0.029 A 
ATOM     27  C   UNL A   1      41.042  27.600  28.551  1.00  0.00     0.049 A 
ATOM     28  H   UNL A   1      40.854  28.730  30.289  1.00  0.00     0.167 HD
ATOM     29  C   UNL A   1      39.891  31.070  34.029  1.00  0.00     0.037 A 
ATOM     30  C   UNL A   1      42.138  26.839  28.726  1.00  0.00     0.037 A 
ATOM     31  C   UNL A   1      41.091  30.333  34.300  1.00  0.00     0.049 A 
ATOM     32  C   UNL A   1      42.867  26.973  30.040  1.00  0.00     0.074 A 
ATOM     33  C   UNL A   1      41.876  30.334  35.433  1.00  0.00     0.029 A 
ATOM     34  N   UNL A   1      41.682  29.461  33.391  1.00  0.00    -0.354 N 
ATOM     35  N   UNL A   1      42.553  27.695  31.093  1.00  0.00    -0.248 NA
ATOM     36  C   UNL A   1      44.099  26.194  30.196  1.00  0.00     0.031 C 
ATOM     37  C   UNL A   1      42.973  29.497  35.191  1.00  0.00     0.029 A 
ATOM     38  C   UNL A   1      42.835  28.926  33.932  1.00  0.00     0.049 A 
ATOM     39  H   UNL A   1      41.331  29.255  32.495  1.00  0.00     0.167 HD
ATOM     40  C   UNL A   1      43.535  27.445  32.041  1.00  0.00     0.074 A 
ATOM     41  C   UNL A   1      44.439  26.479  31.444  1.00  0.00     0.031 C 
ATOM     42  C   UNL A   1      43.691  27.963  33.286  1.00  0.00     0.037 A 
BRANCH  29  43
ATOM     43  C   UNL A   1      39.278  31.943  35.083  1.00  0.00     0.064 A 
ATOM     44  C   UNL A   1      39.559  33.316  35.164  1.00  0.00     0.173 A 
ATOM     45  C   UNL A   1      38.452  31.385  36.070  1.00  0.00     0.173 A 
ATOM     46  F   UNL A   1      40.378  33.892  34.271  1.00  0.00    -0.203 F 
ATOM     47  C   UNL A   1      39.058  34.091  36.209  1.00  0.00     0.198 A 
ATOM     48  C   UNL A   1      37.932  32.167  37.098  1.00  0.00     0.198 A 
ATOM     49  F   UNL A   1      38.169  30.074  36.052  1.00  0.00    -0.203 F 
ATOM     50  F   UNL A   1      39.393  35.386  36.302  1.00  0.00    -0.200 F 
ATOM     51  C   UNL A   1      38.242  33.517  37.172  1.00  0.00     0.200 A 
ATOM     52  F   UNL A   1      37.146  31.610  38.029  1.00  0.00    -0.200 F 
ATOM     53  F   UNL A   1      37.770  34.260  38.182  1.00  0.00    -0.200 F 
ENDBRANCH  29  43
BRANCH  30  54
ATOM     54  C   UNL A   1      42.641  25.964  27.630  1.00  0.00     0.064 A 
ATOM     55  C   UNL A   1      42.276  24.615  27.528  1.00  0.00     0.173 A 
ATOM     56  C   UNL A   1      43.549  26.458  26.676  1.00  0.00     0.173 A 
ATOM     57  F   UNL A   1      41.431  24.081  28.422  1.00  0.00    -0.203 F 
ATOM     58  C   UNL A   1      42.821  23.790  26.543  1.00  0.00     0.198 A 
ATOM     59  C   UNL A   1      44.063  25.644  25.670  1.00  0.00     0.198 A 
ATOM     60  F   UNL A   1      43.942  27.740  26.723  1.00  0.00    -0.203 F 
ATOM     61  F   UNL A   1      42.505  22.488  26.514  1.00  0.00    -0.200 F 
ATOM     62  C   UNL A   1      43.711  24.305  25.612  1.00  0.00     0.200 A 
ATOM     63  F   UNL A   1      44.913  26.152  24.768  1.00  0.00    -0.200 F 
ATOM     64  F   UNL A   1      44.240  23.510  24.673  1.00  0.00    -0.200 F 
ENDBRANCH  30  54
BRANCH  42  65
ATOM     65  C   UNL A   1      44.860  27.462  34.079  1.00  0.00     0.064 A 
ATOM     66  C   UNL A   1      46.093  28.131  34.072  1.00  0.00     0.173 A 
ATOM     67  C   UNL A   1      44.726  26.325  34.889  1.00  0.00     0.173 A 
ATOM     68  F   UNL A   1      46.269  29.216  33.304  1.00  0.00    -0.203 F 
ATOM     69  C   UNL A   1      47.162  27.654  34.823  1.00  0.00     0.198 A 
ATOM     70  C   UNL A   1      45.785  25.876  35.667  1.00  0.00     0.198 A 
ATOM     71  F   UNL A   1      43.560  25.662  34.937  1.00  0.00    -0.203 F 
ATOM     72  F   UNL A   1      48.349  28.272  34.757  1.00  0.00    -0.200 F 
ATOM     73  C   UNL A   1      47.006  26.534  35.625  1.00  0.00     0.200 A 
ATOM     74  F   UNL A   1      45.627  24.805  36.457  1.00  0.00    -0.200 F 
ATOM     75  F   UNL A   1      48.035  26.082  36.353  1.00  0.00    -0.200 F 
ENDBRANCH  42  65
ENDBRANCH  16  17
ENDBRANCH   9  11
ENDBRANCH   8   9
ENDBRANCH   7   8
ENDBRANCH   6   7
ENDBRANCH   5   6
ENDBRANCH   4   5
ENDBRANCH   3   4
ENDBRANCH   2   3
ENDBRANCH   1   2
BRANCH   1  76
ATOM     76  C   UNL A   1      32.904  25.454  20.354  1.00  0.00     0.188 C 
BRANCH  76  77
ATOM     77  O   UNL A   1      33.275  24.086  20.426  1.00  0.00    -0.376 OA
BRANCH  77  78
ATOM     78  C   UNL A   1      33.383  23.446  21.696  1.00  0.00     0.202 C 
BRANCH  78  79
ATOM     79  C   UNL A   1      34.587  23.705  22.623  1.00  0.00     0.261 C 
BRANCH  79  80
ATOM     80  O   UNL A   1      35.444  22.579  22.930  1.00  0.00    -0.461 OA
BRANCH  80  81
ATOM     81  C   UNL A   1      36.403  22.853  23.843  1.00  0.00     0.336 C 
ATOM     82  O   UNL A   1      37.457  23.406  23.516  1.00  0.00    -0.249 OA
BRANCH  81  83
ATOM     83  C   UNL A   1      36.124  22.426  25.361  1.00  0.00     0.164 C 
ATOM     84  C   UNL A   1      36.316  23.670  26.279  1.00  0.00     0.046 C 
ATOM     85  C   UNL A   1      37.305  21.438  25.560  1.00  0.00    -0.008 A 
ATOM     86  C   UNL A   1      37.720  24.283  26.229  1.00  0.00     0.008 C 
ATOM     87  C   UNL A   1      38.574  21.869  25.973  1.00  0.00    -0.042 A 
ATOM     88  C   UNL A   1      37.126  20.117  25.084  1.00  0.00     0.007 A 
ATOM     89  C   UNL A   1      38.827  23.261  26.499  1.00  0.00     0.036 C 
ATOM     90  C   UNL A   1      39.643  20.967  25.872  1.00  0.00     0.004 A 
ATOM     91  C   UNL A   1      38.191  19.238  25.000  1.00  0.00     0.000 A 
ATOM     92  C   UNL A   1      39.454  19.671  25.379  1.00  0.00     0.000 A 
BRANCH  83  93
ATOM     93  N   UNL A   1      34.968  21.631  25.912  1.00  0.00    -0.336 N 
ATOM     94  C   UNL A   1      33.808  21.769  26.577  1.00  0.00     0.224 C 
ATOM     95  H   UNL A   1      35.114  20.677  25.718  1.00  0.00     0.164 HD
ATOM     96  O   UNL A   1      33.272  20.743  27.006  1.00  0.00    -0.275 OA
BRANCH  94  97
ATOM     97  C   UNL A   1      33.159  23.098  26.782  1.00  0.00     0.082 C 
ATOM     98  C   UNL A   1      31.885  22.842  27.581  1.00  0.00     0.035 C 
ATOM     99  C   UNL A   1      32.989  23.869  25.459  1.00  0.00     0.035 C 
ATOM    100  C   UNL A   1      30.547  22.995  26.860  1.00  0.00     0.120 C 
ATOM    101  C   UNL A   1      31.613  23.693  24.826  1.00  0.00     0.120 C 
ATOM    102  N   UNL A   1      30.608  24.012  25.821  1.00  0.00    -0.342 N 
ATOM    103  C   UNL A   1      29.823  25.160  25.963  1.00  0.00     0.225 C 
ATOM    104  O   UNL A   1      29.116  25.309  26.950  1.00  0.00    -0.275 OA
BRANCH 103 105
ATOM    105  C   UNL A   1      29.759  26.281  24.972  1.00  0.00     0.079 C 
ATOM    106  C   UNL A   1      29.876  26.287  23.478  1.00  0.00     0.014 C 
ATOM    107  C   UNL A   1      28.531  26.496  24.122  1.00  0.00     0.014 C 
ENDBRANCH 103 105
ENDBRANCH  94  97
ENDBRANCH  83  93
ENDBRANCH  81  83
ENDBRANCH  80  81
ENDBRANCH  79  80
ENDBRANCH  78  79
ENDBRANCH  77  78
ENDBRANCH  76  77
ENDBRANCH   1  76
TORSDOF 23
ENDMDL
