MODEL 1
REMARK VINA RESULT:     -10.1      0.000      0.000
REMARK SMILES C[C@H](CN(Cc1ccccc1)C(=O)c1cc2ccccc2oc1=O)C(=O)OCCOCCOCCOCCOC(=O)c1ccc(-c2c3nc(c(-c4c(F)c(F)c(F)c(F)c4F)c4ccc([nH]4)c(-c4c(F)c(F)c(F)c(F)c4F)c4nc(c(-c5c(F)c(F)c(F)c(F)c5F)c5ccc2[nH]5)C=C4)C=C3)cc1
REMARK SMILES IDX 32 1 31 2 30 3 29 4 28 5 27 6 25 7 26 8 2 9 1 10 3 11 4 12
REMARK SMILES IDX 5 13 6 14 7 15 11 16 8 17 10 18 9 19 12 20 13 21 14 22 15 23
REMARK SMILES IDX 23 24 16 25 22 26 24 27 17 28 21 29 18 30 20 31 19 32 33 33
REMARK SMILES IDX 34 34 35 35 36 36 37 37 38 38 39 39 40 40 41 41 42 42 43 43
REMARK SMILES IDX 104 44 44 45 103 46 45 47 46 48 47 49 97 50 48 51 102 52
REMARK SMILES IDX 96 53 98 54 49 55 101 56 95 57 94 58 50 60 82 61 62 62 81 63
REMARK SMILES IDX 63 64 66 65 80 66 99 67 64 68 65 69 79 71 100 72 67 73 51 74
REMARK SMILES IDX 52 75 60 76 53 77 54 78 58 79 61 80 55 81 56 82 59 83 57 84
REMARK SMILES IDX 83 85 84 86 92 87 85 88 86 89 90 90 93 91 87 92 88 93 91 94
REMARK SMILES IDX 89 95 68 96 69 97 77 98 70 99 71 100 75 101 78 102 72 103
REMARK SMILES IDX 73 104 76 105 74 106
REMARK H PARENT 98 59 66 70
REMARK Flexibility Score: inf
ROOT
ATOM      1  C   UNL A   1      41.341  20.392  26.753  1.00  0.00     0.188 C 
ENDROOT
BRANCH   1   2
ATOM      2  C   UNL A   1      40.675  21.644  26.164  1.00  0.00     0.188 C 
BRANCH   2   3
ATOM      3  O   UNL A   1      39.511  22.187  26.754  1.00  0.00    -0.376 OA
BRANCH   3   4
ATOM      4  C   UNL A   1      38.436  22.539  25.871  1.00  0.00     0.202 C 
BRANCH   4   5
ATOM      5  C   UNL A   1      37.461  23.677  26.251  1.00  0.00     0.261 C 
BRANCH   5   6
ATOM      6  O   UNL A   1      36.278  23.727  25.405  1.00  0.00    -0.463 OA
BRANCH   6   7
ATOM      7  C   UNL A   1      35.092  23.390  25.966  1.00  0.00     0.310 C 
ATOM      8  O   UNL A   1      34.874  22.302  26.494  1.00  0.00    -0.252 OA
BRANCH   7   9
ATOM      9  C   UNL A   1      34.012  24.470  25.891  1.00  0.00     0.115 C 
ATOM     10  C   UNL A   1      32.796  24.068  26.708  1.00  0.00     0.022 C 
BRANCH   9  11
ATOM     11  C   UNL A   1      33.696  25.143  24.528  1.00  0.00     0.135 C 
BRANCH  11  12
ATOM     12  N   UNL A   1      32.975  26.425  24.535  1.00  0.00    -0.333 N 
BRANCH  12  13
ATOM     13  C   UNL A   1      33.707  27.674  24.285  1.00  0.00     0.155 C 
BRANCH  13  14
ATOM     14  C   UNL A   1      33.517  28.735  25.363  1.00  0.00    -0.029 A 
ATOM     15  C   UNL A   1      34.313  28.770  26.519  1.00  0.00     0.005 A 
ATOM     16  C   UNL A   1      32.494  29.691  25.235  1.00  0.00     0.005 A 
ATOM     17  C   UNL A   1      34.077  29.722  27.522  1.00  0.00     0.000 A 
ATOM     18  C   UNL A   1      32.268  30.647  26.231  1.00  0.00     0.000 A 
ATOM     19  C   UNL A   1      33.054  30.656  27.380  1.00  0.00     0.000 A 
ENDBRANCH  13  14
ENDBRANCH  12  13
BRANCH  12  20
ATOM     20  C   UNL A   1      31.598  26.387  24.578  1.00  0.00     0.261 C 
ATOM     21  O   UNL A   1      30.985  26.751  25.572  1.00  0.00    -0.269 OA
BRANCH  20  22
ATOM     22  C   UNL A   1      30.864  25.985  23.344  1.00  0.00     0.126 A 
ATOM     23  C   UNL A   1      29.523  26.092  23.444  1.00  0.00     0.033 A 
ATOM     24  C   UNL A   1      31.420  26.659  22.143  1.00  0.00     0.349 A 
ATOM     25  C   UNL A   1      28.946  27.419  23.162  1.00  0.00     0.018 A 
ATOM     26  O   UNL A   1      30.922  27.930  21.856  1.00  0.00    -0.422 OA
ATOM     27  O   UNL A   1      32.296  26.128  21.469  1.00  0.00    -0.246 OA
ATOM     28  C   UNL A   1      27.707  27.818  23.663  1.00  0.00     0.012 A 
ATOM     29  C   UNL A   1      29.702  28.331  22.430  1.00  0.00     0.138 A 
ATOM     30  C   UNL A   1      27.258  29.127  23.473  1.00  0.00     0.001 A 
ATOM     31  C   UNL A   1      29.274  29.643  22.240  1.00  0.00     0.048 A 
ATOM     32  C   UNL A   1      28.051  30.045  22.780  1.00  0.00     0.004 A 
ENDBRANCH  20  22
ENDBRANCH  12  20
ENDBRANCH  11  12
ENDBRANCH   9  11
ENDBRANCH   7   9
ENDBRANCH   6   7
ENDBRANCH   5   6
ENDBRANCH   4   5
ENDBRANCH   3   4
ENDBRANCH   2   3
ENDBRANCH   1   2
BRANCH   1  33
ATOM     33  O   UNL A   1      41.594  19.187  26.061  1.00  0.00    -0.377 OA
BRANCH  33  34
ATOM     34  C   UNL A   1      42.864  18.564  26.082  1.00  0.00     0.188 C 
BRANCH  34  35
ATOM     35  C   UNL A   1      43.906  18.980  25.045  1.00  0.00     0.188 C 
BRANCH  35  36
ATOM     36  O   UNL A   1      45.214  18.441  25.238  1.00  0.00    -0.376 OA
BRANCH  36  37
ATOM     37  C   UNL A   1      46.250  19.414  25.270  1.00  0.00     0.202 C 
BRANCH  37  38
ATOM     38  C   UNL A   1      45.798  20.819  24.827  1.00  0.00     0.261 C 
BRANCH  38  39
ATOM     39  O   UNL A   1      46.271  21.889  25.664  1.00  0.00    -0.460 OA
BRANCH  39  40
ATOM     40  C   UNL A   1      45.299  22.621  26.252  1.00  0.00     0.338 C 
ATOM     41  O   UNL A   1      44.245  22.211  26.720  1.00  0.00    -0.246 OA
BRANCH  40  42
ATOM     42  C   UNL A   1      45.717  24.036  26.342  1.00  0.00     0.060 A 
ATOM     43  C   UNL A   1      45.688  24.814  25.179  1.00  0.00     0.016 A 
ATOM     44  C   UNL A   1      46.212  24.578  27.532  1.00  0.00     0.016 A 
ATOM     45  C   UNL A   1      46.194  26.119  25.191  1.00  0.00     0.010 A 
ATOM     46  C   UNL A   1      46.734  25.880  27.540  1.00  0.00     0.010 A 
ATOM     47  C   UNL A   1      46.753  26.651  26.364  1.00  0.00    -0.014 A 
BRANCH  47  48
ATOM     48  C   UNL A   1      47.483  27.949  26.317  1.00  0.00     0.031 A 
ATOM     49  C   UNL A   1      48.964  27.938  26.083  1.00  0.00     0.074 A 
ATOM     50  C   UNL A   1      46.853  29.131  26.456  1.00  0.00     0.049 A 
ATOM     51  N   UNL A   1      49.797  28.944  26.006  1.00  0.00    -0.248 NA
ATOM     52  C   UNL A   1      49.586  26.619  25.894  1.00  0.00     0.031 C 
ATOM     53  C   UNL A   1      45.418  29.281  26.615  1.00  0.00     0.029 A 
ATOM     54  N   UNL A   1      47.322  30.422  26.485  1.00  0.00    -0.354 N 
ATOM     55  C   UNL A   1      51.036  28.384  25.742  1.00  0.00     0.074 A 
ATOM     56  C   UNL A   1      50.855  26.949  25.698  1.00  0.00     0.031 C 
ATOM     57  C   UNL A   1      45.110  30.580  26.757  1.00  0.00     0.029 A 
ATOM     58  C   UNL A   1      46.343  31.361  26.719  1.00  0.00     0.049 A 
ATOM     59  H   UNL A   1      48.270  30.654  26.353  1.00  0.00     0.167 HD
ATOM     60  C   UNL A   1      52.218  29.014  25.549  1.00  0.00     0.037 A 
ATOM     61  C   UNL A   1      46.433  32.694  26.900  1.00  0.00     0.037 A 
ATOM     62  C   UNL A   1      52.408  30.438  25.629  1.00  0.00     0.049 A 
ATOM     63  C   UNL A   1      47.786  33.353  26.803  1.00  0.00     0.074 A 
ATOM     64  C   UNL A   1      53.574  31.162  25.453  1.00  0.00     0.029 A 
ATOM     65  N   UNL A   1      51.410  31.355  25.930  1.00  0.00    -0.354 N 
ATOM     66  N   UNL A   1      48.946  32.819  26.512  1.00  0.00    -0.248 NA
ATOM     67  C   UNL A   1      47.842  34.801  27.053  1.00  0.00     0.031 C 
ATOM     68  C   UNL A   1      53.296  32.508  25.711  1.00  0.00     0.029 A 
ATOM     69  C   UNL A   1      51.944  32.633  25.984  1.00  0.00     0.049 A 
ATOM     70  H   UNL A   1      50.464  31.130  26.082  1.00  0.00     0.167 HD
ATOM     71  C   UNL A   1      49.860  33.864  26.510  1.00  0.00     0.074 A 
ATOM     72  C   UNL A   1      49.117  35.070  26.813  1.00  0.00     0.031 C 
ATOM     73  C   UNL A   1      51.195  33.828  26.277  1.00  0.00     0.037 A 
BRANCH  60  74
ATOM     74  C   UNL A   1      53.414  28.155  25.273  1.00  0.00     0.064 A 
ATOM     75  C   UNL A   1      54.106  27.503  26.303  1.00  0.00     0.173 A 
ATOM     76  C   UNL A   1      53.852  27.955  23.956  1.00  0.00     0.173 A 
ATOM     77  F   UNL A   1      53.736  27.677  27.582  1.00  0.00    -0.203 F 
ATOM     78  C   UNL A   1      55.206  26.695  26.026  1.00  0.00     0.198 A 
ATOM     79  C   UNL A   1      54.934  27.125  23.680  1.00  0.00     0.198 A 
ATOM     80  F   UNL A   1      53.224  28.559  22.935  1.00  0.00    -0.203 F 
ATOM     81  F   UNL A   1      55.877  26.112  27.029  1.00  0.00    -0.200 F 
ATOM     82  C   UNL A   1      55.613  26.501  24.715  1.00  0.00     0.200 A 
ATOM     83  F   UNL A   1      55.320  26.931  22.411  1.00  0.00    -0.200 F 
ATOM     84  F   UNL A   1      56.665  25.715  24.448  1.00  0.00    -0.200 F 
ENDBRANCH  60  74
BRANCH  61  85
ATOM     85  C   UNL A   1      45.225  33.503  27.229  1.00  0.00     0.064 A 
ATOM     86  C   UNL A   1      44.752  33.607  28.545  1.00  0.00     0.173 A 
ATOM     87  C   UNL A   1      44.474  34.127  26.221  1.00  0.00     0.173 A 
ATOM     88  F   UNL A   1      45.415  33.008  29.544  1.00  0.00    -0.203 F 
ATOM     89  C   UNL A   1      43.557  34.268  28.833  1.00  0.00     0.198 A 
ATOM     90  C   UNL A   1      43.297  34.814  26.514  1.00  0.00     0.198 A 
ATOM     91  F   UNL A   1      44.876  34.059  24.943  1.00  0.00    -0.203 F 
ATOM     92  F   UNL A   1      43.092  34.288  30.091  1.00  0.00    -0.200 F 
ATOM     93  C   UNL A   1      42.832  34.872  27.818  1.00  0.00     0.200 A 
ATOM     94  F   UNL A   1      42.604  35.400  25.529  1.00  0.00    -0.200 F 
ATOM     95  F   UNL A   1      41.676  35.492  28.093  1.00  0.00    -0.200 F 
ENDBRANCH  61  85
BRANCH  73  96
ATOM     96  C   UNL A   1      51.939  35.134  26.305  1.00  0.00     0.064 A 
ATOM     97  C   UNL A   1      52.531  35.622  27.479  1.00  0.00     0.173 A 
ATOM     98  C   UNL A   1      52.095  35.884  25.129  1.00  0.00     0.173 A 
ATOM     99  F   UNL A   1      52.397  34.952  28.632  1.00  0.00    -0.203 F 
ATOM    100  C   UNL A   1      53.231  36.826  27.479  1.00  0.00     0.198 A 
ATOM    101  C   UNL A   1      52.825  37.070  25.127  1.00  0.00     0.198 A 
ATOM    102  F   UNL A   1      51.554  35.460  23.978  1.00  0.00    -0.203 F 
ATOM    103  F   UNL A   1      53.745  37.299  28.623  1.00  0.00    -0.200 F 
ATOM    104  C   UNL A   1      53.386  37.543  26.303  1.00  0.00     0.200 A 
ATOM    105  F   UNL A   1      52.987  37.752  23.985  1.00  0.00    -0.200 F 
ATOM    106  F   UNL A   1      54.069  38.696  26.304  1.00  0.00    -0.200 F 
ENDBRANCH  73  96
ENDBRANCH  47  48
ENDBRANCH  40  42
ENDBRANCH  39  40
ENDBRANCH  38  39
ENDBRANCH  37  38
ENDBRANCH  36  37
ENDBRANCH  35  36
ENDBRANCH  34  35
ENDBRANCH  33  34
ENDBRANCH   1  33
TORSDOF 26
ENDMDL
MODEL 2
REMARK VINA RESULT:      -9.9      1.180      7.208
REMARK SMILES C[C@H](CN(Cc1ccccc1)C(=O)c1cc2ccccc2oc1=O)C(=O)OCCOCCOCCOCCOC(=O)c1ccc(-c2c3nc(c(-c4c(F)c(F)c(F)c(F)c4F)c4ccc([nH]4)c(-c4c(F)c(F)c(F)c(F)c4F)c4nc(c(-c5c(F)c(F)c(F)c(F)c5F)c5ccc2[nH]5)C=C4)C=C3)cc1
REMARK SMILES IDX 32 1 31 2 30 3 29 4 28 5 27 6 25 7 26 8 2 9 1 10 3 11 4 12
REMARK SMILES IDX 5 13 6 14 7 15 11 16 8 17 10 18 9 19 12 20 13 21 14 22 15 23
REMARK SMILES IDX 23 24 16 25 22 26 24 27 17 28 21 29 18 30 20 31 19 32 33 33
REMARK SMILES IDX 34 34 35 35 36 36 37 37 38 38 39 39 40 40 41 41 42 42 43 43
REMARK SMILES IDX 104 44 44 45 103 46 45 47 46 48 47 49 97 50 48 51 102 52
REMARK SMILES IDX 96 53 98 54 49 55 101 56 95 57 94 58 50 60 82 61 62 62 81 63
REMARK SMILES IDX 63 64 66 65 80 66 99 67 64 68 65 69 79 71 100 72 67 73 51 74
REMARK SMILES IDX 52 75 60 76 53 77 54 78 58 79 61 80 55 81 56 82 59 83 57 84
REMARK SMILES IDX 83 85 84 86 92 87 85 88 86 89 90 90 93 91 87 92 88 93 91 94
REMARK SMILES IDX 89 95 68 96 69 97 77 98 70 99 71 100 75 101 78 102 72 103
REMARK SMILES IDX 73 104 76 105 74 106
REMARK H PARENT 98 59 66 70
REMARK Flexibility Score: inf
ROOT
ATOM      1  C   UNL A   1      41.342  20.418  26.991  1.00  0.00     0.188 C 
ENDROOT
BRANCH   1   2
ATOM      2  C   UNL A   1      40.548  21.397  26.114  1.00  0.00     0.188 C 
BRANCH   2   3
ATOM      3  O   UNL A   1      39.229  21.768  26.460  1.00  0.00    -0.376 OA
BRANCH   3   4
ATOM      4  C   UNL A   1      38.233  21.667  25.432  1.00  0.00     0.202 C 
BRANCH   4   5
ATOM      5  C   UNL A   1      36.806  22.207  25.680  1.00  0.00     0.261 C 
BRANCH   5   6
ATOM      6  O   UNL A   1      35.926  22.054  24.531  1.00  0.00    -0.463 OA
BRANCH   6   7
ATOM      7  C   UNL A   1      34.992  21.073  24.582  1.00  0.00     0.310 C 
ATOM      8  O   UNL A   1      35.247  19.906  24.866  1.00  0.00    -0.252 OA
BRANCH   7   9
ATOM      9  C   UNL A   1      33.567  21.520  24.250  1.00  0.00     0.115 C 
ATOM     10  C   UNL A   1      32.615  20.338  24.280  1.00  0.00     0.022 C 
BRANCH   9  11
ATOM     11  C   UNL A   1      33.333  22.526  23.090  1.00  0.00     0.135 C 
BRANCH  11  12
ATOM     12  N   UNL A   1      32.638  23.787  23.392  1.00  0.00    -0.333 N 
BRANCH  12  13
ATOM     13  C   UNL A   1      31.177  23.863  23.263  1.00  0.00     0.155 C 
BRANCH  13  14
ATOM     14  C   UNL A   1      30.630  25.284  23.185  1.00  0.00    -0.029 A 
ATOM     15  C   UNL A   1      31.237  26.271  22.393  1.00  0.00     0.005 A 
ATOM     16  C   UNL A   1      29.509  25.647  23.954  1.00  0.00     0.005 A 
ATOM     17  C   UNL A   1      30.746  27.586  22.386  1.00  0.00     0.000 A 
ATOM     18  C   UNL A   1      29.015  26.956  23.937  1.00  0.00     0.000 A 
ATOM     19  C   UNL A   1      29.639  27.928  23.160  1.00  0.00     0.000 A 
ENDBRANCH  13  14
ENDBRANCH  12  13
BRANCH  12  20
ATOM     20  C   UNL A   1      33.369  24.798  23.979  1.00  0.00     0.261 C 
ATOM     21  O   UNL A   1      33.731  25.773  23.336  1.00  0.00    -0.269 OA
BRANCH  20  22
ATOM     22  C   UNL A   1      33.623  24.723  25.446  1.00  0.00     0.126 A 
ATOM     23  C   UNL A   1      34.313  25.774  25.936  1.00  0.00     0.033 A 
ATOM     24  C   UNL A   1      32.373  24.438  26.195  1.00  0.00     0.349 A 
ATOM     25  C   UNL A   1      33.526  26.967  26.295  1.00  0.00     0.018 A 
ATOM     26  O   UNL A   1      31.584  25.538  26.530  1.00  0.00    -0.422 OA
ATOM     27  O   UNL A   1      32.049  23.288  26.468  1.00  0.00    -0.246 OA
ATOM     28  C   UNL A   1      34.085  28.244  26.352  1.00  0.00     0.012 A 
ATOM     29  C   UNL A   1      32.158  26.822  26.514  1.00  0.00     0.138 A 
ATOM     30  C   UNL A   1      33.275  29.360  26.575  1.00  0.00     0.001 A 
ATOM     31  C   UNL A   1      31.334  27.925  26.726  1.00  0.00     0.048 A 
ATOM     32  C   UNL A   1      31.897  29.202  26.740  1.00  0.00     0.004 A 
ENDBRANCH  20  22
ENDBRANCH  12  20
ENDBRANCH  11  12
ENDBRANCH   9  11
ENDBRANCH   7   9
ENDBRANCH   6   7
ENDBRANCH   5   6
ENDBRANCH   4   5
ENDBRANCH   3   4
ENDBRANCH   2   3
ENDBRANCH   1   2
BRANCH   1  33
ATOM     33  O   UNL A   1      41.447  19.024  26.786  1.00  0.00    -0.377 OA
BRANCH  33  34
ATOM     34  C   UNL A   1      42.655  18.418  26.365  1.00  0.00     0.188 C 
BRANCH  34  35
ATOM     35  C   UNL A   1      43.546  19.161  25.371  1.00  0.00     0.188 C 
BRANCH  35  36
ATOM     36  O   UNL A   1      44.799  18.540  25.087  1.00  0.00    -0.376 OA
BRANCH  36  37
ATOM     37  C   UNL A   1      45.925  19.393  25.244  1.00  0.00     0.202 C 
BRANCH  37  38
ATOM     38  C   UNL A   1      45.664  20.852  24.822  1.00  0.00     0.261 C 
BRANCH  38  39
ATOM     39  O   UNL A   1      46.115  21.837  25.770  1.00  0.00    -0.460 OA
BRANCH  39  40
ATOM     40  C   UNL A   1      45.160  22.692  26.196  1.00  0.00     0.338 C 
ATOM     41  O   UNL A   1      44.021  22.414  26.548  1.00  0.00    -0.246 OA
BRANCH  40  42
ATOM     42  C   UNL A   1      45.707  24.065  26.268  1.00  0.00     0.060 A 
ATOM     43  C   UNL A   1      45.795  24.809  25.086  1.00  0.00     0.016 A 
ATOM     44  C   UNL A   1      46.204  24.591  27.464  1.00  0.00     0.016 A 
ATOM     45  C   UNL A   1      46.422  26.060  25.087  1.00  0.00     0.010 A 
ATOM     46  C   UNL A   1      46.847  25.838  27.461  1.00  0.00     0.010 A 
ATOM     47  C   UNL A   1      46.984  26.571  26.268  1.00  0.00    -0.014 A 
BRANCH  47  48
ATOM     48  C   UNL A   1      47.835  27.792  26.219  1.00  0.00     0.031 A 
ATOM     49  C   UNL A   1      47.201  29.127  26.475  1.00  0.00     0.074 A 
ATOM     50  C   UNL A   1      49.158  27.734  25.974  1.00  0.00     0.049 A 
ATOM     51  N   UNL A   1      47.750  30.315  26.481  1.00  0.00    -0.248 NA
ATOM     52  C   UNL A   1      45.763  29.120  26.781  1.00  0.00     0.031 C 
ATOM     53  C   UNL A   1      49.902  26.502  25.781  1.00  0.00     0.029 A 
ATOM     54  N   UNL A   1      50.111  28.715  25.845  1.00  0.00    -0.354 N 
ATOM     55  C   UNL A   1      46.732  31.195  26.810  1.00  0.00     0.074 A 
ATOM     56  C   UNL A   1      45.525  30.410  26.969  1.00  0.00     0.031 C 
ATOM     57  C   UNL A   1      51.190  26.785  25.528  1.00  0.00     0.029 A 
ATOM     58  C   UNL A   1      51.359  28.234  25.521  1.00  0.00     0.049 A 
ATOM     59  H   UNL A   1      49.919  29.672  25.972  1.00  0.00     0.167 HD
ATOM     60  C   UNL A   1      46.800  32.537  26.968  1.00  0.00     0.037 A 
ATOM     61  C   UNL A   1      52.502  28.889  25.232  1.00  0.00     0.037 A 
ATOM     62  C   UNL A   1      47.989  33.323  26.774  1.00  0.00     0.049 A 
ATOM     63  C   UNL A   1      52.515  30.395  25.295  1.00  0.00     0.074 A 
ATOM     64  C   UNL A   1      48.147  34.691  26.908  1.00  0.00     0.029 A 
ATOM     65  N   UNL A   1      49.220  32.814  26.384  1.00  0.00    -0.354 N 
ATOM     66  N   UNL A   1      51.556  31.216  25.646  1.00  0.00    -0.248 NA
ATOM     67  C   UNL A   1      53.770  31.068  24.928  1.00  0.00     0.031 C 
ATOM     68  C   UNL A   1      49.455  35.018  26.536  1.00  0.00     0.029 A 
ATOM     69  C   UNL A   1      50.132  33.849  26.233  1.00  0.00     0.049 A 
ATOM     70  H   UNL A   1      49.416  31.861  26.236  1.00  0.00     0.167 HD
ATOM     71  C   UNL A   1      52.098  32.492  25.575  1.00  0.00     0.074 A 
ATOM     72  C   UNL A   1      53.477  32.339  25.164  1.00  0.00     0.031 C 
ATOM     73  C   UNL A   1      51.506  33.685  25.831  1.00  0.00     0.037 A 
BRANCH  60  74
ATOM     74  C   UNL A   1      45.532  33.248  27.332  1.00  0.00     0.064 A 
ATOM     75  C   UNL A   1      44.704  33.821  26.356  1.00  0.00     0.173 A 
ATOM     76  C   UNL A   1      45.126  33.327  28.671  1.00  0.00     0.173 A 
ATOM     77  F   UNL A   1      45.059  33.787  25.063  1.00  0.00    -0.203 F 
ATOM     78  C   UNL A   1      43.521  34.464  26.712  1.00  0.00     0.198 A 
ATOM     79  C   UNL A   1      43.929  33.946  29.021  1.00  0.00     0.198 A 
ATOM     80  F   UNL A   1      45.885  32.795  29.641  1.00  0.00    -0.203 F 
ATOM     81  F   UNL A   1      42.764  35.040  25.768  1.00  0.00    -0.200 F 
ATOM     82  C   UNL A   1      43.132  34.518  28.042  1.00  0.00     0.200 A 
ATOM     83  F   UNL A   1      43.550  33.989  30.305  1.00  0.00    -0.200 F 
ATOM     84  F   UNL A   1      41.988  35.129  28.382  1.00  0.00    -0.200 F 
ENDBRANCH  60  74
BRANCH  61  85
ATOM     85  C   UNL A   1      53.726  28.145  24.819  1.00  0.00     0.064 A 
ATOM     86  C   UNL A   1      54.676  27.720  25.759  1.00  0.00     0.173 A 
ATOM     87  C   UNL A   1      54.008  27.910  23.464  1.00  0.00     0.173 A 
ATOM     88  F   UNL A   1      54.470  27.943  27.065  1.00  0.00    -0.203 F 
ATOM     89  C   UNL A   1      55.874  27.128  25.359  1.00  0.00     0.198 A 
ATOM     90  C   UNL A   1      55.192  27.290  23.067  1.00  0.00     0.198 A 
ATOM     91  F   UNL A   1      53.138  28.297  22.519  1.00  0.00    -0.203 F 
ATOM     92  F   UNL A   1      56.795  26.801  26.277  1.00  0.00    -0.200 F 
ATOM     93  C   UNL A   1      56.130  26.912  24.015  1.00  0.00     0.200 A 
ATOM     94  F   UNL A   1      55.430  27.079  21.766  1.00  0.00    -0.200 F 
ATOM     95  F   UNL A   1      57.289  26.359  23.630  1.00  0.00    -0.200 F 
ENDBRANCH  61  85
BRANCH  73  96
ATOM     96  C   UNL A   1      52.352  34.920  25.707  1.00  0.00     0.064 A 
ATOM     97  C   UNL A   1      53.077  35.430  26.795  1.00  0.00     0.173 A 
ATOM     98  C   UNL A   1      52.471  35.577  24.473  1.00  0.00     0.173 A 
ATOM     99  F   UNL A   1      52.986  34.849  28.000  1.00  0.00    -0.203 F 
ATOM    100  C   UNL A   1      53.871  36.566  26.655  1.00  0.00     0.198 A 
ATOM    101  C   UNL A   1      53.292  36.692  24.330  1.00  0.00     0.198 A 
ATOM    102  F   UNL A   1      51.804  35.129  23.400  1.00  0.00    -0.203 F 
ATOM    103  F   UNL A   1      54.515  37.065  27.720  1.00  0.00    -0.200 F 
ATOM    104  C   UNL A   1      53.985  37.190  25.422  1.00  0.00     0.200 A 
ATOM    105  F   UNL A   1      53.413  37.284  23.134  1.00  0.00    -0.200 F 
ATOM    106  F   UNL A   1      54.757  38.277  25.289  1.00  0.00    -0.200 F 
ENDBRANCH  73  96
ENDBRANCH  47  48
ENDBRANCH  40  42
ENDBRANCH  39  40
ENDBRANCH  38  39
ENDBRANCH  37  38
ENDBRANCH  36  37
ENDBRANCH  35  36
ENDBRANCH  34  35
ENDBRANCH  33  34
ENDBRANCH   1  33
TORSDOF 26
ENDMDL
MODEL 3
REMARK VINA RESULT:      -9.6      6.184     10.063
REMARK SMILES C[C@H](CN(Cc1ccccc1)C(=O)c1cc2ccccc2oc1=O)C(=O)OCCOCCOCCOCCOC(=O)c1ccc(-c2c3nc(c(-c4c(F)c(F)c(F)c(F)c4F)c4ccc([nH]4)c(-c4c(F)c(F)c(F)c(F)c4F)c4nc(c(-c5c(F)c(F)c(F)c(F)c5F)c5ccc2[nH]5)C=C4)C=C3)cc1
REMARK SMILES IDX 32 1 31 2 30 3 29 4 28 5 27 6 25 7 26 8 2 9 1 10 3 11 4 12
REMARK SMILES IDX 5 13 6 14 7 15 11 16 8 17 10 18 9 19 12 20 13 21 14 22 15 23
REMARK SMILES IDX 23 24 16 25 22 26 24 27 17 28 21 29 18 30 20 31 19 32 33 33
REMARK SMILES IDX 34 34 35 35 36 36 37 37 38 38 39 39 40 40 41 41 42 42 43 43
REMARK SMILES IDX 104 44 44 45 103 46 45 47 46 48 47 49 97 50 48 51 102 52
REMARK SMILES IDX 96 53 98 54 49 55 101 56 95 57 94 58 50 60 82 61 62 62 81 63
REMARK SMILES IDX 63 64 66 65 80 66 99 67 64 68 65 69 79 71 100 72 67 73 51 74
REMARK SMILES IDX 52 75 60 76 53 77 54 78 58 79 61 80 55 81 56 82 59 83 57 84
REMARK SMILES IDX 83 85 84 86 92 87 85 88 86 89 90 90 93 91 87 92 88 93 91 94
REMARK SMILES IDX 89 95 68 96 69 97 77 98 70 99 71 100 75 101 78 102 72 103
REMARK SMILES IDX 73 104 76 105 74 106
REMARK H PARENT 98 59 66 70
REMARK Flexibility Score: inf
ROOT
ATOM      1  C   UNL A   1      34.321  31.577  27.865  1.00  0.00     0.188 C 
ENDROOT
BRANCH   1   2
ATOM      2  C   UNL A   1      33.187  30.710  27.301  1.00  0.00     0.188 C 
BRANCH   2   3
ATOM      3  O   UNL A   1      32.455  31.129  26.167  1.00  0.00    -0.376 OA
BRANCH   3   4
ATOM      4  C   UNL A   1      31.455  30.229  25.667  1.00  0.00     0.202 C 
BRANCH   4   5
ATOM      5  C   UNL A   1      31.803  28.744  25.417  1.00  0.00     0.261 C 
BRANCH   5   6
ATOM      6  O   UNL A   1      32.278  28.485  24.066  1.00  0.00    -0.463 OA
BRANCH   6   7
ATOM      7  C   UNL A   1      31.351  28.380  23.084  1.00  0.00     0.310 C 
ATOM      8  O   UNL A   1      31.051  29.303  22.331  1.00  0.00    -0.252 OA
BRANCH   7   9
ATOM      9  C   UNL A   1      30.679  27.011  22.973  1.00  0.00     0.115 C 
ATOM     10  C   UNL A   1      29.497  26.916  23.921  1.00  0.00     0.022 C 
BRANCH   9  11
ATOM     11  C   UNL A   1      31.558  25.733  22.886  1.00  0.00     0.135 C 
BRANCH  11  12
ATOM     12  N   UNL A   1      32.456  25.429  24.012  1.00  0.00    -0.333 N 
BRANCH  12  13
ATOM     13  C   UNL A   1      33.892  25.717  23.898  1.00  0.00     0.155 C 
BRANCH  13  14
ATOM     14  C   UNL A   1      34.795  24.551  24.281  1.00  0.00    -0.029 A 
ATOM     15  C   UNL A   1      35.167  24.305  25.613  1.00  0.00     0.005 A 
ATOM     16  C   UNL A   1      35.314  23.707  23.282  1.00  0.00     0.005 A 
ATOM     17  C   UNL A   1      36.047  23.259  25.929  1.00  0.00     0.000 A 
ATOM     18  C   UNL A   1      36.182  22.658  23.601  1.00  0.00     0.000 A 
ATOM     19  C   UNL A   1      36.556  22.440  24.924  1.00  0.00     0.000 A 
ENDBRANCH  13  14
ENDBRANCH  12  13
BRANCH  12  20
ATOM     20  C   UNL A   1      31.881  25.067  25.211  1.00  0.00     0.261 C 
ATOM     21  O   UNL A   1      32.129  25.678  26.241  1.00  0.00    -0.269 OA
BRANCH  20  22
ATOM     22  C   UNL A   1      30.869  23.972  25.207  1.00  0.00     0.126 A 
ATOM     23  C   UNL A   1      31.086  23.030  24.266  1.00  0.00     0.033 A 
ATOM     24  C   UNL A   1      30.677  23.412  26.569  1.00  0.00     0.349 A 
ATOM     25  C   UNL A   1      32.020  21.947  24.622  1.00  0.00     0.018 A 
ATOM     26  O   UNL A   1      31.559  22.404  26.957  1.00  0.00    -0.422 OA
ATOM     27  O   UNL A   1      29.805  23.846  27.313  1.00  0.00    -0.246 OA
ATOM     28  C   UNL A   1      32.703  21.201  23.662  1.00  0.00     0.012 A 
ATOM     29  C   UNL A   1      32.285  21.713  25.969  1.00  0.00     0.138 A 
ATOM     30  C   UNL A   1      33.671  20.270  24.048  1.00  0.00     0.001 A 
ATOM     31  C   UNL A   1      33.254  20.797  26.371  1.00  0.00     0.048 A 
ATOM     32  C   UNL A   1      33.961  20.084  25.401  1.00  0.00     0.004 A 
ENDBRANCH  20  22
ENDBRANCH  12  20
ENDBRANCH  11  12
ENDBRANCH   9  11
ENDBRANCH   7   9
ENDBRANCH   6   7
ENDBRANCH   5   6
ENDBRANCH   4   5
ENDBRANCH   3   4
ENDBRANCH   2   3
ENDBRANCH   1   2
BRANCH   1  33
ATOM     33  O   UNL A   1      35.593  31.114  28.271  1.00  0.00    -0.377 OA
BRANCH  33  34
ATOM     34  C   UNL A   1      35.873  29.735  28.426  1.00  0.00     0.188 C 
BRANCH  34  35
ATOM     35  C   UNL A   1      37.154  29.321  29.147  1.00  0.00     0.188 C 
BRANCH  35  36
ATOM     36  O   UNL A   1      38.322  30.065  28.800  1.00  0.00    -0.376 OA
BRANCH  36  37
ATOM     37  C   UNL A   1      39.499  29.279  28.665  1.00  0.00     0.202 C 
BRANCH  37  38
ATOM     38  C   UNL A   1      39.343  28.085  27.703  1.00  0.00     0.261 C 
BRANCH  38  39
ATOM     39  O   UNL A   1      39.646  26.805  28.287  1.00  0.00    -0.460 OA
BRANCH  39  40
ATOM     40  C   UNL A   1      40.636  26.121  27.672  1.00  0.00     0.338 C 
ATOM     41  O   UNL A   1      40.677  25.773  26.499  1.00  0.00    -0.246 OA
BRANCH  40  42
ATOM     42  C   UNL A   1      41.758  25.904  28.610  1.00  0.00     0.060 A 
ATOM     43  C   UNL A   1      42.207  26.988  29.374  1.00  0.00     0.016 A 
ATOM     44  C   UNL A   1      42.419  24.675  28.686  1.00  0.00     0.016 A 
ATOM     45  C   UNL A   1      43.346  26.859  30.178  1.00  0.00     0.010 A 
ATOM     46  C   UNL A   1      43.569  24.550  29.481  1.00  0.00     0.010 A 
ATOM     47  C   UNL A   1      44.056  25.649  30.212  1.00  0.00    -0.014 A 
BRANCH  47  48
ATOM     48  C   UNL A   1      45.380  25.583  30.893  1.00  0.00     0.031 A 
ATOM     49  C   UNL A   1      46.614  25.915  30.109  1.00  0.00     0.074 A 
ATOM     50  C   UNL A   1      45.500  25.256  32.194  1.00  0.00     0.049 A 
ATOM     51  N   UNL A   1      47.863  25.922  30.498  1.00  0.00    -0.248 NA
ATOM     52  C   UNL A   1      46.411  26.308  28.707  1.00  0.00     0.031 C 
ATOM     53  C   UNL A   1      44.381  24.982  33.078  1.00  0.00     0.029 A 
ATOM     54  N   UNL A   1      46.600  25.097  33.000  1.00  0.00    -0.354 N 
ATOM     55  C   UNL A   1      48.594  26.337  29.397  1.00  0.00     0.074 A 
ATOM     56  C   UNL A   1      47.655  26.548  28.316  1.00  0.00     0.031 C 
ATOM     57  C   UNL A   1      44.836  24.659  34.299  1.00  0.00     0.029 A 
ATOM     58  C   UNL A   1      46.295  24.683  34.278  1.00  0.00     0.049 A 
ATOM     59  H   UNL A   1      47.521  25.262  32.694  1.00  0.00     0.167 HD
ATOM     60  C   UNL A   1      49.930  26.529  29.301  1.00  0.00     0.037 A 
ATOM     61  C   UNL A   1      47.100  24.343  35.304  1.00  0.00     0.037 A 
ATOM     62  C   UNL A   1      50.870  26.285  30.363  1.00  0.00     0.049 A 
ATOM     63  C   UNL A   1      48.593  24.448  35.126  1.00  0.00     0.074 A 
ATOM     64  C   UNL A   1      52.244  26.448  30.350  1.00  0.00     0.029 A 
ATOM     65  N   UNL A   1      50.536  25.806  31.621  1.00  0.00    -0.354 N 
ATOM     66  N   UNL A   1      49.274  24.880  34.093  1.00  0.00    -0.248 NA
ATOM     67  C   UNL A   1      49.433  24.024  36.256  1.00  0.00     0.031 C 
ATOM     68  C   UNL A   1      52.748  26.006  31.578  1.00  0.00     0.029 A 
ATOM     69  C   UNL A   1      51.684  25.629  32.379  1.00  0.00     0.049 A 
ATOM     70  H   UNL A   1      49.620  25.619  31.930  1.00  0.00     0.167 HD
ATOM     71  C   UNL A   1      50.611  24.813  34.458  1.00  0.00     0.074 A 
ATOM     72  C   UNL A   1      50.649  24.314  35.817  1.00  0.00     0.031 C 
ATOM     73  C   UNL A   1      51.710  25.138  33.734  1.00  0.00     0.037 A 
BRANCH  60  74
ATOM     74  C   UNL A   1      50.462  26.990  27.977  1.00  0.00     0.064 A 
ATOM     75  C   UNL A   1      50.863  26.081  26.989  1.00  0.00     0.173 A 
ATOM     76  C   UNL A   1      50.537  28.359  27.685  1.00  0.00     0.173 A 
ATOM     77  F   UNL A   1      50.826  24.761  27.228  1.00  0.00    -0.203 F 
ATOM     78  C   UNL A   1      51.339  26.528  25.759  1.00  0.00     0.198 A 
ATOM     79  C   UNL A   1      50.986  28.802  26.444  1.00  0.00     0.198 A 
ATOM     80  F   UNL A   1      50.166  29.268  28.599  1.00  0.00    -0.203 F 
ATOM     81  F   UNL A   1      51.755  25.644  24.842  1.00  0.00    -0.200 F 
ATOM     82  C   UNL A   1      51.392  27.886  25.485  1.00  0.00     0.200 A 
ATOM     83  F   UNL A   1      51.028  30.114  26.179  1.00  0.00    -0.200 F 
ATOM     84  F   UNL A   1      51.841  28.315  24.298  1.00  0.00    -0.200 F 
ENDBRANCH  60  74
BRANCH  61  85
ATOM     85  C   UNL A   1      46.531  23.835  36.585  1.00  0.00     0.064 A 
ATOM     86  C   UNL A   1      46.099  24.711  37.592  1.00  0.00     0.173 A 
ATOM     87  C   UNL A   1      46.481  22.459  36.860  1.00  0.00     0.173 A 
ATOM     88  F   UNL A   1      46.150  26.035  37.393  1.00  0.00    -0.203 F 
ATOM     89  C   UNL A   1      45.677  24.233  38.833  1.00  0.00     0.198 A 
ATOM     90  C   UNL A   1      46.030  21.982  38.089  1.00  0.00     0.198 A 
ATOM     91  F   UNL A   1      46.885  21.574  35.936  1.00  0.00    -0.203 F 
ATOM     92  F   UNL A   1      45.339  25.098  39.800  1.00  0.00    -0.200 F 
ATOM     93  C   UNL A   1      45.641  22.870  39.080  1.00  0.00     0.200 A 
ATOM     94  F   UNL A   1      45.993  20.663  38.319  1.00  0.00    -0.200 F 
ATOM     95  F   UNL A   1      45.252  22.412  40.278  1.00  0.00    -0.200 F 
ENDBRANCH  61  85
BRANCH  73  96
ATOM     96  C   UNL A   1      53.048  24.999  34.403  1.00  0.00     0.064 A 
ATOM     97  C   UNL A   1      53.798  23.816  34.317  1.00  0.00     0.173 A 
ATOM     98  C   UNL A   1      53.604  26.079  35.106  1.00  0.00     0.173 A 
ATOM     99  F   UNL A   1      53.305  22.750  33.670  1.00  0.00    -0.203 F 
ATOM    100  C   UNL A   1      55.044  23.713  34.930  1.00  0.00     0.198 A 
ATOM    101  C   UNL A   1      54.865  25.982  35.689  1.00  0.00     0.198 A 
ATOM    102  F   UNL A   1      52.932  27.233  35.216  1.00  0.00    -0.203 F 
ATOM    103  F   UNL A   1      55.720  22.557  34.876  1.00  0.00    -0.200 F 
ATOM    104  C   UNL A   1      55.581  24.798  35.606  1.00  0.00     0.200 A 
ATOM    105  F   UNL A   1      55.388  27.037  36.328  1.00  0.00    -0.200 F 
ATOM    106  F   UNL A   1      56.784  24.699  36.186  1.00  0.00    -0.200 F 
ENDBRANCH  73  96
ENDBRANCH  47  48
ENDBRANCH  40  42
ENDBRANCH  39  40
ENDBRANCH  38  39
ENDBRANCH  37  38
ENDBRANCH  36  37
ENDBRANCH  35  36
ENDBRANCH  34  35
ENDBRANCH  33  34
ENDBRANCH   1  33
TORSDOF 26
ENDMDL
