MODEL 1
REMARK VINA RESULT:      -9.7      0.000      0.000
REMARK SMILES C[C@H]([NH2+][C@@H](C)Cc1cccs1)[C@@H](C)C(=O)OCCOCCOCCOCCOC(=O)c1ccc(-c2c3nc(c(-c4c(F)c(F)c(F)c(F)c4F)c4ccc([nH]4)c(-c4c(F)c(F)c(F)c(F)c4F)c4nc(c(-c5c(F)c(F)c(F)c(F)c5F)c5ccc2[nH]5)C=C4)C=C3)cc1
REMARK SMILES IDX 20 1 19 2 18 3 17 4 16 5 14 6 15 7 12 8 13 9 2 10 1 11 3 12
REMARK SMILES IDX 4 15 5 16 6 17 7 18 8 19 11 20 9 21 10 22 21 23 22 24 23 25
REMARK SMILES IDX 24 26 25 27 26 28 27 29 28 30 29 31 30 32 31 33 32 34 93 35
REMARK SMILES IDX 33 36 92 37 34 38 35 39 36 40 86 41 37 42 91 43 85 44 87 45
REMARK SMILES IDX 38 46 90 47 84 48 83 49 39 51 71 52 51 53 70 54 52 55 55 56
REMARK SMILES IDX 69 57 88 58 53 59 54 60 68 62 89 63 56 64 40 65 41 66 49 67
REMARK SMILES IDX 42 68 43 69 47 70 50 71 44 72 45 73 48 74 46 75 72 76 73 77
REMARK SMILES IDX 81 78 74 79 75 80 79 81 82 82 76 83 77 84 80 85 78 86 57 87
REMARK SMILES IDX 58 88 66 89 59 90 60 91 64 92 67 93 61 94 62 95 65 96 63 97
REMARK H PARENT 3 13 3 14 87 50 55 61
REMARK Flexibility Score: inf
ROOT
ATOM      1  C   UNL A   1      40.303  22.499  26.798  1.00  0.00     0.188 C 
ENDROOT
BRANCH   1   2
ATOM      2  O   UNL A   1      38.933  22.887  26.758  1.00  0.00    -0.376 OA
BRANCH   2   3
ATOM      3  C   UNL A   1      38.124  22.510  25.661  1.00  0.00     0.202 C 
BRANCH   3   4
ATOM      4  C   UNL A   1      36.594  22.660  25.807  1.00  0.00     0.261 C 
BRANCH   4   5
ATOM      5  O   UNL A   1      36.048  23.984  26.019  1.00  0.00    -0.463 OA
BRANCH   5   6
ATOM      6  C   UNL A   1      35.055  24.347  25.164  1.00  0.00     0.314 C 
ATOM      7  O   UNL A   1      34.592  25.484  25.120  1.00  0.00    -0.252 OA
BRANCH   6   8
ATOM      8  C   UNL A   1      34.412  23.193  24.390  1.00  0.00     0.154 C 
ATOM      9  C   UNL A   1      34.966  23.304  22.959  1.00  0.00     0.026 C 
BRANCH   8  10
ATOM     10  C   UNL A   1      32.934  22.680  24.362  1.00  0.00     0.193 C 
ATOM     11  C   UNL A   1      32.610  21.181  24.346  1.00  0.00     0.076 C 
BRANCH  10  12
ATOM     12  N   UNL A   1      32.275  23.394  23.224  1.00  0.00    -0.341 N 
ATOM     13  H   UNL A   1      31.346  22.988  23.117  1.00  0.00     0.346 HD
ATOM     14  H   UNL A   1      32.928  23.265  22.450  1.00  0.00     0.346 HD
BRANCH  12  15
ATOM     15  C   UNL A   1      32.099  24.863  23.287  1.00  0.00     0.184 C 
ATOM     16  C   UNL A   1      32.026  25.371  21.838  1.00  0.00     0.075 C 
BRANCH  15  17
ATOM     17  C   UNL A   1      30.809  25.296  24.040  1.00  0.00     0.111 C 
BRANCH  17  18
ATOM     18  C   UNL A   1      31.015  26.504  24.917  1.00  0.00     0.010 A 
ATOM     19  C   UNL A   1      31.124  26.545  26.292  1.00  0.00     0.015 A 
ATOM     20  S   UNL A   1      31.160  28.073  24.240  1.00  0.00    -0.149 S 
ATOM     21  C   UNL A   1      31.547  27.821  26.763  1.00  0.00     0.012 A 
ATOM     22  C   UNL A   1      31.564  28.758  25.756  1.00  0.00     0.065 A 
ENDBRANCH  17  18
ENDBRANCH  15  17
ENDBRANCH  12  15
ENDBRANCH  10  12
ENDBRANCH   8  10
ENDBRANCH   6   8
ENDBRANCH   5   6
ENDBRANCH   4   5
ENDBRANCH   3   4
ENDBRANCH   2   3
ENDBRANCH   1   2
BRANCH   1  23
ATOM     23  C   UNL A   1      40.804  21.418  27.781  1.00  0.00     0.188 C 
BRANCH  23  24
ATOM     24  O   UNL A   1      40.667  20.086  27.327  1.00  0.00    -0.377 OA
BRANCH  24  25
ATOM     25  C   UNL A   1      41.421  19.764  26.180  1.00  0.00     0.188 C 
BRANCH  25  26
ATOM     26  C   UNL A   1      42.891  20.208  26.195  1.00  0.00     0.188 C 
BRANCH  26  27
ATOM     27  O   UNL A   1      43.182  21.207  25.224  1.00  0.00    -0.376 OA
BRANCH  27  28
ATOM     28  C   UNL A   1      44.513  21.371  24.769  1.00  0.00     0.202 C 
BRANCH  28  29
ATOM     29  C   UNL A   1      44.880  22.711  24.108  1.00  0.00     0.261 C 
BRANCH  29  30
ATOM     30  O   UNL A   1      44.108  23.856  24.495  1.00  0.00    -0.460 OA
BRANCH  30  31
ATOM     31  C   UNL A   1      44.784  24.907  25.016  1.00  0.00     0.338 C 
ATOM     32  O   UNL A   1      45.866  25.321  24.671  1.00  0.00    -0.246 OA
BRANCH  31  33
ATOM     33  C   UNL A   1      43.872  25.616  25.948  1.00  0.00     0.060 A 
ATOM     34  C   UNL A   1      43.947  27.014  26.005  1.00  0.00     0.016 A 
ATOM     35  C   UNL A   1      42.929  24.929  26.719  1.00  0.00     0.016 A 
ATOM     36  C   UNL A   1      43.107  27.728  26.857  1.00  0.00     0.010 A 
ATOM     37  C   UNL A   1      42.116  25.641  27.608  1.00  0.00     0.010 A 
ATOM     38  C   UNL A   1      42.234  27.040  27.709  1.00  0.00    -0.014 A 
BRANCH  38  39
ATOM     39  C   UNL A   1      41.684  27.767  28.878  1.00  0.00     0.031 A 
ATOM     40  C   UNL A   1      42.420  27.632  30.185  1.00  0.00     0.074 A 
ATOM     41  C   UNL A   1      40.625  28.586  28.776  1.00  0.00     0.049 A 
ATOM     42  N   UNL A   1      42.177  28.186  31.344  1.00  0.00    -0.248 NA
ATOM     43  C   UNL A   1      43.601  26.750  30.179  1.00  0.00     0.031 C 
ATOM     44  C   UNL A   1      39.862  28.838  27.556  1.00  0.00     0.029 A 
ATOM     45  N   UNL A   1      40.008  29.363  29.726  1.00  0.00    -0.354 N 
ATOM     46  C   UNL A   1      43.168  27.719  32.198  1.00  0.00     0.074 A 
ATOM     47  C   UNL A   1      43.997  26.812  31.438  1.00  0.00     0.031 C 
ATOM     48  C   UNL A   1      38.869  29.702  27.834  1.00  0.00     0.029 A 
ATOM     49  C   UNL A   1      38.914  30.046  29.255  1.00  0.00     0.049 A 
ATOM     50  H   UNL A   1      40.323  29.426  30.657  1.00  0.00     0.167 HD
ATOM     51  C   UNL A   1      43.373  28.027  33.500  1.00  0.00     0.037 A 
ATOM     52  C   UNL A   1      38.043  30.841  29.908  1.00  0.00     0.037 A 
ATOM     53  C   UNL A   1      42.544  28.926  34.254  1.00  0.00     0.049 A 
ATOM     54  C   UNL A   1      38.258  31.117  31.378  1.00  0.00     0.074 A 
ATOM     55  C   UNL A   1      42.670  29.313  35.575  1.00  0.00     0.029 A 
ATOM     56  N   UNL A   1      41.424  29.573  33.751  1.00  0.00    -0.354 N 
ATOM     57  N   UNL A   1      39.212  30.693  32.173  1.00  0.00    -0.248 NA
ATOM     58  C   UNL A   1      37.281  31.995  32.036  1.00  0.00     0.031 C 
ATOM     59  C   UNL A   1      41.589  30.142  35.892  1.00  0.00     0.029 A 
ATOM     60  C   UNL A   1      40.834  30.336  34.746  1.00  0.00     0.049 A 
ATOM     61  H   UNL A   1      41.097  29.500  32.826  1.00  0.00     0.167 HD
ATOM     62  C   UNL A   1      38.972  31.284  33.409  1.00  0.00     0.074 A 
ATOM     63  C   UNL A   1      37.793  32.108  33.251  1.00  0.00     0.031 C 
ATOM     64  C   UNL A   1      39.665  31.161  34.569  1.00  0.00     0.037 A 
BRANCH  51  65
ATOM     65  C   UNL A   1      44.517  27.352  34.201  1.00  0.00     0.064 A 
ATOM     66  C   UNL A   1      45.791  27.936  34.278  1.00  0.00     0.173 A 
ATOM     67  C   UNL A   1      44.324  26.114  34.832  1.00  0.00     0.173 A 
ATOM     68  F   UNL A   1      46.035  29.107  33.672  1.00  0.00    -0.203 F 
ATOM     69  C   UNL A   1      46.833  27.294  34.943  1.00  0.00     0.198 A 
ATOM     70  C   UNL A   1      45.358  25.493  35.525  1.00  0.00     0.198 A 
ATOM     71  F   UNL A   1      43.127  25.511  34.786  1.00  0.00    -0.203 F 
ATOM     72  F   UNL A   1      48.054  27.847  34.962  1.00  0.00    -0.200 F 
ATOM     73  C   UNL A   1      46.613  26.080  35.575  1.00  0.00     0.200 A 
ATOM     74  F   UNL A   1      45.140  24.324  36.145  1.00  0.00    -0.200 F 
ATOM     75  F   UNL A   1      47.614  25.470  36.226  1.00  0.00    -0.200 F 
ENDBRANCH  51  65
BRANCH  52  76
ATOM     76  C   UNL A   1      36.875  31.424  29.193  1.00  0.00     0.064 A 
ATOM     77  C   UNL A   1      36.818  32.789  28.874  1.00  0.00     0.173 A 
ATOM     78  C   UNL A   1      35.764  30.634  28.860  1.00  0.00     0.173 A 
ATOM     79  F   UNL A   1      37.840  33.595  29.194  1.00  0.00    -0.203 F 
ATOM     80  C   UNL A   1      35.685  33.345  28.281  1.00  0.00     0.198 A 
ATOM     81  C   UNL A   1      34.647  31.184  28.235  1.00  0.00     0.198 A 
ATOM     82  F   UNL A   1      35.762  29.324  29.145  1.00  0.00    -0.203 F 
ATOM     83  F   UNL A   1      35.632  34.664  28.050  1.00  0.00    -0.200 F 
ATOM     84  C   UNL A   1      34.602  32.541  27.957  1.00  0.00     0.200 A 
ATOM     85  F   UNL A   1      33.608  30.400  27.914  1.00  0.00    -0.200 F 
ATOM     86  F   UNL A   1      33.512  33.077  27.392  1.00  0.00    -0.200 F 
ENDBRANCH  52  76
BRANCH  64  87
ATOM     87  C   UNL A   1      39.206  31.983  35.741  1.00  0.00     0.064 A 
ATOM     88  C   UNL A   1      38.353  31.465  36.728  1.00  0.00     0.173 A 
ATOM     89  C   UNL A   1      39.642  33.310  35.886  1.00  0.00     0.173 A 
ATOM     90  F   UNL A   1      37.901  30.205  36.636  1.00  0.00    -0.203 F 
ATOM     91  C   UNL A   1      37.917  32.257  37.786  1.00  0.00     0.198 A 
ATOM     92  C   UNL A   1      39.236  34.087  36.968  1.00  0.00     0.198 A 
ATOM     93  F   UNL A   1      40.470  33.854  34.981  1.00  0.00    -0.203 F 
ATOM     94  F   UNL A   1      37.045  31.762  38.676  1.00  0.00    -0.200 F 
ATOM     95  C   UNL A   1      38.362  33.565  37.908  1.00  0.00     0.200 A 
ATOM     96  F   UNL A   1      39.687  35.342  37.094  1.00  0.00    -0.200 F 
ATOM     97  F   UNL A   1      37.941  34.326  38.928  1.00  0.00    -0.200 F 
ENDBRANCH  64  87
ENDBRANCH  38  39
ENDBRANCH  31  33
ENDBRANCH  30  31
ENDBRANCH  29  30
ENDBRANCH  28  29
ENDBRANCH  27  28
ENDBRANCH  26  27
ENDBRANCH  25  26
ENDBRANCH  24  25
ENDBRANCH  23  24
ENDBRANCH   1  23
TORSDOF 25
ENDMDL
MODEL 2
REMARK VINA RESULT:      -9.1      1.418      7.374
REMARK SMILES C[C@H]([NH2+][C@@H](C)Cc1cccs1)[C@@H](C)C(=O)OCCOCCOCCOCCOC(=O)c1ccc(-c2c3nc(c(-c4c(F)c(F)c(F)c(F)c4F)c4ccc([nH]4)c(-c4c(F)c(F)c(F)c(F)c4F)c4nc(c(-c5c(F)c(F)c(F)c(F)c5F)c5ccc2[nH]5)C=C4)C=C3)cc1
REMARK SMILES IDX 20 1 19 2 18 3 17 4 16 5 14 6 15 7 12 8 13 9 2 10 1 11 3 12
REMARK SMILES IDX 4 15 5 16 6 17 7 18 8 19 11 20 9 21 10 22 21 23 22 24 23 25
REMARK SMILES IDX 24 26 25 27 26 28 27 29 28 30 29 31 30 32 31 33 32 34 93 35
REMARK SMILES IDX 33 36 92 37 34 38 35 39 36 40 86 41 37 42 91 43 85 44 87 45
REMARK SMILES IDX 38 46 90 47 84 48 83 49 39 51 71 52 51 53 70 54 52 55 55 56
REMARK SMILES IDX 69 57 88 58 53 59 54 60 68 62 89 63 56 64 40 65 41 66 49 67
REMARK SMILES IDX 42 68 43 69 47 70 50 71 44 72 45 73 48 74 46 75 72 76 73 77
REMARK SMILES IDX 81 78 74 79 75 80 79 81 82 82 76 83 77 84 80 85 78 86 57 87
REMARK SMILES IDX 58 88 66 89 59 90 60 91 64 92 67 93 61 94 62 95 65 96 63 97
REMARK H PARENT 3 13 3 14 87 50 55 61
REMARK Flexibility Score: inf
ROOT
ATOM      1  C   UNL A   1      40.263  22.539  26.633  1.00  0.00     0.188 C 
ENDROOT
BRANCH   1   2
ATOM      2  O   UNL A   1      38.867  22.273  26.553  1.00  0.00    -0.376 OA
BRANCH   2   3
ATOM      3  C   UNL A   1      38.324  21.688  25.384  1.00  0.00     0.202 C 
BRANCH   3   4
ATOM      4  C   UNL A   1      36.838  21.958  25.065  1.00  0.00     0.261 C 
BRANCH   4   5
ATOM      5  O   UNL A   1      36.494  22.454  23.749  1.00  0.00    -0.463 OA
BRANCH   5   6
ATOM      6  C   UNL A   1      35.234  22.949  23.625  1.00  0.00     0.314 C 
ATOM      7  O   UNL A   1      34.931  23.810  22.803  1.00  0.00    -0.252 OA
BRANCH   6   8
ATOM      8  C   UNL A   1      34.253  22.504  24.713  1.00  0.00     0.154 C 
ATOM      9  C   UNL A   1      33.140  21.743  23.971  1.00  0.00     0.026 C 
BRANCH   8  10
ATOM     10  C   UNL A   1      33.657  23.283  25.932  1.00  0.00     0.193 C 
ATOM     11  C   UNL A   1      32.177  23.154  26.315  1.00  0.00     0.076 C 
BRANCH  10  12
ATOM     12  N   UNL A   1      34.049  24.714  25.736  1.00  0.00    -0.341 N 
ATOM     13  H   UNL A   1      34.656  24.745  24.917  1.00  0.00     0.346 HD
ATOM     14  H   UNL A   1      34.466  24.972  26.631  1.00  0.00     0.346 HD
BRANCH  12  15
ATOM     15  C   UNL A   1      32.998  25.737  25.534  1.00  0.00     0.184 C 
ATOM     16  C   UNL A   1      33.347  26.926  26.445  1.00  0.00     0.075 C 
BRANCH  15  17
ATOM     17  C   UNL A   1      32.900  26.238  24.065  1.00  0.00     0.111 C 
BRANCH  17  18
ATOM     18  C   UNL A   1      31.511  26.676  23.683  1.00  0.00     0.010 A 
ATOM     19  C   UNL A   1      30.308  26.205  24.169  1.00  0.00     0.015 A 
ATOM     20  S   UNL A   1      31.263  27.914  22.523  1.00  0.00    -0.149 S 
ATOM     21  C   UNL A   1      29.206  27.008  23.758  1.00  0.00     0.012 A 
ATOM     22  C   UNL A   1      29.579  27.948  22.825  1.00  0.00     0.065 A 
ENDBRANCH  17  18
ENDBRANCH  15  17
ENDBRANCH  12  15
ENDBRANCH  10  12
ENDBRANCH   8  10
ENDBRANCH   6   8
ENDBRANCH   5   6
ENDBRANCH   4   5
ENDBRANCH   3   4
ENDBRANCH   2   3
ENDBRANCH   1   2
BRANCH   1  23
ATOM     23  C   UNL A   1      41.162  21.815  27.660  1.00  0.00     0.188 C 
BRANCH  23  24
ATOM     24  O   UNL A   1      41.466  20.470  27.346  1.00  0.00    -0.377 OA
BRANCH  24  25
ATOM     25  C   UNL A   1      42.036  20.265  26.073  1.00  0.00     0.188 C 
BRANCH  25  26
ATOM     26  C   UNL A   1      43.387  20.951  25.823  1.00  0.00     0.188 C 
BRANCH  26  27
ATOM     27  O   UNL A   1      43.374  21.814  24.692  1.00  0.00    -0.376 OA
BRANCH  27  28
ATOM     28  C   UNL A   1      44.577  22.057  23.986  1.00  0.00     0.202 C 
BRANCH  28  29
ATOM     29  C   UNL A   1      45.262  23.419  24.192  1.00  0.00     0.261 C 
BRANCH  29  30
ATOM     30  O   UNL A   1      44.697  24.283  25.187  1.00  0.00    -0.460 OA
BRANCH  30  31
ATOM     31  C   UNL A   1      45.251  24.247  26.421  1.00  0.00     0.338 C 
ATOM     32  O   UNL A   1      46.309  23.750  26.731  1.00  0.00    -0.246 OA
BRANCH  31  33
ATOM     33  C   UNL A   1      44.441  25.120  27.308  1.00  0.00     0.060 A 
ATOM     34  C   UNL A   1      44.754  26.486  27.350  1.00  0.00     0.016 A 
ATOM     35  C   UNL A   1      43.367  24.620  28.050  1.00  0.00     0.016 A 
ATOM     36  C   UNL A   1      44.018  27.350  28.158  1.00  0.00     0.010 A 
ATOM     37  C   UNL A   1      42.657  25.478  28.898  1.00  0.00     0.010 A 
ATOM     38  C   UNL A   1      43.010  26.838  28.984  1.00  0.00    -0.014 A 
BRANCH  38  39
ATOM     39  C   UNL A   1      42.552  27.671  30.122  1.00  0.00     0.031 A 
ATOM     40  C   UNL A   1      41.268  28.438  29.944  1.00  0.00     0.074 A 
ATOM     41  C   UNL A   1      43.196  27.686  31.300  1.00  0.00     0.049 A 
ATOM     42  N   UNL A   1      40.630  29.208  30.787  1.00  0.00    -0.248 NA
ATOM     43  C   UNL A   1      40.612  28.314  28.631  1.00  0.00     0.031 C 
ATOM     44  C   UNL A   1      44.417  26.946  31.609  1.00  0.00     0.029 A 
ATOM     45  N   UNL A   1      42.902  28.354  32.464  1.00  0.00    -0.354 N 
ATOM     46  C   UNL A   1      39.505  29.657  30.106  1.00  0.00     0.074 A 
ATOM     47  C   UNL A   1      39.562  29.104  28.772  1.00  0.00     0.031 C 
ATOM     48  C   UNL A   1      44.777  27.211  32.878  1.00  0.00     0.029 A 
ATOM     49  C   UNL A   1      43.824  28.155  33.462  1.00  0.00     0.049 A 
ATOM     50  H   UNL A   1      42.104  28.921  32.573  1.00  0.00     0.167 HD
ATOM     51  C   UNL A   1      38.508  30.453  30.557  1.00  0.00     0.037 A 
ATOM     52  C   UNL A   1      43.893  28.692  34.696  1.00  0.00     0.037 A 
ATOM     53  C   UNL A   1      38.457  31.005  31.883  1.00  0.00     0.049 A 
ATOM     54  C   UNL A   1      42.800  29.630  35.152  1.00  0.00     0.074 A 
ATOM     55  C   UNL A   1      37.488  31.816  32.444  1.00  0.00     0.029 A 
ATOM     56  N   UNL A   1      39.427  30.809  32.856  1.00  0.00    -0.354 N 
ATOM     57  N   UNL A   1      41.726  30.029  34.514  1.00  0.00    -0.248 NA
ATOM     58  C   UNL A   1      42.924  30.180  36.510  1.00  0.00     0.031 C 
ATOM     59  C   UNL A   1      37.903  32.165  33.733  1.00  0.00     0.029 A 
ATOM     60  C   UNL A   1      39.091  31.506  34.004  1.00  0.00     0.049 A 
ATOM     61  H   UNL A   1      40.234  30.256  32.745  1.00  0.00     0.167 HD
ATOM     62  C   UNL A   1      41.030  30.842  35.402  1.00  0.00     0.074 A 
ATOM     63  C   UNL A   1      41.796  30.863  36.630  1.00  0.00     0.031 C 
ATOM     64  C   UNL A   1      39.861  31.507  35.223  1.00  0.00     0.037 A 
BRANCH  51  65
ATOM     65  C   UNL A   1      37.413  30.808  29.593  1.00  0.00     0.064 A 
ATOM     66  C   UNL A   1      36.378  29.913  29.281  1.00  0.00     0.173 A 
ATOM     67  C   UNL A   1      37.384  32.078  28.996  1.00  0.00     0.173 A 
ATOM     68  F   UNL A   1      36.370  28.679  29.806  1.00  0.00    -0.203 F 
ATOM     69  C   UNL A   1      35.367  30.270  28.392  1.00  0.00     0.198 A 
ATOM     70  C   UNL A   1      36.354  32.442  28.135  1.00  0.00     0.198 A 
ATOM     71  F   UNL A   1      38.351  32.969  29.257  1.00  0.00    -0.203 F 
ATOM     72  F   UNL A   1      34.416  29.382  28.070  1.00  0.00    -0.200 F 
ATOM     73  C   UNL A   1      35.350  31.537  27.828  1.00  0.00     0.200 A 
ATOM     74  F   UNL A   1      36.334  33.671  27.600  1.00  0.00    -0.200 F 
ATOM     75  F   UNL A   1      34.369  31.883  26.982  1.00  0.00    -0.200 F 
ENDBRANCH  51  65
BRANCH  52  76
ATOM     76  C   UNL A   1      45.041  28.377  35.591  1.00  0.00     0.064 A 
ATOM     77  C   UNL A   1      46.229  29.120  35.547  1.00  0.00     0.173 A 
ATOM     78  C   UNL A   1      44.990  27.288  36.474  1.00  0.00     0.173 A 
ATOM     79  F   UNL A   1      46.341  30.155  34.701  1.00  0.00    -0.203 F 
ATOM     80  C   UNL A   1      47.330  28.768  36.326  1.00  0.00     0.198 A 
ATOM     81  C   UNL A   1      46.079  26.958  37.278  1.00  0.00     0.198 A 
ATOM     82  F   UNL A   1      43.880  26.539  36.555  1.00  0.00    -0.203 F 
ATOM     83  F   UNL A   1      48.475  29.456  36.213  1.00  0.00    -0.200 F 
ATOM     84  C   UNL A   1      47.253  27.690  37.195  1.00  0.00     0.200 A 
ATOM     85  F   UNL A   1      45.995  25.922  38.125  1.00  0.00    -0.200 F 
ATOM     86  F   UNL A   1      48.313  27.348  37.939  1.00  0.00    -0.200 F 
ENDBRANCH  52  76
BRANCH  64  87
ATOM     87  C   UNL A   1      39.306  32.261  36.400  1.00  0.00     0.064 A 
ATOM     88  C   UNL A   1      39.768  33.539  36.752  1.00  0.00     0.173 A 
ATOM     89  C   UNL A   1      38.282  31.700  37.179  1.00  0.00     0.173 A 
ATOM     90  F   UNL A   1      40.749  34.121  36.046  1.00  0.00    -0.203 F 
ATOM     91  C   UNL A   1      39.259  34.203  37.865  1.00  0.00     0.198 A 
ATOM     92  C   UNL A   1      37.747  32.384  38.267  1.00  0.00     0.198 A 
ATOM     93  F   UNL A   1      37.791  30.487  36.880  1.00  0.00    -0.203 F 
ATOM     94  F   UNL A   1      39.766  35.391  38.224  1.00  0.00    -0.200 F 
ATOM     95  C   UNL A   1      38.246  33.628  38.618  1.00  0.00     0.200 A 
ATOM     96  F   UNL A   1      36.753  31.834  38.978  1.00  0.00    -0.200 F 
ATOM     97  F   UNL A   1      37.758  34.268  39.690  1.00  0.00    -0.200 F 
ENDBRANCH  64  87
ENDBRANCH  38  39
ENDBRANCH  31  33
ENDBRANCH  30  31
ENDBRANCH  29  30
ENDBRANCH  28  29
ENDBRANCH  27  28
ENDBRANCH  26  27
ENDBRANCH  25  26
ENDBRANCH  24  25
ENDBRANCH  23  24
ENDBRANCH   1  23
TORSDOF 25
ENDMDL
MODEL 3
REMARK VINA RESULT:      -8.6      1.924      2.805
REMARK SMILES C[C@H]([NH2+][C@@H](C)Cc1cccs1)[C@@H](C)C(=O)OCCOCCOCCOCCOC(=O)c1ccc(-c2c3nc(c(-c4c(F)c(F)c(F)c(F)c4F)c4ccc([nH]4)c(-c4c(F)c(F)c(F)c(F)c4F)c4nc(c(-c5c(F)c(F)c(F)c(F)c5F)c5ccc2[nH]5)C=C4)C=C3)cc1
REMARK SMILES IDX 20 1 19 2 18 3 17 4 16 5 14 6 15 7 12 8 13 9 2 10 1 11 3 12
REMARK SMILES IDX 4 15 5 16 6 17 7 18 8 19 11 20 9 21 10 22 21 23 22 24 23 25
REMARK SMILES IDX 24 26 25 27 26 28 27 29 28 30 29 31 30 32 31 33 32 34 93 35
REMARK SMILES IDX 33 36 92 37 34 38 35 39 36 40 86 41 37 42 91 43 85 44 87 45
REMARK SMILES IDX 38 46 90 47 84 48 83 49 39 51 71 52 51 53 70 54 52 55 55 56
REMARK SMILES IDX 69 57 88 58 53 59 54 60 68 62 89 63 56 64 40 65 41 66 49 67
REMARK SMILES IDX 42 68 43 69 47 70 50 71 44 72 45 73 48 74 46 75 72 76 73 77
REMARK SMILES IDX 81 78 74 79 75 80 79 81 82 82 76 83 77 84 80 85 78 86 57 87
REMARK SMILES IDX 58 88 66 89 59 90 60 91 64 92 67 93 61 94 62 95 65 96 63 97
REMARK H PARENT 3 13 3 14 87 50 55 61
REMARK Flexibility Score: inf
ROOT
ATOM      1  C   UNL A   1      40.172  22.733  26.835  1.00  0.00     0.188 C 
ENDROOT
BRANCH   1   2
ATOM      2  O   UNL A   1      38.761  22.583  26.714  1.00  0.00    -0.376 OA
BRANCH   2   3
ATOM      3  C   UNL A   1      38.218  21.858  25.628  1.00  0.00     0.202 C 
BRANCH   3   4
ATOM      4  C   UNL A   1      36.753  22.142  25.230  1.00  0.00     0.261 C 
BRANCH   4   5
ATOM      5  O   UNL A   1      36.472  22.534  23.865  1.00  0.00    -0.463 OA
BRANCH   5   6
ATOM      6  C   UNL A   1      35.233  23.050  23.653  1.00  0.00     0.314 C 
ATOM      7  O   UNL A   1      34.984  23.841  22.746  1.00  0.00    -0.252 OA
BRANCH   6   8
ATOM      8  C   UNL A   1      34.203  22.733  24.740  1.00  0.00     0.154 C 
ATOM      9  C   UNL A   1      33.075  21.972  24.022  1.00  0.00     0.026 C 
BRANCH   8  10
ATOM     10  C   UNL A   1      33.614  23.627  25.881  1.00  0.00     0.193 C 
ATOM     11  C   UNL A   1      32.109  23.655  26.176  1.00  0.00     0.076 C 
BRANCH  10  12
ATOM     12  N   UNL A   1      34.150  25.004  25.641  1.00  0.00    -0.341 N 
ATOM     13  H   UNL A   1      34.762  24.946  24.827  1.00  0.00     0.346 HD
ATOM     14  H   UNL A   1      34.585  25.249  26.531  1.00  0.00     0.346 HD
BRANCH  12  15
ATOM     15  C   UNL A   1      33.210  26.120  25.395  1.00  0.00     0.184 C 
ATOM     16  C   UNL A   1      33.794  27.363  26.087  1.00  0.00     0.075 C 
BRANCH  15  17
ATOM     17  C   UNL A   1      33.006  26.433  23.885  1.00  0.00     0.111 C 
BRANCH  17  18
ATOM     18  C   UNL A   1      31.676  27.076  23.590  1.00  0.00     0.010 A 
ATOM     19  C   UNL A   1      30.443  26.465  23.482  1.00  0.00     0.015 A 
ATOM     20  S   UNL A   1      31.547  28.769  23.352  1.00  0.00    -0.149 S 
ATOM     21  C   UNL A   1      29.376  27.407  23.429  1.00  0.00     0.012 A 
ATOM     22  C   UNL A   1      29.838  28.697  23.308  1.00  0.00     0.065 A 
ENDBRANCH  17  18
ENDBRANCH  15  17
ENDBRANCH  12  15
ENDBRANCH  10  12
ENDBRANCH   8  10
ENDBRANCH   6   8
ENDBRANCH   5   6
ENDBRANCH   4   5
ENDBRANCH   3   4
ENDBRANCH   2   3
ENDBRANCH   1   2
BRANCH   1  23
ATOM     23  C   UNL A   1      40.982  21.912  27.865  1.00  0.00     0.188 C 
BRANCH  23  24
ATOM     24  O   UNL A   1      41.258  20.579  27.483  1.00  0.00    -0.377 OA
BRANCH  24  25
ATOM     25  C   UNL A   1      41.843  20.429  26.210  1.00  0.00     0.188 C 
BRANCH  25  26
ATOM     26  C   UNL A   1      43.151  21.199  25.975  1.00  0.00     0.188 C 
BRANCH  26  27
ATOM     27  O   UNL A   1      43.014  22.258  25.035  1.00  0.00    -0.376 OA
BRANCH  27  28
ATOM     28  C   UNL A   1      44.132  22.651  24.261  1.00  0.00     0.202 C 
BRANCH  28  29
ATOM     29  C   UNL A   1      44.941  23.868  24.744  1.00  0.00     0.261 C 
BRANCH  29  30
ATOM     30  O   UNL A   1      44.578  24.422  26.015  1.00  0.00    -0.460 OA
BRANCH  30  31
ATOM     31  C   UNL A   1      45.279  24.000  27.094  1.00  0.00     0.338 C 
ATOM     32  O   UNL A   1      46.143  23.155  27.116  1.00  0.00    -0.246 OA
BRANCH  31  33
ATOM     33  C   UNL A   1      44.964  24.910  28.224  1.00  0.00     0.060 A 
ATOM     34  C   UNL A   1      44.135  24.426  29.246  1.00  0.00     0.016 A 
ATOM     35  C   UNL A   1      45.506  26.195  28.306  1.00  0.00     0.016 A 
ATOM     36  C   UNL A   1      43.816  25.236  30.333  1.00  0.00     0.010 A 
ATOM     37  C   UNL A   1      45.150  27.026  29.375  1.00  0.00     0.010 A 
ATOM     38  C   UNL A   1      44.270  26.560  30.369  1.00  0.00    -0.014 A 
BRANCH  38  39
ATOM     39  C   UNL A   1      43.582  27.507  31.280  1.00  0.00     0.031 A 
ATOM     40  C   UNL A   1      44.209  27.748  32.628  1.00  0.00     0.074 A 
ATOM     41  C   UNL A   1      42.493  28.196  30.903  1.00  0.00     0.049 A 
ATOM     42  N   UNL A   1      43.836  28.548  33.593  1.00  0.00    -0.248 NA
ATOM     43  C   UNL A   1      45.431  26.981  32.924  1.00  0.00     0.031 C 
ATOM     44  C   UNL A   1      41.826  28.087  29.608  1.00  0.00     0.029 A 
ATOM     45  N   UNL A   1      41.755  29.133  31.585  1.00  0.00    -0.354 N 
ATOM     46  C   UNL A   1      44.773  28.377  34.605  1.00  0.00     0.074 A 
ATOM     47  C   UNL A   1      45.713  27.376  34.154  1.00  0.00     0.031 C 
ATOM     48  C   UNL A   1      40.767  28.917  29.592  1.00  0.00     0.029 A 
ATOM     49  C   UNL A   1      40.670  29.598  30.883  1.00  0.00     0.049 A 
ATOM     50  H   UNL A   1      41.984  29.443  32.491  1.00  0.00     0.167 HD
ATOM     51  C   UNL A   1      44.848  29.006  35.800  1.00  0.00     0.037 A 
ATOM     52  C   UNL A   1      39.704  30.461  31.255  1.00  0.00     0.037 A 
ATOM     53  C   UNL A   1      43.909  29.998  36.247  1.00  0.00     0.049 A 
ATOM     54  C   UNL A   1      39.775  31.101  32.622  1.00  0.00     0.074 A 
ATOM     55  C   UNL A   1      43.899  30.703  37.437  1.00  0.00     0.029 A 
ATOM     56  N   UNL A   1      42.803  30.419  35.522  1.00  0.00    -0.354 N 
ATOM     57  N   UNL A   1      40.679  30.955  33.563  1.00  0.00    -0.248 NA
ATOM     58  C   UNL A   1      38.698  32.038  32.971  1.00  0.00     0.031 C 
ATOM     59  C   UNL A   1      42.751  31.502  37.460  1.00  0.00     0.029 A 
ATOM     60  C   UNL A   1      42.089  31.355  36.252  1.00  0.00     0.049 A 
ATOM     61  H   UNL A   1      42.562  30.099  34.623  1.00  0.00     0.167 HD
ATOM     62  C   UNL A   1      40.301  31.809  34.593  1.00  0.00     0.074 A 
ATOM     63  C   UNL A   1      39.096  32.480  34.154  1.00  0.00     0.031 C 
ATOM     64  C   UNL A   1      40.897  32.023  35.794  1.00  0.00     0.037 A 
BRANCH  51  65
ATOM     65  C   UNL A   1      45.961  28.608  36.725  1.00  0.00     0.064 A 
ATOM     66  C   UNL A   1      47.179  29.306  36.767  1.00  0.00     0.173 A 
ATOM     67  C   UNL A   1      45.793  27.530  37.608  1.00  0.00     0.173 A 
ATOM     68  F   UNL A   1      47.400  30.329  35.930  1.00  0.00    -0.203 F 
ATOM     69  C   UNL A   1      48.193  28.923  37.643  1.00  0.00     0.198 A 
ATOM     70  C   UNL A   1      46.795  27.173  38.504  1.00  0.00     0.198 A 
ATOM     71  F   UNL A   1      44.650  26.828  37.606  1.00  0.00    -0.203 F 
ATOM     72  F   UNL A   1      49.365  29.572  37.630  1.00  0.00    -0.200 F 
ATOM     73  C   UNL A   1      47.997  27.865  38.517  1.00  0.00     0.200 A 
ATOM     74  F   UNL A   1      46.599  26.157  39.356  1.00  0.00    -0.200 F 
ATOM     75  F   UNL A   1      48.969  27.507  39.367  1.00  0.00    -0.200 F 
ENDBRANCH  51  65
BRANCH  52  76
ATOM     76  C   UNL A   1      38.572  30.765  30.337  1.00  0.00     0.064 A 
ATOM     77  C   UNL A   1      37.563  29.825  30.083  1.00  0.00     0.173 A 
ATOM     78  C   UNL A   1      38.507  31.988  29.652  1.00  0.00     0.173 A 
ATOM     79  F   UNL A   1      37.591  28.631  30.691  1.00  0.00    -0.203 F 
ATOM     80  C   UNL A   1      36.552  30.084  29.158  1.00  0.00     0.198 A 
ATOM     81  C   UNL A   1      37.477  32.259  28.753  1.00  0.00     0.198 A 
ATOM     82  F   UNL A   1      39.448  32.922  29.852  1.00  0.00    -0.203 F 
ATOM     83  F   UNL A   1      35.639  29.141  28.885  1.00  0.00    -0.200 F 
ATOM     84  C   UNL A   1      36.507  31.302  28.497  1.00  0.00     0.200 A 
ATOM     85  F   UNL A   1      37.432  33.443  28.126  1.00  0.00    -0.200 F 
ATOM     86  F   UNL A   1      35.539  31.548  27.603  1.00  0.00    -0.200 F 
ENDBRANCH  52  76
BRANCH  64  87
ATOM     87  C   UNL A   1      40.293  33.069  36.689  1.00  0.00     0.064 A 
ATOM     88  C   UNL A   1      39.175  32.806  37.496  1.00  0.00     0.173 A 
ATOM     89  C   UNL A   1      40.856  34.354  36.754  1.00  0.00     0.173 A 
ATOM     90  F   UNL A   1      38.593  31.597  37.471  1.00  0.00    -0.203 F 
ATOM     91  C   UNL A   1      38.616  33.802  38.293  1.00  0.00     0.198 A 
ATOM     92  C   UNL A   1      40.320  35.334  37.582  1.00  0.00     0.198 A 
ATOM     93  F   UNL A   1      41.935  34.658  36.016  1.00  0.00    -0.203 F 
ATOM     94  F   UNL A   1      37.505  33.547  38.999  1.00  0.00    -0.200 F 
ATOM     95  C   UNL A   1      39.191  35.063  38.340  1.00  0.00     0.200 A 
ATOM     96  F   UNL A   1      40.892  36.545  37.641  1.00  0.00    -0.200 F 
ATOM     97  F   UNL A   1      38.652  36.020  39.107  1.00  0.00    -0.200 F 
ENDBRANCH  64  87
ENDBRANCH  38  39
ENDBRANCH  31  33
ENDBRANCH  30  31
ENDBRANCH  29  30
ENDBRANCH  28  29
ENDBRANCH  27  28
ENDBRANCH  26  27
ENDBRANCH  25  26
ENDBRANCH  24  25
ENDBRANCH  23  24
ENDBRANCH   1  23
TORSDOF 25
ENDMDL
