MODEL 1
REMARK VINA RESULT:     -11.8      0.000      0.000
REMARK SMILES O=C(OCCOCCOCCOCCOC(=O)[C@@H]1CCCN1S(=O)(=O)c1ccc2c3c(cccc13)C(=O)N2)c1ccc(-c2c3nc(c(-c4c(F)c(F)c(F)c(F)c4F)c4ccc([nH]4)c(-c4c(F)c(F)c(F)c(F)c4F)c4nc(c(-c5c(F)c(F)c(F)c(F)c5F)c5ccc2[nH]5)C=C4)C=C3)cc1
REMARK SMILES IDX 9 1 8 2 7 3 6 4 5 5 4 6 3 7 2 8 1 9 39 10 40 11 101 12 41 13
REMARK SMILES IDX 100 14 42 15 43 16 44 17 94 18 45 19 99 20 93 21 95 22 46 23
REMARK SMILES IDX 98 24 92 25 91 26 47 28 79 29 59 30 78 31 60 32 63 33 77 34
REMARK SMILES IDX 96 35 61 36 62 37 76 39 97 40 64 41 48 42 49 43 57 44 50 45
REMARK SMILES IDX 51 46 55 47 58 48 52 49 53 50 56 51 54 52 80 53 81 54 89 55
REMARK SMILES IDX 82 56 83 57 87 58 90 59 84 60 85 61 88 62 86 63 65 64 66 65
REMARK SMILES IDX 74 66 67 67 68 68 72 69 75 70 69 71 70 72 73 73 71 74 10 75
REMARK SMILES IDX 11 76 12 77 13 78 14 79 15 80 16 81 17 82 18 83 19 84 22 85
REMARK SMILES IDX 20 86 21 87 23 88 24 89 25 90 26 91 27 92 35 93 28 94 30 95
REMARK SMILES IDX 34 96 29 97 31 98 33 99 38 100 32 101 36 102 37 104
REMARK H PARENT 95 27 63 38 38 103
REMARK Flexibility Score: inf
ROOT
ATOM      1  O   UNL A   1      41.683  22.612  27.465  1.00  0.00    -0.377 OA
ENDROOT
BRANCH   1   2
ATOM      2  C   UNL A   1      42.766  21.661  27.174  1.00  0.00     0.188 C 
BRANCH   2   3
ATOM      3  C   UNL A   1      43.201  21.157  25.750  1.00  0.00     0.188 C 
BRANCH   3   4
ATOM      4  O   UNL A   1      44.288  21.781  25.096  1.00  0.00    -0.376 OA
BRANCH   4   5
ATOM      5  C   UNL A   1      44.971  22.868  25.686  1.00  0.00     0.202 C 
BRANCH   5   6
ATOM      6  C   UNL A   1      45.063  24.063  24.740  1.00  0.00     0.261 C 
BRANCH   6   7
ATOM      7  O   UNL A   1      46.282  24.782  24.947  1.00  0.00    -0.460 OA
BRANCH   7   8
ATOM      8  C   UNL A   1      46.516  26.111  24.890  1.00  0.00     0.338 C 
ATOM      9  O   UNL A   1      47.069  26.540  23.876  1.00  0.00    -0.246 OA
BRANCH   8  10
ATOM     10  C   UNL A   1      46.123  27.133  25.924  1.00  0.00     0.060 A 
ATOM     11  C   UNL A   1      46.973  27.836  26.776  1.00  0.00     0.016 A 
ATOM     12  C   UNL A   1      44.753  27.462  25.979  1.00  0.00     0.016 A 
ATOM     13  C   UNL A   1      46.496  28.850  27.612  1.00  0.00     0.010 A 
ATOM     14  C   UNL A   1      44.255  28.423  26.871  1.00  0.00     0.010 A 
ATOM     15  C   UNL A   1      45.132  29.107  27.714  1.00  0.00    -0.014 A 
BRANCH  15  16
ATOM     16  C   UNL A   1      44.660  29.837  28.911  1.00  0.00     0.031 A 
ATOM     17  C   UNL A   1      44.410  31.313  28.749  1.00  0.00     0.074 A 
ATOM     18  C   UNL A   1      44.336  29.217  30.058  1.00  0.00     0.049 A 
ATOM     19  N   UNL A   1      44.021  32.196  29.629  1.00  0.00    -0.248 NA
ATOM     20  C   UNL A   1      44.599  31.863  27.393  1.00  0.00     0.031 C 
ATOM     21  C   UNL A   1      44.366  27.774  30.278  1.00  0.00     0.029 A 
ATOM     22  N   UNL A   1      43.883  29.731  31.249  1.00  0.00    -0.354 N 
ATOM     23  C   UNL A   1      43.935  33.396  28.939  1.00  0.00     0.074 A 
ATOM     24  C   UNL A   1      44.286  33.136  27.564  1.00  0.00     0.031 C 
ATOM     25  C   UNL A   1      43.934  27.517  31.527  1.00  0.00     0.029 A 
ATOM     26  C   UNL A   1      43.650  28.779  32.212  1.00  0.00     0.049 A 
ATOM     27  H   UNL A   1      43.740  30.694  31.399  1.00  0.00     0.167 HD
ATOM     28  C   UNL A   1      43.615  34.617  29.420  1.00  0.00     0.037 A 
ATOM     29  C   UNL A   1      43.278  28.924  33.502  1.00  0.00     0.037 A 
ATOM     30  C   UNL A   1      43.288  34.876  30.792  1.00  0.00     0.049 A 
ATOM     31  C   UNL A   1      43.057  30.321  34.044  1.00  0.00     0.074 A 
ATOM     32  C   UNL A   1      43.028  36.091  31.397  1.00  0.00     0.029 A 
ATOM     33  N   UNL A   1      43.183  33.902  31.773  1.00  0.00    -0.354 N 
ATOM     34  N   UNL A   1      43.053  31.470  33.410  1.00  0.00    -0.248 NA
ATOM     35  C   UNL A   1      42.816  30.444  35.491  1.00  0.00     0.031 C 
ATOM     36  C   UNL A   1      42.834  35.862  32.759  1.00  0.00     0.029 A 
ATOM     37  C   UNL A   1      42.899  34.497  32.989  1.00  0.00     0.049 A 
ATOM     38  H   UNL A   1      43.294  32.935  31.626  1.00  0.00     0.167 HD
ATOM     39  C   UNL A   1      42.789  32.440  34.369  1.00  0.00     0.074 A 
ATOM     40  C   UNL A   1      42.611  31.747  35.626  1.00  0.00     0.031 C 
ATOM     41  C   UNL A   1      42.716  33.786  34.229  1.00  0.00     0.037 A 
BRANCH  28  42
ATOM     42  C   UNL A   1      43.686  35.780  28.481  1.00  0.00     0.064 A 
ATOM     43  C   UNL A   1      42.542  36.325  27.884  1.00  0.00     0.173 A 
ATOM     44  C   UNL A   1      44.920  36.401  28.234  1.00  0.00     0.173 A 
ATOM     45  F   UNL A   1      41.345  35.742  28.059  1.00  0.00    -0.203 F 
ATOM     46  C   UNL A   1      42.629  37.459  27.082  1.00  0.00     0.198 A 
ATOM     47  C   UNL A   1      45.000  37.551  27.458  1.00  0.00     0.198 A 
ATOM     48  F   UNL A   1      46.046  35.904  28.770  1.00  0.00    -0.203 F 
ATOM     49  F   UNL A   1      41.528  37.953  26.500  1.00  0.00    -0.200 F 
ATOM     50  C   UNL A   1      43.854  38.081  26.884  1.00  0.00     0.200 A 
ATOM     51  F   UNL A   1      46.183  38.153  27.274  1.00  0.00    -0.200 F 
ATOM     52  F   UNL A   1      43.931  39.191  26.137  1.00  0.00    -0.200 F 
ENDBRANCH  28  42
BRANCH  29  53
ATOM     53  C   UNL A   1      43.140  27.738  34.397  1.00  0.00     0.064 A 
ATOM     54  C   UNL A   1      44.243  27.206  35.081  1.00  0.00     0.173 A 
ATOM     55  C   UNL A   1      41.912  27.069  34.542  1.00  0.00     0.173 A 
ATOM     56  F   UNL A   1      45.453  27.771  34.948  1.00  0.00    -0.203 F 
ATOM     57  C   UNL A   1      44.130  26.050  35.855  1.00  0.00     0.198 A 
ATOM     58  C   UNL A   1      41.791  25.939  35.348  1.00  0.00     0.198 A 
ATOM     59  F   UNL A   1      40.823  27.511  33.895  1.00  0.00    -0.203 F 
ATOM     60  F   UNL A   1      45.215  25.528  36.442  1.00  0.00    -0.200 F 
ATOM     61  C   UNL A   1      42.902  25.423  35.996  1.00  0.00     0.200 A 
ATOM     62  F   UNL A   1      40.598  25.344  35.488  1.00  0.00    -0.200 F 
ATOM     63  F   UNL A   1      42.791  24.315  36.741  1.00  0.00    -0.200 F 
ENDBRANCH  29  53
BRANCH  41  64
ATOM     64  C   UNL A   1      42.431  34.614  35.450  1.00  0.00     0.064 A 
ATOM     65  C   UNL A   1      43.455  34.994  36.330  1.00  0.00     0.173 A 
ATOM     66  C   UNL A   1      41.145  35.129  35.678  1.00  0.00     0.173 A 
ATOM     67  F   UNL A   1      44.701  34.528  36.157  1.00  0.00    -0.203 F 
ATOM     68  C   UNL A   1      43.198  35.844  37.402  1.00  0.00     0.198 A 
ATOM     69  C   UNL A   1      40.901  36.010  36.729  1.00  0.00     0.198 A 
ATOM     70  F   UNL A   1      40.133  34.816  34.854  1.00  0.00    -0.203 F 
ATOM     71  F   UNL A   1      44.186  36.166  38.249  1.00  0.00    -0.200 F 
ATOM     72  C   UNL A   1      41.926  36.362  37.592  1.00  0.00     0.200 A 
ATOM     73  F   UNL A   1      39.677  36.531  36.893  1.00  0.00    -0.200 F 
ATOM     74  F   UNL A   1      41.689  37.203  38.607  1.00  0.00    -0.200 F 
ENDBRANCH  41  64
ENDBRANCH  15  16
ENDBRANCH   8  10
ENDBRANCH   7   8
ENDBRANCH   6   7
ENDBRANCH   5   6
ENDBRANCH   4   5
ENDBRANCH   3   4
ENDBRANCH   2   3
ENDBRANCH   1   2
BRANCH   1  75
ATOM     75  C   UNL A   1      41.924  24.077  27.365  1.00  0.00     0.188 C 
BRANCH  75  76
ATOM     76  C   UNL A   1      40.801  25.644  28.171  1.00  0.00     0.188 C 
BRANCH  76  77
ATOM     77  O   UNL A   1      40.638  27.156  26.721  1.00  0.00    -0.376 OA
BRANCH  77  78
ATOM     78  C   UNL A   1      40.561  28.916  27.388  1.00  0.00     0.202 C 
BRANCH  78  79
ATOM     79  C   UNL A   1      38.979  29.410  28.368  1.00  0.00     0.261 C 
BRANCH  79  80
ATOM     80  O   UNL A   1      39.086  30.462  29.714  1.00  0.00    -0.462 OA
BRANCH  80  81
ATOM     81  C   UNL A   1      40.012  30.621  30.764  1.00  0.00     0.324 C 
ATOM     82  O   UNL A   1      41.221  30.598  30.507  1.00  0.00    -0.250 OA
BRANCH  81  83
ATOM     83  C   UNL A   1      39.511  31.027  32.357  1.00  0.00     0.183 C 
ATOM     84  C   UNL A   1      38.798  29.943  33.184  1.00  0.00     0.034 C 
ATOM     85  N   UNL A   1      39.050  32.571  33.173  1.00  0.00    -0.184 NA
ATOM     86  C   UNL A   1      38.536  30.545  34.569  1.00  0.00     0.019 C 
ATOM     87  C   UNL A   1      38.735  32.073  34.590  1.00  0.00     0.103 C 
BRANCH  85  88
ATOM     88  S   UNL A   1      37.507  33.972  32.756  1.00  0.00     0.244 S 
ATOM     89  O   UNL A   1      37.323  34.781  33.946  1.00  0.00    -0.207 OA
ATOM     90  O   UNL A   1      37.906  34.584  31.504  1.00  0.00    -0.207 OA
BRANCH  88  91
ATOM     91  C   UNL A   1      35.533  32.796  32.388  1.00  0.00     0.090 A 
ATOM     92  C   UNL A   1      35.817  31.205  31.386  1.00  0.00     0.024 A 
ATOM     93  C   UNL A   1      34.886  34.115  31.643  1.00  0.00     0.005 A 
ATOM     94  C   UNL A   1      35.883  31.506  29.448  1.00  0.00     0.028 A 
ATOM     95  C   UNL A   1      34.776  34.189  30.064  1.00  0.00     0.019 A 
ATOM     96  C   UNL A   1      34.289  35.162  32.329  1.00  0.00     0.010 A 
ATOM     97  C   UNL A   1      35.231  33.071  28.995  1.00  0.00     0.050 A 
ATOM     98  C   UNL A   1      33.622  34.783  29.560  1.00  0.00     0.050 A 
ATOM     99  C   UNL A   1      33.332  35.946  31.673  1.00  0.00     0.002 A 
ATOM    100  N   UNL A   1      34.243  33.200  27.999  1.00  0.00    -0.321 N 
ATOM    101  C   UNL A   1      32.903  35.693  30.351  1.00  0.00     0.014 A 
ATOM    102  C   UNL A   1      33.220  34.132  28.318  1.00  0.00     0.256 C 
ATOM    103  H   UNL A   1      34.261  32.689  27.157  1.00  0.00     0.170 HD
ATOM    104  O   UNL A   1      32.174  34.199  27.680  1.00  0.00    -0.269 OA
ENDBRANCH  88  91
ENDBRANCH  85  88
ENDBRANCH  81  83
ENDBRANCH  80  81
ENDBRANCH  79  80
ENDBRANCH  78  79
ENDBRANCH  77  78
ENDBRANCH  76  77
ENDBRANCH  75  76
ENDBRANCH   1  75
TORSDOF 22
ENDMDL
MODEL 2
REMARK VINA RESULT:     -11.0      6.263     11.467
REMARK SMILES O=C(OCCOCCOCCOCCOC(=O)[C@@H]1CCCN1S(=O)(=O)c1ccc2c3c(cccc13)C(=O)N2)c1ccc(-c2c3nc(c(-c4c(F)c(F)c(F)c(F)c4F)c4ccc([nH]4)c(-c4c(F)c(F)c(F)c(F)c4F)c4nc(c(-c5c(F)c(F)c(F)c(F)c5F)c5ccc2[nH]5)C=C4)C=C3)cc1
REMARK SMILES IDX 9 1 8 2 7 3 6 4 5 5 4 6 3 7 2 8 1 9 39 10 40 11 101 12 41 13
REMARK SMILES IDX 100 14 42 15 43 16 44 17 94 18 45 19 99 20 93 21 95 22 46 23
REMARK SMILES IDX 98 24 92 25 91 26 47 28 79 29 59 30 78 31 60 32 63 33 77 34
REMARK SMILES IDX 96 35 61 36 62 37 76 39 97 40 64 41 48 42 49 43 57 44 50 45
REMARK SMILES IDX 51 46 55 47 58 48 52 49 53 50 56 51 54 52 80 53 81 54 89 55
REMARK SMILES IDX 82 56 83 57 87 58 90 59 84 60 85 61 88 62 86 63 65 64 66 65
REMARK SMILES IDX 74 66 67 67 68 68 72 69 75 70 69 71 70 72 73 73 71 74 10 75
REMARK SMILES IDX 11 76 12 77 13 78 14 79 15 80 16 81 17 82 18 83 19 84 22 85
REMARK SMILES IDX 20 86 21 87 23 88 24 89 25 90 26 91 27 92 35 93 28 94 30 95
REMARK SMILES IDX 34 96 29 97 31 98 33 99 38 100 32 101 36 102 37 104
REMARK H PARENT 95 27 63 38 38 103
REMARK Flexibility Score: inf
ROOT
ATOM      1  O   UNL A   1      40.271  33.005  30.560  1.00  0.00    -0.377 OA
ENDROOT
BRANCH   1   2
ATOM      2  C   UNL A   1      40.899  34.282  30.189  1.00  0.00     0.188 C 
BRANCH   2   3
ATOM      3  C   UNL A   1      42.432  34.525  29.945  1.00  0.00     0.188 C 
BRANCH   3   4
ATOM      4  O   UNL A   1      42.969  35.820  30.137  1.00  0.00    -0.376 OA
BRANCH   4   5
ATOM      5  C   UNL A   1      43.686  36.474  29.110  1.00  0.00     0.202 C 
BRANCH   5   6
ATOM      6  C   UNL A   1      45.175  36.574  29.431  1.00  0.00     0.261 C 
BRANCH   6   7
ATOM      7  O   UNL A   1      45.482  37.835  30.033  1.00  0.00    -0.460 OA
BRANCH   7   8
ATOM      8  C   UNL A   1      45.704  38.136  31.331  1.00  0.00     0.338 C 
ATOM      9  O   UNL A   1      46.577  38.974  31.569  1.00  0.00    -0.246 OA
BRANCH   8  10
ATOM     10  C   UNL A   1      44.957  37.587  32.517  1.00  0.00     0.060 A 
ATOM     11  C   UNL A   1      45.302  36.478  33.287  1.00  0.00     0.016 A 
ATOM     12  C   UNL A   1      43.828  38.323  32.932  1.00  0.00     0.016 A 
ATOM     13  C   UNL A   1      44.589  36.138  34.441  1.00  0.00     0.010 A 
ATOM     14  C   UNL A   1      43.061  37.944  34.044  1.00  0.00     0.010 A 
ATOM     15  C   UNL A   1      43.431  36.826  34.792  1.00  0.00    -0.014 A 
BRANCH  15  16
ATOM     16  C   UNL A   1      42.493  36.157  35.720  1.00  0.00     0.031 A 
ATOM     17  C   UNL A   1      42.563  36.567  37.166  1.00  0.00     0.074 A 
ATOM     18  C   UNL A   1      41.527  35.322  35.299  1.00  0.00     0.049 A 
ATOM     19  N   UNL A   1      41.882  36.132  38.192  1.00  0.00    -0.248 NA
ATOM     20  C   UNL A   1      43.518  37.643  37.495  1.00  0.00     0.031 C 
ATOM     21  C   UNL A   1      41.246  34.987  33.906  1.00  0.00     0.029 A 
ATOM     22  N   UNL A   1      40.580  34.628  36.011  1.00  0.00    -0.354 N 
ATOM     23  C   UNL A   1      42.336  36.865  39.279  1.00  0.00     0.074 A 
ATOM     24  C   UNL A   1      43.331  37.792  38.796  1.00  0.00     0.031 C 
ATOM     25  C   UNL A   1      40.184  34.162  33.864  1.00  0.00     0.029 A 
ATOM     26  C   UNL A   1      39.746  33.865  35.229  1.00  0.00     0.049 A 
ATOM     27  H   UNL A   1      40.505  34.672  36.991  1.00  0.00     0.167 HD
ATOM     28  C   UNL A   1      41.972  36.755  40.574  1.00  0.00     0.037 A 
ATOM     29  C   UNL A   1      38.764  33.011  35.587  1.00  0.00     0.037 A 
ATOM     30  C   UNL A   1      40.999  35.817  41.054  1.00  0.00     0.049 A 
ATOM     31  C   UNL A   1      38.472  32.812  37.060  1.00  0.00     0.074 A 
ATOM     32  C   UNL A   1      40.617  35.571  42.360  1.00  0.00     0.029 A 
ATOM     33  N   UNL A   1      40.259  34.968  40.247  1.00  0.00    -0.354 N 
ATOM     34  N   UNL A   1      38.958  33.449  38.099  1.00  0.00    -0.248 NA
ATOM     35  C   UNL A   1      37.513  31.752  37.413  1.00  0.00     0.031 C 
ATOM     36  C   UNL A   1      39.696  34.523  42.349  1.00  0.00     0.029 A 
ATOM     37  C   UNL A   1      39.449  34.168  41.032  1.00  0.00     0.049 A 
ATOM     38  H   UNL A   1      40.304  34.938  39.264  1.00  0.00     0.167 HD
ATOM     39  C   UNL A   1      38.351  32.887  39.216  1.00  0.00     0.074 A 
ATOM     40  C   UNL A   1      37.440  31.874  38.731  1.00  0.00     0.031 C 
ATOM     41  C   UNL A   1      38.541  33.170  40.528  1.00  0.00     0.037 A 
BRANCH  28  42
ATOM     42  C   UNL A   1      42.685  37.606  41.577  1.00  0.00     0.064 A 
ATOM     43  C   UNL A   1      43.897  37.213  42.159  1.00  0.00     0.173 A 
ATOM     44  C   UNL A   1      42.173  38.872  41.905  1.00  0.00     0.173 A 
ATOM     45  F   UNL A   1      44.405  35.997  41.907  1.00  0.00    -0.203 F 
ATOM     46  C   UNL A   1      44.579  38.063  43.026  1.00  0.00     0.198 A 
ATOM     47  C   UNL A   1      42.872  39.730  42.746  1.00  0.00     0.198 A 
ATOM     48  F   UNL A   1      41.006  39.284  41.385  1.00  0.00    -0.203 F 
ATOM     49  F   UNL A   1      45.725  37.662  43.592  1.00  0.00    -0.200 F 
ATOM     50  C   UNL A   1      44.075  39.326  43.304  1.00  0.00     0.200 A 
ATOM     51  F   UNL A   1      42.386  40.952  43.007  1.00  0.00    -0.200 F 
ATOM     52  F   UNL A   1      44.749  40.155  44.113  1.00  0.00    -0.200 F 
ENDBRANCH  28  42
BRANCH  29  53
ATOM     53  C   UNL A   1      38.015  32.230  34.558  1.00  0.00     0.064 A 
ATOM     54  C   UNL A   1      38.503  31.010  34.068  1.00  0.00     0.173 A 
ATOM     55  C   UNL A   1      36.823  32.717  33.995  1.00  0.00     0.173 A 
ATOM     56  F   UNL A   1      39.660  30.514  34.531  1.00  0.00    -0.203 F 
ATOM     57  C   UNL A   1      37.844  30.321  33.050  1.00  0.00     0.198 A 
ATOM     58  C   UNL A   1      36.143  32.007  33.008  1.00  0.00     0.198 A 
ATOM     59  F   UNL A   1      36.314  33.890  34.402  1.00  0.00    -0.203 F 
ATOM     60  F   UNL A   1      38.370  29.192  32.555  1.00  0.00    -0.200 F 
ATOM     61  C   UNL A   1      36.659  30.814  32.527  1.00  0.00     0.200 A 
ATOM     62  F   UNL A   1      34.991  32.485  32.514  1.00  0.00    -0.200 F 
ATOM     63  F   UNL A   1      36.023  30.151  31.552  1.00  0.00    -0.200 F 
ENDBRANCH  29  53
BRANCH  41  64
ATOM     64  C   UNL A   1      37.758  32.388  41.544  1.00  0.00     0.064 A 
ATOM     65  C   UNL A   1      38.332  31.315  42.239  1.00  0.00     0.173 A 
ATOM     66  C   UNL A   1      36.463  32.790  41.910  1.00  0.00     0.173 A 
ATOM     67  F   UNL A   1      39.566  30.890  41.928  1.00  0.00    -0.203 F 
ATOM     68  C   UNL A   1      37.633  30.661  43.250  1.00  0.00     0.198 A 
ATOM     69  C   UNL A   1      35.782  32.159  42.947  1.00  0.00     0.198 A 
ATOM     70  F   UNL A   1      35.875  33.826  41.292  1.00  0.00    -0.203 F 
ATOM     71  F   UNL A   1      38.189  29.616  43.878  1.00  0.00    -0.200 F 
ATOM     72  C   UNL A   1      36.366  31.092  43.613  1.00  0.00     0.200 A 
ATOM     73  F   UNL A   1      34.570  32.596  43.315  1.00  0.00    -0.200 F 
ATOM     74  F   UNL A   1      35.707  30.480  44.606  1.00  0.00    -0.200 F 
ENDBRANCH  41  64
ENDBRANCH  15  16
ENDBRANCH   8  10
ENDBRANCH   7   8
ENDBRANCH   6   7
ENDBRANCH   5   6
ENDBRANCH   4   5
ENDBRANCH   3   4
ENDBRANCH   2   3
ENDBRANCH   1   2
BRANCH   1  75
ATOM     75  C   UNL A   1      39.004  32.574  29.908  1.00  0.00     0.188 C 
BRANCH  75  76
ATOM     76  C   UNL A   1      37.183  33.591  29.792  1.00  0.00     0.188 C 
BRANCH  76  77
ATOM     77  O   UNL A   1      36.224  33.032  28.008  1.00  0.00    -0.376 OA
BRANCH  77  78
ATOM     78  C   UNL A   1      34.930  31.673  28.173  1.00  0.00     0.202 C 
BRANCH  78  79
ATOM     79  C   UNL A   1      35.532  29.861  27.932  1.00  0.00     0.261 C 
BRANCH  79  80
ATOM     80  O   UNL A   1      34.653  28.780  26.936  1.00  0.00    -0.462 OA
BRANCH  80  81
ATOM     81  C   UNL A   1      33.307  28.695  26.528  1.00  0.00     0.324 C 
ATOM     82  O   UNL A   1      32.430  29.186  27.247  1.00  0.00    -0.250 OA
BRANCH  81  83
ATOM     83  C   UNL A   1      32.868  28.091  24.980  1.00  0.00     0.183 C 
ATOM     84  C   UNL A   1      31.377  28.093  24.604  1.00  0.00     0.034 C 
ATOM     85  N   UNL A   1      33.602  26.890  23.847  1.00  0.00    -0.184 NA
ATOM     86  C   UNL A   1      31.284  27.580  23.164  1.00  0.00     0.019 C 
ATOM     87  C   UNL A   1      32.596  26.926  22.689  1.00  0.00     0.103 C 
BRANCH  85  88
ATOM     88  S   UNL A   1      34.050  24.827  24.089  1.00  0.00     0.244 S 
ATOM     89  O   UNL A   1      34.307  24.283  22.768  1.00  0.00    -0.207 OA
ATOM     90  O   UNL A   1      35.078  24.799  25.110  1.00  0.00    -0.207 OA
BRANCH  88  91
ATOM     91  C   UNL A   1      32.162  23.764  24.936  1.00  0.00     0.090 A 
ATOM     92  C   UNL A   1      32.175  23.677  26.836  1.00  0.00     0.024 A 
ATOM     93  C   UNL A   1      32.529  22.416  24.063  1.00  0.00     0.005 A 
ATOM     94  C   UNL A   1      33.218  22.170  27.539  1.00  0.00     0.028 A 
ATOM     95  C   UNL A   1      33.178  21.146  24.755  1.00  0.00     0.019 A 
ATOM     96  C   UNL A   1      32.184  22.253  22.730  1.00  0.00     0.010 A 
ATOM     97  C   UNL A   1      33.552  20.961  26.313  1.00  0.00     0.050 A 
ATOM     98  C   UNL A   1      32.734  19.909  24.297  1.00  0.00     0.050 A 
ATOM     99  C   UNL A   1      32.044  20.957  22.218  1.00  0.00     0.002 A 
ATOM    100  N   UNL A   1      33.268  19.597  26.522  1.00  0.00    -0.321 N 
ATOM    101  C   UNL A   1      32.189  19.795  23.009  1.00  0.00     0.014 A 
ATOM    102  C   UNL A   1      32.701  18.947  25.394  1.00  0.00     0.256 C 
ATOM    103  H   UNL A   1      33.447  19.137  27.374  1.00  0.00     0.170 HD
ATOM    104  O   UNL A   1      32.185  17.836  25.470  1.00  0.00    -0.269 OA
ENDBRANCH  88  91
ENDBRANCH  85  88
ENDBRANCH  81  83
ENDBRANCH  80  81
ENDBRANCH  79  80
ENDBRANCH  78  79
ENDBRANCH  77  78
ENDBRANCH  76  77
ENDBRANCH  75  76
ENDBRANCH   1  75
TORSDOF 22
ENDMDL
MODEL 3
REMARK VINA RESULT:     -11.0      5.434     10.615
REMARK SMILES O=C(OCCOCCOCCOCCOC(=O)[C@@H]1CCCN1S(=O)(=O)c1ccc2c3c(cccc13)C(=O)N2)c1ccc(-c2c3nc(c(-c4c(F)c(F)c(F)c(F)c4F)c4ccc([nH]4)c(-c4c(F)c(F)c(F)c(F)c4F)c4nc(c(-c5c(F)c(F)c(F)c(F)c5F)c5ccc2[nH]5)C=C4)C=C3)cc1
REMARK SMILES IDX 9 1 8 2 7 3 6 4 5 5 4 6 3 7 2 8 1 9 39 10 40 11 101 12 41 13
REMARK SMILES IDX 100 14 42 15 43 16 44 17 94 18 45 19 99 20 93 21 95 22 46 23
REMARK SMILES IDX 98 24 92 25 91 26 47 28 79 29 59 30 78 31 60 32 63 33 77 34
REMARK SMILES IDX 96 35 61 36 62 37 76 39 97 40 64 41 48 42 49 43 57 44 50 45
REMARK SMILES IDX 51 46 55 47 58 48 52 49 53 50 56 51 54 52 80 53 81 54 89 55
REMARK SMILES IDX 82 56 83 57 87 58 90 59 84 60 85 61 88 62 86 63 65 64 66 65
REMARK SMILES IDX 74 66 67 67 68 68 72 69 75 70 69 71 70 72 73 73 71 74 10 75
REMARK SMILES IDX 11 76 12 77 13 78 14 79 15 80 16 81 17 82 18 83 19 84 22 85
REMARK SMILES IDX 20 86 21 87 23 88 24 89 25 90 26 91 27 92 35 93 28 94 30 95
REMARK SMILES IDX 34 96 29 97 31 98 33 99 38 100 32 101 36 102 37 104
REMARK H PARENT 95 27 63 38 38 103
REMARK Flexibility Score: inf
ROOT
ATOM      1  O   UNL A   1      35.617  33.281  30.913  1.00  0.00    -0.377 OA
ENDROOT
BRANCH   1   2
ATOM      2  C   UNL A   1      36.780  33.298  31.813  1.00  0.00     0.188 C 
BRANCH   2   3
ATOM      3  C   UNL A   1      37.501  34.577  32.373  1.00  0.00     0.188 C 
BRANCH   3   4
ATOM      4  O   UNL A   1      37.399  34.884  33.751  1.00  0.00    -0.376 OA
BRANCH   4   5
ATOM      5  C   UNL A   1      36.692  34.041  34.637  1.00  0.00     0.202 C 
BRANCH   5   6
ATOM      6  C   UNL A   1      37.452  33.821  35.942  1.00  0.00     0.261 C 
BRANCH   6   7
ATOM      7  O   UNL A   1      37.214  32.508  36.456  1.00  0.00    -0.460 OA
BRANCH   7   8
ATOM      8  C   UNL A   1      37.992  31.406  36.394  1.00  0.00     0.338 C 
ATOM      9  O   UNL A   1      37.779  30.523  37.227  1.00  0.00    -0.246 OA
BRANCH   8  10
ATOM     10  C   UNL A   1      39.065  31.125  35.376  1.00  0.00     0.060 A 
ATOM     11  C   UNL A   1      38.903  30.528  34.127  1.00  0.00     0.016 A 
ATOM     12  C   UNL A   1      40.358  31.586  35.697  1.00  0.00     0.016 A 
ATOM     13  C   UNL A   1      39.961  30.431  33.218  1.00  0.00     0.010 A 
ATOM     14  C   UNL A   1      41.444  31.422  34.823  1.00  0.00     0.010 A 
ATOM     15  C   UNL A   1      41.249  30.817  33.581  1.00  0.00    -0.014 A 
BRANCH  15  16
ATOM     16  C   UNL A   1      42.373  30.280  32.784  1.00  0.00     0.031 A 
ATOM     17  C   UNL A   1      42.897  31.155  31.677  1.00  0.00     0.074 A 
ATOM     18  C   UNL A   1      43.002  29.134  33.096  1.00  0.00     0.049 A 
ATOM     19  N   UNL A   1      43.850  30.929  30.813  1.00  0.00    -0.248 NA
ATOM     20  C   UNL A   1      42.274  32.486  31.545  1.00  0.00     0.031 C 
ATOM     21  C   UNL A   1      42.701  28.291  34.249  1.00  0.00     0.029 A 
ATOM     22  N   UNL A   1      44.052  28.499  32.478  1.00  0.00    -0.354 N 
ATOM     23  C   UNL A   1      43.927  32.074  30.035  1.00  0.00     0.074 A 
ATOM     24  C   UNL A   1      42.948  33.009  30.534  1.00  0.00     0.031 C 
ATOM     25  C   UNL A   1      43.561  27.255  34.265  1.00  0.00     0.029 A 
ATOM     26  C   UNL A   1      44.434  27.331  33.093  1.00  0.00     0.049 A 
ATOM     27  H   UNL A   1      44.490  28.849  31.669  1.00  0.00     0.167 HD
ATOM     28  C   UNL A   1      44.730  32.315  28.976  1.00  0.00     0.037 A 
ATOM     29  C   UNL A   1      45.364  26.423  32.727  1.00  0.00     0.037 A 
ATOM     30  C   UNL A   1      45.687  31.375  28.468  1.00  0.00     0.049 A 
ATOM     31  C   UNL A   1      46.155  26.662  31.458  1.00  0.00     0.074 A 
ATOM     32  C   UNL A   1      46.493  31.491  27.351  1.00  0.00     0.029 A 
ATOM     33  N   UNL A   1      45.962  30.144  29.042  1.00  0.00    -0.354 N 
ATOM     34  N   UNL A   1      46.173  27.712  30.672  1.00  0.00    -0.248 NA
ATOM     35  C   UNL A   1      47.037  25.572  31.006  1.00  0.00     0.031 C 
ATOM     36  C   UNL A   1      47.206  30.300  27.208  1.00  0.00     0.029 A 
ATOM     37  C   UNL A   1      46.900  29.474  28.278  1.00  0.00     0.049 A 
ATOM     38  H   UNL A   1      45.552  29.800  29.868  1.00  0.00     0.167 HD
ATOM     39  C   UNL A   1      47.076  27.421  29.657  1.00  0.00     0.074 A 
ATOM     40  C   UNL A   1      47.609  26.106  29.936  1.00  0.00     0.031 C 
ATOM     41  C   UNL A   1      47.424  28.166  28.579  1.00  0.00     0.037 A 
BRANCH  28  42
ATOM     42  C   UNL A   1      44.552  33.607  28.241  1.00  0.00     0.064 A 
ATOM     43  C   UNL A   1      43.852  33.684  27.031  1.00  0.00     0.173 A 
ATOM     44  C   UNL A   1      45.037  34.799  28.802  1.00  0.00     0.173 A 
ATOM     45  F   UNL A   1      43.404  32.567  26.436  1.00  0.00    -0.203 F 
ATOM     46  C   UNL A   1      43.631  34.912  26.414  1.00  0.00     0.198 A 
ATOM     47  C   UNL A   1      44.788  36.026  28.199  1.00  0.00     0.198 A 
ATOM     48  F   UNL A   1      45.728  34.772  29.953  1.00  0.00    -0.203 F 
ATOM     49  F   UNL A   1      42.979  34.965  25.244  1.00  0.00    -0.200 F 
ATOM     50  C   UNL A   1      44.083  36.082  27.007  1.00  0.00     0.200 A 
ATOM     51  F   UNL A   1      45.219  37.155  28.779  1.00  0.00    -0.200 F 
ATOM     52  F   UNL A   1      43.842  37.266  26.427  1.00  0.00    -0.200 F 
ENDBRANCH  28  42
BRANCH  29  53
ATOM     53  C   UNL A   1      45.574  25.178  33.523  1.00  0.00     0.064 A 
ATOM     54  C   UNL A   1      46.598  25.085  34.478  1.00  0.00     0.173 A 
ATOM     55  C   UNL A   1      44.795  24.030  33.305  1.00  0.00     0.173 A 
ATOM     56  F   UNL A   1      47.407  26.132  34.701  1.00  0.00    -0.203 F 
ATOM     57  C   UNL A   1      46.844  23.896  35.166  1.00  0.00     0.198 A 
ATOM     58  C   UNL A   1      45.014  22.855  34.022  1.00  0.00     0.198 A 
ATOM     59  F   UNL A   1      43.815  24.044  32.388  1.00  0.00    -0.203 F 
ATOM     60  F   UNL A   1      47.871  23.818  36.023  1.00  0.00    -0.200 F 
ATOM     61  C   UNL A   1      46.045  22.785  34.944  1.00  0.00     0.200 A 
ATOM     62  F   UNL A   1      44.231  21.788  33.810  1.00  0.00    -0.200 F 
ATOM     63  F   UNL A   1      46.279  21.644  35.606  1.00  0.00    -0.200 F 
ENDBRANCH  29  53
BRANCH  41  64
ATOM     64  C   UNL A   1      48.425  27.597  27.614  1.00  0.00     0.064 A 
ATOM     65  C   UNL A   1      49.802  27.775  27.802  1.00  0.00     0.173 A 
ATOM     66  C   UNL A   1      48.008  26.770  26.559  1.00  0.00     0.173 A 
ATOM     67  F   UNL A   1      50.254  28.557  28.794  1.00  0.00    -0.203 F 
ATOM     68  C   UNL A   1      50.725  27.160  26.960  1.00  0.00     0.198 A 
ATOM     69  C   UNL A   1      48.933  26.126  25.743  1.00  0.00     0.198 A 
ATOM     70  F   UNL A   1      46.701  26.548  26.347  1.00  0.00    -0.203 F 
ATOM     71  F   UNL A   1      52.036  27.372  27.138  1.00  0.00    -0.200 F 
ATOM     72  C   UNL A   1      50.291  26.326  25.941  1.00  0.00     0.200 A 
ATOM     73  F   UNL A   1      48.511  25.297  24.777  1.00  0.00    -0.200 F 
ATOM     74  F   UNL A   1      51.181  25.712  25.151  1.00  0.00    -0.200 F 
ENDBRANCH  41  64
ENDBRANCH  15  16
ENDBRANCH   8  10
ENDBRANCH   7   8
ENDBRANCH   6   7
ENDBRANCH   5   6
ENDBRANCH   4   5
ENDBRANCH   3   4
ENDBRANCH   2   3
ENDBRANCH   1   2
BRANCH   1  75
ATOM     75  C   UNL A   1      35.587  32.360  29.744  1.00  0.00     0.188 C 
BRANCH  75  76
ATOM     76  C   UNL A   1      36.269  30.390  29.615  1.00  0.00     0.188 C 
BRANCH  76  77
ATOM     77  O   UNL A   1      36.434  29.878  27.583  1.00  0.00    -0.376 OA
BRANCH  77  78
ATOM     78  C   UNL A   1      34.920  29.049  26.829  1.00  0.00     0.202 C 
BRANCH  78  79
ATOM     79  C   UNL A   1      33.204  29.815  27.248  1.00  0.00     0.261 C 
BRANCH  79  80
ATOM     80  O   UNL A   1      31.768  28.920  26.991  1.00  0.00    -0.462 OA
BRANCH  80  81
ATOM     81  C   UNL A   1      31.489  27.639  26.474  1.00  0.00     0.324 C 
ATOM     82  O   UNL A   1      30.935  26.807  27.200  1.00  0.00    -0.250 OA
BRANCH  81  83
ATOM     83  C   UNL A   1      31.733  27.262  24.815  1.00  0.00     0.183 C 
ATOM     84  C   UNL A   1      30.906  28.034  23.774  1.00  0.00     0.034 C 
ATOM     85  N   UNL A   1      32.276  25.783  23.931  1.00  0.00    -0.184 NA
ATOM     86  C   UNL A   1      31.374  27.557  22.395  1.00  0.00     0.019 C 
ATOM     87  C   UNL A   1      32.223  26.273  22.478  1.00  0.00     0.103 C 
BRANCH  85  88
ATOM     88  S   UNL A   1      31.466  23.820  23.852  1.00  0.00     0.244 S 
ATOM     89  O   UNL A   1      31.526  23.272  25.194  1.00  0.00    -0.207 OA
ATOM     90  O   UNL A   1      30.193  23.982  23.178  1.00  0.00    -0.207 OA
BRANCH  88  91
ATOM     91  C   UNL A   1      32.839  22.519  22.496  1.00  0.00     0.090 A 
ATOM     92  C   UNL A   1      32.125  20.780  22.204  1.00  0.00     0.024 A 
ATOM     93  C   UNL A   1      34.078  22.714  23.565  1.00  0.00     0.005 A 
ATOM     94  C   UNL A   1      32.528  19.520  23.653  1.00  0.00     0.028 A 
ATOM     95  C   UNL A   1      34.484  21.555  24.566  1.00  0.00     0.019 A 
ATOM     96  C   UNL A   1      34.912  23.822  23.571  1.00  0.00     0.010 A 
ATOM     97  C   UNL A   1      33.818  20.092  24.696  1.00  0.00     0.050 A 
ATOM     98  C   UNL A   1      35.848  21.398  24.795  1.00  0.00     0.050 A 
ATOM     99  C   UNL A   1      36.201  23.700  24.104  1.00  0.00     0.002 A 
ATOM    100  N   UNL A   1      34.933  19.288  25.002  1.00  0.00    -0.321 N 
ATOM    101  C   UNL A   1      36.719  22.481  24.596  1.00  0.00     0.014 A 
ATOM    102  C   UNL A   1      36.169  19.988  24.988  1.00  0.00     0.256 C 
ATOM    103  H   UNL A   1      34.862  18.328  25.206  1.00  0.00     0.170 HD
ATOM    104  O   UNL A   1      37.250  19.407  25.003  1.00  0.00    -0.269 OA
ENDBRANCH  88  91
ENDBRANCH  85  88
ENDBRANCH  81  83
ENDBRANCH  80  81
ENDBRANCH  79  80
ENDBRANCH  78  79
ENDBRANCH  77  78
ENDBRANCH  76  77
ENDBRANCH  75  76
ENDBRANCH   1  75
TORSDOF 22
ENDMDL
