MODEL 1
REMARK VINA RESULT:      -9.1      0.000      0.000
REMARK SMILES CC(C)(C)c1ccc(C(=O)Oc2ccc([C@H]3[NH2+][C@@H](C(=O)OCCOCCOCCOCCOC(=O)c4ccc(-c5c6nc(c(-c7c(F)c(F)c(F)c(F)c7F)c7ccc([nH]7)c(-c7c(F)c(F)c(F)c(F)c7F)c7nc(c(-c8c(F)c(F)c(F)c(F)c8F)c8ccc5[nH]8)C=C7)C=C6)cc4)CS3)cc2)cc1
REMARK SMILES IDX 25 1 24 2 23 3 22 4 21 5 19 6 20 7 18 8 16 9 17 10 100 11
REMARK SMILES IDX 99 14 15 15 12 16 13 17 102 18 14 19 101 20 11 21 9 22 10 23
REMARK SMILES IDX 8 24 5 25 6 26 104 27 7 28 103 29 2 30 1 31 3 32 4 33 26 34
REMARK SMILES IDX 27 35 28 36 29 37 30 38 31 39 32 40 33 41 34 42 35 43 36 44
REMARK SMILES IDX 37 45 98 46 38 47 97 48 39 49 40 50 41 51 91 52 42 53 96 54
REMARK SMILES IDX 90 55 92 56 43 57 95 58 89 59 88 60 44 62 76 63 56 64 75 65
REMARK SMILES IDX 57 66 60 67 74 68 93 69 58 70 59 71 73 73 94 74 61 75 45 76
REMARK SMILES IDX 46 77 54 78 47 79 48 80 52 81 55 82 49 83 50 84 53 85 51 86
REMARK SMILES IDX 77 87 78 88 86 89 79 90 80 91 84 92 87 93 81 94 82 95 85 96
REMARK SMILES IDX 83 97 62 98 63 99 71 100 64 101 65 102 69 103 72 104 66 105
REMARK SMILES IDX 67 106 70 107 68 108
REMARK H PARENT 17 12 17 13 92 61 60 72
REMARK Flexibility Score: inf
ROOT
ATOM      1  C   UNL A   1      40.532  28.227  29.279  1.00  0.00     0.188 C 
ENDROOT
BRANCH   1   2
ATOM      2  O   UNL A   1      40.311  26.838  29.067  1.00  0.00    -0.376 OA
BRANCH   2   3
ATOM      3  C   UNL A   1      39.681  26.454  27.855  1.00  0.00     0.202 C 
BRANCH   3   4
ATOM      4  C   UNL A   1      40.048  25.122  27.173  1.00  0.00     0.261 C 
BRANCH   4   5
ATOM      5  O   UNL A   1      39.182  23.993  27.410  1.00  0.00    -0.459 OA
BRANCH   5   6
ATOM      6  C   UNL A   1      39.592  22.752  27.031  1.00  0.00     0.365 C 
ATOM      7  O   UNL A   1      40.411  22.084  27.645  1.00  0.00    -0.245 OA
BRANCH   6   8
ATOM      8  C   UNL A   1      38.809  22.289  25.779  1.00  0.00     0.304 C 
ATOM      9  C   UNL A   1      36.688  21.702  24.879  1.00  0.00     0.274 C 
ATOM     10  N   UNL A   1      37.328  22.475  25.942  1.00  0.00    -0.319 N 
ATOM     11  S   UNL A   1      37.493  20.092  24.991  1.00  0.00    -0.087 SA
ATOM     12  H   UNL A   1      37.030  22.131  26.855  1.00  0.00     0.348 HD
ATOM     13  H   UNL A   1      37.074  23.461  25.884  1.00  0.00     0.348 HD
ATOM     14  C   UNL A   1      39.094  20.817  25.469  1.00  0.00     0.153 C 
BRANCH   9  15
ATOM     15  C   UNL A   1      35.163  21.756  24.926  1.00  0.00     0.020 A 
ATOM     16  C   UNL A   1      32.361  22.082  25.249  1.00  0.00     0.131 A 
ATOM     17  C   UNL A   1      33.136  21.643  26.319  1.00  0.00     0.048 A 
ATOM     18  C   UNL A   1      32.959  22.322  24.013  1.00  0.00     0.048 A 
ATOM     19  C   UNL A   1      34.520  21.469  26.151  1.00  0.00     0.015 A 
ATOM     20  C   UNL A   1      34.345  22.143  23.851  1.00  0.00     0.015 A 
BRANCH  16  21
ATOM     21  O   UNL A   1      31.008  22.408  25.511  1.00  0.00    -0.423 OA
BRANCH  21  22
ATOM     22  C   UNL A   1      30.720  23.311  26.525  1.00  0.00     0.343 C 
ATOM     23  O   UNL A   1      30.245  23.038  27.619  1.00  0.00    -0.246 OA
BRANCH  22  24
ATOM     24  C   UNL A   1      31.049  24.716  26.122  1.00  0.00     0.060 A 
ATOM     25  C   UNL A   1      31.537  27.393  25.234  1.00  0.00    -0.043 A 
ATOM     26  C   UNL A   1      30.361  26.709  24.890  1.00  0.00     0.005 A 
ATOM     27  C   UNL A   1      32.464  26.695  26.037  1.00  0.00     0.005 A 
ATOM     28  C   UNL A   1      30.121  25.398  25.326  1.00  0.00     0.016 A 
ATOM     29  C   UNL A   1      32.228  25.377  26.477  1.00  0.00     0.016 A 
BRANCH  25  30
ATOM     30  C   UNL A   1      31.825  28.833  24.758  1.00  0.00    -0.013 C 
ATOM     31  C   UNL A   1      33.195  28.899  24.049  1.00  0.00     0.016 C 
ATOM     32  C   UNL A   1      31.864  29.877  25.901  1.00  0.00     0.016 C 
ATOM     33  C   UNL A   1      30.727  29.285  23.771  1.00  0.00     0.016 C 
ENDBRANCH  25  30
ENDBRANCH  22  24
ENDBRANCH  21  22
ENDBRANCH  16  21
ENDBRANCH   9  15
ENDBRANCH   6   8
ENDBRANCH   5   6
ENDBRANCH   4   5
ENDBRANCH   3   4
ENDBRANCH   2   3
ENDBRANCH   1   2
BRANCH   1  34
ATOM     34  C   UNL A   1      39.881  28.735  30.584  1.00  0.00     0.188 C 
BRANCH  34  35
ATOM     35  O   UNL A   1      38.826  27.909  31.052  1.00  0.00    -0.377 OA
BRANCH  35  36
ATOM     36  C   UNL A   1      38.392  28.056  32.400  1.00  0.00     0.188 C 
BRANCH  36  37
ATOM     37  C   UNL A   1      38.457  29.401  33.169  1.00  0.00     0.188 C 
BRANCH  37  38
ATOM     38  O   UNL A   1      37.203  29.924  33.567  1.00  0.00    -0.376 OA
BRANCH  38  39
ATOM     39  C   UNL A   1      36.786  31.195  33.118  1.00  0.00     0.202 C 
BRANCH  39  40
ATOM     40  C   UNL A   1      37.094  31.541  31.658  1.00  0.00     0.261 C 
BRANCH  40  41
ATOM     41  O   UNL A   1      38.110  32.533  31.457  1.00  0.00    -0.460 OA
BRANCH  41  42
ATOM     42  C   UNL A   1      37.900  33.427  30.469  1.00  0.00     0.338 C 
ATOM     43  O   UNL A   1      36.827  33.807  30.029  1.00  0.00    -0.246 OA
BRANCH  42  44
ATOM     44  C   UNL A   1      39.206  34.023  30.124  1.00  0.00     0.060 A 
ATOM     45  C   UNL A   1      39.364  34.633  28.873  1.00  0.00     0.016 A 
ATOM     46  C   UNL A   1      40.253  34.017  31.049  1.00  0.00     0.016 A 
ATOM     47  C   UNL A   1      40.584  35.212  28.530  1.00  0.00     0.010 A 
ATOM     48  C   UNL A   1      41.485  34.570  30.694  1.00  0.00     0.010 A 
ATOM     49  C   UNL A   1      41.663  35.137  29.420  1.00  0.00    -0.014 A 
BRANCH  49  50
ATOM     50  C   UNL A   1      43.028  35.434  28.928  1.00  0.00     0.031 A 
ATOM     51  C   UNL A   1      43.956  34.277  28.692  1.00  0.00     0.074 A 
ATOM     52  C   UNL A   1      43.425  36.690  28.665  1.00  0.00     0.049 A 
ATOM     53  N   UNL A   1      45.204  34.271  28.298  1.00  0.00    -0.248 NA
ATOM     54  C   UNL A   1      43.398  32.936  28.938  1.00  0.00     0.031 C 
ATOM     55  C   UNL A   1      42.599  37.887  28.806  1.00  0.00     0.029 A 
ATOM     56  N   UNL A   1      44.636  37.164  28.223  1.00  0.00    -0.354 N 
ATOM     57  C   UNL A   1      45.576  32.934  28.251  1.00  0.00     0.074 A 
ATOM     58  C   UNL A   1      44.439  32.158  28.694  1.00  0.00     0.031 C 
ATOM     59  C   UNL A   1      43.333  38.962  28.466  1.00  0.00     0.029 A 
ATOM     60  C   UNL A   1      44.685  38.531  28.116  1.00  0.00     0.049 A 
ATOM     61  H   UNL A   1      45.396  36.577  28.005  1.00  0.00     0.167 HD
ATOM     62  C   UNL A   1      46.758  32.400  27.863  1.00  0.00     0.037 A 
ATOM     63  C   UNL A   1      45.717  39.336  27.794  1.00  0.00     0.037 A 
ATOM     64  C   UNL A   1      47.889  33.179  27.434  1.00  0.00     0.049 A 
ATOM     65  C   UNL A   1      47.053  38.722  27.455  1.00  0.00     0.074 A 
ATOM     66  C   UNL A   1      49.132  32.738  27.017  1.00  0.00     0.029 A 
ATOM     67  N   UNL A   1      47.917  34.566  27.381  1.00  0.00    -0.354 N 
ATOM     68  N   UNL A   1      47.395  37.457  27.391  1.00  0.00    -0.248 NA
ATOM     69  C   UNL A   1      48.147  39.652  27.139  1.00  0.00     0.031 C 
ATOM     70  C   UNL A   1      49.933  33.858  26.772  1.00  0.00     0.029 A 
ATOM     71  C   UNL A   1      49.167  34.997  26.966  1.00  0.00     0.049 A 
ATOM     72  H   UNL A   1      47.161  35.155  27.605  1.00  0.00     0.167 HD
ATOM     73  C   UNL A   1      48.726  37.438  26.991  1.00  0.00     0.074 A 
ATOM     74  C   UNL A   1      49.126  38.819  26.816  1.00  0.00     0.031 C 
ATOM     75  C   UNL A   1      49.545  36.376  26.785  1.00  0.00     0.037 A 
BRANCH  62  76
ATOM     76  C   UNL A   1      46.891  30.906  27.919  1.00  0.00     0.064 A 
ATOM     77  C   UNL A   1      47.371  30.247  29.061  1.00  0.00     0.173 A 
ATOM     78  C   UNL A   1      46.520  30.120  26.817  1.00  0.00     0.173 A 
ATOM     79  F   UNL A   1      47.759  30.952  30.135  1.00  0.00    -0.203 F 
ATOM     80  C   UNL A   1      47.504  28.861  29.086  1.00  0.00     0.198 A 
ATOM     81  C   UNL A   1      46.620  28.732  26.858  1.00  0.00     0.198 A 
ATOM     82  F   UNL A   1      46.055  30.698  25.700  1.00  0.00    -0.203 F 
ATOM     83  F   UNL A   1      48.020  28.259  30.167  1.00  0.00    -0.200 F 
ATOM     84  C   UNL A   1      47.122  28.104  27.989  1.00  0.00     0.200 A 
ATOM     85  F   UNL A   1      46.237  28.002  25.802  1.00  0.00    -0.200 F 
ATOM     86  F   UNL A   1      47.243  26.771  28.017  1.00  0.00    -0.200 F 
ENDBRANCH  62  76
BRANCH  63  87
ATOM     87  C   UNL A   1      45.538  40.813  27.782  1.00  0.00     0.064 A 
ATOM     88  C   UNL A   1      45.094  41.479  26.630  1.00  0.00     0.173 A 
ATOM     89  C   UNL A   1      45.839  41.593  28.908  1.00  0.00     0.173 A 
ATOM     90  F   UNL A   1      44.819  40.783  25.517  1.00  0.00    -0.203 F 
ATOM     91  C   UNL A   1      44.982  42.868  26.599  1.00  0.00     0.198 A 
ATOM     92  C   UNL A   1      45.694  42.979  28.887  1.00  0.00     0.198 A 
ATOM     93  F   UNL A   1      46.272  41.008  30.034  1.00  0.00    -0.203 F 
ATOM     94  F   UNL A   1      44.611  43.482  25.467  1.00  0.00    -0.200 F 
ATOM     95  C   UNL A   1      45.276  43.617  27.728  1.00  0.00     0.200 A 
ATOM     96  F   UNL A   1      45.969  43.696  29.984  1.00  0.00    -0.200 F 
ATOM     97  F   UNL A   1      45.168  44.951  27.699  1.00  0.00    -0.200 F 
ENDBRANCH  63  87
BRANCH  75  98
ATOM     98  C   UNL A   1      50.939  36.659  26.296  1.00  0.00     0.064 A 
ATOM     99  C   UNL A   1      52.001  36.908  27.178  1.00  0.00     0.173 A 
ATOM    100  C   UNL A   1      51.221  36.645  24.920  1.00  0.00     0.173 A 
ATOM    101  F   UNL A   1      51.786  36.943  28.502  1.00  0.00    -0.203 F 
ATOM    102  C   UNL A   1      53.283  37.169  26.701  1.00  0.00     0.198 A 
ATOM    103  C   UNL A   1      52.512  36.868  24.449  1.00  0.00     0.198 A 
ATOM    104  F   UNL A   1      50.246  36.402  24.032  1.00  0.00    -0.203 F 
ATOM    105  F   UNL A   1      54.268  37.464  27.560  1.00  0.00    -0.200 F 
ATOM    106  C   UNL A   1      53.539  37.142  25.338  1.00  0.00     0.200 A 
ATOM    107  F   UNL A   1      52.760  36.822  23.133  1.00  0.00    -0.200 F 
ATOM    108  F   UNL A   1      54.775  37.387  24.882  1.00  0.00    -0.200 F 
ENDBRANCH  75  98
ENDBRANCH  49  50
ENDBRANCH  42  44
ENDBRANCH  41  42
ENDBRANCH  40  41
ENDBRANCH  39  40
ENDBRANCH  38  39
ENDBRANCH  37  38
ENDBRANCH  36  37
ENDBRANCH  35  36
ENDBRANCH  34  35
ENDBRANCH   1  34
TORSDOF 25
ENDMDL
MODEL 2
REMARK VINA RESULT:      -9.0      4.449      9.904
REMARK SMILES CC(C)(C)c1ccc(C(=O)Oc2ccc([C@H]3[NH2+][C@@H](C(=O)OCCOCCOCCOCCOC(=O)c4ccc(-c5c6nc(c(-c7c(F)c(F)c(F)c(F)c7F)c7ccc([nH]7)c(-c7c(F)c(F)c(F)c(F)c7F)c7nc(c(-c8c(F)c(F)c(F)c(F)c8F)c8ccc5[nH]8)C=C7)C=C6)cc4)CS3)cc2)cc1
REMARK SMILES IDX 25 1 24 2 23 3 22 4 21 5 19 6 20 7 18 8 16 9 17 10 100 11
REMARK SMILES IDX 99 14 15 15 12 16 13 17 102 18 14 19 101 20 11 21 9 22 10 23
REMARK SMILES IDX 8 24 5 25 6 26 104 27 7 28 103 29 2 30 1 31 3 32 4 33 26 34
REMARK SMILES IDX 27 35 28 36 29 37 30 38 31 39 32 40 33 41 34 42 35 43 36 44
REMARK SMILES IDX 37 45 98 46 38 47 97 48 39 49 40 50 41 51 91 52 42 53 96 54
REMARK SMILES IDX 90 55 92 56 43 57 95 58 89 59 88 60 44 62 76 63 56 64 75 65
REMARK SMILES IDX 57 66 60 67 74 68 93 69 58 70 59 71 73 73 94 74 61 75 45 76
REMARK SMILES IDX 46 77 54 78 47 79 48 80 52 81 55 82 49 83 50 84 53 85 51 86
REMARK SMILES IDX 77 87 78 88 86 89 79 90 80 91 84 92 87 93 81 94 82 95 85 96
REMARK SMILES IDX 83 97 62 98 63 99 71 100 64 101 65 102 69 103 72 104 66 105
REMARK SMILES IDX 67 106 70 107 68 108
REMARK H PARENT 17 12 17 13 92 61 60 72
REMARK Flexibility Score: inf
ROOT
ATOM      1  C   UNL A   1      37.652  33.506  35.062  1.00  0.00     0.188 C 
ENDROOT
BRANCH   1   2
ATOM      2  O   UNL A   1      36.462  32.754  34.860  1.00  0.00    -0.376 OA
BRANCH   2   3
ATOM      3  C   UNL A   1      35.895  32.763  33.560  1.00  0.00     0.202 C 
BRANCH   3   4
ATOM      4  C   UNL A   1      34.485  33.339  33.329  1.00  0.00     0.261 C 
BRANCH   4   5
ATOM      5  O   UNL A   1      33.978  33.333  31.979  1.00  0.00    -0.459 OA
BRANCH   5   6
ATOM      6  C   UNL A   1      34.193  34.417  31.185  1.00  0.00     0.365 C 
ATOM      7  O   UNL A   1      34.085  35.575  31.563  1.00  0.00    -0.245 OA
BRANCH   6   8
ATOM      8  C   UNL A   1      34.676  33.969  29.784  1.00  0.00     0.304 C 
ATOM      9  C   UNL A   1      34.662  32.244  28.148  1.00  0.00     0.274 C 
ATOM     10  N   UNL A   1      33.910  32.778  29.281  1.00  0.00    -0.319 N 
ATOM     11  S   UNL A   1      36.348  32.131  28.782  1.00  0.00    -0.087 SA
ATOM     12  H   UNL A   1      33.833  32.074  30.016  1.00  0.00     0.348 HD
ATOM     13  H   UNL A   1      32.964  33.041  29.003  1.00  0.00     0.348 HD
ATOM     14  C   UNL A   1      36.168  33.629  29.802  1.00  0.00     0.153 C 
BRANCH   9  15
ATOM     15  C   UNL A   1      34.031  30.995  27.538  1.00  0.00     0.020 A 
ATOM     16  C   UNL A   1      32.851  28.836  26.121  1.00  0.00     0.131 A 
ATOM     17  C   UNL A   1      32.182  30.054  26.212  1.00  0.00     0.048 A 
ATOM     18  C   UNL A   1      34.079  28.670  26.758  1.00  0.00     0.048 A 
ATOM     19  C   UNL A   1      32.763  31.115  26.927  1.00  0.00     0.015 A 
ATOM     20  C   UNL A   1      34.654  29.736  27.475  1.00  0.00     0.015 A 
BRANCH  16  21
ATOM     21  O   UNL A   1      32.312  27.858  25.250  1.00  0.00    -0.423 OA
BRANCH  21  22
ATOM     22  C   UNL A   1      33.167  27.184  24.388  1.00  0.00     0.343 C 
ATOM     23  O   UNL A   1      33.772  27.675  23.445  1.00  0.00    -0.246 OA
BRANCH  22  24
ATOM     24  C   UNL A   1      33.264  25.729  24.732  1.00  0.00     0.060 A 
ATOM     25  C   UNL A   1      33.622  22.980  25.444  1.00  0.00    -0.043 A 
ATOM     26  C   UNL A   1      34.553  23.962  25.818  1.00  0.00     0.005 A 
ATOM     27  C   UNL A   1      32.505  23.416  24.701  1.00  0.00     0.005 A 
ATOM     28  C   UNL A   1      34.376  25.309  25.471  1.00  0.00     0.016 A 
ATOM     29  C   UNL A   1      32.324  24.769  24.349  1.00  0.00     0.016 A 
BRANCH  25  30
ATOM     30  C   UNL A   1      33.800  21.491  25.810  1.00  0.00    -0.013 C 
ATOM     31  C   UNL A   1      33.826  21.315  27.344  1.00  0.00     0.016 C 
ATOM     32  C   UNL A   1      35.107  20.863  25.267  1.00  0.00     0.016 C 
ATOM     33  C   UNL A   1      32.629  20.667  25.231  1.00  0.00     0.016 C 
ENDBRANCH  25  30
ENDBRANCH  22  24
ENDBRANCH  21  22
ENDBRANCH  16  21
ENDBRANCH   9  15
ENDBRANCH   6   8
ENDBRANCH   5   6
ENDBRANCH   4   5
ENDBRANCH   3   4
ENDBRANCH   2   3
ENDBRANCH   1   2
BRANCH   1  34
ATOM     34  C   UNL A   1      38.873  32.610  35.365  1.00  0.00     0.188 C 
BRANCH  34  35
ATOM     35  O   UNL A   1      39.661  32.316  34.221  1.00  0.00    -0.377 OA
BRANCH  35  36
ATOM     36  C   UNL A   1      40.744  33.181  33.899  1.00  0.00     0.188 C 
BRANCH  36  37
ATOM     37  C   UNL A   1      41.235  33.421  32.448  1.00  0.00     0.188 C 
BRANCH  37  38
ATOM     38  O   UNL A   1      40.344  34.158  31.630  1.00  0.00    -0.376 OA
BRANCH  38  39
ATOM     39  C   UNL A   1      40.087  33.746  30.305  1.00  0.00     0.202 C 
BRANCH  39  40
ATOM     40  C   UNL A   1      40.203  34.820  29.218  1.00  0.00     0.261 C 
BRANCH  40  41
ATOM     41  O   UNL A   1      41.472  35.483  29.134  1.00  0.00    -0.460 OA
BRANCH  41  42
ATOM     42  C   UNL A   1      41.869  35.882  27.908  1.00  0.00     0.338 C 
ATOM     43  O   UNL A   1      41.348  36.727  27.200  1.00  0.00    -0.246 OA
BRANCH  42  44
ATOM     44  C   UNL A   1      43.174  35.247  27.635  1.00  0.00     0.060 A 
ATOM     45  C   UNL A   1      43.494  34.898  26.317  1.00  0.00     0.016 A 
ATOM     46  C   UNL A   1      44.090  35.039  28.669  1.00  0.00     0.016 A 
ATOM     47  C   UNL A   1      44.724  34.308  26.033  1.00  0.00     0.010 A 
ATOM     48  C   UNL A   1      45.310  34.421  28.389  1.00  0.00     0.010 A 
ATOM     49  C   UNL A   1      45.615  34.020  27.076  1.00  0.00    -0.014 A 
BRANCH  49  50
ATOM     50  C   UNL A   1      46.745  33.097  26.829  1.00  0.00     0.031 A 
ATOM     51  C   UNL A   1      48.099  33.697  26.578  1.00  0.00     0.074 A 
ATOM     52  C   UNL A   1      46.586  31.763  26.858  1.00  0.00     0.049 A 
ATOM     53  N   UNL A   1      49.237  33.112  26.304  1.00  0.00    -0.248 NA
ATOM     54  C   UNL A   1      48.180  35.167  26.643  1.00  0.00     0.031 C 
ATOM     55  C   UNL A   1      45.335  31.065  27.140  1.00  0.00     0.029 A 
ATOM     56  N   UNL A   1      47.495  30.757  26.642  1.00  0.00    -0.354 N 
ATOM     57  C   UNL A   1      50.162  34.137  26.163  1.00  0.00     0.074 A 
ATOM     58  C   UNL A   1      49.450  35.384  26.342  1.00  0.00     0.031 C 
ATOM     59  C   UNL A   1      45.552  29.739  27.071  1.00  0.00     0.029 A 
ATOM     60  C   UNL A   1      46.948  29.500  26.707  1.00  0.00     0.049 A 
ATOM     61  H   UNL A   1      48.448  30.922  26.458  1.00  0.00     0.167 HD
ATOM     62  C   UNL A   1      51.490  34.049  25.918  1.00  0.00     0.037 A 
ATOM     63  C   UNL A   1      47.513  28.298  26.476  1.00  0.00     0.037 A 
ATOM     64  C   UNL A   1      52.191  32.807  25.730  1.00  0.00     0.049 A 
ATOM     65  C   UNL A   1      48.976  28.230  26.111  1.00  0.00     0.074 A 
ATOM     66  C   UNL A   1      53.536  32.604  25.479  1.00  0.00     0.029 A 
ATOM     67  N   UNL A   1      51.595  31.553  25.758  1.00  0.00    -0.354 N 
ATOM     68  N   UNL A   1      49.853  29.200  26.001  1.00  0.00    -0.248 NA
ATOM     69  C   UNL A   1      49.529  26.894  25.843  1.00  0.00     0.031 C 
ATOM     70  C   UNL A   1      53.743  31.233  25.293  1.00  0.00     0.029 A 
ATOM     71  C   UNL A   1      52.541  30.574  25.501  1.00  0.00     0.049 A 
ATOM     72  H   UNL A   1      50.641  31.385  25.936  1.00  0.00     0.167 HD
ATOM     73  C   UNL A   1      51.063  28.591  25.691  1.00  0.00     0.074 A 
ATOM     74  C   UNL A   1      50.810  27.166  25.642  1.00  0.00     0.031 C 
ATOM     75  C   UNL A   1      52.275  29.158  25.467  1.00  0.00     0.037 A 
BRANCH  62  76
ATOM     76  C   UNL A   1      52.259  35.333  25.807  1.00  0.00     0.064 A 
ATOM     77  C   UNL A   1      52.793  35.978  26.933  1.00  0.00     0.173 A 
ATOM     78  C   UNL A   1      52.478  35.920  24.551  1.00  0.00     0.173 A 
ATOM     79  F   UNL A   1      52.597  35.470  28.159  1.00  0.00    -0.203 F 
ATOM     80  C   UNL A   1      53.488  37.179  26.809  1.00  0.00     0.198 A 
ATOM     81  C   UNL A   1      53.204  37.102  24.427  1.00  0.00     0.198 A 
ATOM     82  F   UNL A   1      51.990  35.346  23.442  1.00  0.00    -0.203 F 
ATOM     83  F   UNL A   1      53.937  37.806  27.906  1.00  0.00    -0.200 F 
ATOM     84  C   UNL A   1      53.700  37.735  25.557  1.00  0.00     0.200 A 
ATOM     85  F   UNL A   1      53.418  37.631  23.215  1.00  0.00    -0.200 F 
ATOM     86  F   UNL A   1      54.374  38.886  25.439  1.00  0.00    -0.200 F 
ENDBRANCH  62  76
BRANCH  63  87
ATOM     87  C   UNL A   1      46.698  27.057  26.571  1.00  0.00     0.064 A 
ATOM     88  C   UNL A   1      46.710  26.270  27.732  1.00  0.00     0.173 A 
ATOM     89  C   UNL A   1      45.917  26.614  25.494  1.00  0.00     0.173 A 
ATOM     90  F   UNL A   1      47.463  26.635  28.781  1.00  0.00    -0.203 F 
ATOM     91  C   UNL A   1      45.993  25.077  27.801  1.00  0.00     0.198 A 
ATOM     92  C   UNL A   1      45.174  25.438  25.576  1.00  0.00     0.198 A 
ATOM     93  F   UNL A   1      45.872  27.325  24.358  1.00  0.00    -0.203 F 
ATOM     94  F   UNL A   1      46.070  24.316  28.902  1.00  0.00    -0.200 F 
ATOM     95  C   UNL A   1      45.221  24.664  26.727  1.00  0.00     0.200 A 
ATOM     96  F   UNL A   1      44.420  25.050  24.539  1.00  0.00    -0.200 F 
ATOM     97  F   UNL A   1      44.532  23.518  26.794  1.00  0.00    -0.200 F 
ENDBRANCH  63  87
BRANCH  75  98
ATOM     98  C   UNL A   1      53.434  28.236  25.203  1.00  0.00     0.064 A 
ATOM     99  C   UNL A   1      53.898  27.977  23.905  1.00  0.00     0.173 A 
ATOM    100  C   UNL A   1      54.113  27.630  26.273  1.00  0.00     0.173 A 
ATOM    101  F   UNL A   1      53.279  28.522  22.845  1.00  0.00    -0.203 F 
ATOM    102  C   UNL A   1      54.972  27.118  23.685  1.00  0.00     0.198 A 
ATOM    103  C   UNL A   1      55.211  26.803  26.052  1.00  0.00     0.198 A 
ATOM    104  F   UNL A   1      53.720  27.851  27.536  1.00  0.00    -0.203 F 
ATOM    105  F   UNL A   1      55.357  26.839  22.432  1.00  0.00    -0.200 F 
ATOM    106  C   UNL A   1      55.632  26.538  24.758  1.00  0.00     0.200 A 
ATOM    107  F   UNL A   1      55.858  26.259  27.091  1.00  0.00    -0.200 F 
ATOM    108  F   UNL A   1      56.669  25.717  24.544  1.00  0.00    -0.200 F 
ENDBRANCH  75  98
ENDBRANCH  49  50
ENDBRANCH  42  44
ENDBRANCH  41  42
ENDBRANCH  40  41
ENDBRANCH  39  40
ENDBRANCH  38  39
ENDBRANCH  37  38
ENDBRANCH  36  37
ENDBRANCH  35  36
ENDBRANCH  34  35
ENDBRANCH   1  34
TORSDOF 25
ENDMDL
MODEL 3
REMARK VINA RESULT:      -9.0      5.265     10.944
REMARK SMILES CC(C)(C)c1ccc(C(=O)Oc2ccc([C@H]3[NH2+][C@@H](C(=O)OCCOCCOCCOCCOC(=O)c4ccc(-c5c6nc(c(-c7c(F)c(F)c(F)c(F)c7F)c7ccc([nH]7)c(-c7c(F)c(F)c(F)c(F)c7F)c7nc(c(-c8c(F)c(F)c(F)c(F)c8F)c8ccc5[nH]8)C=C7)C=C6)cc4)CS3)cc2)cc1
REMARK SMILES IDX 25 1 24 2 23 3 22 4 21 5 19 6 20 7 18 8 16 9 17 10 100 11
REMARK SMILES IDX 99 14 15 15 12 16 13 17 102 18 14 19 101 20 11 21 9 22 10 23
REMARK SMILES IDX 8 24 5 25 6 26 104 27 7 28 103 29 2 30 1 31 3 32 4 33 26 34
REMARK SMILES IDX 27 35 28 36 29 37 30 38 31 39 32 40 33 41 34 42 35 43 36 44
REMARK SMILES IDX 37 45 98 46 38 47 97 48 39 49 40 50 41 51 91 52 42 53 96 54
REMARK SMILES IDX 90 55 92 56 43 57 95 58 89 59 88 60 44 62 76 63 56 64 75 65
REMARK SMILES IDX 57 66 60 67 74 68 93 69 58 70 59 71 73 73 94 74 61 75 45 76
REMARK SMILES IDX 46 77 54 78 47 79 48 80 52 81 55 82 49 83 50 84 53 85 51 86
REMARK SMILES IDX 77 87 78 88 86 89 79 90 80 91 84 92 87 93 81 94 82 95 85 96
REMARK SMILES IDX 83 97 62 98 63 99 71 100 64 101 65 102 69 103 72 104 66 105
REMARK SMILES IDX 67 106 70 107 68 108
REMARK H PARENT 17 12 17 13 92 61 60 72
REMARK Flexibility Score: inf
ROOT
ATOM      1  C   UNL A   1      37.770  34.216  30.380  1.00  0.00     0.188 C 
ENDROOT
BRANCH   1   2
ATOM      2  O   UNL A   1      36.537  33.636  29.974  1.00  0.00    -0.376 OA
BRANCH   2   3
ATOM      3  C   UNL A   1      36.552  32.271  29.589  1.00  0.00     0.202 C 
BRANCH   3   4
ATOM      4  C   UNL A   1      36.316  31.163  30.634  1.00  0.00     0.261 C 
BRANCH   4   5
ATOM      5  O   UNL A   1      37.269  30.082  30.682  1.00  0.00    -0.459 OA
BRANCH   5   6
ATOM      6  C   UNL A   1      37.709  29.640  31.892  1.00  0.00     0.365 C 
ATOM      7  O   UNL A   1      37.024  29.003  32.679  1.00  0.00    -0.245 OA
BRANCH   6   8
ATOM      8  C   UNL A   1      39.208  29.980  32.074  1.00  0.00     0.304 C 
ATOM      9  C   UNL A   1      41.104  31.098  31.175  1.00  0.00     0.274 C 
ATOM     10  N   UNL A   1      39.642  31.100  31.173  1.00  0.00    -0.319 N 
ATOM     11  S   UNL A   1      41.519  29.370  30.863  1.00  0.00    -0.087 SA
ATOM     12  H   UNL A   1      39.292  30.946  30.227  1.00  0.00     0.348 HD
ATOM     13  H   UNL A   1      39.276  31.995  31.497  1.00  0.00     0.348 HD
ATOM     14  C   UNL A   1      40.085  28.755  31.803  1.00  0.00     0.153 C 
BRANCH   9  15
ATOM     15  C   UNL A   1      41.712  32.165  30.269  1.00  0.00     0.020 A 
ATOM     16  C   UNL A   1      42.908  34.317  28.856  1.00  0.00     0.131 A 
ATOM     17  C   UNL A   1      41.780  34.545  29.639  1.00  0.00     0.048 A 
ATOM     18  C   UNL A   1      43.422  33.028  28.737  1.00  0.00     0.048 A 
ATOM     19  C   UNL A   1      41.182  33.474  30.325  1.00  0.00     0.015 A 
ATOM     20  C   UNL A   1      42.817  31.959  29.425  1.00  0.00     0.015 A 
BRANCH  16  21
ATOM     21  O   UNL A   1      43.575  35.449  28.326  1.00  0.00    -0.423 OA
BRANCH  21  22
ATOM     22  C   UNL A   1      43.229  35.899  27.059  1.00  0.00     0.343 C 
ATOM     23  O   UNL A   1      42.719  35.229  26.171  1.00  0.00    -0.246 OA
BRANCH  22  24
ATOM     24  C   UNL A   1      43.572  37.346  26.875  1.00  0.00     0.060 A 
ATOM     25  C   UNL A   1      44.403  40.065  26.546  1.00  0.00    -0.043 A 
ATOM     26  C   UNL A   1      45.329  39.010  26.540  1.00  0.00     0.005 A 
ATOM     27  C   UNL A   1      43.047  39.718  26.722  1.00  0.00     0.005 A 
ATOM     28  C   UNL A   1      44.921  37.677  26.700  1.00  0.00     0.016 A 
ATOM     29  C   UNL A   1      42.633  38.381  26.884  1.00  0.00     0.016 A 
BRANCH  25  30
ATOM     30  C   UNL A   1      44.831  41.539  26.380  1.00  0.00    -0.013 C 
ATOM     31  C   UNL A   1      45.089  42.181  27.760  1.00  0.00     0.016 C 
ATOM     32  C   UNL A   1      43.778  42.423  25.667  1.00  0.00     0.016 C 
ATOM     33  C   UNL A   1      46.126  41.615  25.542  1.00  0.00     0.016 C 
ENDBRANCH  25  30
ENDBRANCH  22  24
ENDBRANCH  21  22
ENDBRANCH  16  21
ENDBRANCH   9  15
ENDBRANCH   6   8
ENDBRANCH   5   6
ENDBRANCH   4   5
ENDBRANCH   3   4
ENDBRANCH   2   3
ENDBRANCH   1   2
BRANCH   1  34
ATOM     34  C   UNL A   1      37.872  34.372  31.913  1.00  0.00     0.188 C 
BRANCH  34  35
ATOM     35  O   UNL A   1      36.647  34.135  32.592  1.00  0.00    -0.377 OA
BRANCH  35  36
ATOM     36  C   UNL A   1      36.691  33.749  33.961  1.00  0.00     0.188 C 
BRANCH  36  37
ATOM     37  C   UNL A   1      35.569  34.092  34.975  1.00  0.00     0.188 C 
BRANCH  37  38
ATOM     38  O   UNL A   1      35.886  33.828  36.329  1.00  0.00    -0.376 OA
BRANCH  38  39
ATOM     39  C   UNL A   1      37.053  33.108  36.661  1.00  0.00     0.202 C 
BRANCH  39  40
ATOM     40  C   UNL A   1      38.169  33.894  37.357  1.00  0.00     0.261 C 
BRANCH  40  41
ATOM     41  O   UNL A   1      39.343  33.143  37.690  1.00  0.00    -0.460 OA
BRANCH  41  42
ATOM     42  C   UNL A   1      39.742  32.210  36.801  1.00  0.00     0.338 C 
ATOM     43  O   UNL A   1      39.284  31.090  36.647  1.00  0.00    -0.246 OA
BRANCH  42  44
ATOM     44  C   UNL A   1      40.723  32.846  35.900  1.00  0.00     0.060 A 
ATOM     45  C   UNL A   1      40.363  33.090  34.569  1.00  0.00     0.016 A 
ATOM     46  C   UNL A   1      41.975  33.238  36.381  1.00  0.00     0.016 A 
ATOM     47  C   UNL A   1      41.269  33.699  33.703  1.00  0.00     0.010 A 
ATOM     48  C   UNL A   1      42.894  33.821  35.506  1.00  0.00     0.010 A 
ATOM     49  C   UNL A   1      42.555  34.020  34.156  1.00  0.00    -0.014 A 
BRANCH  49  50
ATOM     50  C   UNL A   1      43.612  34.338  33.168  1.00  0.00     0.031 A 
ATOM     51  C   UNL A   1      43.849  35.784  32.836  1.00  0.00     0.074 A 
ATOM     52  C   UNL A   1      44.364  33.377  32.606  1.00  0.00     0.049 A 
ATOM     53  N   UNL A   1      44.686  36.321  31.986  1.00  0.00    -0.248 NA
ATOM     54  C   UNL A   1      43.024  36.761  33.566  1.00  0.00     0.031 C 
ATOM     55  C   UNL A   1      44.261  31.948  32.886  1.00  0.00     0.029 A 
ATOM     56  N   UNL A   1      45.366  33.469  31.672  1.00  0.00    -0.354 N 
ATOM     57  C   UNL A   1      44.486  37.692  32.078  1.00  0.00     0.074 A 
ATOM     58  C   UNL A   1      43.423  37.906  33.036  1.00  0.00     0.031 C 
ATOM     59  C   UNL A   1      45.161  31.292  32.131  1.00  0.00     0.029 A 
ATOM     60  C   UNL A   1      45.877  32.253  31.293  1.00  0.00     0.049 A 
ATOM     61  H   UNL A   1      45.688  34.326  31.310  1.00  0.00     0.167 HD
ATOM     62  C   UNL A   1      45.137  38.686  31.430  1.00  0.00     0.037 A 
ATOM     63  C   UNL A   1      46.801  31.957  30.358  1.00  0.00     0.037 A 
ATOM     64  C   UNL A   1      46.186  38.466  30.470  1.00  0.00     0.049 A 
ATOM     65  C   UNL A   1      47.448  33.077  29.580  1.00  0.00     0.074 A 
ATOM     66  C   UNL A   1      46.914  39.402  29.758  1.00  0.00     0.029 A 
ATOM     67  N   UNL A   1      46.646  37.217  30.077  1.00  0.00    -0.354 N 
ATOM     68  N   UNL A   1      47.272  34.373  29.685  1.00  0.00    -0.248 NA
ATOM     69  C   UNL A   1      48.428  32.690  28.555  1.00  0.00     0.031 C 
ATOM     70  C   UNL A   1      47.771  38.719  28.889  1.00  0.00     0.029 A 
ATOM     71  C   UNL A   1      47.630  37.358  29.111  1.00  0.00     0.049 A 
ATOM     72  H   UNL A   1      46.322  36.357  30.433  1.00  0.00     0.167 HD
ATOM     73  C   UNL A   1      48.143  34.955  28.772  1.00  0.00     0.074 A 
ATOM     74  C   UNL A   1      48.855  33.870  28.130  1.00  0.00     0.031 C 
ATOM     75  C   UNL A   1      48.338  36.267  28.489  1.00  0.00     0.037 A 
BRANCH  62  76
ATOM     76  C   UNL A   1      44.707  40.094  31.717  1.00  0.00     0.064 A 
ATOM     77  C   UNL A   1      43.673  40.715  30.998  1.00  0.00     0.173 A 
ATOM     78  C   UNL A   1      45.329  40.831  32.736  1.00  0.00     0.173 A 
ATOM     79  F   UNL A   1      43.057  40.063  30.001  1.00  0.00    -0.203 F 
ATOM     80  C   UNL A   1      43.302  42.030  31.269  1.00  0.00     0.198 A 
ATOM     81  C   UNL A   1      44.931  42.133  33.028  1.00  0.00     0.198 A 
ATOM     82  F   UNL A   1      46.323  40.287  33.454  1.00  0.00    -0.203 F 
ATOM     83  F   UNL A   1      42.351  42.621  30.530  1.00  0.00    -0.200 F 
ATOM     84  C   UNL A   1      43.924  42.735  32.287  1.00  0.00     0.200 A 
ATOM     85  F   UNL A   1      45.525  42.808  34.021  1.00  0.00    -0.200 F 
ATOM     86  F   UNL A   1      43.561  43.997  32.551  1.00  0.00    -0.200 F 
ENDBRANCH  62  76
BRANCH  63  87
ATOM     87  C   UNL A   1      47.170  30.540  30.093  1.00  0.00     0.064 A 
ATOM     88  C   UNL A   1      46.491  29.784  29.126  1.00  0.00     0.173 A 
ATOM     89  C   UNL A   1      48.183  29.902  30.823  1.00  0.00     0.173 A 
ATOM     90  F   UNL A   1      45.495  30.339  28.419  1.00  0.00    -0.203 F 
ATOM     91  C   UNL A   1      46.796  28.440  28.917  1.00  0.00     0.198 A 
ATOM     92  C   UNL A   1      48.510  28.567  30.590  1.00  0.00     0.198 A 
ATOM     93  F   UNL A   1      48.861  30.576  31.763  1.00  0.00    -0.203 F 
ATOM     94  F   UNL A   1      46.092  27.727  28.027  1.00  0.00    -0.200 F 
ATOM     95  C   UNL A   1      47.809  27.834  29.644  1.00  0.00     0.200 A 
ATOM     96  F   UNL A   1      49.497  27.990  31.288  1.00  0.00    -0.200 F 
ATOM     97  F   UNL A   1      48.102  26.543  29.443  1.00  0.00    -0.200 F 
ENDBRANCH  63  87
BRANCH  75  98
ATOM     98  C   UNL A   1      49.400  36.610  27.480  1.00  0.00     0.064 A 
ATOM     99  C   UNL A   1      50.717  36.911  27.859  1.00  0.00     0.173 A 
ATOM    100  C   UNL A   1      49.100  36.601  26.109  1.00  0.00     0.173 A 
ATOM    101  F   UNL A   1      51.056  36.944  29.158  1.00  0.00    -0.203 F 
ATOM    102  C   UNL A   1      51.682  37.226  26.907  1.00  0.00     0.198 A 
ATOM    103  C   UNL A   1      50.077  36.879  25.157  1.00  0.00     0.198 A 
ATOM    104  F   UNL A   1      47.859  36.310  25.689  1.00  0.00    -0.203 F 
ATOM    105  F   UNL A   1      52.917  37.570  27.296  1.00  0.00    -0.200 F 
ATOM    106  C   UNL A   1      51.364  37.203  25.557  1.00  0.00     0.200 A 
ATOM    107  F   UNL A   1      49.771  36.837  23.853  1.00  0.00    -0.200 F 
ATOM    108  F   UNL A   1      52.296  37.501  24.642  1.00  0.00    -0.200 F 
ENDBRANCH  75  98
ENDBRANCH  49  50
ENDBRANCH  42  44
ENDBRANCH  41  42
ENDBRANCH  40  41
ENDBRANCH  39  40
ENDBRANCH  38  39
ENDBRANCH  37  38
ENDBRANCH  36  37
ENDBRANCH  35  36
ENDBRANCH  34  35
ENDBRANCH   1  34
TORSDOF 25
ENDMDL
