MODEL 1
REMARK VINA RESULT:     -10.1      0.000      0.000
REMARK SMILES C/C=C(\C)[C@H]1C(C)=C[C@H]2CC[C@@H](OS(=O)(=O)[O-])[C@@H](C)[C@H]2[C@H]1/C=C/C=C/C(=O)OCCOCCOCCOCCOC(=O)c1ccc(-c2c3nc(c(-c4c(F)c(F)c(F)c(F)c4F)c4ccc([nH]4)c(-c4c(F)c(F)c(F)c(F)c4F)c4nc(c(-c5c(F)c(F)c(F)c(F)c5F)c5ccc2[nH]5)C=C4)C=C3)cc1
REMARK SMILES IDX 33 1 32 2 31 3 30 4 29 5 28 6 26 7 27 8 25 9 24 10 23 11
REMARK SMILES IDX 22 12 21 13 5 14 6 15 7 16 8 17 20 18 9 19 18 20 10 21 12 22
REMARK SMILES IDX 19 23 11 24 3 25 1 26 2 27 4 28 13 29 14 30 15 31 16 32
REMARK SMILES IDX 17 33 34 34 35 35 36 36 37 37 38 38 39 39 40 40 41 41 42 42
REMARK SMILES IDX 43 43 44 44 105 45 45 46 104 47 46 48 47 49 48 50 98 51
REMARK SMILES IDX 49 52 103 53 97 54 99 55 50 56 102 57 96 58 95 59 51 61
REMARK SMILES IDX 83 62 63 63 82 64 64 65 67 66 81 67 100 68 65 69 66 70 80 72
REMARK SMILES IDX 101 73 68 74 52 75 53 76 61 77 54 78 55 79 59 80 62 81 56 82
REMARK SMILES IDX 57 83 60 84 58 85 84 86 85 87 93 88 86 89 87 90 91 91 94 92
REMARK SMILES IDX 88 93 89 94 92 95 90 96 69 97 70 98 78 99 71 100 72 101
REMARK SMILES IDX 76 102 79 103 73 104 74 105 77 106 75 107
REMARK H PARENT 99 60 67 71
REMARK Flexibility Score: inf
ROOT
ATOM      1  C   UNL A   1      32.222  25.682  24.789  1.00  0.00     0.188 C 
ENDROOT
BRANCH   1   2
ATOM      2  C   UNL A   1      33.057  26.577  23.849  1.00  0.00     0.188 C 
BRANCH   2   3
ATOM      3  O   UNL A   1      32.277  27.397  23.006  1.00  0.00    -0.376 OA
BRANCH   3   4
ATOM      4  C   UNL A   1      32.021  28.758  23.286  1.00  0.00     0.202 C 
BRANCH   4   5
ATOM      5  C   UNL A   1      31.078  29.245  24.399  1.00  0.00     0.261 C 
BRANCH   5   6
ATOM      6  O   UNL A   1      31.566  29.171  25.733  1.00  0.00    -0.460 OA
BRANCH   6   7
ATOM      7  C   UNL A   1      31.947  30.363  26.225  1.00  0.00     0.330 C 
ATOM      8  O   UNL A   1      31.373  31.432  26.068  1.00  0.00    -0.247 OA
BRANCH   7   9
ATOM      9  C   UNL A   1      33.069  30.257  27.155  1.00  0.00     0.093 C 
ATOM     10  C   UNL A   1      34.246  29.612  27.092  1.00  0.00     0.007 C 
BRANCH  10  11
ATOM     11  C   UNL A   1      35.040  29.721  28.282  1.00  0.00    -0.004 C 
ATOM     12  C   UNL A   1      36.195  29.211  28.708  1.00  0.00    -0.022 C 
BRANCH  12  13
ATOM     13  C   UNL A   1      36.619  29.474  30.165  1.00  0.00     0.027 C 
ATOM     14  C   UNL A   1      38.161  29.259  30.558  1.00  0.00     0.047 C 
ATOM     15  C   UNL A   1      38.713  30.298  31.548  1.00  0.00    -0.069 C 
ATOM     16  C   UNL A   1      40.203  30.394  31.758  1.00  0.00     0.040 C 
ATOM     17  C   UNL A   1      37.900  31.086  32.284  1.00  0.00    -0.024 C 
ATOM     18  C   UNL A   1      35.965  30.804  30.721  1.00  0.00     0.009 C 
ATOM     19  C   UNL A   1      36.400  31.051  32.178  1.00  0.00     0.016 C 
ATOM     20  C   UNL A   1      36.049  32.116  29.858  1.00  0.00     0.021 C 
ATOM     21  C   UNL A   1      35.691  32.284  32.784  1.00  0.00     0.011 C 
ATOM     22  C   UNL A   1      35.188  33.228  30.489  1.00  0.00     0.141 C 
ATOM     23  C   UNL A   1      37.448  32.685  29.540  1.00  0.00     0.011 C 
ATOM     24  C   UNL A   1      35.672  33.536  31.907  1.00  0.00     0.034 C 
BRANCH  14  25
ATOM     25  C   UNL A   1      39.077  28.882  29.360  1.00  0.00    -0.070 C 
ATOM     26  C   UNL A   1      39.767  29.209  26.903  1.00  0.00     0.035 C 
ATOM     27  C   UNL A   1      39.135  29.585  28.206  1.00  0.00    -0.031 C 
ATOM     28  C   UNL A   1      39.830  27.585  29.570  1.00  0.00     0.040 C 
ENDBRANCH  14  25
BRANCH  22  29
ATOM     29  O   UNL A   1      35.302  34.375  29.651  1.00  0.00    -0.276 OA
BRANCH  29  30
ATOM     30  S   UNL A   1      34.173  34.694  28.541  1.00  0.00     0.217 S 
ATOM     31  O   UNL A   1      34.557  34.119  27.277  1.00  0.00    -0.213 OA
ATOM     32  O   UNL A   1      32.871  34.452  29.131  1.00  0.00    -0.213 OA
ATOM     33  O   UNL A   1      34.278  36.294  28.388  1.00  0.00    -0.726 OA
ENDBRANCH  29  30
ENDBRANCH  22  29
ENDBRANCH  12  13
ENDBRANCH  10  11
ENDBRANCH   7   9
ENDBRANCH   6   7
ENDBRANCH   5   6
ENDBRANCH   4   5
ENDBRANCH   3   4
ENDBRANCH   2   3
ENDBRANCH   1   2
BRANCH   1  34
ATOM     34  O   UNL A   1      32.724  24.397  25.138  1.00  0.00    -0.377 OA
BRANCH  34  35
ATOM     35  C   UNL A   1      34.088  24.247  25.532  1.00  0.00     0.188 C 
BRANCH  35  36
ATOM     36  C   UNL A   1      34.788  22.868  25.586  1.00  0.00     0.188 C 
BRANCH  36  37
ATOM     37  O   UNL A   1      36.199  22.920  25.504  1.00  0.00    -0.376 OA
BRANCH  37  38
ATOM     38  C   UNL A   1      36.843  21.939  24.712  1.00  0.00     0.202 C 
BRANCH  38  39
ATOM     39  C   UNL A   1      37.850  21.021  25.420  1.00  0.00     0.261 C 
BRANCH  39  40
ATOM     40  O   UNL A   1      39.169  21.555  25.628  1.00  0.00    -0.460 OA
BRANCH  40  41
ATOM     41  C   UNL A   1      40.147  20.704  26.014  1.00  0.00     0.338 C 
ATOM     42  O   UNL A   1      40.187  19.500  25.849  1.00  0.00    -0.246 OA
BRANCH  41  43
ATOM     43  C   UNL A   1      41.266  21.530  26.519  1.00  0.00     0.060 A 
ATOM     44  C   UNL A   1      40.995  22.717  27.215  1.00  0.00     0.016 A 
ATOM     45  C   UNL A   1      42.584  21.103  26.345  1.00  0.00     0.016 A 
ATOM     46  C   UNL A   1      42.043  23.474  27.747  1.00  0.00     0.010 A 
ATOM     47  C   UNL A   1      43.631  21.875  26.855  1.00  0.00     0.010 A 
ATOM     48  C   UNL A   1      43.369  23.068  27.552  1.00  0.00    -0.014 A 
BRANCH  48  49
ATOM     49  C   UNL A   1      44.501  23.932  27.971  1.00  0.00     0.031 A 
ATOM     50  C   UNL A   1      44.694  24.218  29.432  1.00  0.00     0.074 A 
ATOM     51  C   UNL A   1      45.326  24.484  27.063  1.00  0.00     0.049 A 
ATOM     52  N   UNL A   1      45.522  25.045  30.019  1.00  0.00    -0.248 NA
ATOM     53  C   UNL A   1      43.830  23.471  30.359  1.00  0.00     0.031 C 
ATOM     54  C   UNL A   1      45.275  24.248  25.622  1.00  0.00     0.029 A 
ATOM     55  N   UNL A   1      46.357  25.378  27.222  1.00  0.00    -0.354 N 
ATOM     56  C   UNL A   1      45.271  24.926  31.379  1.00  0.00     0.074 A 
ATOM     57  C   UNL A   1      44.199  23.965  31.530  1.00  0.00     0.031 C 
ATOM     58  C   UNL A   1      46.216  24.999  25.024  1.00  0.00     0.029 A 
ATOM     59  C   UNL A   1      46.903  25.803  26.035  1.00  0.00     0.049 A 
ATOM     60  H   UNL A   1      46.674  25.686  28.102  1.00  0.00     0.167 HD
ATOM     61  C   UNL A   1      45.883  25.562  32.407  1.00  0.00     0.037 A 
ATOM     62  C   UNL A   1      47.821  26.761  25.792  1.00  0.00     0.037 A 
ATOM     63  C   UNL A   1      46.942  26.525  32.250  1.00  0.00     0.049 A 
ATOM     64  C   UNL A   1      48.411  27.531  26.947  1.00  0.00     0.074 A 
ATOM     65  C   UNL A   1      47.643  27.204  33.230  1.00  0.00     0.029 A 
ATOM     66  N   UNL A   1      47.441  26.958  31.030  1.00  0.00    -0.354 N 
ATOM     67  N   UNL A   1      48.196  27.394  28.234  1.00  0.00    -0.248 NA
ATOM     68  C   UNL A   1      49.370  28.595  26.614  1.00  0.00     0.031 C 
ATOM     69  C   UNL A   1      48.517  28.098  32.605  1.00  0.00     0.029 A 
ATOM     70  C   UNL A   1      48.409  27.929  31.234  1.00  0.00     0.049 A 
ATOM     71  H   UNL A   1      47.150  26.626  30.150  1.00  0.00     0.167 HD
ATOM     72  C   UNL A   1      49.003  28.335  28.862  1.00  0.00     0.074 A 
ATOM     73  C   UNL A   1      49.732  29.022  27.816  1.00  0.00     0.031 C 
ATOM     74  C   UNL A   1      49.127  28.608  30.183  1.00  0.00     0.037 A 
BRANCH  61  75
ATOM     75  C   UNL A   1      45.397  25.264  33.796  1.00  0.00     0.064 A 
ATOM     76  C   UNL A   1      44.298  25.931  34.357  1.00  0.00     0.173 A 
ATOM     77  C   UNL A   1      46.017  24.265  34.563  1.00  0.00     0.173 A 
ATOM     78  F   UNL A   1      43.676  26.902  33.670  1.00  0.00    -0.203 F 
ATOM     79  C   UNL A   1      43.855  25.629  35.642  1.00  0.00     0.198 A 
ATOM     80  C   UNL A   1      45.551  23.943  35.835  1.00  0.00     0.198 A 
ATOM     81  F   UNL A   1      47.070  23.592  34.075  1.00  0.00    -0.203 F 
ATOM     82  F   UNL A   1      42.833  26.314  36.175  1.00  0.00    -0.200 F 
ATOM     83  C   UNL A   1      44.476  24.631  36.377  1.00  0.00     0.200 A 
ATOM     84  F   UNL A   1      46.144  22.967  36.537  1.00  0.00    -0.200 F 
ATOM     85  F   UNL A   1      44.043  24.335  37.610  1.00  0.00    -0.200 F 
ENDBRANCH  61  75
BRANCH  62  86
ATOM     86  C   UNL A   1      48.216  27.078  24.392  1.00  0.00     0.064 A 
ATOM     87  C   UNL A   1      49.463  26.686  23.886  1.00  0.00     0.173 A 
ATOM     88  C   UNL A   1      47.369  27.806  23.542  1.00  0.00     0.173 A 
ATOM     89  F   UNL A   1      50.322  26.016  24.668  1.00  0.00    -0.203 F 
ATOM     90  C   UNL A   1      49.855  27.025  22.592  1.00  0.00     0.198 A 
ATOM     91  C   UNL A   1      47.748  28.115  22.238  1.00  0.00     0.198 A 
ATOM     92  F   UNL A   1      46.168  28.214  23.978  1.00  0.00    -0.203 F 
ATOM     93  F   UNL A   1      51.074  26.685  22.154  1.00  0.00    -0.200 F 
ATOM     94  C   UNL A   1      48.994  27.733  21.766  1.00  0.00     0.200 A 
ATOM     95  F   UNL A   1      46.909  28.790  21.440  1.00  0.00    -0.200 F 
ATOM     96  F   UNL A   1      49.371  28.055  20.521  1.00  0.00    -0.200 F 
ENDBRANCH  62  86
BRANCH  74  97
ATOM     97  C   UNL A   1      50.098  29.686  30.583  1.00  0.00     0.064 A 
ATOM     98  C   UNL A   1      51.453  29.405  30.815  1.00  0.00     0.173 A 
ATOM     99  C   UNL A   1      49.679  31.021  30.688  1.00  0.00     0.173 A 
ATOM    100  F   UNL A   1      51.903  28.143  30.742  1.00  0.00    -0.203 F 
ATOM    101  C   UNL A   1      52.346  30.417  31.157  1.00  0.00     0.198 A 
ATOM    102  C   UNL A   1      50.582  32.035  30.997  1.00  0.00     0.198 A 
ATOM    103  F   UNL A   1      48.395  31.347  30.470  1.00  0.00    -0.203 F 
ATOM    104  F   UNL A   1      53.625  30.118  31.421  1.00  0.00    -0.200 F 
ATOM    105  C   UNL A   1      51.912  31.732  31.239  1.00  0.00     0.200 A 
ATOM    106  F   UNL A   1      50.163  33.307  31.058  1.00  0.00    -0.200 F 
ATOM    107  F   UNL A   1      52.776  32.706  31.557  1.00  0.00    -0.200 F 
ENDBRANCH  74  97
ENDBRANCH  48  49
ENDBRANCH  41  43
ENDBRANCH  40  41
ENDBRANCH  39  40
ENDBRANCH  38  39
ENDBRANCH  37  38
ENDBRANCH  36  37
ENDBRANCH  35  36
ENDBRANCH  34  35
ENDBRANCH   1  34
TORSDOF 25
ENDMDL
MODEL 2
REMARK VINA RESULT:      -9.7      5.983     12.995
REMARK SMILES C/C=C(\C)[C@H]1C(C)=C[C@H]2CC[C@@H](OS(=O)(=O)[O-])[C@@H](C)[C@H]2[C@H]1/C=C/C=C/C(=O)OCCOCCOCCOCCOC(=O)c1ccc(-c2c3nc(c(-c4c(F)c(F)c(F)c(F)c4F)c4ccc([nH]4)c(-c4c(F)c(F)c(F)c(F)c4F)c4nc(c(-c5c(F)c(F)c(F)c(F)c5F)c5ccc2[nH]5)C=C4)C=C3)cc1
REMARK SMILES IDX 33 1 32 2 31 3 30 4 29 5 28 6 26 7 27 8 25 9 24 10 23 11
REMARK SMILES IDX 22 12 21 13 5 14 6 15 7 16 8 17 20 18 9 19 18 20 10 21 12 22
REMARK SMILES IDX 19 23 11 24 3 25 1 26 2 27 4 28 13 29 14 30 15 31 16 32
REMARK SMILES IDX 17 33 34 34 35 35 36 36 37 37 38 38 39 39 40 40 41 41 42 42
REMARK SMILES IDX 43 43 44 44 105 45 45 46 104 47 46 48 47 49 48 50 98 51
REMARK SMILES IDX 49 52 103 53 97 54 99 55 50 56 102 57 96 58 95 59 51 61
REMARK SMILES IDX 83 62 63 63 82 64 64 65 67 66 81 67 100 68 65 69 66 70 80 72
REMARK SMILES IDX 101 73 68 74 52 75 53 76 61 77 54 78 55 79 59 80 62 81 56 82
REMARK SMILES IDX 57 83 60 84 58 85 84 86 85 87 93 88 86 89 87 90 91 91 94 92
REMARK SMILES IDX 88 93 89 94 92 95 90 96 69 97 70 98 78 99 71 100 72 101
REMARK SMILES IDX 76 102 79 103 73 104 74 105 77 106 75 107
REMARK H PARENT 99 60 67 71
REMARK Flexibility Score: inf
ROOT
ATOM      1  C   UNL A   1      49.737  25.549  28.164  1.00  0.00     0.188 C 
ENDROOT
BRANCH   1   2
ATOM      2  C   UNL A   1      48.840  25.166  26.967  1.00  0.00     0.188 C 
BRANCH   2   3
ATOM      3  O   UNL A   1      49.533  25.093  25.739  1.00  0.00    -0.376 OA
BRANCH   3   4
ATOM      4  C   UNL A   1      49.921  26.241  25.011  1.00  0.00     0.202 C 
BRANCH   4   5
ATOM      5  C   UNL A   1      49.481  27.672  25.364  1.00  0.00     0.261 C 
BRANCH   5   6
ATOM      6  O   UNL A   1      48.382  28.204  24.635  1.00  0.00    -0.460 OA
BRANCH   6   7
ATOM      7  C   UNL A   1      47.194  27.720  25.039  1.00  0.00     0.330 C 
ATOM      8  O   UNL A   1      46.575  26.794  24.530  1.00  0.00    -0.247 OA
BRANCH   7   9
ATOM      9  C   UNL A   1      46.747  28.300  26.303  1.00  0.00     0.093 C 
ATOM     10  C   UNL A   1      46.365  27.755  27.470  1.00  0.00     0.007 C 
BRANCH  10  11
ATOM     11  C   UNL A   1      45.928  28.708  28.449  1.00  0.00    -0.004 C 
ATOM     12  C   UNL A   1      46.488  29.720  29.112  1.00  0.00    -0.022 C 
BRANCH  12  13
ATOM     13  C   UNL A   1      45.675  30.403  30.227  1.00  0.00     0.027 C 
ATOM     14  C   UNL A   1      46.465  30.960  31.510  1.00  0.00     0.047 C 
ATOM     15  C   UNL A   1      45.932  32.298  32.050  1.00  0.00    -0.069 C 
ATOM     16  C   UNL A   1      46.761  33.071  33.043  1.00  0.00     0.040 C 
ATOM     17  C   UNL A   1      44.713  32.770  31.711  1.00  0.00    -0.024 C 
ATOM     18  C   UNL A   1      44.593  31.390  29.626  1.00  0.00     0.009 C 
ATOM     19  C   UNL A   1      43.791  32.063  30.755  1.00  0.00     0.016 C 
ATOM     20  C   UNL A   1      45.030  32.424  28.524  1.00  0.00     0.021 C 
ATOM     21  C   UNL A   1      42.654  32.951  30.196  1.00  0.00     0.011 C 
ATOM     22  C   UNL A   1      43.795  33.142  27.944  1.00  0.00     0.141 C 
ATOM     23  C   UNL A   1      46.092  33.479  28.902  1.00  0.00     0.011 C 
ATOM     24  C   UNL A   1      43.043  33.884  29.051  1.00  0.00     0.034 C 
BRANCH  14  25
ATOM     25  C   UNL A   1      48.009  30.809  31.422  1.00  0.00    -0.070 C 
ATOM     26  C   UNL A   1      50.221  29.975  32.438  1.00  0.00     0.035 C 
ATOM     27  C   UNL A   1      48.737  30.024  32.248  1.00  0.00    -0.031 C 
ATOM     28  C   UNL A   1      48.638  31.709  30.380  1.00  0.00     0.040 C 
ENDBRANCH  14  25
BRANCH  22  29
ATOM     29  O   UNL A   1      44.264  34.048  26.951  1.00  0.00    -0.276 OA
BRANCH  29  30
ATOM     30  S   UNL A   1      44.373  33.587  25.406  1.00  0.00     0.217 S 
ATOM     31  O   UNL A   1      44.678  32.181  25.339  1.00  0.00    -0.213 OA
ATOM     32  O   UNL A   1      43.262  34.168  24.678  1.00  0.00    -0.213 OA
ATOM     33  O   UNL A   1      45.676  34.382  24.896  1.00  0.00    -0.726 OA
ENDBRANCH  29  30
ENDBRANCH  22  29
ENDBRANCH  12  13
ENDBRANCH  10  11
ENDBRANCH   7   9
ENDBRANCH   6   7
ENDBRANCH   5   6
ENDBRANCH   4   5
ENDBRANCH   3   4
ENDBRANCH   2   3
ENDBRANCH   1   2
BRANCH   1  34
ATOM     34  O   UNL A   1      49.454  26.747  28.876  1.00  0.00    -0.377 OA
BRANCH  34  35
ATOM     35  C   UNL A   1      49.344  26.721  30.300  1.00  0.00     0.188 C 
BRANCH  35  36
ATOM     36  C   UNL A   1      50.574  26.859  31.229  1.00  0.00     0.188 C 
BRANCH  36  37
ATOM     37  O   UNL A   1      50.572  25.986  32.342  1.00  0.00    -0.376 OA
BRANCH  37  38
ATOM     38  C   UNL A   1      49.324  25.464  32.759  1.00  0.00     0.202 C 
BRANCH  38  39
ATOM     39  C   UNL A   1      49.286  24.740  34.113  1.00  0.00     0.261 C 
BRANCH  39  40
ATOM     40  O   UNL A   1      48.329  25.223  35.072  1.00  0.00    -0.460 OA
BRANCH  40  41
ATOM     41  C   UNL A   1      48.279  26.554  35.306  1.00  0.00     0.338 C 
ATOM     42  O   UNL A   1      49.176  27.269  35.708  1.00  0.00    -0.246 OA
BRANCH  41  43
ATOM     43  C   UNL A   1      46.971  27.033  34.806  1.00  0.00     0.060 A 
ATOM     44  C   UNL A   1      45.863  26.174  34.824  1.00  0.00     0.016 A 
ATOM     45  C   UNL A   1      46.831  28.350  34.364  1.00  0.00     0.016 A 
ATOM     46  C   UNL A   1      44.610  26.635  34.409  1.00  0.00     0.010 A 
ATOM     47  C   UNL A   1      45.584  28.801  33.924  1.00  0.00     0.010 A 
ATOM     48  C   UNL A   1      44.468  27.945  33.936  1.00  0.00    -0.014 A 
BRANCH  48  49
ATOM     49  C   UNL A   1      43.187  28.409  33.345  1.00  0.00     0.031 A 
ATOM     50  C   UNL A   1      42.877  28.058  31.919  1.00  0.00     0.074 A 
ATOM     51  C   UNL A   1      42.327  29.162  34.055  1.00  0.00     0.049 A 
ATOM     52  N   UNL A   1      41.893  28.462  31.155  1.00  0.00    -0.248 NA
ATOM     53  C   UNL A   1      43.806  27.125  31.263  1.00  0.00     0.031 C 
ATOM     54  C   UNL A   1      42.490  29.531  35.459  1.00  0.00     0.029 A 
ATOM     55  N   UNL A   1      41.155  29.771  33.678  1.00  0.00    -0.354 N 
ATOM     56  C   UNL A   1      42.092  27.843  29.928  1.00  0.00     0.074 A 
ATOM     57  C   UNL A   1      43.301  27.055  30.041  1.00  0.00     0.031 C 
ATOM     58  C   UNL A   1      41.467  30.325  35.821  1.00  0.00     0.029 A 
ATOM     59  C   UNL A   1      40.606  30.557  34.662  1.00  0.00     0.049 A 
ATOM     60  H   UNL A   1      40.747  29.655  32.790  1.00  0.00     0.167 HD
ATOM     61  C   UNL A   1      41.332  27.926  28.810  1.00  0.00     0.037 A 
ATOM     62  C   UNL A   1      39.553  31.400  34.617  1.00  0.00     0.037 A 
ATOM     63  C   UNL A   1      40.136  28.720  28.700  1.00  0.00     0.049 A 
ATOM     64  C   UNL A   1      38.785  31.557  33.328  1.00  0.00     0.074 A 
ATOM     65  C   UNL A   1      39.282  28.849  27.618  1.00  0.00     0.029 A 
ATOM     66  N   UNL A   1      39.633  29.534  29.704  1.00  0.00    -0.354 N 
ATOM     67  N   UNL A   1      38.956  30.946  32.179  1.00  0.00    -0.248 NA
ATOM     68  C   UNL A   1      37.679  32.526  33.328  1.00  0.00     0.031 C 
ATOM     69  C   UNL A   1      38.303  29.793  27.943  1.00  0.00     0.029 A 
ATOM     70  C   UNL A   1      38.506  30.203  29.251  1.00  0.00     0.049 A 
ATOM     71  H   UNL A   1      40.019  29.624  30.605  1.00  0.00     0.167 HD
ATOM     72  C   UNL A   1      37.971  31.440  31.331  1.00  0.00     0.074 A 
ATOM     73  C   UNL A   1      37.191  32.383  32.103  1.00  0.00     0.031 C 
ATOM     74  C   UNL A   1      37.738  31.143  30.029  1.00  0.00     0.037 A 
BRANCH  61  75
ATOM     75  C   UNL A   1      41.791  27.165  27.599  1.00  0.00     0.064 A 
ATOM     76  C   UNL A   1      42.629  27.742  26.634  1.00  0.00     0.173 A 
ATOM     77  C   UNL A   1      41.418  25.823  27.424  1.00  0.00     0.173 A 
ATOM     78  F   UNL A   1      43.005  29.025  26.747  1.00  0.00    -0.203 F 
ATOM     79  C   UNL A   1      43.054  27.014  25.526  1.00  0.00     0.198 A 
ATOM     80  C   UNL A   1      41.873  25.088  26.332  1.00  0.00     0.198 A 
ATOM     81  F   UNL A   1      40.622  25.219  28.319  1.00  0.00    -0.203 F 
ATOM     82  F   UNL A   1      43.814  27.602  24.592  1.00  0.00    -0.200 F 
ATOM     83  C   UNL A   1      42.683  25.686  25.380  1.00  0.00     0.200 A 
ATOM     84  F   UNL A   1      41.524  23.800  26.202  1.00  0.00    -0.200 F 
ATOM     85  F   UNL A   1      43.100  24.984  24.318  1.00  0.00    -0.200 F 
ENDBRANCH  61  75
BRANCH  62  86
ATOM     86  C   UNL A   1      39.181  32.195  35.819  1.00  0.00     0.064 A 
ATOM     87  C   UNL A   1      39.752  33.452  36.061  1.00  0.00     0.173 A 
ATOM     88  C   UNL A   1      38.272  31.701  36.768  1.00  0.00     0.173 A 
ATOM     89  F   UNL A   1      40.651  33.955  35.202  1.00  0.00    -0.203 F 
ATOM     90  C   UNL A   1      39.444  34.175  37.212  1.00  0.00     0.198 A 
ATOM     91  C   UNL A   1      37.939  32.439  37.901  1.00  0.00     0.198 A 
ATOM     92  F   UNL A   1      37.703  30.499  36.592  1.00  0.00    -0.203 F 
ATOM     93  F   UNL A   1      40.047  35.349  37.443  1.00  0.00    -0.200 F 
ATOM     94  C   UNL A   1      38.532  33.672  38.127  1.00  0.00     0.200 A 
ATOM     95  F   UNL A   1      37.049  31.954  38.777  1.00  0.00    -0.200 F 
ATOM     96  F   UNL A   1      38.233  34.370  39.231  1.00  0.00    -0.200 F 
ENDBRANCH  62  86
BRANCH  74  97
ATOM     97  C   UNL A   1      36.581  31.829  29.355  1.00  0.00     0.064 A 
ATOM     98  C   UNL A   1      35.431  31.123  28.969  1.00  0.00     0.173 A 
ATOM     99  C   UNL A   1      36.602  33.215  29.139  1.00  0.00     0.173 A 
ATOM    100  F   UNL A   1      35.366  29.794  29.139  1.00  0.00    -0.203 F 
ATOM    101  C   UNL A   1      34.358  31.777  28.370  1.00  0.00     0.198 A 
ATOM    102  C   UNL A   1      35.511  33.870  28.572  1.00  0.00     0.198 A 
ATOM    103  F   UNL A   1      37.673  33.941  29.496  1.00  0.00    -0.203 F 
ATOM    104  F   UNL A   1      33.290  31.075  27.966  1.00  0.00    -0.200 F 
ATOM    105  C   UNL A   1      34.394  33.150  28.182  1.00  0.00     0.200 A 
ATOM    106  F   UNL A   1      35.542  35.200  28.407  1.00  0.00    -0.200 F 
ATOM    107  F   UNL A   1      33.353  33.778  27.617  1.00  0.00    -0.200 F 
ENDBRANCH  74  97
ENDBRANCH  48  49
ENDBRANCH  41  43
ENDBRANCH  40  41
ENDBRANCH  39  40
ENDBRANCH  38  39
ENDBRANCH  37  38
ENDBRANCH  36  37
ENDBRANCH  35  36
ENDBRANCH  34  35
ENDBRANCH   1  34
TORSDOF 25
ENDMDL
MODEL 3
REMARK VINA RESULT:      -9.5      3.785      6.948
REMARK SMILES C/C=C(\C)[C@H]1C(C)=C[C@H]2CC[C@@H](OS(=O)(=O)[O-])[C@@H](C)[C@H]2[C@H]1/C=C/C=C/C(=O)OCCOCCOCCOCCOC(=O)c1ccc(-c2c3nc(c(-c4c(F)c(F)c(F)c(F)c4F)c4ccc([nH]4)c(-c4c(F)c(F)c(F)c(F)c4F)c4nc(c(-c5c(F)c(F)c(F)c(F)c5F)c5ccc2[nH]5)C=C4)C=C3)cc1
REMARK SMILES IDX 33 1 32 2 31 3 30 4 29 5 28 6 26 7 27 8 25 9 24 10 23 11
REMARK SMILES IDX 22 12 21 13 5 14 6 15 7 16 8 17 20 18 9 19 18 20 10 21 12 22
REMARK SMILES IDX 19 23 11 24 3 25 1 26 2 27 4 28 13 29 14 30 15 31 16 32
REMARK SMILES IDX 17 33 34 34 35 35 36 36 37 37 38 38 39 39 40 40 41 41 42 42
REMARK SMILES IDX 43 43 44 44 105 45 45 46 104 47 46 48 47 49 48 50 98 51
REMARK SMILES IDX 49 52 103 53 97 54 99 55 50 56 102 57 96 58 95 59 51 61
REMARK SMILES IDX 83 62 63 63 82 64 64 65 67 66 81 67 100 68 65 69 66 70 80 72
REMARK SMILES IDX 101 73 68 74 52 75 53 76 61 77 54 78 55 79 59 80 62 81 56 82
REMARK SMILES IDX 57 83 60 84 58 85 84 86 85 87 93 88 86 89 87 90 91 91 94 92
REMARK SMILES IDX 88 93 89 94 92 95 90 96 69 97 70 98 78 99 71 100 72 101
REMARK SMILES IDX 76 102 79 103 73 104 74 105 77 106 75 107
REMARK H PARENT 99 60 67 71
REMARK Flexibility Score: inf
ROOT
ATOM      1  C   UNL A   1      33.697  23.600  23.286  1.00  0.00     0.188 C 
ENDROOT
BRANCH   1   2
ATOM      2  C   UNL A   1      34.046  25.104  23.265  1.00  0.00     0.188 C 
BRANCH   2   3
ATOM      3  O   UNL A   1      32.999  25.922  22.787  1.00  0.00    -0.376 OA
BRANCH   3   4
ATOM      4  C   UNL A   1      33.121  27.324  22.661  1.00  0.00     0.202 C 
BRANCH   4   5
ATOM      5  C   UNL A   1      33.957  28.203  23.606  1.00  0.00     0.261 C 
BRANCH   5   6
ATOM      6  O   UNL A   1      33.254  29.177  24.368  1.00  0.00    -0.460 OA
BRANCH   6   7
ATOM      7  C   UNL A   1      32.782  28.699  25.533  1.00  0.00     0.330 C 
ATOM      8  O   UNL A   1      31.884  27.879  25.672  1.00  0.00    -0.247 OA
BRANCH   7   9
ATOM      9  C   UNL A   1      33.575  29.127  26.682  1.00  0.00     0.093 C 
ATOM     10  C   UNL A   1      34.892  29.086  26.945  1.00  0.00     0.007 C 
BRANCH  10  11
ATOM     11  C   UNL A   1      35.246  29.560  28.252  1.00  0.00    -0.004 C 
ATOM     12  C   UNL A   1      36.026  30.524  28.738  1.00  0.00    -0.022 C 
BRANCH  12  13
ATOM     13  C   UNL A   1      36.252  30.586  30.261  1.00  0.00     0.027 C 
ATOM     14  C   UNL A   1      37.752  30.433  30.812  1.00  0.00     0.047 C 
ATOM     15  C   UNL A   1      38.084  31.342  32.008  1.00  0.00    -0.069 C 
ATOM     16  C   UNL A   1      39.523  31.519  32.419  1.00  0.00     0.040 C 
ATOM     17  C   UNL A   1      37.118  31.936  32.742  1.00  0.00    -0.024 C 
ATOM     18  C   UNL A   1      35.412  31.755  30.919  1.00  0.00     0.009 C 
ATOM     19  C   UNL A   1      35.651  31.801  32.439  1.00  0.00     0.016 C 
ATOM     20  C   UNL A   1      35.466  33.190  30.277  1.00  0.00     0.021 C 
ATOM     21  C   UNL A   1      34.760  32.864  33.125  1.00  0.00     0.011 C 
ATOM     22  C   UNL A   1      34.434  34.117  30.949  1.00  0.00     0.141 C 
ATOM     23  C   UNL A   1      36.831  33.911  30.228  1.00  0.00     0.011 C 
ATOM     24  C   UNL A   1      34.720  34.232  32.447  1.00  0.00     0.034 C 
BRANCH  14  25
ATOM     25  C   UNL A   1      38.832  30.323  29.700  1.00  0.00    -0.070 C 
ATOM     26  C   UNL A   1      40.476  28.891  28.334  1.00  0.00     0.035 C 
ATOM     27  C   UNL A   1      39.288  29.149  29.207  1.00  0.00    -0.031 C 
ATOM     28  C   UNL A   1      39.402  31.663  29.287  1.00  0.00     0.040 C 
ENDBRANCH  14  25
BRANCH  22  29
ATOM     29  O   UNL A   1      34.532  35.387  30.312  1.00  0.00    -0.276 OA
BRANCH  29  30
ATOM     30  S   UNL A   1      33.690  35.697  28.968  1.00  0.00     0.217 S 
ATOM     31  O   UNL A   1      33.161  37.036  29.024  1.00  0.00    -0.213 OA
ATOM     32  O   UNL A   1      34.452  35.219  27.832  1.00  0.00    -0.213 OA
ATOM     33  O   UNL A   1      32.443  34.686  29.098  1.00  0.00    -0.726 OA
ENDBRANCH  29  30
ENDBRANCH  22  29
ENDBRANCH  12  13
ENDBRANCH  10  11
ENDBRANCH   7   9
ENDBRANCH   6   7
ENDBRANCH   5   6
ENDBRANCH   4   5
ENDBRANCH   3   4
ENDBRANCH   2   3
ENDBRANCH   1   2
BRANCH   1  34
ATOM     34  O   UNL A   1      34.713  22.666  23.632  1.00  0.00    -0.377 OA
BRANCH  34  35
ATOM     35  C   UNL A   1      36.034  23.124  23.922  1.00  0.00     0.188 C 
BRANCH  35  36
ATOM     36  C   UNL A   1      37.076  22.240  24.649  1.00  0.00     0.188 C 
BRANCH  36  37
ATOM     37  O   UNL A   1      37.621  22.815  25.820  1.00  0.00    -0.376 OA
BRANCH  37  38
ATOM     38  C   UNL A   1      38.960  22.488  26.145  1.00  0.00     0.202 C 
BRANCH  38  39
ATOM     39  C   UNL A   1      39.853  23.626  26.660  1.00  0.00     0.261 C 
BRANCH  39  40
ATOM     40  O   UNL A   1      41.264  23.495  26.415  1.00  0.00    -0.460 OA
BRANCH  40  41
ATOM     41  C   UNL A   1      42.097  23.484  27.480  1.00  0.00     0.338 C 
ATOM     42  O   UNL A   1      42.179  22.635  28.346  1.00  0.00    -0.246 OA
BRANCH  41  43
ATOM     43  C   UNL A   1      43.036  24.615  27.309  1.00  0.00     0.060 A 
ATOM     44  C   UNL A   1      43.658  25.178  28.433  1.00  0.00     0.016 A 
ATOM     45  C   UNL A   1      43.337  25.087  26.030  1.00  0.00     0.016 A 
ATOM     46  C   UNL A   1      44.592  26.207  28.277  1.00  0.00     0.010 A 
ATOM     47  C   UNL A   1      44.249  26.133  25.878  1.00  0.00     0.010 A 
ATOM     48  C   UNL A   1      44.877  26.706  27.000  1.00  0.00    -0.014 A 
BRANCH  48  49
ATOM     49  C   UNL A   1      45.744  27.898  26.822  1.00  0.00     0.031 A 
ATOM     50  C   UNL A   1      47.210  27.697  26.566  1.00  0.00     0.074 A 
ATOM     51  C   UNL A   1      45.242  29.142  26.921  1.00  0.00     0.049 A 
ATOM     52  N   UNL A   1      48.176  28.579  26.513  1.00  0.00    -0.248 NA
ATOM     53  C   UNL A   1      47.646  26.310  26.343  1.00  0.00     0.031 C 
ATOM     54  C   UNL A   1      43.832  29.470  27.119  1.00  0.00     0.029 A 
ATOM     55  N   UNL A   1      45.872  30.362  26.891  1.00  0.00    -0.354 N 
ATOM     56  C   UNL A   1      49.333  27.854  26.263  1.00  0.00     0.074 A 
ATOM     57  C   UNL A   1      48.953  26.459  26.197  1.00  0.00     0.031 C 
ATOM     58  C   UNL A   1      43.706  30.805  27.219  1.00  0.00     0.029 A 
ATOM     59  C   UNL A   1      45.031  31.420  27.138  1.00  0.00     0.049 A 
ATOM     60  H   UNL A   1      46.834  30.469  26.709  1.00  0.00     0.167 HD
ATOM     61  C   UNL A   1      50.597  28.314  26.102  1.00  0.00     0.037 A 
ATOM     62  C   UNL A   1      45.306  32.727  27.321  1.00  0.00     0.037 A 
ATOM     63  C   UNL A   1      50.970  29.703  26.180  1.00  0.00     0.049 A 
ATOM     64  C   UNL A   1      46.737  33.201  27.243  1.00  0.00     0.074 A 
ATOM     65  C   UNL A   1      52.220  30.271  26.005  1.00  0.00     0.029 A 
ATOM     66  N   UNL A   1      50.097  30.741  26.471  1.00  0.00    -0.354 N 
ATOM     67  N   UNL A   1      47.824  32.518  26.974  1.00  0.00    -0.248 NA
ATOM     68  C   UNL A   1      46.978  34.629  27.500  1.00  0.00     0.031 C 
ATOM     69  C   UNL A   1      52.117  31.642  26.259  1.00  0.00     0.029 A 
ATOM     70  C   UNL A   1      50.790  31.940  26.526  1.00  0.00     0.049 A 
ATOM     71  H   UNL A   1      49.129  30.640  26.618  1.00  0.00     0.167 HD
ATOM     72  C   UNL A   1      48.871  33.432  27.009  1.00  0.00     0.074 A 
ATOM     73  C   UNL A   1      48.286  34.724  27.301  1.00  0.00     0.031 C 
ATOM     74  C   UNL A   1      50.196  33.220  26.821  1.00  0.00     0.037 A 
BRANCH  61  75
ATOM     75  C   UNL A   1      51.680  27.302  25.862  1.00  0.00     0.064 A 
ATOM     76  C   UNL A   1      52.386  26.706  26.918  1.00  0.00     0.173 A 
ATOM     77  C   UNL A   1      51.987  26.892  24.555  1.00  0.00     0.173 A 
ATOM     78  F   UNL A   1      52.139  27.070  28.185  1.00  0.00    -0.203 F 
ATOM     79  C   UNL A   1      53.377  25.759  26.673  1.00  0.00     0.198 A 
ATOM     80  C   UNL A   1      52.956  25.920  24.317  1.00  0.00     0.198 A 
ATOM     81  F   UNL A   1      51.340  27.425  23.508  1.00  0.00    -0.203 F 
ATOM     82  F   UNL A   1      54.071  25.240  27.695  1.00  0.00    -0.200 F 
ATOM     83  C   UNL A   1      53.656  25.361  25.374  1.00  0.00     0.200 A 
ATOM     84  F   UNL A   1      53.212  25.526  23.061  1.00  0.00    -0.200 F 
ATOM     85  F   UNL A   1      54.603  24.443  25.142  1.00  0.00    -0.200 F 
ENDBRANCH  61  75
BRANCH  62  86
ATOM     86  C   UNL A   1      44.210  33.684  27.636  1.00  0.00     0.064 A 
ATOM     87  C   UNL A   1      43.723  34.571  26.665  1.00  0.00     0.173 A 
ATOM     88  C   UNL A   1      43.649  33.754  28.920  1.00  0.00     0.173 A 
ATOM     89  F   UNL A   1      44.248  34.566  25.431  1.00  0.00    -0.203 F 
ATOM     90  C   UNL A   1      42.732  35.501  26.970  1.00  0.00     0.198 A 
ATOM     91  C   UNL A   1      42.634  34.662  29.215  1.00  0.00     0.198 A 
ATOM     92  F   UNL A   1      44.084  32.937  29.890  1.00  0.00    -0.203 F 
ATOM     93  F   UNL A   1      42.325  36.372  26.037  1.00  0.00    -0.200 F 
ATOM     94  C   UNL A   1      42.183  35.542  28.243  1.00  0.00     0.200 A 
ATOM     95  F   UNL A   1      42.099  34.690  30.444  1.00  0.00    -0.200 F 
ATOM     96  F   UNL A   1      41.227  36.434  28.535  1.00  0.00    -0.200 F 
ENDBRANCH  62  86
BRANCH  74  97
ATOM     97  C   UNL A   1      51.110  34.412  26.907  1.00  0.00     0.064 A 
ATOM     98  C   UNL A   1      51.319  35.260  25.808  1.00  0.00     0.173 A 
ATOM     99  C   UNL A   1      51.746  34.739  28.115  1.00  0.00     0.173 A 
ATOM    100  F   UNL A   1      50.747  34.985  24.626  1.00  0.00    -0.203 F 
ATOM    101  C   UNL A   1      52.146  36.375  25.910  1.00  0.00     0.198 A 
ATOM    102  C   UNL A   1      52.545  35.874  28.222  1.00  0.00     0.198 A 
ATOM    103  F   UNL A   1      51.576  33.968  29.200  1.00  0.00    -0.203 F 
ATOM    104  F   UNL A   1      52.369  37.142  24.834  1.00  0.00    -0.200 F 
ATOM    105  C   UNL A   1      52.751  36.687  27.119  1.00  0.00     0.200 A 
ATOM    106  F   UNL A   1      53.113  36.183  29.396  1.00  0.00    -0.200 F 
ATOM    107  F   UNL A   1      53.537  37.767  27.217  1.00  0.00    -0.200 F 
ENDBRANCH  74  97
ENDBRANCH  48  49
ENDBRANCH  41  43
ENDBRANCH  40  41
ENDBRANCH  39  40
ENDBRANCH  38  39
ENDBRANCH  37  38
ENDBRANCH  36  37
ENDBRANCH  35  36
ENDBRANCH  34  35
ENDBRANCH   1  34
TORSDOF 25
ENDMDL
