MODEL 1
REMARK VINA RESULT:     -10.8      0.000      0.000
REMARK SMILES COc1cc(/C=C2/S/C(=[NH+]\C(C)=O)NC2=O)cc(Br)c1OCC(=O)OCCOCCOCCOCCOC(=O)c1ccc(-c2c3nc(c(-c4c(F)c(F)c(F)c(F)c4F)c4ccc([nH]4)c(-c4c(F)c(F)c(F)c(F)c4F)c4nc(c(-c5c(F)c(F)c(F)c(F)c5F)c5ccc2[nH]5)C=C4)C=C3)cc1
REMARK SMILES IDX 30 1 29 2 28 3 27 4 26 5 25 6 23 7 24 8 22 9 21 10 20 11
REMARK SMILES IDX 3 12 4 13 5 14 18 15 17 16 19 17 2 18 1 19 6 20 7 21 8 22
REMARK SMILES IDX 15 23 9 24 14 25 16 26 10 27 11 29 12 31 13 32 31 33 32 34
REMARK SMILES IDX 33 35 34 36 35 37 36 38 37 39 38 40 39 41 40 42 41 43 102 44
REMARK SMILES IDX 42 45 101 46 43 47 44 48 45 49 95 50 46 51 100 52 94 53
REMARK SMILES IDX 96 54 47 55 99 56 93 57 92 58 48 60 80 61 60 62 79 63 61 64
REMARK SMILES IDX 64 65 78 66 97 67 62 68 63 69 77 71 98 72 65 73 49 74 50 75
REMARK SMILES IDX 58 76 51 77 52 78 56 79 59 80 53 81 54 82 57 83 55 84 81 85
REMARK SMILES IDX 82 86 90 87 83 88 84 89 88 90 91 91 85 92 86 93 89 94 87 95
REMARK SMILES IDX 66 96 67 97 75 98 68 99 69 100 73 101 76 102 70 103 71 104
REMARK SMILES IDX 74 105 72 106
REMARK H PARENT 14 28 10 30 96 59 64 70
REMARK Flexibility Score: inf
ROOT
ATOM      1  C   UNL A   1      35.193  24.470  25.038  1.00  0.00     0.188 C 
ENDROOT
BRANCH   1   2
ATOM      2  C   UNL A   1      33.997  24.381  26.031  1.00  0.00     0.188 C 
BRANCH   2   3
ATOM      3  O   UNL A   1      33.204  25.518  26.346  1.00  0.00    -0.376 OA
BRANCH   3   4
ATOM      4  C   UNL A   1      33.788  26.775  26.111  1.00  0.00     0.202 C 
BRANCH   4   5
ATOM      5  C   UNL A   1      32.944  27.954  26.629  1.00  0.00     0.261 C 
BRANCH   5   6
ATOM      6  O   UNL A   1      33.129  29.223  25.936  1.00  0.00    -0.461 OA
BRANCH   6   7
ATOM      7  C   UNL A   1      32.049  30.036  25.735  1.00  0.00     0.344 C 
ATOM      8  O   UNL A   1      31.742  30.952  26.489  1.00  0.00    -0.248 OA
BRANCH   7   9
ATOM      9  C   UNL A   1      31.209  29.637  24.462  1.00  0.00     0.352 C 
BRANCH   9  10
ATOM     10  O   UNL A   1      30.498  28.413  24.280  1.00  0.00    -0.477 OA
BRANCH  10  11
ATOM     11  C   UNL A   1      30.884  27.242  23.658  1.00  0.00     0.176 A 
ATOM     12  C   UNL A   1      29.974  26.164  23.847  1.00  0.00     0.162 A 
ATOM     13  C   UNL A   1      30.336  24.806  23.591  1.00  0.00     0.058 A 
ATOM     14  C   UNL A   1      31.638  24.448  23.187  1.00  0.00    -0.019 A 
ATOM     15  C   UNL A   1      32.093  26.902  23.037  1.00  0.00     0.064 A 
ATOM     16  C   UNL A   1      32.467  25.527  22.833  1.00  0.00     0.028 A 
ATOM     17  Br  UNL A   1      33.355  28.178  22.413  1.00  0.00    -0.047 Br
BRANCH  12  18
ATOM     18  O   UNL A   1      28.692  26.531  24.202  1.00  0.00    -0.493 OA
ATOM     19  C   UNL A   1      28.039  27.503  23.396  1.00  0.00     0.278 C 
ENDBRANCH  12  18
BRANCH  14  20
ATOM     20  C   UNL A   1      32.064  22.996  23.061  1.00  0.00     0.032 C 
ATOM     21  C   UNL A   1      32.111  21.941  23.922  1.00  0.00     0.110 C 
ATOM     22  S   UNL A   1      32.733  20.327  23.529  1.00  0.00     0.007 SA
ATOM     23  C   UNL A   1      31.726  21.743  25.351  1.00  0.00     0.346 C 
ATOM     24  C   UNL A   1      32.831  19.870  25.227  1.00  0.00     0.324 C 
ATOM     25  N   UNL A   1      32.622  20.962  25.984  1.00  0.00    -0.199 N 
ATOM     26  O   UNL A   1      30.590  21.789  25.796  1.00  0.00    -0.240 OA
ATOM     27  N   UNL A   1      32.888  18.778  25.894  1.00  0.00    -0.204 N 
ATOM     28  H   UNL A   1      33.048  21.157  26.850  1.00  0.00     0.316 HD
ATOM     29  C   UNL A   1      32.643  17.531  25.405  1.00  0.00     0.304 C 
ATOM     30  H   UNL A   1      33.130  18.846  26.846  1.00  0.00     0.316 HD
ATOM     31  C   UNL A   1      33.429  17.029  24.238  1.00  0.00     0.144 C 
ATOM     32  O   UNL A   1      31.854  16.781  25.976  1.00  0.00    -0.247 OA
ENDBRANCH  14  20
ENDBRANCH  10  11
ENDBRANCH   9  10
ENDBRANCH   7   9
ENDBRANCH   6   7
ENDBRANCH   5   6
ENDBRANCH   4   5
ENDBRANCH   3   4
ENDBRANCH   2   3
ENDBRANCH   1   2
BRANCH   1  33
ATOM     33  O   UNL A   1      35.293  23.354  24.170  1.00  0.00    -0.377 OA
BRANCH  33  34
ATOM     34  C   UNL A   1      35.900  22.222  24.770  1.00  0.00     0.188 C 
BRANCH  34  35
ATOM     35  C   UNL A   1      37.217  22.546  25.476  1.00  0.00     0.188 C 
BRANCH  35  36
ATOM     36  O   UNL A   1      38.314  21.655  25.381  1.00  0.00    -0.376 OA
BRANCH  36  37
ATOM     37  C   UNL A   1      38.189  20.298  25.008  1.00  0.00     0.202 C 
BRANCH  37  38
ATOM     38  C   UNL A   1      39.199  19.245  25.445  1.00  0.00     0.261 C 
BRANCH  38  39
ATOM     39  O   UNL A   1      40.093  19.770  26.400  1.00  0.00    -0.460 OA
BRANCH  39  40
ATOM     40  C   UNL A   1      41.393  19.620  26.130  1.00  0.00     0.338 C 
ATOM     41  O   UNL A   1      42.053  18.595  26.025  1.00  0.00    -0.246 OA
BRANCH  40  42
ATOM     42  C   UNL A   1      41.898  20.945  26.469  1.00  0.00     0.060 A 
ATOM     43  C   UNL A   1      42.292  21.253  27.780  1.00  0.00     0.016 A 
ATOM     44  C   UNL A   1      42.176  21.791  25.393  1.00  0.00     0.016 A 
ATOM     45  C   UNL A   1      42.930  22.455  28.026  1.00  0.00     0.010 A 
ATOM     46  C   UNL A   1      42.818  22.989  25.637  1.00  0.00     0.010 A 
ATOM     47  C   UNL A   1      43.142  23.336  26.958  1.00  0.00    -0.014 A 
BRANCH  47  48
ATOM     48  C   UNL A   1      43.410  24.745  27.256  1.00  0.00     0.031 A 
ATOM     49  C   UNL A   1      44.798  25.233  26.969  1.00  0.00     0.074 A 
ATOM     50  C   UNL A   1      42.444  25.530  27.751  1.00  0.00     0.049 A 
ATOM     51  N   UNL A   1      45.325  26.406  27.176  1.00  0.00    -0.248 NA
ATOM     52  C   UNL A   1      45.728  24.250  26.377  1.00  0.00     0.031 C 
ATOM     53  C   UNL A   1      41.070  25.110  28.026  1.00  0.00     0.029 A 
ATOM     54  N   UNL A   1      42.479  26.845  28.116  1.00  0.00    -0.354 N 
ATOM     55  C   UNL A   1      46.641  26.298  26.747  1.00  0.00     0.074 A 
ATOM     56  C   UNL A   1      46.852  24.940  26.311  1.00  0.00     0.031 C 
ATOM     57  C   UNL A   1      40.391  26.156  28.527  1.00  0.00     0.029 A 
ATOM     58  C   UNL A   1      41.293  27.299  28.630  1.00  0.00     0.049 A 
ATOM     59  H   UNL A   1      43.280  27.410  28.020  1.00  0.00     0.167 HD
ATOM     60  C   UNL A   1      47.584  27.266  26.712  1.00  0.00     0.037 A 
ATOM     61  C   UNL A   1      40.998  28.510  29.136  1.00  0.00     0.037 A 
ATOM     62  C   UNL A   1      47.337  28.605  27.166  1.00  0.00     0.049 A 
ATOM     63  C   UNL A   1      42.079  29.561  29.122  1.00  0.00     0.074 A 
ATOM     64  C   UNL A   1      48.195  29.685  27.190  1.00  0.00     0.029 A 
ATOM     65  N   UNL A   1      46.121  29.039  27.685  1.00  0.00    -0.354 N 
ATOM     66  N   UNL A   1      43.317  29.469  28.694  1.00  0.00    -0.248 NA
ATOM     67  C   UNL A   1      41.720  30.881  29.648  1.00  0.00     0.031 C 
ATOM     68  C   UNL A   1      47.514  30.761  27.770  1.00  0.00     0.029 A 
ATOM     69  C   UNL A   1      46.212  30.369  28.051  1.00  0.00     0.049 A 
ATOM     70  H   UNL A   1      45.315  28.481  27.777  1.00  0.00     0.167 HD
ATOM     71  C   UNL A   1      43.880  30.725  28.872  1.00  0.00     0.074 A 
ATOM     72  C   UNL A   1      42.836  31.564  29.432  1.00  0.00     0.031 C 
ATOM     73  C   UNL A   1      45.139  31.156  28.603  1.00  0.00     0.037 A 
BRANCH  60  74
ATOM     74  C   UNL A   1      48.944  26.887  26.205  1.00  0.00     0.064 A 
ATOM     75  C   UNL A   1      49.322  27.094  24.869  1.00  0.00     0.173 A 
ATOM     76  C   UNL A   1      49.878  26.289  27.063  1.00  0.00     0.173 A 
ATOM     77  F   UNL A   1      48.455  27.635  23.998  1.00  0.00    -0.203 F 
ATOM     78  C   UNL A   1      50.572  26.694  24.405  1.00  0.00     0.198 A 
ATOM     79  C   UNL A   1      51.139  25.918  26.603  1.00  0.00     0.198 A 
ATOM     80  F   UNL A   1      49.565  26.053  28.346  1.00  0.00    -0.203 F 
ATOM     81  F   UNL A   1      50.888  26.849  23.111  1.00  0.00    -0.200 F 
ATOM     82  C   UNL A   1      51.483  26.113  25.275  1.00  0.00     0.200 A 
ATOM     83  F   UNL A   1      52.020  25.361  27.446  1.00  0.00    -0.200 F 
ATOM     84  F   UNL A   1      52.688  25.730  24.829  1.00  0.00    -0.200 F 
ENDBRANCH  60  74
BRANCH  61  85
ATOM     85  C   UNL A   1      39.639  28.785  29.667  1.00  0.00     0.064 A 
ATOM     86  C   UNL A   1      39.312  28.505  31.000  1.00  0.00     0.173 A 
ATOM     87  C   UNL A   1      38.640  29.347  28.857  1.00  0.00     0.173 A 
ATOM     88  F   UNL A   1      40.227  27.954  31.812  1.00  0.00    -0.203 F 
ATOM     89  C   UNL A   1      38.036  28.757  31.499  1.00  0.00     0.198 A 
ATOM     90  C   UNL A   1      37.372  29.626  29.364  1.00  0.00     0.198 A 
ATOM     91  F   UNL A   1      38.901  29.642  27.575  1.00  0.00    -0.203 F 
ATOM     92  F   UNL A   1      37.739  28.441  32.766  1.00  0.00    -0.200 F 
ATOM     93  C   UNL A   1      37.069  29.324  30.682  1.00  0.00     0.200 A 
ATOM     94  F   UNL A   1      36.447  30.189  28.575  1.00  0.00    -0.200 F 
ATOM     95  F   UNL A   1      35.843  29.574  31.164  1.00  0.00    -0.200 F 
ENDBRANCH  61  85
BRANCH  73  96
ATOM     96  C   UNL A   1      45.429  32.600  28.880  1.00  0.00     0.064 A 
ATOM     97  C   UNL A   1      45.183  33.596  27.923  1.00  0.00     0.173 A 
ATOM     98  C   UNL A   1      45.922  32.993  30.133  1.00  0.00     0.173 A 
ATOM     99  F   UNL A   1      44.722  33.266  26.708  1.00  0.00    -0.203 F 
ATOM    100  C   UNL A   1      45.458  34.931  28.200  1.00  0.00     0.198 A 
ATOM    101  C   UNL A   1      46.162  34.333  30.417  1.00  0.00     0.198 A 
ATOM    102  F   UNL A   1      46.160  32.077  31.084  1.00  0.00    -0.203 F 
ATOM    103  F   UNL A   1      45.274  35.861  27.252  1.00  0.00    -0.200 F 
ATOM    104  C   UNL A   1      45.939  35.299  29.448  1.00  0.00     0.200 A 
ATOM    105  F   UNL A   1      46.609  34.689  31.630  1.00  0.00    -0.200 F 
ATOM    106  F   UNL A   1      46.199  36.586  29.713  1.00  0.00    -0.200 F 
ENDBRANCH  73  96
ENDBRANCH  47  48
ENDBRANCH  40  42
ENDBRANCH  39  40
ENDBRANCH  38  39
ENDBRANCH  37  38
ENDBRANCH  36  37
ENDBRANCH  35  36
ENDBRANCH  34  35
ENDBRANCH  33  34
ENDBRANCH   1  33
TORSDOF 24
ENDMDL
MODEL 2
REMARK VINA RESULT:     -10.7      0.738      6.996
REMARK SMILES COc1cc(/C=C2/S/C(=[NH+]\C(C)=O)NC2=O)cc(Br)c1OCC(=O)OCCOCCOCCOCCOC(=O)c1ccc(-c2c3nc(c(-c4c(F)c(F)c(F)c(F)c4F)c4ccc([nH]4)c(-c4c(F)c(F)c(F)c(F)c4F)c4nc(c(-c5c(F)c(F)c(F)c(F)c5F)c5ccc2[nH]5)C=C4)C=C3)cc1
REMARK SMILES IDX 30 1 29 2 28 3 27 4 26 5 25 6 23 7 24 8 22 9 21 10 20 11
REMARK SMILES IDX 3 12 4 13 5 14 18 15 17 16 19 17 2 18 1 19 6 20 7 21 8 22
REMARK SMILES IDX 15 23 9 24 14 25 16 26 10 27 11 29 12 31 13 32 31 33 32 34
REMARK SMILES IDX 33 35 34 36 35 37 36 38 37 39 38 40 39 41 40 42 41 43 102 44
REMARK SMILES IDX 42 45 101 46 43 47 44 48 45 49 95 50 46 51 100 52 94 53
REMARK SMILES IDX 96 54 47 55 99 56 93 57 92 58 48 60 80 61 60 62 79 63 61 64
REMARK SMILES IDX 64 65 78 66 97 67 62 68 63 69 77 71 98 72 65 73 49 74 50 75
REMARK SMILES IDX 58 76 51 77 52 78 56 79 59 80 53 81 54 82 57 83 55 84 81 85
REMARK SMILES IDX 82 86 90 87 83 88 84 89 88 90 91 91 85 92 86 93 89 94 87 95
REMARK SMILES IDX 66 96 67 97 75 98 68 99 69 100 73 101 76 102 70 103 71 104
REMARK SMILES IDX 74 105 72 106
REMARK H PARENT 14 28 10 30 96 59 64 70
REMARK Flexibility Score: inf
ROOT
ATOM      1  C   UNL A   1      34.821  24.524  25.304  1.00  0.00     0.188 C 
ENDROOT
BRANCH   1   2
ATOM      2  C   UNL A   1      33.534  24.823  26.128  1.00  0.00     0.188 C 
BRANCH   2   3
ATOM      3  O   UNL A   1      33.084  26.153  26.350  1.00  0.00    -0.376 OA
BRANCH   3   4
ATOM      4  C   UNL A   1      34.018  27.178  26.126  1.00  0.00     0.202 C 
BRANCH   4   5
ATOM      5  C   UNL A   1      33.711  28.473  26.899  1.00  0.00     0.261 C 
BRANCH   5   6
ATOM      6  O   UNL A   1      33.543  29.675  26.090  1.00  0.00    -0.461 OA
BRANCH   6   7
ATOM      7  C   UNL A   1      32.283  30.072  25.740  1.00  0.00     0.344 C 
ATOM      8  O   UNL A   1      31.627  30.882  26.382  1.00  0.00    -0.248 OA
BRANCH   7   9
ATOM      9  C   UNL A   1      31.744  29.336  24.453  1.00  0.00     0.352 C 
BRANCH   9  10
ATOM     10  O   UNL A   1      30.980  28.131  24.438  1.00  0.00    -0.477 OA
BRANCH  10  11
ATOM     11  C   UNL A   1      31.188  26.953  23.748  1.00  0.00     0.176 A 
ATOM     12  C   UNL A   1      30.294  25.908  24.113  1.00  0.00     0.162 A 
ATOM     13  C   UNL A   1      30.544  24.540  23.785  1.00  0.00     0.058 A 
ATOM     14  C   UNL A   1      31.723  24.138  23.127  1.00  0.00    -0.019 A 
ATOM     15  C   UNL A   1      32.233  26.575  22.896  1.00  0.00     0.064 A 
ATOM     16  C   UNL A   1      32.505  25.189  22.617  1.00  0.00     0.028 A 
ATOM     17  Br  UNL A   1      33.393  27.809  22.035  1.00  0.00    -0.047 Br
BRANCH  12  18
ATOM     18  O   UNL A   1      29.123  26.319  24.719  1.00  0.00    -0.493 OA
ATOM     19  C   UNL A   1      28.046  26.703  23.875  1.00  0.00     0.278 C 
ENDBRANCH  12  18
BRANCH  14  20
ATOM     20  C   UNL A   1      32.059  22.673  22.914  1.00  0.00     0.032 C 
ATOM     21  C   UNL A   1      32.226  21.605  23.744  1.00  0.00     0.110 C 
ATOM     22  S   UNL A   1      32.696  19.973  23.231  1.00  0.00     0.007 SA
ATOM     23  C   UNL A   1      32.112  21.403  25.220  1.00  0.00     0.346 C 
ATOM     24  C   UNL A   1      33.097  19.491  24.877  1.00  0.00     0.324 C 
ATOM     25  N   UNL A   1      33.080  20.580  25.666  1.00  0.00    -0.199 N 
ATOM     26  O   UNL A   1      31.085  21.487  25.873  1.00  0.00    -0.240 OA
ATOM     27  N   UNL A   1      33.236  18.389  25.515  1.00  0.00    -0.204 N 
ATOM     28  H   UNL A   1      33.671  20.747  26.436  1.00  0.00     0.316 HD
ATOM     29  C   UNL A   1      32.853  17.158  25.074  1.00  0.00     0.304 C 
ATOM     30  H   UNL A   1      33.657  18.435  26.403  1.00  0.00     0.316 HD
ATOM     31  C   UNL A   1      33.381  16.642  23.775  1.00  0.00     0.144 C 
ATOM     32  O   UNL A   1      32.157  16.432  25.781  1.00  0.00    -0.247 OA
ENDBRANCH  14  20
ENDBRANCH  10  11
ENDBRANCH   9  10
ENDBRANCH   7   9
ENDBRANCH   6   7
ENDBRANCH   5   6
ENDBRANCH   4   5
ENDBRANCH   3   4
ENDBRANCH   2   3
ENDBRANCH   1   2
BRANCH   1  33
ATOM     33  O   UNL A   1      35.080  23.141  25.140  1.00  0.00    -0.377 OA
BRANCH  33  34
ATOM     34  C   UNL A   1      35.989  22.617  26.093  1.00  0.00     0.188 C 
BRANCH  34  35
ATOM     35  C   UNL A   1      37.429  23.078  25.873  1.00  0.00     0.188 C 
BRANCH  35  36
ATOM     36  O   UNL A   1      38.463  22.127  25.698  1.00  0.00    -0.376 OA
BRANCH  36  37
ATOM     37  C   UNL A   1      38.241  20.802  25.259  1.00  0.00     0.202 C 
BRANCH  37  38
ATOM     38  C   UNL A   1      39.094  19.637  25.745  1.00  0.00     0.261 C 
BRANCH  38  39
ATOM     39  O   UNL A   1      40.149  20.092  26.562  1.00  0.00    -0.460 OA
BRANCH  39  40
ATOM     40  C   UNL A   1      41.383  19.828  26.125  1.00  0.00     0.338 C 
ATOM     41  O   UNL A   1      41.918  18.750  25.905  1.00  0.00    -0.246 OA
BRANCH  40  42
ATOM     42  C   UNL A   1      42.059  21.082  26.441  1.00  0.00     0.060 A 
ATOM     43  C   UNL A   1      42.278  21.468  27.772  1.00  0.00     0.016 A 
ATOM     44  C   UNL A   1      42.662  21.742  25.368  1.00  0.00     0.016 A 
ATOM     45  C   UNL A   1      43.075  22.568  28.030  1.00  0.00     0.010 A 
ATOM     46  C   UNL A   1      43.462  22.838  25.626  1.00  0.00     0.010 A 
ATOM     47  C   UNL A   1      43.619  23.274  26.950  1.00  0.00    -0.014 A 
BRANCH  47  48
ATOM     48  C   UNL A   1      44.087  24.645  27.175  1.00  0.00     0.031 A 
ATOM     49  C   UNL A   1      43.059  25.628  27.651  1.00  0.00     0.074 A 
ATOM     50  C   UNL A   1      45.369  24.968  26.963  1.00  0.00     0.049 A 
ATOM     51  N   UNL A   1      43.176  26.904  27.884  1.00  0.00    -0.248 NA
ATOM     52  C   UNL A   1      41.701  25.094  27.883  1.00  0.00     0.031 C 
ATOM     53  C   UNL A   1      46.413  24.043  26.523  1.00  0.00     0.029 A 
ATOM     54  N   UNL A   1      46.004  26.170  27.086  1.00  0.00    -0.354 N 
ATOM     55  C   UNL A   1      41.913  27.322  28.282  1.00  0.00     0.074 A 
ATOM     56  C   UNL A   1      41.032  26.183  28.217  1.00  0.00     0.031 C 
ATOM     57  C   UNL A   1      47.568  24.721  26.404  1.00  0.00     0.029 A 
ATOM     58  C   UNL A   1      47.328  26.123  26.734  1.00  0.00     0.049 A 
ATOM     59  H   UNL A   1      45.555  26.989  27.395  1.00  0.00     0.167 HD
ATOM     60  C   UNL A   1      41.536  28.558  28.679  1.00  0.00     0.037 A 
ATOM     61  C   UNL A   1      48.226  27.124  26.680  1.00  0.00     0.037 A 
ATOM     62  C   UNL A   1      42.443  29.669  28.720  1.00  0.00     0.049 A 
ATOM     63  C   UNL A   1      47.769  28.501  27.091  1.00  0.00     0.074 A 
ATOM     64  C   UNL A   1      42.201  30.973  29.099  1.00  0.00     0.029 A 
ATOM     65  N   UNL A   1      43.784  29.593  28.356  1.00  0.00    -0.354 N 
ATOM     66  N   UNL A   1      46.582  28.895  27.490  1.00  0.00    -0.248 NA
ATOM     67  C   UNL A   1      48.776  29.565  27.054  1.00  0.00     0.031 C 
ATOM     68  C   UNL A   1      43.383  31.699  28.919  1.00  0.00     0.029 A 
ATOM     69  C   UNL A   1      44.378  30.835  28.484  1.00  0.00     0.049 A 
ATOM     70  H   UNL A   1      44.241  28.776  28.052  1.00  0.00     0.167 HD
ATOM     71  C   UNL A   1      46.703  30.246  27.781  1.00  0.00     0.074 A 
ATOM     72  C   UNL A   1      48.088  30.596  27.526  1.00  0.00     0.031 C 
ATOM     73  C   UNL A   1      45.765  31.126  28.217  1.00  0.00     0.037 A 
BRANCH  60  74
ATOM     74  C   UNL A   1      40.097  28.753  29.055  1.00  0.00     0.064 A 
ATOM     75  C   UNL A   1      39.634  28.526  30.361  1.00  0.00     0.173 A 
ATOM     76  C   UNL A   1      39.161  29.152  28.091  1.00  0.00     0.173 A 
ATOM     77  F   UNL A   1      40.482  28.111  31.316  1.00  0.00    -0.203 F 
ATOM     78  C   UNL A   1      38.286  28.667  30.681  1.00  0.00     0.198 A 
ATOM     79  C   UNL A   1      37.819  29.323  28.421  1.00  0.00     0.198 A 
ATOM     80  F   UNL A   1      39.545  29.369  26.824  1.00  0.00    -0.203 F 
ATOM     81  F   UNL A   1      37.860  28.389  31.921  1.00  0.00    -0.200 F 
ATOM     82  C   UNL A   1      37.381  29.074  29.713  1.00  0.00     0.200 A 
ATOM     83  F   UNL A   1      36.946  29.721  27.485  1.00  0.00    -0.200 F 
ATOM     84  F   UNL A   1      36.084  29.212  30.021  1.00  0.00    -0.200 F 
ENDBRANCH  60  74
BRANCH  61  85
ATOM     85  C   UNL A   1      49.619  26.852  26.244  1.00  0.00     0.064 A 
ATOM     86  C   UNL A   1      49.993  26.969  24.899  1.00  0.00     0.173 A 
ATOM     87  C   UNL A   1      50.611  26.485  27.166  1.00  0.00     0.173 A 
ATOM     88  F   UNL A   1      49.079  27.304  23.977  1.00  0.00    -0.203 F 
ATOM     89  C   UNL A   1      51.299  26.709  24.489  1.00  0.00     0.198 A 
ATOM     90  C   UNL A   1      51.924  26.253  26.758  1.00  0.00     0.198 A 
ATOM     91  F   UNL A   1      50.310  26.366  28.468  1.00  0.00    -0.203 F 
ATOM     92  F   UNL A   1      51.619  26.788  23.190  1.00  0.00    -0.200 F 
ATOM     93  C   UNL A   1      52.265  26.359  25.420  1.00  0.00     0.200 A 
ATOM     94  F   UNL A   1      52.858  25.932  27.665  1.00  0.00    -0.200 F 
ATOM     95  F   UNL A   1      53.523  26.117  25.025  1.00  0.00    -0.200 F 
ENDBRANCH  61  85
BRANCH  73  96
ATOM     96  C   UNL A   1      46.226  32.528  28.474  1.00  0.00     0.064 A 
ATOM     97  C   UNL A   1      46.170  33.515  27.479  1.00  0.00     0.173 A 
ATOM     98  C   UNL A   1      46.693  32.895  29.745  1.00  0.00     0.173 A 
ATOM     99  F   UNL A   1      45.740  33.208  26.247  1.00  0.00    -0.203 F 
ATOM    100  C   UNL A   1      46.602  34.811  27.739  1.00  0.00     0.198 A 
ATOM    101  C   UNL A   1      47.090  34.202  30.010  1.00  0.00     0.198 A 
ATOM    102  F   UNL A   1      46.752  31.988  30.733  1.00  0.00    -0.203 F 
ATOM    103  F   UNL A   1      46.597  35.725  26.758  1.00  0.00    -0.200 F 
ATOM    104  C   UNL A   1      47.054  35.155  29.004  1.00  0.00     0.200 A 
ATOM    105  F   UNL A   1      47.508  34.536  31.239  1.00  0.00    -0.200 F 
ATOM    106  F   UNL A   1      47.465  36.406  29.252  1.00  0.00    -0.200 F 
ENDBRANCH  73  96
ENDBRANCH  47  48
ENDBRANCH  40  42
ENDBRANCH  39  40
ENDBRANCH  38  39
ENDBRANCH  37  38
ENDBRANCH  36  37
ENDBRANCH  35  36
ENDBRANCH  34  35
ENDBRANCH  33  34
ENDBRANCH   1  33
TORSDOF 24
ENDMDL
MODEL 3
REMARK VINA RESULT:     -10.5      1.115      2.313
REMARK SMILES COc1cc(/C=C2/S/C(=[NH+]\C(C)=O)NC2=O)cc(Br)c1OCC(=O)OCCOCCOCCOCCOC(=O)c1ccc(-c2c3nc(c(-c4c(F)c(F)c(F)c(F)c4F)c4ccc([nH]4)c(-c4c(F)c(F)c(F)c(F)c4F)c4nc(c(-c5c(F)c(F)c(F)c(F)c5F)c5ccc2[nH]5)C=C4)C=C3)cc1
REMARK SMILES IDX 30 1 29 2 28 3 27 4 26 5 25 6 23 7 24 8 22 9 21 10 20 11
REMARK SMILES IDX 3 12 4 13 5 14 18 15 17 16 19 17 2 18 1 19 6 20 7 21 8 22
REMARK SMILES IDX 15 23 9 24 14 25 16 26 10 27 11 29 12 31 13 32 31 33 32 34
REMARK SMILES IDX 33 35 34 36 35 37 36 38 37 39 38 40 39 41 40 42 41 43 102 44
REMARK SMILES IDX 42 45 101 46 43 47 44 48 45 49 95 50 46 51 100 52 94 53
REMARK SMILES IDX 96 54 47 55 99 56 93 57 92 58 48 60 80 61 60 62 79 63 61 64
REMARK SMILES IDX 64 65 78 66 97 67 62 68 63 69 77 71 98 72 65 73 49 74 50 75
REMARK SMILES IDX 58 76 51 77 52 78 56 79 59 80 53 81 54 82 57 83 55 84 81 85
REMARK SMILES IDX 82 86 90 87 83 88 84 89 88 90 91 91 85 92 86 93 89 94 87 95
REMARK SMILES IDX 66 96 67 97 75 98 68 99 69 100 73 101 76 102 70 103 71 104
REMARK SMILES IDX 74 105 72 106
REMARK H PARENT 14 28 10 30 96 59 64 70
REMARK Flexibility Score: inf
ROOT
ATOM      1  C   UNL A   1      34.909  23.385  25.862  1.00  0.00     0.188 C 
ENDROOT
BRANCH   1   2
ATOM      2  C   UNL A   1      34.000  24.648  25.910  1.00  0.00     0.188 C 
BRANCH   2   3
ATOM      3  O   UNL A   1      34.263  25.786  25.099  1.00  0.00    -0.376 OA
BRANCH   3   4
ATOM      4  C   UNL A   1      33.508  26.940  25.373  1.00  0.00     0.202 C 
BRANCH   4   5
ATOM      5  C   UNL A   1      34.033  28.202  24.666  1.00  0.00     0.261 C 
BRANCH   5   6
ATOM      6  O   UNL A   1      33.200  28.723  23.589  1.00  0.00    -0.461 OA
BRANCH   6   7
ATOM      7  C   UNL A   1      31.846  28.783  23.763  1.00  0.00     0.344 C 
ATOM      8  O   UNL A   1      31.313  29.093  24.822  1.00  0.00    -0.248 OA
BRANCH   7   9
ATOM      9  C   UNL A   1      31.043  28.359  22.474  1.00  0.00     0.352 C 
BRANCH   9  10
ATOM     10  O   UNL A   1      30.922  27.032  21.964  1.00  0.00    -0.477 OA
BRANCH  10  11
ATOM     11  C   UNL A   1      31.415  25.839  22.457  1.00  0.00     0.176 A 
ATOM     12  C   UNL A   1      32.404  25.241  21.628  1.00  0.00     0.162 A 
ATOM     13  C   UNL A   1      32.788  23.871  21.766  1.00  0.00     0.058 A 
ATOM     14  C   UNL A   1      32.168  23.016  22.698  1.00  0.00    -0.019 A 
ATOM     15  C   UNL A   1      30.975  25.051  23.528  1.00  0.00     0.064 A 
ATOM     16  C   UNL A   1      31.329  23.659  23.625  1.00  0.00     0.028 A 
ATOM     17  Br  UNL A   1      29.883  25.701  24.940  1.00  0.00    -0.047 Br
BRANCH  12  18
ATOM     18  O   UNL A   1      33.033  26.098  20.748  1.00  0.00    -0.493 OA
ATOM     19  C   UNL A   1      32.751  25.943  19.364  1.00  0.00     0.278 C 
ENDBRANCH  12  18
BRANCH  14  20
ATOM     20  C   UNL A   1      32.469  21.529  22.741  1.00  0.00     0.032 C 
ATOM     21  C   UNL A   1      32.529  20.600  23.737  1.00  0.00     0.110 C 
ATOM     22  S   UNL A   1      32.982  18.898  23.524  1.00  0.00     0.007 SA
ATOM     23  C   UNL A   1      32.288  20.633  25.211  1.00  0.00     0.346 C 
ATOM     24  C   UNL A   1      33.230  18.670  25.252  1.00  0.00     0.324 C 
ATOM     25  N   UNL A   1      33.186  19.869  25.860  1.00  0.00    -0.199 N 
ATOM     26  O   UNL A   1      31.214  20.841  25.752  1.00  0.00    -0.240 OA
ATOM     27  N   UNL A   1      33.276  17.678  26.061  1.00  0.00    -0.204 N 
ATOM     28  H   UNL A   1      33.718  20.140  26.643  1.00  0.00     0.316 HD
ATOM     29  C   UNL A   1      32.887  16.402  25.783  1.00  0.00     0.304 C 
ATOM     30  H   UNL A   1      33.625  17.853  26.965  1.00  0.00     0.316 HD
ATOM     31  C   UNL A   1      33.502  15.678  24.630  1.00  0.00     0.144 C 
ATOM     32  O   UNL A   1      32.111  15.811  26.531  1.00  0.00    -0.247 OA
ENDBRANCH  14  20
ENDBRANCH  10  11
ENDBRANCH   9  10
ENDBRANCH   7   9
ENDBRANCH   6   7
ENDBRANCH   5   6
ENDBRANCH   4   5
ENDBRANCH   3   4
ENDBRANCH   2   3
ENDBRANCH   1   2
BRANCH   1  33
ATOM     33  O   UNL A   1      35.067  22.849  24.559  1.00  0.00    -0.377 OA
BRANCH  33  34
ATOM     34  C   UNL A   1      36.301  22.178  24.368  1.00  0.00     0.188 C 
BRANCH  34  35
ATOM     35  C   UNL A   1      37.469  22.843  25.095  1.00  0.00     0.188 C 
BRANCH  35  36
ATOM     36  O   UNL A   1      38.530  22.056  25.607  1.00  0.00    -0.376 OA
BRANCH  36  37
ATOM     37  C   UNL A   1      38.428  20.668  25.850  1.00  0.00     0.202 C 
BRANCH  37  38
ATOM     38  C   UNL A   1      39.489  19.685  25.374  1.00  0.00     0.261 C 
BRANCH  38  39
ATOM     39  O   UNL A   1      40.451  19.456  26.380  1.00  0.00    -0.460 OA
BRANCH  39  40
ATOM     40  C   UNL A   1      41.721  19.388  25.971  1.00  0.00     0.338 C 
ATOM     41  O   UNL A   1      42.418  18.406  25.755  1.00  0.00    -0.246 OA
BRANCH  40  42
ATOM     42  C   UNL A   1      42.191  20.725  26.311  1.00  0.00     0.060 A 
ATOM     43  C   UNL A   1      42.386  21.103  27.649  1.00  0.00     0.016 A 
ATOM     44  C   UNL A   1      42.642  21.508  25.246  1.00  0.00     0.016 A 
ATOM     45  C   UNL A   1      43.000  22.311  27.924  1.00  0.00     0.010 A 
ATOM     46  C   UNL A   1      43.260  22.713  25.520  1.00  0.00     0.010 A 
ATOM     47  C   UNL A   1      43.385  23.129  26.855  1.00  0.00    -0.014 A 
BRANCH  47  48
ATOM     48  C   UNL A   1      43.628  24.552  27.114  1.00  0.00     0.031 A 
ATOM     49  C   UNL A   1      45.015  25.050  26.839  1.00  0.00     0.074 A 
ATOM     50  C   UNL A   1      42.642  25.337  27.565  1.00  0.00     0.049 A 
ATOM     51  N   UNL A   1      45.522  26.236  27.020  1.00  0.00    -0.248 NA
ATOM     52  C   UNL A   1      45.970  24.061  26.296  1.00  0.00     0.031 C 
ATOM     53  C   UNL A   1      41.268  24.907  27.825  1.00  0.00     0.029 A 
ATOM     54  N   UNL A   1      42.653  26.663  27.889  1.00  0.00    -0.354 N 
ATOM     55  C   UNL A   1      46.848  26.133  26.619  1.00  0.00     0.074 A 
ATOM     56  C   UNL A   1      47.086  24.765  26.230  1.00  0.00     0.031 C 
ATOM     57  C   UNL A   1      40.566  25.958  28.281  1.00  0.00     0.029 A 
ATOM     58  C   UNL A   1      41.450  27.116  28.365  1.00  0.00     0.049 A 
ATOM     59  H   UNL A   1      43.447  27.236  27.791  1.00  0.00     0.167 HD
ATOM     60  C   UNL A   1      47.778  27.112  26.573  1.00  0.00     0.037 A 
ATOM     61  C   UNL A   1      41.129  28.339  28.827  1.00  0.00     0.037 A 
ATOM     62  C   UNL A   1      47.504  28.461  26.980  1.00  0.00     0.049 A 
ATOM     63  C   UNL A   1      42.195  29.403  28.801  1.00  0.00     0.074 A 
ATOM     64  C   UNL A   1      48.347  29.553  26.988  1.00  0.00     0.029 A 
ATOM     65  N   UNL A   1      46.272  28.894  27.461  1.00  0.00    -0.354 N 
ATOM     66  N   UNL A   1      43.443  29.316  28.401  1.00  0.00    -0.248 NA
ATOM     67  C   UNL A   1      41.809  30.734  29.279  1.00  0.00     0.031 C 
ATOM     68  C   UNL A   1      47.640  30.637  27.519  1.00  0.00     0.029 A 
ATOM     69  C   UNL A   1      46.339  30.236  27.787  1.00  0.00     0.049 A 
ATOM     70  H   UNL A   1      45.472  28.328  27.555  1.00  0.00     0.167 HD
ATOM     71  C   UNL A   1      43.985  30.584  28.551  1.00  0.00     0.074 A 
ATOM     72  C   UNL A   1      42.920  31.425  29.064  1.00  0.00     0.031 C 
ATOM     73  C   UNL A   1      45.244  31.025  28.293  1.00  0.00     0.037 A 
BRANCH  60  74
ATOM     74  C   UNL A   1      49.153  26.737  26.105  1.00  0.00     0.064 A 
ATOM     75  C   UNL A   1      50.124  26.231  26.983  1.00  0.00     0.173 A 
ATOM     76  C   UNL A   1      49.513  26.905  24.760  1.00  0.00     0.173 A 
ATOM     77  F   UNL A   1      49.843  26.081  28.287  1.00  0.00    -0.203 F 
ATOM     78  C   UNL A   1      51.410  25.933  26.539  1.00  0.00     0.198 A 
ATOM     79  C   UNL A   1      50.790  26.576  24.312  1.00  0.00     0.198 A 
ATOM     80  F   UNL A   1      48.629  27.399  23.879  1.00  0.00    -0.203 F 
ATOM     81  F   UNL A   1      52.336  25.506  27.409  1.00  0.00    -0.200 F 
ATOM     82  C   UNL A   1      51.739  26.097  25.202  1.00  0.00     0.200 A 
ATOM     83  F   UNL A   1      51.105  26.732  23.019  1.00  0.00    -0.200 F 
ATOM     84  F   UNL A   1      52.976  25.807  24.774  1.00  0.00    -0.200 F 
ENDBRANCH  60  74
BRANCH  61  85
ATOM     85  C   UNL A   1      39.756  28.610  29.323  1.00  0.00     0.064 A 
ATOM     86  C   UNL A   1      38.759  29.097  28.467  1.00  0.00     0.173 A 
ATOM     87  C   UNL A   1      39.406  28.373  30.661  1.00  0.00     0.173 A 
ATOM     88  F   UNL A   1      39.046  29.351  27.182  1.00  0.00    -0.203 F 
ATOM     89  C   UNL A   1      37.472  29.356  28.933  1.00  0.00     0.198 A 
ATOM     90  C   UNL A   1      38.110  28.606  31.120  1.00  0.00     0.198 A 
ATOM     91  F   UNL A   1      40.319  27.900  31.522  1.00  0.00    -0.203 F 
ATOM     92  F   UNL A   1      36.550  29.860  28.102  1.00  0.00    -0.200 F 
ATOM     93  C   UNL A   1      37.146  29.103  30.258  1.00  0.00     0.200 A 
ATOM     94  F   UNL A   1      37.797  28.344  32.397  1.00  0.00    -0.200 F 
ATOM     95  F   UNL A   1      35.906  29.346  30.703  1.00  0.00    -0.200 F 
ENDBRANCH  61  85
BRANCH  73  96
ATOM     96  C   UNL A   1      45.508  32.481  28.530  1.00  0.00     0.064 A 
ATOM     97  C   UNL A   1      46.081  32.939  29.725  1.00  0.00     0.173 A 
ATOM     98  C   UNL A   1      45.219  33.422  27.531  1.00  0.00     0.173 A 
ATOM     99  F   UNL A   1      46.365  32.077  30.713  1.00  0.00    -0.203 F 
ATOM    100  C   UNL A   1      46.320  34.295  29.925  1.00  0.00     0.198 A 
ATOM    101  C   UNL A   1      45.493  34.772  27.722  1.00  0.00     0.198 A 
ATOM    102  F   UNL A   1      44.682  33.029  26.365  1.00  0.00    -0.203 F 
ATOM    103  F   UNL A   1      46.812  34.719  31.097  1.00  0.00    -0.200 F 
ATOM    104  C   UNL A   1      46.033  35.208  28.922  1.00  0.00     0.200 A 
ATOM    105  F   UNL A   1      45.232  35.651  26.743  1.00  0.00    -0.200 F 
ATOM    106  F   UNL A   1      46.268  36.513  29.115  1.00  0.00    -0.200 F 
ENDBRANCH  73  96
ENDBRANCH  47  48
ENDBRANCH  40  42
ENDBRANCH  39  40
ENDBRANCH  38  39
ENDBRANCH  37  38
ENDBRANCH  36  37
ENDBRANCH  35  36
ENDBRANCH  34  35
ENDBRANCH  33  34
ENDBRANCH   1  33
TORSDOF 24
ENDMDL
