MODEL 1
REMARK VINA RESULT:      -9.5      0.000      0.000
REMARK SMILES O=C(CCc1nc(-c2ccccc2)c(-c2ccccc2)o1)OCCOCCOCCOCCOC(=O)c1ccc(-c2c3nc(c(-c4c(F)c(F)c(F)c(F)c4F)c4ccc([nH]4)c(-c4c(F)c(F)c(F)c(F)c4F)c4nc(c(-c5c(F)c(F)c(F)c(F)c5F)c5ccc2[nH]5)C=C4)C=C3)cc1
REMARK SMILES IDX 27 1 26 2 25 3 24 4 23 5 22 6 2 7 1 8 3 9 4 10 5 11 6 12
REMARK SMILES IDX 21 13 7 14 14 15 8 16 9 17 13 18 10 19 12 20 11 21 15 22
REMARK SMILES IDX 16 23 20 24 17 25 19 26 18 27 28 28 29 29 30 30 31 31 32 32
REMARK SMILES IDX 33 33 34 34 35 35 36 36 37 37 38 38 99 39 39 40 98 41 40 42
REMARK SMILES IDX 41 43 42 44 92 45 43 46 97 47 91 48 93 49 44 50 96 51 90 52
REMARK SMILES IDX 89 53 45 55 77 56 57 57 76 58 58 59 61 60 75 61 94 62 59 63
REMARK SMILES IDX 60 64 74 66 95 67 62 68 46 69 47 70 55 71 48 72 49 73 53 74
REMARK SMILES IDX 56 75 50 76 51 77 54 78 52 79 78 80 79 81 87 82 80 83 81 84
REMARK SMILES IDX 85 85 88 86 82 87 83 88 86 89 84 90 63 91 64 92 72 93 65 94
REMARK SMILES IDX 66 95 70 96 73 97 67 98 68 99 71 100 69 101
REMARK H PARENT 93 54 61 65
REMARK Flexibility Score: inf
ROOT
ATOM      1  C   UNL A   1      39.202  22.076  26.062  1.00  0.00     0.188 C 
ENDROOT
BRANCH   1   2
ATOM      2  C   UNL A   1      38.060  23.100  26.038  1.00  0.00     0.188 C 
BRANCH   2   3
ATOM      3  O   UNL A   1      36.844  22.722  25.409  1.00  0.00    -0.376 OA
BRANCH   3   4
ATOM      4  C   UNL A   1      35.608  23.237  25.890  1.00  0.00     0.202 C 
BRANCH   4   5
ATOM      5  C   UNL A   1      34.313  22.441  25.711  1.00  0.00     0.261 C 
BRANCH   5   6
ATOM      6  O   UNL A   1      34.178  21.624  24.541  1.00  0.00    -0.463 OA
BRANCH   6   7
ATOM      7  C   UNL A   1      33.009  21.112  24.104  1.00  0.00     0.306 C 
ATOM      8  O   UNL A   1      32.579  20.061  24.571  1.00  0.00    -0.252 OA
BRANCH   7   9
ATOM      9  C   UNL A   1      32.360  21.752  22.908  1.00  0.00     0.132 C 
BRANCH   9  10
ATOM     10  C   UNL A   1      31.040  22.455  23.193  1.00  0.00     0.109 C 
BRANCH  10  11
ATOM     11  C   UNL A   1      31.151  23.922  23.412  1.00  0.00     0.196 A 
ATOM     12  N   UNL A   1      32.249  24.648  23.462  1.00  0.00    -0.213 NA
ATOM     13  O   UNL A   1      29.986  24.651  23.468  1.00  0.00    -0.440 OA
ATOM     14  C   UNL A   1      31.790  25.942  23.538  1.00  0.00     0.117 A 
ATOM     15  C   UNL A   1      30.407  25.960  23.513  1.00  0.00     0.162 A 
BRANCH  14  16
ATOM     16  C   UNL A   1      32.639  27.109  23.464  1.00  0.00     0.004 A 
ATOM     17  C   UNL A   1      33.382  27.374  22.309  1.00  0.00     0.010 A 
ATOM     18  C   UNL A   1      32.787  27.937  24.585  1.00  0.00     0.010 A 
ATOM     19  C   UNL A   1      34.277  28.444  22.283  1.00  0.00     0.001 A 
ATOM     20  C   UNL A   1      33.694  28.996  24.563  1.00  0.00     0.001 A 
ATOM     21  C   UNL A   1      34.440  29.247  23.412  1.00  0.00     0.000 A 
ENDBRANCH  14  16
BRANCH  15  22
ATOM     22  C   UNL A   1      29.394  27.001  23.411  1.00  0.00     0.020 A 
ATOM     23  C   UNL A   1      29.674  28.227  22.798  1.00  0.00     0.012 A 
ATOM     24  C   UNL A   1      28.087  26.761  23.870  1.00  0.00     0.012 A 
ATOM     25  C   UNL A   1      28.660  29.170  22.607  1.00  0.00     0.001 A 
ATOM     26  C   UNL A   1      27.075  27.707  23.683  1.00  0.00     0.001 A 
ATOM     27  C   UNL A   1      27.361  28.907  23.041  1.00  0.00     0.000 A 
ENDBRANCH  15  22
ENDBRANCH  10  11
ENDBRANCH   9  10
ENDBRANCH   7   9
ENDBRANCH   6   7
ENDBRANCH   5   6
ENDBRANCH   4   5
ENDBRANCH   3   4
ENDBRANCH   2   3
ENDBRANCH   1   2
BRANCH   1  28
ATOM     28  O   UNL A   1      40.453  22.640  26.421  1.00  0.00    -0.377 OA
BRANCH  28  29
ATOM     29  C   UNL A   1      41.580  21.792  26.256  1.00  0.00     0.188 C 
BRANCH  29  30
ATOM     30  C   UNL A   1      42.845  22.138  27.065  1.00  0.00     0.188 C 
BRANCH  30  31
ATOM     31  O   UNL A   1      44.066  21.915  26.397  1.00  0.00    -0.376 OA
BRANCH  31  32
ATOM     32  C   UNL A   1      44.251  22.095  25.009  1.00  0.00     0.202 C 
BRANCH  32  33
ATOM     33  C   UNL A   1      44.678  23.388  24.288  1.00  0.00     0.261 C 
BRANCH  33  34
ATOM     34  O   UNL A   1      44.276  24.641  24.837  1.00  0.00    -0.460 OA
BRANCH  34  35
ATOM     35  C   UNL A   1      45.262  25.495  25.197  1.00  0.00     0.338 C 
ATOM     36  O   UNL A   1      46.264  25.770  24.558  1.00  0.00    -0.246 OA
BRANCH  35  37
ATOM     37  C   UNL A   1      44.813  26.233  26.401  1.00  0.00     0.060 A 
ATOM     38  C   UNL A   1      44.014  25.560  27.334  1.00  0.00     0.016 A 
ATOM     39  C   UNL A   1      45.207  27.554  26.636  1.00  0.00     0.016 A 
ATOM     40  C   UNL A   1      43.581  26.213  28.489  1.00  0.00     0.010 A 
ATOM     41  C   UNL A   1      44.751  28.216  27.780  1.00  0.00     0.010 A 
ATOM     42  C   UNL A   1      43.912  27.558  28.697  1.00  0.00    -0.014 A 
BRANCH  42  43
ATOM     43  C   UNL A   1      43.213  28.337  29.749  1.00  0.00     0.031 A 
ATOM     44  C   UNL A   1      43.871  28.452  31.096  1.00  0.00     0.074 A 
ATOM     45  C   UNL A   1      42.027  28.929  29.523  1.00  0.00     0.049 A 
ATOM     46  N   UNL A   1      43.431  29.010  32.195  1.00  0.00    -0.248 NA
ATOM     47  C   UNL A   1      45.210  27.853  31.220  1.00  0.00     0.031 C 
ATOM     48  C   UNL A   1      41.306  28.931  28.254  1.00  0.00     0.029 A 
ATOM     49  N   UNL A   1      41.212  29.636  30.375  1.00  0.00    -0.354 N 
ATOM     50  C   UNL A   1      44.435  28.826  33.138  1.00  0.00     0.074 A 
ATOM     51  C   UNL A   1      45.497  28.087  32.492  1.00  0.00     0.031 C 
ATOM     52  C   UNL A   1      40.141  29.586  28.416  1.00  0.00     0.029 A 
ATOM     53  C   UNL A   1      40.020  30.018  29.807  1.00  0.00     0.049 A 
ATOM     54  H   UNL A   1      41.458  29.848  31.305  1.00  0.00     0.167 HD
ATOM     55  C   UNL A   1      44.469  29.238  34.425  1.00  0.00     0.037 A 
ATOM     56  C   UNL A   1      38.947  30.617  30.362  1.00  0.00     0.037 A 
ATOM     57  C   UNL A   1      43.413  29.971  35.071  1.00  0.00     0.049 A 
ATOM     58  C   UNL A   1      38.977  30.989  31.826  1.00  0.00     0.074 A 
ATOM     59  C   UNL A   1      43.369  30.457  36.365  1.00  0.00     0.029 A 
ATOM     60  N   UNL A   1      42.210  30.310  34.472  1.00  0.00    -0.354 N 
ATOM     61  N   UNL A   1      39.945  30.847  32.700  1.00  0.00    -0.248 NA
ATOM     62  C   UNL A   1      37.761  31.604  32.380  1.00  0.00     0.031 C 
ATOM     63  C   UNL A   1      42.116  31.044  36.568  1.00  0.00     0.029 A 
ATOM     64  C   UNL A   1      41.402  30.971  35.383  1.00  0.00     0.049 A 
ATOM     65  H   UNL A   1      41.967  30.111  33.539  1.00  0.00     0.167 HD
ATOM     66  C   UNL A   1      39.465  31.378  33.892  1.00  0.00     0.074 A 
ATOM     67  C   UNL A   1      38.128  31.862  33.627  1.00  0.00     0.031 C 
ATOM     68  C   UNL A   1      40.076  31.455  35.100  1.00  0.00     0.037 A 
BRANCH  55  69
ATOM     69  C   UNL A   1      45.679  28.887  35.236  1.00  0.00     0.064 A 
ATOM     70  C   UNL A   1      46.784  29.746  35.319  1.00  0.00     0.173 A 
ATOM     71  C   UNL A   1      45.709  27.699  35.983  1.00  0.00     0.173 A 
ATOM     72  F   UNL A   1      46.810  30.884  34.610  1.00  0.00    -0.203 F 
ATOM     73  C   UNL A   1      47.882  29.422  36.113  1.00  0.00     0.198 A 
ATOM     74  C   UNL A   1      46.796  27.392  36.794  1.00  0.00     0.198 A 
ATOM     75  F   UNL A   1      44.676  26.844  35.934  1.00  0.00    -0.203 F 
ATOM     76  F   UNL A   1      48.942  30.241  36.153  1.00  0.00    -0.200 F 
ATOM     77  C   UNL A   1      47.883  28.251  36.857  1.00  0.00     0.200 A 
ATOM     78  F   UNL A   1      46.791  26.265  37.519  1.00  0.00    -0.200 F 
ATOM     79  F   UNL A   1      48.935  27.948  37.630  1.00  0.00    -0.200 F 
ENDBRANCH  55  69
BRANCH  56  80
ATOM     80  C   UNL A   1      37.724  30.873  29.553  1.00  0.00     0.064 A 
ATOM     81  C   UNL A   1      36.795  29.854  29.299  1.00  0.00     0.173 A 
ATOM     82  C   UNL A   1      37.493  32.125  28.964  1.00  0.00     0.173 A 
ATOM     83  F   UNL A   1      36.983  28.633  29.818  1.00  0.00    -0.203 F 
ATOM     84  C   UNL A   1      35.701  30.069  28.463  1.00  0.00     0.198 A 
ATOM     85  C   UNL A   1      36.381  32.348  28.155  1.00  0.00     0.198 A 
ATOM     86  F   UNL A   1      38.354  33.133  29.168  1.00  0.00    -0.203 F 
ATOM     87  F   UNL A   1      34.859  29.061  28.194  1.00  0.00    -0.200 F 
ATOM     88  C   UNL A   1      35.492  31.316  27.894  1.00  0.00     0.200 A 
ATOM     89  F   UNL A   1      36.179  33.558  27.617  1.00  0.00    -0.200 F 
ATOM     90  F   UNL A   1      34.440  31.522  27.090  1.00  0.00    -0.200 F 
ENDBRANCH  56  80
BRANCH  68  91
ATOM     91  C   UNL A   1      39.322  32.114  36.220  1.00  0.00     0.064 A 
ATOM     92  C   UNL A   1      39.506  33.469  36.533  1.00  0.00     0.173 A 
ATOM     93  C   UNL A   1      38.367  31.395  36.954  1.00  0.00     0.173 A 
ATOM     94  F   UNL A   1      40.417  34.198  35.869  1.00  0.00    -0.203 F 
ATOM     95  C   UNL A   1      38.780  34.072  37.558  1.00  0.00     0.198 A 
ATOM     96  C   UNL A   1      37.620  32.010  37.956  1.00  0.00     0.198 A 
ATOM     97  F   UNL A   1      38.145  30.099  36.688  1.00  0.00    -0.203 F 
ATOM     98  F   UNL A   1      39.006  35.356  37.869  1.00  0.00    -0.200 F 
ATOM     99  C   UNL A   1      37.832  33.345  38.261  1.00  0.00     0.200 A 
ATOM    100  F   UNL A   1      36.694  31.309  38.625  1.00  0.00    -0.200 F 
ATOM    101  F   UNL A   1      37.128  33.930  39.239  1.00  0.00    -0.200 F 
ENDBRANCH  68  91
ENDBRANCH  42  43
ENDBRANCH  35  37
ENDBRANCH  34  35
ENDBRANCH  33  34
ENDBRANCH  32  33
ENDBRANCH  31  32
ENDBRANCH  30  31
ENDBRANCH  29  30
ENDBRANCH  28  29
ENDBRANCH   1  28
TORSDOF 24
ENDMDL
MODEL 2
REMARK VINA RESULT:      -9.2      3.788      6.529
REMARK SMILES O=C(CCc1nc(-c2ccccc2)c(-c2ccccc2)o1)OCCOCCOCCOCCOC(=O)c1ccc(-c2c3nc(c(-c4c(F)c(F)c(F)c(F)c4F)c4ccc([nH]4)c(-c4c(F)c(F)c(F)c(F)c4F)c4nc(c(-c5c(F)c(F)c(F)c(F)c5F)c5ccc2[nH]5)C=C4)C=C3)cc1
REMARK SMILES IDX 27 1 26 2 25 3 24 4 23 5 22 6 2 7 1 8 3 9 4 10 5 11 6 12
REMARK SMILES IDX 21 13 7 14 14 15 8 16 9 17 13 18 10 19 12 20 11 21 15 22
REMARK SMILES IDX 16 23 20 24 17 25 19 26 18 27 28 28 29 29 30 30 31 31 32 32
REMARK SMILES IDX 33 33 34 34 35 35 36 36 37 37 38 38 99 39 39 40 98 41 40 42
REMARK SMILES IDX 41 43 42 44 92 45 43 46 97 47 91 48 93 49 44 50 96 51 90 52
REMARK SMILES IDX 89 53 45 55 77 56 57 57 76 58 58 59 61 60 75 61 94 62 59 63
REMARK SMILES IDX 60 64 74 66 95 67 62 68 46 69 47 70 55 71 48 72 49 73 53 74
REMARK SMILES IDX 56 75 50 76 51 77 54 78 52 79 78 80 79 81 87 82 80 83 81 84
REMARK SMILES IDX 85 85 88 86 82 87 83 88 86 89 84 90 63 91 64 92 72 93 65 94
REMARK SMILES IDX 66 95 70 96 73 97 67 98 68 99 71 100 69 101
REMARK H PARENT 93 54 61 65
REMARK Flexibility Score: inf
ROOT
ATOM      1  C   UNL A   1      37.544  23.398  25.573  1.00  0.00     0.188 C 
ENDROOT
BRANCH   1   2
ATOM      2  C   UNL A   1      36.316  24.274  25.848  1.00  0.00     0.188 C 
BRANCH   2   3
ATOM      3  O   UNL A   1      35.060  23.831  25.352  1.00  0.00    -0.376 OA
BRANCH   3   4
ATOM      4  C   UNL A   1      33.927  23.809  26.212  1.00  0.00     0.202 C 
BRANCH   4   5
ATOM      5  C   UNL A   1      32.689  24.648  25.886  1.00  0.00     0.261 C 
BRANCH   5   6
ATOM      6  O   UNL A   1      32.845  25.772  25.010  1.00  0.00    -0.463 OA
BRANCH   6   7
ATOM      7  C   UNL A   1      32.695  27.056  25.391  1.00  0.00     0.306 C 
ATOM      8  O   UNL A   1      31.809  27.749  24.898  1.00  0.00    -0.252 OA
BRANCH   7   9
ATOM      9  C   UNL A   1      33.752  27.661  26.273  1.00  0.00     0.132 C 
BRANCH   9  10
ATOM     10  C   UNL A   1      33.518  29.118  26.648  1.00  0.00     0.109 C 
BRANCH  10  11
ATOM     11  C   UNL A   1      34.640  29.759  27.385  1.00  0.00     0.196 A 
ATOM     12  N   UNL A   1      34.629  30.909  28.027  1.00  0.00    -0.213 NA
ATOM     13  O   UNL A   1      35.809  29.046  27.518  1.00  0.00    -0.440 OA
ATOM     14  C   UNL A   1      35.858  30.959  28.642  1.00  0.00     0.117 A 
ATOM     15  C   UNL A   1      36.579  29.813  28.363  1.00  0.00     0.162 A 
BRANCH  14  16
ATOM     16  C   UNL A   1      36.249  31.979  29.589  1.00  0.00     0.004 A 
ATOM     17  C   UNL A   1      35.548  32.140  30.789  1.00  0.00     0.010 A 
ATOM     18  C   UNL A   1      37.284  32.868  29.270  1.00  0.00     0.010 A 
ATOM     19  C   UNL A   1      35.867  33.191  31.649  1.00  0.00     0.001 A 
ATOM     20  C   UNL A   1      37.590  33.928  30.124  1.00  0.00     0.001 A 
ATOM     21  C   UNL A   1      36.879  34.089  31.311  1.00  0.00     0.000 A 
ENDBRANCH  14  16
BRANCH  15  22
ATOM     22  C   UNL A   1      37.832  29.244  28.839  1.00  0.00     0.020 A 
ATOM     23  C   UNL A   1      39.044  29.528  28.201  1.00  0.00     0.012 A 
ATOM     24  C   UNL A   1      37.851  28.451  30.000  1.00  0.00     0.012 A 
ATOM     25  C   UNL A   1      40.251  29.067  28.738  1.00  0.00     0.001 A 
ATOM     26  C   UNL A   1      39.057  27.987  30.533  1.00  0.00     0.001 A 
ATOM     27  C   UNL A   1      40.258  28.305  29.907  1.00  0.00     0.000 A 
ENDBRANCH  15  22
ENDBRANCH  10  11
ENDBRANCH   9  10
ENDBRANCH   7   9
ENDBRANCH   6   7
ENDBRANCH   5   6
ENDBRANCH   4   5
ENDBRANCH   3   4
ENDBRANCH   2   3
ENDBRANCH   1   2
BRANCH   1  28
ATOM     28  O   UNL A   1      38.598  23.604  26.500  1.00  0.00    -0.377 OA
BRANCH  28  29
ATOM     29  C   UNL A   1      39.641  22.642  26.468  1.00  0.00     0.188 C 
BRANCH  29  30
ATOM     30  C   UNL A   1      40.758  22.779  27.521  1.00  0.00     0.188 C 
BRANCH  30  31
ATOM     31  O   UNL A   1      42.014  22.266  27.138  1.00  0.00    -0.376 OA
BRANCH  31  32
ATOM     32  C   UNL A   1      42.410  22.068  25.799  1.00  0.00     0.202 C 
BRANCH  32  33
ATOM     33  C   UNL A   1      43.216  23.039  24.913  1.00  0.00     0.261 C 
BRANCH  33  34
ATOM     34  O   UNL A   1      43.193  24.429  25.229  1.00  0.00    -0.460 OA
BRANCH  34  35
ATOM     35  C   UNL A   1      44.379  25.080  25.208  1.00  0.00     0.338 C 
ATOM     36  O   UNL A   1      45.321  24.864  24.465  1.00  0.00    -0.246 OA
BRANCH  35  37
ATOM     37  C   UNL A   1      44.265  26.270  26.084  1.00  0.00     0.060 A 
ATOM     38  C   UNL A   1      45.423  26.741  26.718  1.00  0.00     0.016 A 
ATOM     39  C   UNL A   1      43.051  26.942  26.249  1.00  0.00     0.016 A 
ATOM     40  C   UNL A   1      45.364  27.867  27.541  1.00  0.00     0.010 A 
ATOM     41  C   UNL A   1      42.987  28.053  27.094  1.00  0.00     0.010 A 
ATOM     42  C   UNL A   1      44.137  28.503  27.768  1.00  0.00    -0.014 A 
BRANCH  42  43
ATOM     43  C   UNL A   1      44.010  29.495  28.864  1.00  0.00     0.031 A 
ATOM     44  C   UNL A   1      43.792  28.978  30.260  1.00  0.00     0.074 A 
ATOM     45  C   UNL A   1      44.085  30.818  28.638  1.00  0.00     0.049 A 
ATOM     46  N   UNL A   1      43.577  29.637  31.370  1.00  0.00    -0.248 NA
ATOM     47  C   UNL A   1      43.819  27.515  30.425  1.00  0.00     0.031 C 
ATOM     48  C   UNL A   1      44.337  31.445  27.344  1.00  0.00     0.029 A 
ATOM     49  N   UNL A   1      43.940  31.876  29.503  1.00  0.00    -0.354 N 
ATOM     50  C   UNL A   1      43.440  28.672  32.360  1.00  0.00     0.074 A 
ATOM     51  C   UNL A   1      43.574  27.383  31.720  1.00  0.00     0.031 C 
ATOM     52  C   UNL A   1      44.303  32.782  27.494  1.00  0.00     0.029 A 
ATOM     53  C   UNL A   1      43.993  33.103  28.887  1.00  0.00     0.049 A 
ATOM     54  H   UNL A   1      43.809  31.765  30.473  1.00  0.00     0.167 HD
ATOM     55  C   UNL A   1      43.225  28.846  33.683  1.00  0.00     0.037 A 
ATOM     56  C   UNL A   1      43.783  34.337  29.389  1.00  0.00     0.037 A 
ATOM     57  C   UNL A   1      43.089  30.127  34.323  1.00  0.00     0.049 A 
ATOM     58  C   UNL A   1      43.458  34.497  30.856  1.00  0.00     0.074 A 
ATOM     59  C   UNL A   1      42.897  30.405  35.664  1.00  0.00     0.029 A 
ATOM     60  N   UNL A   1      43.118  31.344  33.659  1.00  0.00    -0.354 N 
ATOM     61  N   UNL A   1      43.369  33.582  31.792  1.00  0.00    -0.248 NA
ATOM     62  C   UNL A   1      43.201  35.864  31.334  1.00  0.00     0.031 C 
ATOM     63  C   UNL A   1      42.754  31.788  35.806  1.00  0.00     0.029 A 
ATOM     64  C   UNL A   1      42.912  32.375  34.562  1.00  0.00     0.049 A 
ATOM     65  H   UNL A   1      43.261  31.458  32.692  1.00  0.00     0.167 HD
ATOM     66  C   UNL A   1      43.076  34.265  32.967  1.00  0.00     0.074 A 
ATOM     67  C   UNL A   1      43.018  35.671  32.632  1.00  0.00     0.031 C 
ATOM     68  C   UNL A   1      42.868  33.771  34.213  1.00  0.00     0.037 A 
BRANCH  55  69
ATOM     69  C   UNL A   1      43.098  27.619  34.534  1.00  0.00     0.064 A 
ATOM     70  C   UNL A   1      41.879  26.939  34.667  1.00  0.00     0.173 A 
ATOM     71  C   UNL A   1      44.224  27.087  35.180  1.00  0.00     0.173 A 
ATOM     72  F   UNL A   1      40.771  27.418  34.082  1.00  0.00    -0.203 F 
ATOM     73  C   UNL A   1      41.790  25.775  35.427  1.00  0.00     0.198 A 
ATOM     74  C   UNL A   1      44.136  25.911  35.918  1.00  0.00     0.198 A 
ATOM     75  F   UNL A   1      45.412  27.703  35.084  1.00  0.00    -0.203 F 
ATOM     76  F   UNL A   1      40.608  25.158  35.568  1.00  0.00    -0.200 F 
ATOM     77  C   UNL A   1      42.919  25.257  36.044  1.00  0.00     0.200 A 
ATOM     78  F   UNL A   1      45.230  25.406  36.504  1.00  0.00    -0.200 F 
ATOM     79  F   UNL A   1      42.834  24.130  36.764  1.00  0.00    -0.200 F 
ENDBRANCH  55  69
BRANCH  56  80
ATOM     80  C   UNL A   1      43.828  35.530  28.501  1.00  0.00     0.064 A 
ATOM     81  C   UNL A   1      45.038  36.178  28.216  1.00  0.00     0.173 A 
ATOM     82  C   UNL A   1      42.653  36.086  27.972  1.00  0.00     0.173 A 
ATOM     83  F   UNL A   1      46.186  35.702  28.718  1.00  0.00    -0.203 F 
ATOM     84  C   UNL A   1      45.068  37.351  27.463  1.00  0.00     0.198 A 
ATOM     85  C   UNL A   1      42.688  37.240  27.193  1.00  0.00     0.198 A 
ATOM     86  F   UNL A   1      41.467  35.511  28.220  1.00  0.00    -0.203 F 
ATOM     87  F   UNL A   1      46.233  37.979  27.253  1.00  0.00    -0.200 F 
ATOM     88  C   UNL A   1      43.894  37.879  26.949  1.00  0.00     0.200 A 
ATOM     89  F   UNL A   1      41.551  37.739  26.689  1.00  0.00    -0.200 F 
ATOM     90  F   UNL A   1      43.923  39.007  26.226  1.00  0.00    -0.200 F 
ENDBRANCH  56  80
BRANCH  68  91
ATOM     91  C   UNL A   1      42.594  34.756  35.314  1.00  0.00     0.064 A 
ATOM     92  C   UNL A   1      41.287  35.130  35.658  1.00  0.00     0.173 A 
ATOM     93  C   UNL A   1      43.649  35.292  36.068  1.00  0.00     0.173 A 
ATOM     94  F   UNL A   1      40.243  34.655  34.959  1.00  0.00    -0.203 F 
ATOM     95  C   UNL A   1      41.048  36.024  36.698  1.00  0.00     0.198 A 
ATOM     96  C   UNL A   1      43.405  36.161  37.128  1.00  0.00     0.198 A 
ATOM     97  F   UNL A   1      44.919  34.959  35.787  1.00  0.00    -0.203 F 
ATOM     98  F   UNL A   1      39.793  36.402  36.979  1.00  0.00    -0.200 F 
ATOM     99  C   UNL A   1      42.106  36.531  37.437  1.00  0.00     0.200 A 
ATOM    100  F   UNL A   1      44.427  36.638  37.850  1.00  0.00    -0.200 F 
ATOM    101  F   UNL A   1      41.873  37.384  38.445  1.00  0.00    -0.200 F 
ENDBRANCH  68  91
ENDBRANCH  42  43
ENDBRANCH  35  37
ENDBRANCH  34  35
ENDBRANCH  33  34
ENDBRANCH  32  33
ENDBRANCH  31  32
ENDBRANCH  30  31
ENDBRANCH  29  30
ENDBRANCH  28  29
ENDBRANCH   1  28
TORSDOF 24
ENDMDL
MODEL 3
REMARK VINA RESULT:      -9.2      1.760      4.382
REMARK SMILES O=C(CCc1nc(-c2ccccc2)c(-c2ccccc2)o1)OCCOCCOCCOCCOC(=O)c1ccc(-c2c3nc(c(-c4c(F)c(F)c(F)c(F)c4F)c4ccc([nH]4)c(-c4c(F)c(F)c(F)c(F)c4F)c4nc(c(-c5c(F)c(F)c(F)c(F)c5F)c5ccc2[nH]5)C=C4)C=C3)cc1
REMARK SMILES IDX 27 1 26 2 25 3 24 4 23 5 22 6 2 7 1 8 3 9 4 10 5 11 6 12
REMARK SMILES IDX 21 13 7 14 14 15 8 16 9 17 13 18 10 19 12 20 11 21 15 22
REMARK SMILES IDX 16 23 20 24 17 25 19 26 18 27 28 28 29 29 30 30 31 31 32 32
REMARK SMILES IDX 33 33 34 34 35 35 36 36 37 37 38 38 99 39 39 40 98 41 40 42
REMARK SMILES IDX 41 43 42 44 92 45 43 46 97 47 91 48 93 49 44 50 96 51 90 52
REMARK SMILES IDX 89 53 45 55 77 56 57 57 76 58 58 59 61 60 75 61 94 62 59 63
REMARK SMILES IDX 60 64 74 66 95 67 62 68 46 69 47 70 55 71 48 72 49 73 53 74
REMARK SMILES IDX 56 75 50 76 51 77 54 78 52 79 78 80 79 81 87 82 80 83 81 84
REMARK SMILES IDX 85 85 88 86 82 87 83 88 86 89 84 90 63 91 64 92 72 93 65 94
REMARK SMILES IDX 66 95 70 96 73 97 67 98 68 99 71 100 69 101
REMARK H PARENT 93 54 61 65
REMARK Flexibility Score: inf
ROOT
ATOM      1  C   UNL A   1      36.175  24.235  26.489  1.00  0.00     0.188 C 
ENDROOT
BRANCH   1   2
ATOM      2  C   UNL A   1      35.224  25.014  25.572  1.00  0.00     0.188 C 
BRANCH   2   3
ATOM      3  O   UNL A   1      34.007  25.489  26.128  1.00  0.00    -0.376 OA
BRANCH   3   4
ATOM      4  C   UNL A   1      33.532  26.788  25.790  1.00  0.00     0.202 C 
BRANCH   4   5
ATOM      5  C   UNL A   1      32.368  26.958  24.811  1.00  0.00     0.261 C 
BRANCH   5   6
ATOM      6  O   UNL A   1      31.081  26.458  25.196  1.00  0.00    -0.463 OA
BRANCH   6   7
ATOM      7  C   UNL A   1      30.706  25.167  25.093  1.00  0.00     0.306 C 
ATOM      8  O   UNL A   1      30.255  24.736  24.035  1.00  0.00    -0.252 OA
BRANCH   7   9
ATOM      9  C   UNL A   1      30.673  24.337  26.346  1.00  0.00     0.132 C 
BRANCH   9  10
ATOM     10  C   UNL A   1      30.427  22.851  26.125  1.00  0.00     0.109 C 
BRANCH  10  11
ATOM     11  C   UNL A   1      31.569  22.114  25.522  1.00  0.00     0.196 A 
ATOM     12  N   UNL A   1      32.786  22.564  25.289  1.00  0.00    -0.213 NA
ATOM     13  O   UNL A   1      31.402  20.774  25.262  1.00  0.00    -0.440 OA
ATOM     14  C   UNL A   1      33.477  21.454  24.864  1.00  0.00     0.117 A 
ATOM     15  C   UNL A   1      32.650  20.345  24.871  1.00  0.00     0.162 A 
BRANCH  14  16
ATOM     16  C   UNL A   1      34.903  21.427  24.630  1.00  0.00     0.004 A 
ATOM     17  C   UNL A   1      35.481  22.268  23.674  1.00  0.00     0.010 A 
ATOM     18  C   UNL A   1      35.703  20.496  25.306  1.00  0.00     0.010 A 
ATOM     19  C   UNL A   1      36.842  22.163  23.382  1.00  0.00     0.001 A 
ATOM     20  C   UNL A   1      37.060  20.383  25.001  1.00  0.00     0.001 A 
ATOM     21  C   UNL A   1      37.626  21.216  24.038  1.00  0.00     0.000 A 
ENDBRANCH  14  16
BRANCH  15  22
ATOM     22  C   UNL A   1      32.845  18.915  24.681  1.00  0.00     0.020 A 
ATOM     23  C   UNL A   1      33.314  18.403  23.467  1.00  0.00     0.012 A 
ATOM     24  C   UNL A   1      32.630  18.026  25.748  1.00  0.00     0.012 A 
ATOM     25  C   UNL A   1      33.605  17.042  23.338  1.00  0.00     0.001 A 
ATOM     26  C   UNL A   1      32.916  16.664  25.617  1.00  0.00     0.001 A 
ATOM     27  C   UNL A   1      33.415  16.175  24.414  1.00  0.00     0.000 A 
ENDBRANCH  15  22
ENDBRANCH  10  11
ENDBRANCH   9  10
ENDBRANCH   7   9
ENDBRANCH   6   7
ENDBRANCH   5   6
ENDBRANCH   4   5
ENDBRANCH   3   4
ENDBRANCH   2   3
ENDBRANCH   1   2
BRANCH   1  28
ATOM     28  O   UNL A   1      37.486  24.110  25.961  1.00  0.00    -0.377 OA
BRANCH  28  29
ATOM     29  C   UNL A   1      38.362  23.259  26.685  1.00  0.00     0.188 C 
BRANCH  29  30
ATOM     30  C   UNL A   1      39.875  23.486  26.501  1.00  0.00     0.188 C 
BRANCH  30  31
ATOM     31  O   UNL A   1      40.694  22.392  26.846  1.00  0.00    -0.376 OA
BRANCH  31  32
ATOM     32  C   UNL A   1      41.368  21.584  25.905  1.00  0.00     0.202 C 
BRANCH  32  33
ATOM     33  C   UNL A   1      42.865  21.633  25.539  1.00  0.00     0.261 C 
BRANCH  33  34
ATOM     34  O   UNL A   1      43.771  22.248  26.453  1.00  0.00    -0.460 OA
BRANCH  34  35
ATOM     35  C   UNL A   1      44.245  23.469  26.115  1.00  0.00     0.338 C 
ATOM     36  O   UNL A   1      44.943  23.745  25.154  1.00  0.00    -0.246 OA
BRANCH  35  37
ATOM     37  C   UNL A   1      43.581  24.475  26.978  1.00  0.00     0.060 A 
ATOM     38  C   UNL A   1      43.665  25.825  26.611  1.00  0.00     0.016 A 
ATOM     39  C   UNL A   1      42.848  24.098  28.107  1.00  0.00     0.016 A 
ATOM     40  C   UNL A   1      43.043  26.804  27.387  1.00  0.00     0.010 A 
ATOM     41  C   UNL A   1      42.247  25.081  28.899  1.00  0.00     0.010 A 
ATOM     42  C   UNL A   1      42.367  26.440  28.559  1.00  0.00    -0.014 A 
BRANCH  42  43
ATOM     43  C   UNL A   1      41.973  27.483  29.538  1.00  0.00     0.031 A 
ATOM     44  C   UNL A   1      42.754  27.578  30.820  1.00  0.00     0.074 A 
ATOM     45  C   UNL A   1      40.952  28.327  29.305  1.00  0.00     0.049 A 
ATOM     46  N   UNL A   1      42.562  28.349  31.860  1.00  0.00    -0.248 NA
ATOM     47  C   UNL A   1      43.913  26.677  30.946  1.00  0.00     0.031 C 
ATOM     48  C   UNL A   1      40.146  28.369  28.089  1.00  0.00     0.029 A 
ATOM     49  N   UNL A   1      40.412  29.308  30.102  1.00  0.00    -0.354 N 
ATOM     50  C   UNL A   1      43.568  28.023  32.760  1.00  0.00     0.074 A 
ATOM     51  C   UNL A   1      44.357  26.973  32.158  1.00  0.00     0.031 C 
ATOM     52  C   UNL A   1      39.195  29.311  28.230  1.00  0.00     0.029 A 
ATOM     53  C   UNL A   1      39.305  29.913  29.558  1.00  0.00     0.049 A 
ATOM     54  H   UNL A   1      40.783  29.553  30.981  1.00  0.00     0.167 HD
ATOM     55  C   UNL A   1      43.814  28.556  33.979  1.00  0.00     0.037 A 
ATOM     56  C   UNL A   1      38.463  30.822  30.089  1.00  0.00     0.037 A 
ATOM     57  C   UNL A   1      43.030  29.599  34.583  1.00  0.00     0.049 A 
ATOM     58  C   UNL A   1      38.711  31.337  31.488  1.00  0.00     0.074 A 
ATOM     59  C   UNL A   1      43.219  30.223  35.803  1.00  0.00     0.029 A 
ATOM     60  N   UNL A   1      41.898  30.162  34.013  1.00  0.00    -0.354 N 
ATOM     61  N   UNL A   1      39.687  31.053  32.317  1.00  0.00    -0.248 NA
ATOM     62  C   UNL A   1      37.735  32.298  32.025  1.00  0.00     0.031 C 
ATOM     63  C   UNL A   1      42.169  31.126  35.998  1.00  0.00     0.029 A 
ATOM     64  C   UNL A   1      41.359  31.104  34.875  1.00  0.00     0.049 A 
ATOM     65  H   UNL A   1      41.533  29.928  33.130  1.00  0.00     0.167 HD
ATOM     66  C   UNL A   1      39.457  31.818  33.455  1.00  0.00     0.074 A 
ATOM     67  C   UNL A   1      38.261  32.592  33.205  1.00  0.00     0.031 C 
ATOM     68  C   UNL A   1      40.172  31.873  34.606  1.00  0.00     0.037 A 
BRANCH  55  69
ATOM     69  C   UNL A   1      44.968  28.003  34.759  1.00  0.00     0.064 A 
ATOM     70  C   UNL A   1      46.247  28.573  34.686  1.00  0.00     0.173 A 
ATOM     71  C   UNL A   1      44.777  26.922  35.634  1.00  0.00     0.173 A 
ATOM     72  F   UNL A   1      46.484  29.596  33.852  1.00  0.00    -0.203 F 
ATOM     73  C   UNL A   1      47.297  28.072  35.451  1.00  0.00     0.198 A 
ATOM     74  C   UNL A   1      45.821  26.441  36.415  1.00  0.00     0.198 A 
ATOM     75  F   UNL A   1      43.571  26.342  35.738  1.00  0.00    -0.203 F 
ATOM     76  F   UNL A   1      48.519  28.610  35.342  1.00  0.00    -0.200 F 
ATOM     77  C   UNL A   1      47.082  27.014  36.322  1.00  0.00     0.200 A 
ATOM     78  F   UNL A   1      45.609  25.425  37.263  1.00  0.00    -0.200 F 
ATOM     79  F   UNL A   1      48.090  26.542  37.068  1.00  0.00    -0.200 F 
ENDBRANCH  55  69
BRANCH  56  80
ATOM     80  C   UNL A   1      37.274  31.287  29.324  1.00  0.00     0.064 A 
ATOM     81  C   UNL A   1      37.189  32.601  28.841  1.00  0.00     0.173 A 
ATOM     82  C   UNL A   1      36.171  30.446  29.117  1.00  0.00     0.173 A 
ATOM     83  F   UNL A   1      38.207  33.451  29.036  1.00  0.00    -0.203 F 
ATOM     84  C   UNL A   1      36.036  33.062  28.209  1.00  0.00     0.198 A 
ATOM     85  C   UNL A   1      35.031  30.900  28.455  1.00  0.00     0.198 A 
ATOM     86  F   UNL A   1      36.195  29.181  29.564  1.00  0.00    -0.203 F 
ATOM     87  F   UNL A   1      35.963  34.339  27.807  1.00  0.00    -0.200 F 
ATOM     88  C   UNL A   1      34.960  32.211  28.013  1.00  0.00     0.200 A 
ATOM     89  F   UNL A   1      33.998  30.069  28.259  1.00  0.00    -0.200 F 
ATOM     90  F   UNL A   1      33.852  32.657  27.406  1.00  0.00    -0.200 F 
ENDBRANCH  56  80
BRANCH  68  91
ATOM     91  C   UNL A   1      39.702  32.823  35.671  1.00  0.00     0.064 A 
ATOM     92  C   UNL A   1      38.824  32.414  36.686  1.00  0.00     0.173 A 
ATOM     93  C   UNL A   1      40.176  34.144  35.706  1.00  0.00     0.173 A 
ATOM     94  F   UNL A   1      38.332  31.165  36.691  1.00  0.00    -0.203 F 
ATOM     95  C   UNL A   1      38.418  33.300  37.681  1.00  0.00     0.198 A 
ATOM     96  C   UNL A   1      39.793  35.017  36.720  1.00  0.00     0.198 A 
ATOM     97  F   UNL A   1      41.026  34.582  34.764  1.00  0.00    -0.203 F 
ATOM     98  F   UNL A   1      37.544  32.901  38.614  1.00  0.00    -0.200 F 
ATOM     99  C   UNL A   1      38.910  34.597  37.702  1.00  0.00     0.200 A 
ATOM    100  F   UNL A   1      40.280  36.265  36.747  1.00  0.00    -0.200 F 
ATOM    101  F   UNL A   1      38.526  35.445  38.667  1.00  0.00    -0.200 F 
ENDBRANCH  68  91
ENDBRANCH  42  43
ENDBRANCH  35  37
ENDBRANCH  34  35
ENDBRANCH  33  34
ENDBRANCH  32  33
ENDBRANCH  31  32
ENDBRANCH  30  31
ENDBRANCH  29  30
ENDBRANCH  28  29
ENDBRANCH   1  28
TORSDOF 24
ENDMDL
