MODEL 1
REMARK VINA RESULT:     -10.0      0.000      0.000
REMARK SMILES Nc1c(N2CCC(C(=O)OCCOCCOCCOCCOC(=O)c3ccc(-c4c5nc(c(-c6c(F)c(F)c(F)c(F)c6F)c6ccc([nH]6)c(-c6c(F)c(F)c(F)c(F)c6F)c6nc(c(-c7c(F)c(F)c(F)c(F)c7F)c7ccc4[nH]7)C=C6)C=C5)cc3)CC2)ncnc1N1CCN(c2ccccc2)CC1
REMARK SMILES IDX 15 1 14 2 13 3 12 4 11 5 10 6 8 7 9 8 7 9 4 10 5 11 89 12
REMARK SMILES IDX 6 13 88 14 3 15 2 16 93 17 90 18 92 19 91 20 1 21 94 24
REMARK SMILES IDX 95 25 105 26 96 27 104 28 97 29 98 30 99 31 103 32 100 33
REMARK SMILES IDX 102 34 101 35 16 36 17 37 18 38 19 39 20 40 21 41 22 42
REMARK SMILES IDX 23 43 24 44 25 45 26 46 87 47 27 48 86 49 28 50 29 51 30 52
REMARK SMILES IDX 80 53 31 54 85 55 79 56 81 57 32 58 84 59 78 60 77 61 33 63
REMARK SMILES IDX 65 64 45 65 64 66 46 67 49 68 63 69 82 70 47 71 48 72 62 74
REMARK SMILES IDX 83 75 50 76 34 77 35 78 43 79 36 80 37 81 41 82 44 83 38 84
REMARK SMILES IDX 39 85 42 86 40 87 66 88 67 89 75 90 68 91 69 92 73 93 76 94
REMARK SMILES IDX 70 95 71 96 74 97 72 98 51 99 52 100 60 101 53 102 54 103
REMARK SMILES IDX 58 104 61 105 55 106 56 107 59 108 57 109
REMARK H PARENT 1 22 1 23 81 62 49 73
REMARK Flexibility Score: inf
ROOT
ATOM      1  C   UNL A   1      41.569  31.991  32.455  1.00  0.00     0.188 C 
ENDROOT
BRANCH   1   2
ATOM      2  C   UNL A   1      41.014  31.374  33.739  1.00  0.00     0.188 C 
BRANCH   2   3
ATOM      3  O   UNL A   1      40.023  32.051  34.494  1.00  0.00    -0.376 OA
BRANCH   3   4
ATOM      4  C   UNL A   1      39.428  31.432  35.628  1.00  0.00     0.202 C 
BRANCH   4   5
ATOM      5  C   UNL A   1      38.762  32.249  36.746  1.00  0.00     0.261 C 
BRANCH   5   6
ATOM      6  O   UNL A   1      37.502  32.862  36.425  1.00  0.00    -0.463 OA
BRANCH   6   7
ATOM      7  C   UNL A   1      37.524  33.787  35.439  1.00  0.00     0.309 C 
ATOM      8  O   UNL A   1      38.086  34.875  35.519  1.00  0.00    -0.252 OA
BRANCH   7   9
ATOM      9  C   UNL A   1      36.721  33.409  34.210  1.00  0.00     0.103 C 
ATOM     10  N   UNL A   1      35.226  33.901  31.865  1.00  0.00    -0.355 N 
ATOM     11  C   UNL A   1      34.552  33.214  32.938  1.00  0.00     0.119 C 
ATOM     12  C   UNL A   1      36.661  33.750  31.720  1.00  0.00     0.119 C 
ATOM     13  C   UNL A   1      35.202  33.616  34.250  1.00  0.00     0.037 C 
ATOM     14  C   UNL A   1      37.327  34.169  33.022  1.00  0.00     0.037 C 
BRANCH  10  15
ATOM     15  C   UNL A   1      34.418  34.187  30.782  1.00  0.00     0.157 A 
ATOM     16  C   UNL A   1      34.226  33.277  29.741  1.00  0.00     0.118 A 
ATOM     17  C   UNL A   1      33.379  33.705  28.710  1.00  0.00     0.157 A 
ATOM     18  N   UNL A   1      33.807  35.385  30.817  1.00  0.00    -0.217 NA
ATOM     19  N   UNL A   1      32.819  34.927  28.695  1.00  0.00    -0.217 NA
ATOM     20  C   UNL A   1      33.045  35.695  29.765  1.00  0.00     0.226 A 
BRANCH  16  21
ATOM     21  N   UNL A   1      34.792  31.992  29.743  1.00  0.00    -0.393 N 
ATOM     22  H   UNL A   1      34.210  31.198  29.782  1.00  0.00     0.156 HD
ATOM     23  H   UNL A   1      35.769  31.884  29.706  1.00  0.00     0.156 HD
ENDBRANCH  16  21
BRANCH  17  24
ATOM     24  N   UNL A   1      33.118  32.886  27.641  1.00  0.00    -0.351 N 
ATOM     25  C   UNL A   1      34.060  31.830  27.300  1.00  0.00     0.139 C 
ATOM     26  C   UNL A   1      31.946  33.050  26.785  1.00  0.00     0.139 C 
ATOM     27  C   UNL A   1      33.299  30.486  27.271  1.00  0.00     0.138 C 
ATOM     28  C   UNL A   1      31.193  31.711  26.624  1.00  0.00     0.138 C 
ATOM     29  N   UNL A   1      32.121  30.592  26.394  1.00  0.00    -0.368 N 
BRANCH  29  30
ATOM     30  C   UNL A   1      31.879  29.655  25.420  1.00  0.00     0.037 A 
ATOM     31  C   UNL A   1      32.696  28.530  25.270  1.00  0.00     0.026 A 
ATOM     32  C   UNL A   1      30.812  29.816  24.527  1.00  0.00     0.026 A 
ATOM     33  C   UNL A   1      32.452  27.590  24.265  1.00  0.00     0.002 A 
ATOM     34  C   UNL A   1      30.573  28.892  23.510  1.00  0.00     0.002 A 
ATOM     35  C   UNL A   1      31.393  27.775  23.382  1.00  0.00     0.000 A 
ENDBRANCH  29  30
ENDBRANCH  17  24
ENDBRANCH  10  15
ENDBRANCH   7   9
ENDBRANCH   6   7
ENDBRANCH   5   6
ENDBRANCH   4   5
ENDBRANCH   3   4
ENDBRANCH   2   3
ENDBRANCH   1   2
BRANCH   1  36
ATOM     36  O   UNL A   1      40.609  32.298  31.465  1.00  0.00    -0.377 OA
BRANCH  36  37
ATOM     37  C   UNL A   1      40.512  33.657  31.049  1.00  0.00     0.188 C 
BRANCH  37  38
ATOM     38  C   UNL A   1      41.668  34.252  30.222  1.00  0.00     0.188 C 
BRANCH  38  39
ATOM     39  O   UNL A   1      41.270  35.280  29.324  1.00  0.00    -0.376 OA
BRANCH  39  40
ATOM     40  C   UNL A   1      42.269  36.121  28.762  1.00  0.00     0.202 C 
BRANCH  40  41
ATOM     41  C   UNL A   1      43.350  36.676  29.705  1.00  0.00     0.261 C 
BRANCH  41  42
ATOM     42  O   UNL A   1      44.656  36.889  29.143  1.00  0.00    -0.460 OA
BRANCH  42  43
ATOM     43  C   UNL A   1      45.731  36.367  29.768  1.00  0.00     0.338 C 
ATOM     44  O   UNL A   1      46.435  36.900  30.606  1.00  0.00    -0.246 OA
BRANCH  43  45
ATOM     45  C   UNL A   1      45.785  34.933  29.416  1.00  0.00     0.060 A 
ATOM     46  C   UNL A   1      45.705  34.565  28.066  1.00  0.00     0.016 A 
ATOM     47  C   UNL A   1      45.935  33.958  30.406  1.00  0.00     0.016 A 
ATOM     48  C   UNL A   1      45.753  33.219  27.705  1.00  0.00     0.010 A 
ATOM     49  C   UNL A   1      45.954  32.608  30.046  1.00  0.00     0.010 A 
ATOM     50  C   UNL A   1      45.834  32.232  28.697  1.00  0.00    -0.014 A 
BRANCH  50  51
ATOM     51  C   UNL A   1      45.577  30.819  28.332  1.00  0.00     0.031 A 
ATOM     52  C   UNL A   1      44.169  30.305  28.447  1.00  0.00     0.074 A 
ATOM     53  C   UNL A   1      46.552  30.020  27.866  1.00  0.00     0.049 A 
ATOM     54  N   UNL A   1      43.690  29.119  28.170  1.00  0.00    -0.248 NA
ATOM     55  C   UNL A   1      43.161  31.261  28.935  1.00  0.00     0.031 C 
ATOM     56  C   UNL A   1      47.945  30.415  27.670  1.00  0.00     0.029 A 
ATOM     57  N   UNL A   1      46.514  28.707  27.467  1.00  0.00    -0.354 N 
ATOM     58  C   UNL A   1      42.330  29.193  28.439  1.00  0.00     0.074 A 
ATOM     59  C   UNL A   1      42.063  30.523  28.941  1.00  0.00     0.031 C 
ATOM     60  C   UNL A   1      48.630  29.365  27.185  1.00  0.00     0.029 A 
ATOM     61  C   UNL A   1      47.731  28.216  27.062  1.00  0.00     0.049 A 
ATOM     62  H   UNL A   1      45.691  28.166  27.471  1.00  0.00     0.167 HD
ATOM     63  C   UNL A   1      41.383  28.243  28.264  1.00  0.00     0.037 A 
ATOM     64  C   UNL A   1      48.076  26.980  26.648  1.00  0.00     0.037 A 
ATOM     65  C   UNL A   1      41.650  26.919  27.772  1.00  0.00     0.049 A 
ATOM     66  C   UNL A   1      47.020  25.905  26.558  1.00  0.00     0.074 A 
ATOM     67  C   UNL A   1      40.756  25.887  27.553  1.00  0.00     0.029 A 
ATOM     68  N   UNL A   1      42.907  26.441  27.432  1.00  0.00    -0.354 N 
ATOM     69  N   UNL A   1      45.732  25.991  26.781  1.00  0.00    -0.248 NA
ATOM     70  C   UNL A   1      47.468  24.560  26.162  1.00  0.00     0.031 C 
ATOM     71  C   UNL A   1      41.478  24.768  27.134  1.00  0.00     0.029 A 
ATOM     72  C   UNL A   1      42.816  25.119  27.036  1.00  0.00     0.049 A 
ATOM     73  H   UNL A   1      43.740  26.965  27.467  1.00  0.00     0.167 HD
ATOM     74  C   UNL A   1      45.211  24.728  26.528  1.00  0.00     0.074 A 
ATOM     75  C   UNL A   1      46.322  23.891  26.124  1.00  0.00     0.031 C 
ATOM     76  C   UNL A   1      43.929  24.301  26.624  1.00  0.00     0.037 A 
BRANCH  63  77
ATOM     77  C   UNL A   1      39.970  28.594  28.615  1.00  0.00     0.064 A 
ATOM     78  C   UNL A   1      39.091  29.132  27.663  1.00  0.00     0.173 A 
ATOM     79  C   UNL A   1      39.469  28.335  29.900  1.00  0.00     0.173 A 
ATOM     80  F   UNL A   1      39.527  29.412  26.425  1.00  0.00    -0.203 F 
ATOM     81  C   UNL A   1      37.768  29.414  27.988  1.00  0.00     0.198 A 
ATOM     82  C   UNL A   1      38.137  28.590  30.213  1.00  0.00     0.198 A 
ATOM     83  F   UNL A   1      40.268  27.819  30.846  1.00  0.00    -0.203 F 
ATOM     84  F   UNL A   1      36.956  29.962  27.073  1.00  0.00    -0.200 F 
ATOM     85  C   UNL A   1      37.289  29.133  29.259  1.00  0.00     0.200 A 
ATOM     86  F   UNL A   1      37.673  28.306  31.438  1.00  0.00    -0.200 F 
ATOM     87  F   UNL A   1      36.010  29.388  29.567  1.00  0.00    -0.200 F 
ENDBRANCH  63  77
BRANCH  64  88
ATOM     88  C   UNL A   1      49.488  26.691  26.277  1.00  0.00     0.064 A 
ATOM     89  C   UNL A   1      50.416  26.275  27.242  1.00  0.00     0.173 A 
ATOM     90  C   UNL A   1      49.937  26.822  24.955  1.00  0.00     0.173 A 
ATOM     91  F   UNL A   1      50.043  26.162  28.525  1.00  0.00    -0.203 F 
ATOM     92  C   UNL A   1      51.740  26.006  26.900  1.00  0.00     0.198 A 
ATOM     93  C   UNL A   1      51.255  26.527  24.609  1.00  0.00     0.198 A 
ATOM     94  F   UNL A   1      49.092  27.226  23.995  1.00  0.00    -0.203 F 
ATOM     95  F   UNL A   1      52.615  25.646  27.848  1.00  0.00    -0.200 F 
ATOM     96  C   UNL A   1      52.156  26.124  25.582  1.00  0.00     0.200 A 
ATOM     97  F   UNL A   1      51.651  26.634  23.333  1.00  0.00    -0.200 F 
ATOM     98  F   UNL A   1      53.427  25.857  25.252  1.00  0.00    -0.200 F 
ENDBRANCH  64  88
BRANCH  76  99
ATOM     99  C   UNL A   1      43.627  22.873  26.272  1.00  0.00     0.064 A 
ATOM    100  C   UNL A   1      44.004  22.329  25.036  1.00  0.00     0.173 A 
ATOM    101  C   UNL A   1      43.071  22.007  27.228  1.00  0.00     0.173 A 
ATOM    102  F   UNL A   1      44.530  23.117  24.085  1.00  0.00    -0.203 F 
ATOM    103  C   UNL A   1      43.838  20.972  24.770  1.00  0.00     0.198 A 
ATOM    104  C   UNL A   1      42.934  20.646  26.970  1.00  0.00     0.198 A 
ATOM    105  F   UNL A   1      42.704  22.475  28.431  1.00  0.00    -0.203 F 
ATOM    106  F   UNL A   1      44.191  20.478  23.576  1.00  0.00    -0.200 F 
ATOM    107  C   UNL A   1      43.317  20.130  25.742  1.00  0.00     0.200 A 
ATOM    108  F   UNL A   1      42.450  19.832  27.918  1.00  0.00    -0.200 F 
ATOM    109  F   UNL A   1      43.189  18.819  25.495  1.00  0.00    -0.200 F 
ENDBRANCH  76  99
ENDBRANCH  50  51
ENDBRANCH  43  45
ENDBRANCH  42  43
ENDBRANCH  41  42
ENDBRANCH  40  41
ENDBRANCH  39  40
ENDBRANCH  38  39
ENDBRANCH  37  38
ENDBRANCH  36  37
ENDBRANCH   1  36
TORSDOF 24
ENDMDL
MODEL 2
REMARK VINA RESULT:      -9.9      3.993      8.273
REMARK SMILES Nc1c(N2CCC(C(=O)OCCOCCOCCOCCOC(=O)c3ccc(-c4c5nc(c(-c6c(F)c(F)c(F)c(F)c6F)c6ccc([nH]6)c(-c6c(F)c(F)c(F)c(F)c6F)c6nc(c(-c7c(F)c(F)c(F)c(F)c7F)c7ccc4[nH]7)C=C6)C=C5)cc3)CC2)ncnc1N1CCN(c2ccccc2)CC1
REMARK SMILES IDX 15 1 14 2 13 3 12 4 11 5 10 6 8 7 9 8 7 9 4 10 5 11 89 12
REMARK SMILES IDX 6 13 88 14 3 15 2 16 93 17 90 18 92 19 91 20 1 21 94 24
REMARK SMILES IDX 95 25 105 26 96 27 104 28 97 29 98 30 99 31 103 32 100 33
REMARK SMILES IDX 102 34 101 35 16 36 17 37 18 38 19 39 20 40 21 41 22 42
REMARK SMILES IDX 23 43 24 44 25 45 26 46 87 47 27 48 86 49 28 50 29 51 30 52
REMARK SMILES IDX 80 53 31 54 85 55 79 56 81 57 32 58 84 59 78 60 77 61 33 63
REMARK SMILES IDX 65 64 45 65 64 66 46 67 49 68 63 69 82 70 47 71 48 72 62 74
REMARK SMILES IDX 83 75 50 76 34 77 35 78 43 79 36 80 37 81 41 82 44 83 38 84
REMARK SMILES IDX 39 85 42 86 40 87 66 88 67 89 75 90 68 91 69 92 73 93 76 94
REMARK SMILES IDX 70 95 71 96 74 97 72 98 51 99 52 100 60 101 53 102 54 103
REMARK SMILES IDX 58 104 61 105 55 106 56 107 59 108 57 109
REMARK H PARENT 1 22 1 23 81 62 49 73
REMARK Flexibility Score: inf
ROOT
ATOM      1  C   UNL A   1      40.277  29.222  30.825  1.00  0.00     0.188 C 
ENDROOT
BRANCH   1   2
ATOM      2  C   UNL A   1      40.109  28.953  32.322  1.00  0.00     0.188 C 
BRANCH   2   3
ATOM      3  O   UNL A   1      39.264  29.772  33.111  1.00  0.00    -0.376 OA
BRANCH   3   4
ATOM      4  C   UNL A   1      39.758  30.969  33.699  1.00  0.00     0.202 C 
BRANCH   4   5
ATOM      5  C   UNL A   1      39.403  32.357  33.143  1.00  0.00     0.261 C 
BRANCH   5   6
ATOM      6  O   UNL A   1      38.520  32.383  32.008  1.00  0.00    -0.463 OA
BRANCH   6   7
ATOM      7  C   UNL A   1      38.323  33.592  31.434  1.00  0.00     0.309 C 
ATOM      8  O   UNL A   1      39.011  34.585  31.652  1.00  0.00    -0.252 OA
BRANCH   7   9
ATOM      9  C   UNL A   1      37.113  33.661  30.524  1.00  0.00     0.103 C 
ATOM     10  N   UNL A   1      34.994  32.611  28.982  1.00  0.00    -0.355 N 
ATOM     11  C   UNL A   1      35.992  33.380  28.282  1.00  0.00     0.119 C 
ATOM     12  C   UNL A   1      34.719  32.908  30.374  1.00  0.00     0.119 C 
ATOM     13  C   UNL A   1      37.299  33.282  29.050  1.00  0.00     0.037 C 
ATOM     14  C   UNL A   1      36.018  32.794  31.159  1.00  0.00     0.037 C 
BRANCH  10  15
ATOM     15  C   UNL A   1      34.032  32.054  28.160  1.00  0.00     0.157 A 
ATOM     16  C   UNL A   1      34.081  30.716  27.765  1.00  0.00     0.118 A 
ATOM     17  C   UNL A   1      33.037  30.292  26.932  1.00  0.00     0.157 A 
ATOM     18  N   UNL A   1      33.035  32.880  27.796  1.00  0.00    -0.217 NA
ATOM     19  N   UNL A   1      32.073  31.124  26.501  1.00  0.00    -0.217 NA
ATOM     20  C   UNL A   1      32.111  32.371  26.978  1.00  0.00     0.226 A 
BRANCH  16  21
ATOM     21  N   UNL A   1      35.072  29.828  28.214  1.00  0.00    -0.393 N 
ATOM     22  H   UNL A   1      34.906  28.857  28.199  1.00  0.00     0.156 HD
ATOM     23  H   UNL A   1      35.931  30.175  28.544  1.00  0.00     0.156 HD
ENDBRANCH  16  21
BRANCH  17  24
ATOM     24  N   UNL A   1      32.985  28.994  26.490  1.00  0.00    -0.351 N 
ATOM     25  C   UNL A   1      32.324  27.986  27.304  1.00  0.00     0.139 C 
ATOM     26  C   UNL A   1      33.608  28.557  25.243  1.00  0.00     0.139 C 
ATOM     27  C   UNL A   1      31.240  27.296  26.445  1.00  0.00     0.138 C 
ATOM     28  C   UNL A   1      32.604  27.763  24.378  1.00  0.00     0.138 C 
ATOM     29  N   UNL A   1      31.827  26.810  25.186  1.00  0.00    -0.368 N 
BRANCH  29  30
ATOM     30  C   UNL A   1      31.624  25.519  24.764  1.00  0.00     0.037 A 
ATOM     31  C   UNL A   1      30.812  25.231  23.661  1.00  0.00     0.026 A 
ATOM     32  C   UNL A   1      32.207  24.446  25.448  1.00  0.00     0.026 A 
ATOM     33  C   UNL A   1      30.597  23.913  23.249  1.00  0.00     0.002 A 
ATOM     34  C   UNL A   1      31.983  23.127  25.054  1.00  0.00     0.002 A 
ATOM     35  C   UNL A   1      31.179  22.861  23.950  1.00  0.00     0.000 A 
ENDBRANCH  29  30
ENDBRANCH  17  24
ENDBRANCH  10  15
ENDBRANCH   7   9
ENDBRANCH   6   7
ENDBRANCH   5   6
ENDBRANCH   4   5
ENDBRANCH   3   4
ENDBRANCH   2   3
ENDBRANCH   1   2
BRANCH   1  36
ATOM     36  O   UNL A   1      41.371  28.574  30.211  1.00  0.00    -0.377 OA
BRANCH  36  37
ATOM     37  C   UNL A   1      41.188  28.105  28.879  1.00  0.00     0.188 C 
BRANCH  37  38
ATOM     38  C   UNL A   1      39.824  28.343  28.202  1.00  0.00     0.188 C 
BRANCH  38  39
ATOM     39  O   UNL A   1      38.893  27.284  28.385  1.00  0.00    -0.376 OA
BRANCH  39  40
ATOM     40  C   UNL A   1      39.370  25.944  28.363  1.00  0.00     0.202 C 
BRANCH  40  41
ATOM     41  C   UNL A   1      39.280  25.175  27.034  1.00  0.00     0.261 C 
BRANCH  41  42
ATOM     42  O   UNL A   1      40.481  25.095  26.247  1.00  0.00    -0.460 OA
BRANCH  42  43
ATOM     43  C   UNL A   1      41.521  24.375  26.713  1.00  0.00     0.338 C 
ATOM     44  O   UNL A   1      41.536  23.193  27.003  1.00  0.00    -0.246 OA
BRANCH  43  45
ATOM     45  C   UNL A   1      42.724  25.227  26.607  1.00  0.00     0.060 A 
ATOM     46  C   UNL A   1      43.501  25.444  27.752  1.00  0.00     0.016 A 
ATOM     47  C   UNL A   1      43.096  25.793  25.384  1.00  0.00     0.016 A 
ATOM     48  C   UNL A   1      44.640  26.245  27.682  1.00  0.00     0.010 A 
ATOM     49  C   UNL A   1      44.222  26.618  25.320  1.00  0.00     0.010 A 
ATOM     50  C   UNL A   1      44.982  26.870  26.476  1.00  0.00    -0.014 A 
BRANCH  50  51
ATOM     51  C   UNL A   1      45.999  27.949  26.482  1.00  0.00     0.031 A 
ATOM     52  C   UNL A   1      45.536  29.355  26.744  1.00  0.00     0.074 A 
ATOM     53  C   UNL A   1      47.306  27.688  26.311  1.00  0.00     0.049 A 
ATOM     54  N   UNL A   1      46.233  30.460  26.819  1.00  0.00    -0.248 NA
ATOM     55  C   UNL A   1      44.090  29.540  26.954  1.00  0.00     0.031 C 
ATOM     56  C   UNL A   1      47.881  26.362  26.093  1.00  0.00     0.029 A 
ATOM     57  N   UNL A   1      48.389  28.532  26.298  1.00  0.00    -0.354 N 
ATOM     58  C   UNL A   1      45.313  31.463  27.096  1.00  0.00     0.074 A 
ATOM     59  C   UNL A   1      44.005  30.847  27.132  1.00  0.00     0.031 C 
ATOM     60  C   UNL A   1      49.215  26.482  25.969  1.00  0.00     0.029 A 
ATOM     61  C   UNL A   1      49.584  27.894  26.073  1.00  0.00     0.049 A 
ATOM     62  H   UNL A   1      48.316  29.504  26.436  1.00  0.00     0.167 HD
ATOM     63  C   UNL A   1      45.541  32.777  27.320  1.00  0.00     0.037 A 
ATOM     64  C   UNL A   1      50.830  28.399  25.956  1.00  0.00     0.037 A 
ATOM     65  C   UNL A   1      46.841  33.389  27.275  1.00  0.00     0.049 A 
ATOM     66  C   UNL A   1      51.047  29.885  26.108  1.00  0.00     0.074 A 
ATOM     67  C   UNL A   1      47.175  34.713  27.495  1.00  0.00     0.029 A 
ATOM     68  N   UNL A   1      48.020  32.720  26.981  1.00  0.00    -0.354 N 
ATOM     69  N   UNL A   1      50.179  30.821  26.403  1.00  0.00    -0.248 NA
ATOM     70  C   UNL A   1      52.417  30.384  25.907  1.00  0.00     0.031 C 
ATOM     71  C   UNL A   1      48.547  34.856  27.281  1.00  0.00     0.029 A 
ATOM     72  C   UNL A   1      49.079  33.611  26.983  1.00  0.00     0.049 A 
ATOM     73  H   UNL A   1      48.092  31.755  26.800  1.00  0.00     0.167 HD
ATOM     74  C   UNL A   1      50.897  32.010  26.450  1.00  0.00     0.074 A 
ATOM     75  C   UNL A   1      52.276  31.679  26.163  1.00  0.00     0.031 C 
ATOM     76  C   UNL A   1      50.450  33.264  26.707  1.00  0.00     0.037 A 
BRANCH  63  77
ATOM     77  C   UNL A   1      44.360  33.648  27.623  1.00  0.00     0.064 A 
ATOM     78  C   UNL A   1      43.785  33.681  28.902  1.00  0.00     0.173 A 
ATOM     79  C   UNL A   1      43.834  34.502  26.643  1.00  0.00     0.173 A 
ATOM     80  F   UNL A   1      44.243  32.871  29.870  1.00  0.00    -0.203 F 
ATOM     81  C   UNL A   1      42.717  34.527  29.185  1.00  0.00     0.198 A 
ATOM     82  C   UNL A   1      42.785  35.368  26.938  1.00  0.00     0.198 A 
ATOM     83  F   UNL A   1      44.350  34.510  25.405  1.00  0.00    -0.203 F 
ATOM     84  F   UNL A   1      42.160  34.515  30.404  1.00  0.00    -0.200 F 
ATOM     85  C   UNL A   1      42.224  35.376  28.206  1.00  0.00     0.200 A 
ATOM     86  F   UNL A   1      42.319  36.198  25.994  1.00  0.00    -0.200 F 
ATOM     87  F   UNL A   1      41.206  36.203  28.484  1.00  0.00    -0.200 F 
ENDBRANCH  63  77
BRANCH  64  88
ATOM     88  C   UNL A   1      51.975  27.487  25.688  1.00  0.00     0.064 A 
ATOM     89  C   UNL A   1      52.710  26.924  26.741  1.00  0.00     0.173 A 
ATOM     90  C   UNL A   1      52.356  27.158  24.379  1.00  0.00     0.173 A 
ATOM     91  F   UNL A   1      52.404  27.231  28.010  1.00  0.00    -0.203 F 
ATOM     92  C   UNL A   1      53.785  26.072  26.494  1.00  0.00     0.198 A 
ATOM     93  C   UNL A   1      53.414  26.284  24.134  1.00  0.00     0.198 A 
ATOM     94  F   UNL A   1      51.691  27.676  23.335  1.00  0.00    -0.203 F 
ATOM     95  F   UNL A   1      54.494  25.578  27.518  1.00  0.00    -0.200 F 
ATOM     96  C   UNL A   1      54.131  25.746  25.192  1.00  0.00     0.200 A 
ATOM     97  F   UNL A   1      53.739  25.965  22.874  1.00  0.00    -0.200 F 
ATOM     98  F   UNL A   1      55.158  24.919  24.956  1.00  0.00    -0.200 F 
ENDBRANCH  64  88
BRANCH  76  99
ATOM     99  C   UNL A   1      51.448  34.386  26.715  1.00  0.00     0.064 A 
ATOM    100  C   UNL A   1      51.605  35.231  25.607  1.00  0.00     0.173 A 
ATOM    101  C   UNL A   1      52.158  34.697  27.886  1.00  0.00     0.173 A 
ATOM    102  F   UNL A   1      50.956  34.970  24.462  1.00  0.00    -0.203 F 
ATOM    103  C   UNL A   1      52.437  36.347  25.672  1.00  0.00     0.198 A 
ATOM    104  C   UNL A   1      52.966  35.830  27.955  1.00  0.00     0.198 A 
ATOM    105  F   UNL A   1      52.033  33.927  28.977  1.00  0.00    -0.203 F 
ATOM    106  F   UNL A   1      52.585  37.131  24.595  1.00  0.00    -0.200 F 
ATOM    107  C   UNL A   1      53.103  36.653  26.849  1.00  0.00     0.200 A 
ATOM    108  F   UNL A   1      53.592  36.134  29.100  1.00  0.00    -0.200 F 
ATOM    109  F   UNL A   1      53.877  37.745  26.917  1.00  0.00    -0.200 F 
ENDBRANCH  76  99
ENDBRANCH  50  51
ENDBRANCH  43  45
ENDBRANCH  42  43
ENDBRANCH  41  42
ENDBRANCH  40  41
ENDBRANCH  39  40
ENDBRANCH  38  39
ENDBRANCH  37  38
ENDBRANCH  36  37
ENDBRANCH   1  36
TORSDOF 24
ENDMDL
MODEL 3
REMARK VINA RESULT:      -9.8      5.243     12.035
REMARK SMILES Nc1c(N2CCC(C(=O)OCCOCCOCCOCCOC(=O)c3ccc(-c4c5nc(c(-c6c(F)c(F)c(F)c(F)c6F)c6ccc([nH]6)c(-c6c(F)c(F)c(F)c(F)c6F)c6nc(c(-c7c(F)c(F)c(F)c(F)c7F)c7ccc4[nH]7)C=C6)C=C5)cc3)CC2)ncnc1N1CCN(c2ccccc2)CC1
REMARK SMILES IDX 15 1 14 2 13 3 12 4 11 5 10 6 8 7 9 8 7 9 4 10 5 11 89 12
REMARK SMILES IDX 6 13 88 14 3 15 2 16 93 17 90 18 92 19 91 20 1 21 94 24
REMARK SMILES IDX 95 25 105 26 96 27 104 28 97 29 98 30 99 31 103 32 100 33
REMARK SMILES IDX 102 34 101 35 16 36 17 37 18 38 19 39 20 40 21 41 22 42
REMARK SMILES IDX 23 43 24 44 25 45 26 46 87 47 27 48 86 49 28 50 29 51 30 52
REMARK SMILES IDX 80 53 31 54 85 55 79 56 81 57 32 58 84 59 78 60 77 61 33 63
REMARK SMILES IDX 65 64 45 65 64 66 46 67 49 68 63 69 82 70 47 71 48 72 62 74
REMARK SMILES IDX 83 75 50 76 34 77 35 78 43 79 36 80 37 81 41 82 44 83 38 84
REMARK SMILES IDX 39 85 42 86 40 87 66 88 67 89 75 90 68 91 69 92 73 93 76 94
REMARK SMILES IDX 70 95 71 96 74 97 72 98 51 99 52 100 60 101 53 102 54 103
REMARK SMILES IDX 58 104 61 105 55 106 56 107 59 108 57 109
REMARK H PARENT 1 22 1 23 81 62 49 73
REMARK Flexibility Score: inf
ROOT
ATOM      1  C   UNL A   1      37.564  31.062  33.444  1.00  0.00     0.188 C 
ENDROOT
BRANCH   1   2
ATOM      2  C   UNL A   1      37.266  29.777  32.669  1.00  0.00     0.188 C 
BRANCH   2   3
ATOM      3  O   UNL A   1      37.498  28.509  33.259  1.00  0.00    -0.376 OA
BRANCH   3   4
ATOM      4  C   UNL A   1      38.603  27.713  32.852  1.00  0.00     0.202 C 
BRANCH   4   5
ATOM      5  C   UNL A   1      39.999  28.313  32.620  1.00  0.00     0.261 C 
BRANCH   5   6
ATOM      6  O   UNL A   1      41.087  27.688  33.322  1.00  0.00    -0.463 OA
BRANCH   6   7
ATOM      7  C   UNL A   1      41.536  28.334  34.423  1.00  0.00     0.309 C 
ATOM      8  O   UNL A   1      41.612  29.554  34.529  1.00  0.00    -0.252 OA
BRANCH   7   9
ATOM      9  C   UNL A   1      42.020  27.419  35.530  1.00  0.00     0.103 C 
ATOM     10  N   UNL A   1      43.897  25.820  36.906  1.00  0.00    -0.355 N 
ATOM     11  C   UNL A   1      42.716  25.159  36.409  1.00  0.00     0.119 C 
ATOM     12  C   UNL A   1      43.823  27.222  37.271  1.00  0.00     0.119 C 
ATOM     13  C   UNL A   1      42.205  25.931  35.205  1.00  0.00     0.037 C 
ATOM     14  C   UNL A   1      43.330  28.010  36.066  1.00  0.00     0.037 C 
BRANCH  10  15
ATOM     15  C   UNL A   1      44.814  24.970  37.494  1.00  0.00     0.157 A 
ATOM     16  C   UNL A   1      45.991  24.589  36.847  1.00  0.00     0.118 A 
ATOM     17  C   UNL A   1      46.825  23.723  37.566  1.00  0.00     0.157 A 
ATOM     18  N   UNL A   1      44.509  24.564  38.739  1.00  0.00    -0.217 NA
ATOM     19  N   UNL A   1      46.500  23.250  38.782  1.00  0.00    -0.217 NA
ATOM     20  C   UNL A   1      45.367  23.717  39.315  1.00  0.00     0.226 A 
BRANCH  16  21
ATOM     21  N   UNL A   1      46.354  25.081  35.583  1.00  0.00    -0.393 N 
ATOM     22  H   UNL A   1      47.139  24.709  35.117  1.00  0.00     0.156 HD
ATOM     23  H   UNL A   1      45.826  25.796  35.162  1.00  0.00     0.156 HD
ENDBRANCH  16  21
BRANCH  17  24
ATOM     24  N   UNL A   1      48.009  23.291  37.025  1.00  0.00    -0.351 N 
ATOM     25  C   UNL A   1      48.038  22.051  36.264  1.00  0.00     0.139 C 
ATOM     26  C   UNL A   1      49.272  24.001  37.213  1.00  0.00     0.139 C 
ATOM     27  C   UNL A   1      48.633  22.346  34.868  1.00  0.00     0.138 C 
ATOM     28  C   UNL A   1      49.976  24.235  35.858  1.00  0.00     0.138 C 
ATOM     29  N   UNL A   1      49.925  23.036  35.006  1.00  0.00    -0.368 N 
BRANCH  29  30
ATOM     30  C   UNL A   1      51.037  22.596  34.331  1.00  0.00     0.037 A 
ATOM     31  C   UNL A   1      52.231  23.325  34.336  1.00  0.00     0.026 A 
ATOM     32  C   UNL A   1      50.995  21.408  33.590  1.00  0.00     0.026 A 
ATOM     33  C   UNL A   1      53.352  22.877  33.632  1.00  0.00     0.002 A 
ATOM     34  C   UNL A   1      52.104  20.964  32.870  1.00  0.00     0.002 A 
ATOM     35  C   UNL A   1      53.285  21.699  32.894  1.00  0.00     0.000 A 
ENDBRANCH  29  30
ENDBRANCH  17  24
ENDBRANCH  10  15
ENDBRANCH   7   9
ENDBRANCH   6   7
ENDBRANCH   5   6
ENDBRANCH   4   5
ENDBRANCH   3   4
ENDBRANCH   2   3
ENDBRANCH   1   2
BRANCH   1  36
ATOM     36  O   UNL A   1      36.532  32.025  33.441  1.00  0.00    -0.377 OA
BRANCH  36  37
ATOM     37  C   UNL A   1      36.328  32.760  32.238  1.00  0.00     0.188 C 
BRANCH  37  38
ATOM     38  C   UNL A   1      34.887  33.151  31.857  1.00  0.00     0.188 C 
BRANCH  38  39
ATOM     39  O   UNL A   1      34.799  34.007  30.724  1.00  0.00    -0.376 OA
BRANCH  39  40
ATOM     40  C   UNL A   1      35.465  33.626  29.527  1.00  0.00     0.202 C 
BRANCH  40  41
ATOM     41  C   UNL A   1      34.694  32.744  28.529  1.00  0.00     0.261 C 
BRANCH  41  42
ATOM     42  O   UNL A   1      34.550  31.354  28.867  1.00  0.00    -0.460 OA
BRANCH  42  43
ATOM     43  C   UNL A   1      34.809  30.423  27.928  1.00  0.00     0.338 C 
ATOM     44  O   UNL A   1      34.117  30.118  26.974  1.00  0.00    -0.246 OA
BRANCH  43  45
ATOM     45  C   UNL A   1      36.201  29.973  28.132  1.00  0.00     0.060 A 
ATOM     46  C   UNL A   1      36.545  29.375  29.351  1.00  0.00     0.016 A 
ATOM     47  C   UNL A   1      37.157  30.120  27.123  1.00  0.00     0.016 A 
ATOM     48  C   UNL A   1      37.852  28.942  29.572  1.00  0.00     0.010 A 
ATOM     49  C   UNL A   1      38.473  29.712  27.355  1.00  0.00     0.010 A 
ATOM     50  C   UNL A   1      38.832  29.148  28.591  1.00  0.00    -0.014 A 
BRANCH  50  51
ATOM     51  C   UNL A   1      40.260  28.970  28.947  1.00  0.00     0.031 A 
ATOM     52  C   UNL A   1      40.932  27.685  28.551  1.00  0.00     0.074 A 
ATOM     53  C   UNL A   1      40.961  29.938  29.562  1.00  0.00     0.049 A 
ATOM     54  N   UNL A   1      42.170  27.303  28.732  1.00  0.00    -0.248 NA
ATOM     55  C   UNL A   1      40.093  26.696  27.852  1.00  0.00     0.031 C 
ATOM     56  C   UNL A   1      40.433  31.241  29.957  1.00  0.00     0.029 A 
ATOM     57  N   UNL A   1      42.275  29.972  29.958  1.00  0.00    -0.354 N 
ATOM     58  C   UNL A   1      42.259  26.041  28.159  1.00  0.00     0.074 A 
ATOM     59  C   UNL A   1      40.944  25.700  27.664  1.00  0.00     0.031 C 
ATOM     60  C   UNL A   1      41.416  31.951  30.538  1.00  0.00     0.029 A 
ATOM     61  C   UNL A   1      42.635  31.142  30.580  1.00  0.00     0.049 A 
ATOM     62  H   UNL A   1      42.902  29.227  29.810  1.00  0.00     0.167 HD
ATOM     63  C   UNL A   1      43.346  25.245  28.038  1.00  0.00     0.037 A 
ATOM     64  C   UNL A   1      43.812  31.509  31.128  1.00  0.00     0.037 A 
ATOM     65  C   UNL A   1      44.652  25.581  28.537  1.00  0.00     0.049 A 
ATOM     66  C   UNL A   1      44.985  30.561  31.072  1.00  0.00     0.074 A 
ATOM     67  C   UNL A   1      45.818  24.843  28.457  1.00  0.00     0.029 A 
ATOM     68  N   UNL A   1      44.960  26.749  29.218  1.00  0.00    -0.354 N 
ATOM     69  N   UNL A   1      45.071  29.385  30.500  1.00  0.00    -0.248 NA
ATOM     70  C   UNL A   1      46.224  30.990  31.741  1.00  0.00     0.031 C 
ATOM     71  C   UNL A   1      46.820  25.538  29.137  1.00  0.00     0.029 A 
ATOM     72  C   UNL A   1      46.293  26.736  29.592  1.00  0.00     0.049 A 
ATOM     73  H   UNL A   1      44.326  27.479  29.407  1.00  0.00     0.167 HD
ATOM     74  C   UNL A   1      46.373  28.947  30.714  1.00  0.00     0.074 A 
ATOM     75  C   UNL A   1      47.047  29.987  31.461  1.00  0.00     0.031 C 
ATOM     76  C   UNL A   1      46.955  27.786  30.326  1.00  0.00     0.037 A 
BRANCH  63  77
ATOM     77  C   UNL A   1      43.171  23.926  27.348  1.00  0.00     0.064 A 
ATOM     78  C   UNL A   1      42.636  22.816  28.018  1.00  0.00     0.173 A 
ATOM     79  C   UNL A   1      43.484  23.786  25.988  1.00  0.00     0.173 A 
ATOM     80  F   UNL A   1      42.335  22.896  29.324  1.00  0.00    -0.203 F 
ATOM     81  C   UNL A   1      42.437  21.608  27.356  1.00  0.00     0.198 A 
ATOM     82  C   UNL A   1      43.256  22.585  25.322  1.00  0.00     0.198 A 
ATOM     83  F   UNL A   1      43.996  24.819  25.302  1.00  0.00    -0.203 F 
ATOM     84  F   UNL A   1      41.960  20.550  28.025  1.00  0.00    -0.200 F 
ATOM     85  C   UNL A   1      42.737  21.497  26.007  1.00  0.00     0.200 A 
ATOM     86  F   UNL A   1      43.534  22.484  24.015  1.00  0.00    -0.200 F 
ATOM     87  F   UNL A   1      42.528  20.338  25.366  1.00  0.00    -0.200 F 
ENDBRANCH  63  77
BRANCH  64  88
ATOM     88  C   UNL A   1      43.944  32.844  31.771  1.00  0.00     0.064 A 
ATOM     89  C   UNL A   1      44.316  33.971  31.024  1.00  0.00     0.173 A 
ATOM     90  C   UNL A   1      43.700  33.022  33.141  1.00  0.00     0.173 A 
ATOM     91  F   UNL A   1      44.589  33.847  29.717  1.00  0.00    -0.203 F 
ATOM     92  C   UNL A   1      44.444  35.222  31.624  1.00  0.00     0.198 A 
ATOM     93  C   UNL A   1      43.801  34.279  33.734  1.00  0.00     0.198 A 
ATOM     94  F   UNL A   1      43.350  31.975  33.903  1.00  0.00    -0.203 F 
ATOM     95  F   UNL A   1      44.837  36.275  30.894  1.00  0.00    -0.200 F 
ATOM     96  C   UNL A   1      44.178  35.377  32.976  1.00  0.00     0.200 A 
ATOM     97  F   UNL A   1      43.535  34.426  35.039  1.00  0.00    -0.200 F 
ATOM     98  F   UNL A   1      44.291  36.583  33.550  1.00  0.00    -0.200 F 
ENDBRANCH  64  88
BRANCH  76  99
ATOM     99  C   UNL A   1      48.398  27.563  30.674  1.00  0.00     0.064 A 
ATOM    100  C   UNL A   1      48.770  26.808  31.796  1.00  0.00     0.173 A 
ATOM    101  C   UNL A   1      49.414  27.998  29.808  1.00  0.00     0.173 A 
ATOM    102  F   UNL A   1      47.838  26.378  32.659  1.00  0.00    -0.203 F 
ATOM    103  C   UNL A   1      50.106  26.497  32.037  1.00  0.00     0.198 A 
ATOM    104  C   UNL A   1      50.745  27.660  30.037  1.00  0.00     0.198 A 
ATOM    105  F   UNL A   1      49.109  28.713  28.715  1.00  0.00    -0.203 F 
ATOM    106  F   UNL A   1      50.441  25.789  33.124  1.00  0.00    -0.200 F 
ATOM    107  C   UNL A   1      51.089  26.910  31.150  1.00  0.00     0.200 A 
ATOM    108  F   UNL A   1      51.690  28.043  29.167  1.00  0.00    -0.200 F 
ATOM    109  F   UNL A   1      52.371  26.581  31.367  1.00  0.00    -0.200 F 
ENDBRANCH  76  99
ENDBRANCH  50  51
ENDBRANCH  43  45
ENDBRANCH  42  43
ENDBRANCH  41  42
ENDBRANCH  40  41
ENDBRANCH  39  40
ENDBRANCH  38  39
ENDBRANCH  37  38
ENDBRANCH  36  37
ENDBRANCH   1  36
TORSDOF 24
ENDMDL
