MODEL 1
REMARK VINA RESULT:      -9.5      0.000      0.000
REMARK SMILES CC[C@@H](Oc1cc(Cl)ccc1Cl)C(=O)NNC(=O)[C@@H]1[C@@H]2CC[C@@H](C2)[C@@H]1C(=O)OCCOCCOCCOCCOC(=O)c1ccc(-c2c3nc(c(-c4c(F)c(F)c(F)c(F)c4F)c4ccc([nH]4)c(-c4c(F)c(F)c(F)c(F)c4F)c4nc(c(-c5c(F)c(F)c(F)c(F)c5F)c5ccc2[nH]5)C=C4)C=C3)cc1
REMARK SMILES IDX 32 1 31 2 30 3 29 4 28 5 26 6 27 7 25 8 19 9 20 10 21 11
REMARK SMILES IDX 24 12 23 13 22 14 17 15 16 16 18 18 15 19 13 20 14 21 3 23
REMARK SMILES IDX 2 24 1 25 4 26 5 27 6 28 11 29 7 30 10 31 12 32 8 33 9 34
REMARK SMILES IDX 33 35 34 36 35 37 36 38 37 39 38 40 39 41 40 42 41 43 42 44
REMARK SMILES IDX 43 45 44 46 105 47 45 48 104 49 46 50 47 51 48 52 98 53
REMARK SMILES IDX 49 54 103 55 97 56 99 57 50 58 102 59 96 60 95 61 51 63
REMARK SMILES IDX 83 64 63 65 82 66 64 67 67 68 81 69 100 70 65 71 66 72 80 74
REMARK SMILES IDX 101 75 68 76 52 77 53 78 61 79 54 80 55 81 59 82 62 83 56 84
REMARK SMILES IDX 57 85 60 86 58 87 84 88 85 89 93 90 86 91 87 92 91 93 94 94
REMARK SMILES IDX 88 95 89 96 92 97 90 98 69 99 70 100 78 101 71 102 72 103
REMARK SMILES IDX 76 104 79 105 73 106 74 107 77 108 75 109
REMARK H PARENT 16 17 15 22 99 62 67 73
REMARK Flexibility Score: inf
ROOT
ATOM      1  C   UNL A   1      36.135  22.533  26.220  1.00  0.00     0.188 C 
ENDROOT
BRANCH   1   2
ATOM      2  O   UNL A   1      35.148  22.948  27.155  1.00  0.00    -0.376 OA
BRANCH   2   3
ATOM      3  C   UNL A   1      34.169  21.976  27.512  1.00  0.00     0.202 C 
BRANCH   3   4
ATOM      4  C   UNL A   1      32.821  22.583  27.913  1.00  0.00     0.261 C 
BRANCH   4   5
ATOM      5  O   UNL A   1      32.326  23.473  26.900  1.00  0.00    -0.463 OA
BRANCH   5   6
ATOM      6  C   UNL A   1      31.911  22.903  25.731  1.00  0.00     0.310 C 
ATOM      7  O   UNL A   1      30.854  22.314  25.595  1.00  0.00    -0.252 OA
BRANCH   6   8
ATOM      8  C   UNL A   1      32.982  23.146  24.670  1.00  0.00     0.115 C 
ATOM      9  C   UNL A   1      32.737  24.115  23.466  1.00  0.00     0.098 C 
ATOM     10  C   UNL A   1      33.182  23.253  22.268  1.00  0.00     0.003 C 
ATOM     11  C   UNL A   1      32.167  22.128  22.016  1.00  0.00     0.005 C 
ATOM     12  C   UNL A   1      34.357  22.470  22.875  1.00  0.00     0.009 C 
ATOM     13  C   UNL A   1      33.506  21.866  23.996  1.00  0.00     0.004 C 
ATOM     14  C   UNL A   1      32.410  21.165  23.184  1.00  0.00     0.005 C 
BRANCH   9  15
ATOM     15  C   UNL A   1      31.371  24.788  23.337  1.00  0.00     0.242 C 
ATOM     16  N   UNL A   1      31.307  26.151  23.504  1.00  0.00    -0.267 N 
ATOM     17  H   UNL A   1      30.668  26.508  24.161  1.00  0.00     0.191 HD
ATOM     18  O   UNL A   1      30.312  24.172  23.262  1.00  0.00    -0.273 OA
BRANCH  16  19
ATOM     19  N   UNL A   1      32.094  27.054  22.795  1.00  0.00    -0.264 N 
ATOM     20  C   UNL A   1      32.023  28.421  23.010  1.00  0.00     0.279 C 
ATOM     21  O   UNL A   1      32.727  29.174  22.332  1.00  0.00    -0.269 OA
ATOM     22  H   UNL A   1      32.723  26.711  22.118  1.00  0.00     0.191 HD
BRANCH  20  23
ATOM     23  C   UNL A   1      31.007  28.984  24.043  1.00  0.00     0.263 C 
BRANCH  23  24
ATOM     24  C   UNL A   1      29.576  28.680  23.556  1.00  0.00     0.052 C 
ATOM     25  C   UNL A   1      29.025  29.733  22.597  1.00  0.00     0.008 C 
ENDBRANCH  23  24
BRANCH  23  26
ATOM     26  O   UNL A   1      31.268  28.352  25.317  1.00  0.00    -0.479 OA
BRANCH  26  27
ATOM     27  C   UNL A   1      32.285  28.934  26.028  1.00  0.00     0.140 A 
ATOM     28  C   UNL A   1      32.111  30.255  26.448  1.00  0.00     0.068 A 
ATOM     29  C   UNL A   1      33.420  28.218  26.424  1.00  0.00     0.083 A 
ATOM     30  C   UNL A   1      33.119  30.888  27.174  1.00  0.00     0.044 A 
ATOM     31  C   UNL A   1      34.416  28.851  27.176  1.00  0.00     0.026 A 
ATOM     32  Cl  UNL A   1      33.618  26.553  26.024  1.00  0.00    -0.080 Cl
ATOM     33  Cl  UNL A   1      32.943  32.543  27.606  1.00  0.00    -0.084 Cl
ATOM     34  C   UNL A   1      34.272  30.195  27.535  1.00  0.00     0.022 A 
ENDBRANCH  26  27
ENDBRANCH  23  26
ENDBRANCH  20  23
ENDBRANCH  16  19
ENDBRANCH   9  15
ENDBRANCH   6   8
ENDBRANCH   5   6
ENDBRANCH   4   5
ENDBRANCH   3   4
ENDBRANCH   2   3
ENDBRANCH   1   2
BRANCH   1  35
ATOM     35  C   UNL A   1      37.031  23.642  25.635  1.00  0.00     0.188 C 
BRANCH  35  36
ATOM     36  O   UNL A   1      37.885  24.374  26.495  1.00  0.00    -0.377 OA
BRANCH  36  37
ATOM     37  C   UNL A   1      39.270  24.057  26.510  1.00  0.00     0.188 C 
BRANCH  37  38
ATOM     38  C   UNL A   1      39.764  22.737  27.149  1.00  0.00     0.188 C 
BRANCH  38  39
ATOM     39  O   UNL A   1      40.027  21.690  26.226  1.00  0.00    -0.376 OA
BRANCH  39  40
ATOM     40  C   UNL A   1      40.978  20.710  26.602  1.00  0.00     0.202 C 
BRANCH  40  41
ATOM     41  C   UNL A   1      42.383  20.882  26.014  1.00  0.00     0.261 C 
BRANCH  41  42
ATOM     42  O   UNL A   1      43.060  22.099  26.361  1.00  0.00    -0.460 OA
BRANCH  42  43
ATOM     43  C   UNL A   1      43.133  23.064  25.418  1.00  0.00     0.338 C 
ATOM     44  O   UNL A   1      43.179  22.918  24.210  1.00  0.00    -0.246 OA
BRANCH  43  45
ATOM     45  C   UNL A   1      42.935  24.357  26.104  1.00  0.00     0.060 A 
ATOM     46  C   UNL A   1      42.661  25.502  25.341  1.00  0.00     0.016 A 
ATOM     47  C   UNL A   1      42.959  24.423  27.499  1.00  0.00     0.016 A 
ATOM     48  C   UNL A   1      42.434  26.723  25.973  1.00  0.00     0.010 A 
ATOM     49  C   UNL A   1      42.767  25.652  28.130  1.00  0.00     0.010 A 
ATOM     50  C   UNL A   1      42.538  26.811  27.367  1.00  0.00    -0.014 A 
BRANCH  50  51
ATOM     51  C   UNL A   1      42.673  28.139  28.007  1.00  0.00     0.031 A 
ATOM     52  C   UNL A   1      44.058  28.702  28.152  1.00  0.00     0.074 A 
ATOM     53  C   UNL A   1      41.607  28.832  28.438  1.00  0.00     0.049 A 
ATOM     54  N   UNL A   1      44.454  29.817  28.708  1.00  0.00    -0.248 NA
ATOM     55  C   UNL A   1      45.147  27.884  27.594  1.00  0.00     0.031 C 
ATOM     56  C   UNL A   1      40.214  28.414  28.306  1.00  0.00     0.029 A 
ATOM     57  N   UNL A   1      41.541  30.043  29.081  1.00  0.00    -0.354 N 
ATOM     58  C   UNL A   1      45.837  29.829  28.571  1.00  0.00     0.074 A 
ATOM     59  C   UNL A   1      46.213  28.596  27.917  1.00  0.00     0.031 C 
ATOM     60  C   UNL A   1      39.427  29.356  28.855  1.00  0.00     0.029 A 
ATOM     61  C   UNL A   1      40.263  30.423  29.404  1.00  0.00     0.049 A 
ATOM     62  H   UNL A   1      42.335  30.586  29.290  1.00  0.00     0.167 HD
ATOM     63  C   UNL A   1      46.714  30.788  28.951  1.00  0.00     0.037 A 
ATOM     64  C   UNL A   1      39.830  31.504  30.083  1.00  0.00     0.037 A 
ATOM     65  C   UNL A   1      46.335  32.003  29.620  1.00  0.00     0.049 A 
ATOM     66  C   UNL A   1      40.833  32.509  30.590  1.00  0.00     0.074 A 
ATOM     67  C   UNL A   1      47.139  33.047  30.038  1.00  0.00     0.029 A 
ATOM     68  N   UNL A   1      45.036  32.326  29.987  1.00  0.00    -0.354 N 
ATOM     69  N   UNL A   1      42.136  32.535  30.435  1.00  0.00    -0.248 NA
ATOM     70  C   UNL A   1      40.302  33.636  31.371  1.00  0.00     0.031 C 
ATOM     71  C   UNL A   1      46.336  33.971  30.714  1.00  0.00     0.029 A 
ATOM     72  C   UNL A   1      45.021  33.537  30.659  1.00  0.00     0.049 A 
ATOM     73  H   UNL A   1      44.241  31.776  29.796  1.00  0.00     0.167 HD
ATOM     74  C   UNL A   1      42.575  33.693  31.065  1.00  0.00     0.074 A 
ATOM     75  C   UNL A   1      41.398  34.347  31.598  1.00  0.00     0.031 C 
ATOM     76  C   UNL A   1      43.838  34.176  31.183  1.00  0.00     0.037 A 
BRANCH  63  77
ATOM     77  C   UNL A   1      48.169  30.519  28.692  1.00  0.00     0.064 A 
ATOM     78  C   UNL A   1      48.958  29.779  29.588  1.00  0.00     0.173 A 
ATOM     79  C   UNL A   1      48.790  31.035  27.545  1.00  0.00     0.173 A 
ATOM     80  F   UNL A   1      48.418  29.279  30.709  1.00  0.00    -0.203 F 
ATOM     81  C   UNL A   1      50.324  29.611  29.369  1.00  0.00     0.198 A 
ATOM     82  C   UNL A   1      50.148  30.832  27.313  1.00  0.00     0.198 A 
ATOM     83  F   UNL A   1      48.084  31.749  26.655  1.00  0.00    -0.203 F 
ATOM     84  F   UNL A   1      51.071  28.969  30.278  1.00  0.00    -0.200 F 
ATOM     85  C   UNL A   1      50.916  30.134  28.231  1.00  0.00     0.200 A 
ATOM     86  F   UNL A   1      50.716  31.330  26.205  1.00  0.00    -0.200 F 
ATOM     87  F   UNL A   1      52.232  29.979  28.026  1.00  0.00    -0.200 F 
ENDBRANCH  63  77
BRANCH  64  88
ATOM     88  C   UNL A   1      38.375  31.701  30.309  1.00  0.00     0.064 A 
ATOM     89  C   UNL A   1      37.633  32.562  29.488  1.00  0.00     0.173 A 
ATOM     90  C   UNL A   1      37.695  31.038  31.341  1.00  0.00     0.173 A 
ATOM     91  F   UNL A   1      38.243  33.241  28.505  1.00  0.00    -0.203 F 
ATOM     92  C   UNL A   1      36.269  32.757  29.695  1.00  0.00     0.198 A 
ATOM     93  C   UNL A   1      36.326  31.214  31.531  1.00  0.00     0.198 A 
ATOM     94  F   UNL A   1      38.360  30.209  32.159  1.00  0.00    -0.203 F 
ATOM     95  F   UNL A   1      35.591  33.614  28.918  1.00  0.00    -0.200 F 
ATOM     96  C   UNL A   1      35.614  32.077  30.711  1.00  0.00     0.200 A 
ATOM     97  F   UNL A   1      35.696  30.548  32.508  1.00  0.00    -0.200 F 
ATOM     98  F   UNL A   1      34.301  32.257  30.904  1.00  0.00    -0.200 F 
ENDBRANCH  64  88
BRANCH  76  99
ATOM     99  C   UNL A   1      44.013  35.497  31.881  1.00  0.00     0.064 A 
ATOM    100  C   UNL A   1      44.238  35.582  33.262  1.00  0.00     0.173 A 
ATOM    101  C   UNL A   1      44.002  36.692  31.145  1.00  0.00     0.173 A 
ATOM    102  F   UNL A   1      44.246  34.471  34.016  1.00  0.00    -0.203 F 
ATOM    103  C   UNL A   1      44.418  36.815  33.884  1.00  0.00     0.198 A 
ATOM    104  C   UNL A   1      44.216  37.920  31.764  1.00  0.00     0.198 A 
ATOM    105  F   UNL A   1      43.800  36.669  29.818  1.00  0.00    -0.203 F 
ATOM    106  F   UNL A   1      44.581  36.876  35.213  1.00  0.00    -0.200 F 
ATOM    107  C   UNL A   1      44.416  37.982  33.134  1.00  0.00     0.200 A 
ATOM    108  F   UNL A   1      44.231  39.044  31.033  1.00  0.00    -0.200 F 
ATOM    109  F   UNL A   1      44.599  39.166  33.733  1.00  0.00    -0.200 F 
ENDBRANCH  76  99
ENDBRANCH  50  51
ENDBRANCH  43  45
ENDBRANCH  42  43
ENDBRANCH  41  42
ENDBRANCH  40  41
ENDBRANCH  39  40
ENDBRANCH  38  39
ENDBRANCH  37  38
ENDBRANCH  36  37
ENDBRANCH  35  36
ENDBRANCH   1  35
TORSDOF 26
ENDMDL
MODEL 2
REMARK VINA RESULT:      -9.3      2.878      7.962
REMARK SMILES CC[C@@H](Oc1cc(Cl)ccc1Cl)C(=O)NNC(=O)[C@@H]1[C@@H]2CC[C@@H](C2)[C@@H]1C(=O)OCCOCCOCCOCCOC(=O)c1ccc(-c2c3nc(c(-c4c(F)c(F)c(F)c(F)c4F)c4ccc([nH]4)c(-c4c(F)c(F)c(F)c(F)c4F)c4nc(c(-c5c(F)c(F)c(F)c(F)c5F)c5ccc2[nH]5)C=C4)C=C3)cc1
REMARK SMILES IDX 32 1 31 2 30 3 29 4 28 5 26 6 27 7 25 8 19 9 20 10 21 11
REMARK SMILES IDX 24 12 23 13 22 14 17 15 16 16 18 18 15 19 13 20 14 21 3 23
REMARK SMILES IDX 2 24 1 25 4 26 5 27 6 28 11 29 7 30 10 31 12 32 8 33 9 34
REMARK SMILES IDX 33 35 34 36 35 37 36 38 37 39 38 40 39 41 40 42 41 43 42 44
REMARK SMILES IDX 43 45 44 46 105 47 45 48 104 49 46 50 47 51 48 52 98 53
REMARK SMILES IDX 49 54 103 55 97 56 99 57 50 58 102 59 96 60 95 61 51 63
REMARK SMILES IDX 83 64 63 65 82 66 64 67 67 68 81 69 100 70 65 71 66 72 80 74
REMARK SMILES IDX 101 75 68 76 52 77 53 78 61 79 54 80 55 81 59 82 62 83 56 84
REMARK SMILES IDX 57 85 60 86 58 87 84 88 85 89 93 90 86 91 87 92 91 93 94 94
REMARK SMILES IDX 88 95 89 96 92 97 90 98 69 99 70 100 78 101 71 102 72 103
REMARK SMILES IDX 76 104 79 105 73 106 74 107 77 108 75 109
REMARK H PARENT 16 17 15 22 99 62 67 73
REMARK Flexibility Score: inf
ROOT
ATOM      1  C   UNL A   1      32.973  21.597  24.994  1.00  0.00     0.188 C 
ENDROOT
BRANCH   1   2
ATOM      2  O   UNL A   1      32.677  22.438  26.101  1.00  0.00    -0.376 OA
BRANCH   2   3
ATOM      3  C   UNL A   1      31.568  23.320  25.943  1.00  0.00     0.202 C 
BRANCH   3   4
ATOM      4  C   UNL A   1      31.846  24.746  26.426  1.00  0.00     0.261 C 
BRANCH   4   5
ATOM      5  O   UNL A   1      32.323  25.578  25.357  1.00  0.00    -0.463 OA
BRANCH   5   6
ATOM      6  C   UNL A   1      33.622  25.987  25.431  1.00  0.00     0.310 C 
ATOM      7  O   UNL A   1      34.494  25.388  26.035  1.00  0.00    -0.252 OA
BRANCH   6   8
ATOM      8  C   UNL A   1      33.766  27.282  24.635  1.00  0.00     0.115 C 
ATOM      9  C   UNL A   1      33.813  28.678  25.343  1.00  0.00     0.098 C 
ATOM     10  C   UNL A   1      32.778  29.481  24.530  1.00  0.00     0.003 C 
ATOM     11  C   UNL A   1      31.357  28.985  24.841  1.00  0.00     0.005 C 
ATOM     12  C   UNL A   1      32.993  28.916  23.117  1.00  0.00     0.009 C 
ATOM     13  C   UNL A   1      32.701  27.473  23.541  1.00  0.00     0.004 C 
ATOM     14  C   UNL A   1      31.297  27.624  24.139  1.00  0.00     0.005 C 
BRANCH   9  15
ATOM     15  C   UNL A   1      33.660  28.731  26.863  1.00  0.00     0.242 C 
ATOM     16  N   UNL A   1      34.447  29.618  27.557  1.00  0.00    -0.267 N 
ATOM     17  H   UNL A   1      34.991  29.271  28.300  1.00  0.00     0.191 HD
ATOM     18  O   UNL A   1      33.005  27.919  27.510  1.00  0.00    -0.273 OA
BRANCH  16  19
ATOM     19  N   UNL A   1      34.518  30.978  27.269  1.00  0.00    -0.264 N 
ATOM     20  C   UNL A   1      35.537  31.782  27.756  1.00  0.00     0.279 C 
ATOM     21  O   UNL A   1      35.532  32.986  27.488  1.00  0.00    -0.269 OA
ATOM     22  H   UNL A   1      33.823  31.383  26.701  1.00  0.00     0.191 HD
BRANCH  20  23
ATOM     23  C   UNL A   1      36.619  31.169  28.687  1.00  0.00     0.263 C 
BRANCH  23  24
ATOM     24  C   UNL A   1      37.668  32.251  29.018  1.00  0.00     0.052 C 
ATOM     25  C   UNL A   1      37.100  33.424  29.814  1.00  0.00     0.008 C 
ENDBRANCH  23  24
BRANCH  23  26
ATOM     26  O   UNL A   1      35.963  30.697  29.886  1.00  0.00    -0.479 OA
BRANCH  26  27
ATOM     27  C   UNL A   1      36.745  29.885  30.665  1.00  0.00     0.140 A 
ATOM     28  C   UNL A   1      37.516  28.913  30.022  1.00  0.00     0.068 A 
ATOM     29  C   UNL A   1      36.868  30.073  32.046  1.00  0.00     0.083 A 
ATOM     30  C   UNL A   1      38.326  28.064  30.774  1.00  0.00     0.044 A 
ATOM     31  C   UNL A   1      37.704  29.234  32.791  1.00  0.00     0.026 A 
ATOM     32  Cl  UNL A   1      36.023  31.335  32.861  1.00  0.00    -0.080 Cl
ATOM     33  Cl  UNL A   1      39.197  26.807  29.988  1.00  0.00    -0.084 Cl
ATOM     34  C   UNL A   1      38.420  28.216  32.155  1.00  0.00     0.022 A 
ENDBRANCH  26  27
ENDBRANCH  23  26
ENDBRANCH  20  23
ENDBRANCH  16  19
ENDBRANCH   9  15
ENDBRANCH   6   8
ENDBRANCH   5   6
ENDBRANCH   4   5
ENDBRANCH   3   4
ENDBRANCH   2   3
ENDBRANCH   1   2
BRANCH   1  35
ATOM     35  C   UNL A   1      34.306  21.867  24.268  1.00  0.00     0.188 C 
BRANCH  35  36
ATOM     36  O   UNL A   1      35.520  21.445  24.862  1.00  0.00    -0.377 OA
BRANCH  36  37
ATOM     37  C   UNL A   1      36.725  22.097  24.486  1.00  0.00     0.188 C 
BRANCH  37  38
ATOM     38  C   UNL A   1      37.263  23.287  25.317  1.00  0.00     0.188 C 
BRANCH  38  39
ATOM     39  O   UNL A   1      38.549  23.086  25.884  1.00  0.00    -0.376 OA
BRANCH  39  40
ATOM     40  C   UNL A   1      38.800  23.657  27.156  1.00  0.00     0.202 C 
BRANCH  40  41
ATOM     41  C   UNL A   1      39.279  25.113  27.153  1.00  0.00     0.261 C 
BRANCH  41  42
ATOM     42  O   UNL A   1      40.702  25.301  27.182  1.00  0.00    -0.460 OA
BRANCH  42  43
ATOM     43  C   UNL A   1      41.228  26.225  26.349  1.00  0.00     0.338 C 
ATOM     44  O   UNL A   1      41.280  26.184  25.134  1.00  0.00    -0.246 OA
BRANCH  43  45
ATOM     45  C   UNL A   1      41.547  27.414  27.167  1.00  0.00     0.060 A 
ATOM     46  C   UNL A   1      40.987  28.653  26.821  1.00  0.00     0.016 A 
ATOM     47  C   UNL A   1      42.347  27.289  28.305  1.00  0.00     0.016 A 
ATOM     48  C   UNL A   1      41.248  29.777  27.603  1.00  0.00     0.010 A 
ATOM     49  C   UNL A   1      42.635  28.421  29.067  1.00  0.00     0.010 A 
ATOM     50  C   UNL A   1      42.114  29.674  28.698  1.00  0.00    -0.014 A 
BRANCH  50  51
ATOM     51  C   UNL A   1      42.687  30.902  29.294  1.00  0.00     0.031 A 
ATOM     52  C   UNL A   1      41.934  31.539  30.427  1.00  0.00     0.074 A 
ATOM     53  C   UNL A   1      43.839  31.435  28.856  1.00  0.00     0.049 A 
ATOM     54  N   UNL A   1      42.193  32.634  31.093  1.00  0.00    -0.248 NA
ATOM     55  C   UNL A   1      40.714  30.840  30.863  1.00  0.00     0.031 C 
ATOM     56  C   UNL A   1      44.682  30.880  27.802  1.00  0.00     0.029 A 
ATOM     57  N   UNL A   1      44.493  32.574  29.253  1.00  0.00    -0.354 N 
ATOM     58  C   UNL A   1      41.166  32.757  32.020  1.00  0.00     0.074 A 
ATOM     59  C   UNL A   1      40.261  31.649  31.805  1.00  0.00     0.031 C 
ATOM     60  C   UNL A   1      45.747  31.683  27.633  1.00  0.00     0.029 A 
ATOM     61  C   UNL A   1      45.640  32.823  28.543  1.00  0.00     0.049 A 
ATOM     62  H   UNL A   1      44.170  33.156  29.979  1.00  0.00     0.167 HD
ATOM     63  C   UNL A   1      40.996  33.705  32.971  1.00  0.00     0.037 A 
ATOM     64  C   UNL A   1      46.491  33.865  28.617  1.00  0.00     0.037 A 
ATOM     65  C   UNL A   1      41.888  34.816  33.165  1.00  0.00     0.049 A 
ATOM     66  C   UNL A   1      46.227  34.967  29.613  1.00  0.00     0.074 A 
ATOM     67  C   UNL A   1      41.819  35.826  34.106  1.00  0.00     0.029 A 
ATOM     68  N   UNL A   1      43.008  35.070  32.386  1.00  0.00    -0.354 N 
ATOM     69  N   UNL A   1      45.273  35.067  30.508  1.00  0.00    -0.248 NA
ATOM     70  C   UNL A   1      47.160  36.102  29.605  1.00  0.00     0.031 C 
ATOM     71  C   UNL A   1      42.859  36.727  33.855  1.00  0.00     0.029 A 
ATOM     72  C   UNL A   1      43.618  36.243  32.801  1.00  0.00     0.049 A 
ATOM     73  H   UNL A   1      43.324  34.500  31.647  1.00  0.00     0.167 HD
ATOM     74  C   UNL A   1      45.510  36.253  31.192  1.00  0.00     0.074 A 
ATOM     75  C   UNL A   1      46.704  36.835  30.611  1.00  0.00     0.031 C 
ATOM     76  C   UNL A   1      44.808  36.807  32.213  1.00  0.00     0.037 A 
BRANCH  63  77
ATOM     77  C   UNL A   1      39.767  33.596  33.828  1.00  0.00     0.064 A 
ATOM     78  C   UNL A   1      38.555  34.208  33.470  1.00  0.00     0.173 A 
ATOM     79  C   UNL A   1      39.811  32.893  35.041  1.00  0.00     0.173 A 
ATOM     80  F   UNL A   1      38.463  34.908  32.329  1.00  0.00    -0.203 F 
ATOM     81  C   UNL A   1      37.451  34.163  34.318  1.00  0.00     0.198 A 
ATOM     82  C   UNL A   1      38.694  32.819  35.868  1.00  0.00     0.198 A 
ATOM     83  F   UNL A   1      40.943  32.288  35.433  1.00  0.00    -0.203 F 
ATOM     84  F   UNL A   1      36.330  34.822  33.991  1.00  0.00    -0.200 F 
ATOM     85  C   UNL A   1      37.521  33.466  35.514  1.00  0.00     0.200 A 
ATOM     86  F   UNL A   1      38.760  32.135  37.019  1.00  0.00    -0.200 F 
ATOM     87  F   UNL A   1      36.460  33.431  36.333  1.00  0.00    -0.200 F 
ENDBRANCH  63  77
BRANCH  64  88
ATOM     88  C   UNL A   1      47.683  33.911  27.732  1.00  0.00     0.064 A 
ATOM     89  C   UNL A   1      47.628  34.552  26.487  1.00  0.00     0.173 A 
ATOM     90  C   UNL A   1      48.899  33.319  28.107  1.00  0.00     0.173 A 
ATOM     91  F   UNL A   1      46.480  35.108  26.071  1.00  0.00    -0.203 F 
ATOM     92  C   UNL A   1      48.739  34.596  25.648  1.00  0.00     0.198 A 
ATOM     93  C   UNL A   1      50.017  33.386  27.278  1.00  0.00     0.198 A 
ATOM     94  F   UNL A   1      49.003  32.686  29.284  1.00  0.00    -0.203 F 
ATOM     95  F   UNL A   1      48.648  35.185  24.448  1.00  0.00    -0.200 F 
ATOM     96  C   UNL A   1      49.936  34.020  26.047  1.00  0.00     0.200 A 
ATOM     97  F   UNL A   1      51.174  32.836  27.672  1.00  0.00    -0.200 F 
ATOM     98  F   UNL A   1      51.008  34.070  25.245  1.00  0.00    -0.200 F 
ENDBRANCH  64  88
BRANCH  76  99
ATOM     99  C   UNL A   1      45.333  38.088  32.801  1.00  0.00     0.064 A 
ATOM    100  C   UNL A   1      44.879  39.342  32.371  1.00  0.00     0.173 A 
ATOM    101  C   UNL A   1      46.272  38.055  33.844  1.00  0.00     0.173 A 
ATOM    102  F   UNL A   1      43.992  39.433  31.368  1.00  0.00    -0.203 F 
ATOM    103  C   UNL A   1      45.364  40.516  32.944  1.00  0.00     0.198 A 
ATOM    104  C   UNL A   1      46.729  39.227  34.439  1.00  0.00     0.198 A 
ATOM    105  F   UNL A   1      46.734  36.881  34.302  1.00  0.00    -0.203 F 
ATOM    106  F   UNL A   1      44.953  41.705  32.482  1.00  0.00    -0.200 F 
ATOM    107  C   UNL A   1      46.282  40.457  33.983  1.00  0.00     0.200 A 
ATOM    108  F   UNL A   1      47.602  39.166  35.454  1.00  0.00    -0.200 F 
ATOM    109  F   UNL A   1      46.739  41.587  34.539  1.00  0.00    -0.200 F 
ENDBRANCH  76  99
ENDBRANCH  50  51
ENDBRANCH  43  45
ENDBRANCH  42  43
ENDBRANCH  41  42
ENDBRANCH  40  41
ENDBRANCH  39  40
ENDBRANCH  38  39
ENDBRANCH  37  38
ENDBRANCH  36  37
ENDBRANCH  35  36
ENDBRANCH   1  35
TORSDOF 26
ENDMDL
MODEL 3
REMARK VINA RESULT:      -8.4      7.678     15.828
REMARK SMILES CC[C@@H](Oc1cc(Cl)ccc1Cl)C(=O)NNC(=O)[C@@H]1[C@@H]2CC[C@@H](C2)[C@@H]1C(=O)OCCOCCOCCOCCOC(=O)c1ccc(-c2c3nc(c(-c4c(F)c(F)c(F)c(F)c4F)c4ccc([nH]4)c(-c4c(F)c(F)c(F)c(F)c4F)c4nc(c(-c5c(F)c(F)c(F)c(F)c5F)c5ccc2[nH]5)C=C4)C=C3)cc1
REMARK SMILES IDX 32 1 31 2 30 3 29 4 28 5 26 6 27 7 25 8 19 9 20 10 21 11
REMARK SMILES IDX 24 12 23 13 22 14 17 15 16 16 18 18 15 19 13 20 14 21 3 23
REMARK SMILES IDX 2 24 1 25 4 26 5 27 6 28 11 29 7 30 10 31 12 32 8 33 9 34
REMARK SMILES IDX 33 35 34 36 35 37 36 38 37 39 38 40 39 41 40 42 41 43 42 44
REMARK SMILES IDX 43 45 44 46 105 47 45 48 104 49 46 50 47 51 48 52 98 53
REMARK SMILES IDX 49 54 103 55 97 56 99 57 50 58 102 59 96 60 95 61 51 63
REMARK SMILES IDX 83 64 63 65 82 66 64 67 67 68 81 69 100 70 65 71 66 72 80 74
REMARK SMILES IDX 101 75 68 76 52 77 53 78 61 79 54 80 55 81 59 82 62 83 56 84
REMARK SMILES IDX 57 85 60 86 58 87 84 88 85 89 93 90 86 91 87 92 91 93 94 94
REMARK SMILES IDX 88 95 89 96 92 97 90 98 69 99 70 100 78 101 71 102 72 103
REMARK SMILES IDX 76 104 79 105 73 106 74 107 77 108 75 109
REMARK H PARENT 16 17 15 22 99 62 67 73
REMARK Flexibility Score: inf
ROOT
ATOM      1  C   UNL A   1      48.951  41.283  28.950  1.00  0.00     0.188 C 
ENDROOT
BRANCH   1   2
ATOM      2  O   UNL A   1      48.279  40.793  27.797  1.00  0.00    -0.376 OA
BRANCH   2   3
ATOM      3  C   UNL A   1      47.026  41.400  27.492  1.00  0.00     0.202 C 
BRANCH   3   4
ATOM      4  C   UNL A   1      46.981  42.900  27.798  1.00  0.00     0.261 C 
BRANCH   4   5
ATOM      5  O   UNL A   1      46.022  43.575  26.968  1.00  0.00    -0.463 OA
BRANCH   5   6
ATOM      6  C   UNL A   1      46.497  44.147  25.824  1.00  0.00     0.310 C 
ATOM      7  O   UNL A   1      47.680  44.279  25.565  1.00  0.00    -0.252 OA
BRANCH   6   8
ATOM      8  C   UNL A   1      45.306  44.564  24.964  1.00  0.00     0.115 C 
ATOM      9  C   UNL A   1      44.321  43.506  24.363  1.00  0.00     0.098 C 
ATOM     10  C   UNL A   1      44.248  43.944  22.886  1.00  0.00     0.003 C 
ATOM     11  C   UNL A   1      45.571  43.626  22.172  1.00  0.00     0.005 C 
ATOM     12  C   UNL A   1      44.334  45.473  23.015  1.00  0.00     0.009 C 
ATOM     13  C   UNL A   1      45.676  45.436  23.752  1.00  0.00     0.004 C 
ATOM     14  C   UNL A   1      46.540  44.667  22.745  1.00  0.00     0.005 C 
BRANCH   9  15
ATOM     15  C   UNL A   1      44.600  42.024  24.611  1.00  0.00     0.242 C 
ATOM     16  N   UNL A   1      43.802  41.362  25.512  1.00  0.00    -0.267 N 
ATOM     17  H   UNL A   1      44.238  40.873  26.246  1.00  0.00     0.191 HD
ATOM     18  O   UNL A   1      45.590  41.437  24.184  1.00  0.00    -0.273 OA
BRANCH  16  19
ATOM     19  N   UNL A   1      42.411  41.343  25.446  1.00  0.00    -0.264 N 
ATOM     20  C   UNL A   1      41.633  40.773  26.441  1.00  0.00     0.279 C 
ATOM     21  O   UNL A   1      40.406  40.764  26.314  1.00  0.00    -0.269 OA
ATOM     22  H   UNL A   1      41.965  41.747  24.666  1.00  0.00     0.191 HD
BRANCH  20  23
ATOM     23  C   UNL A   1      42.321  40.094  27.658  1.00  0.00     0.263 C 
BRANCH  23  24
ATOM     24  C   UNL A   1      43.093  38.851  27.169  1.00  0.00     0.052 C 
ATOM     25  C   UNL A   1      42.194  37.648  26.891  1.00  0.00     0.008 C 
ENDBRANCH  23  24
BRANCH  23  26
ATOM     26  O   UNL A   1      43.214  41.056  28.263  1.00  0.00    -0.479 OA
BRANCH  26  27
ATOM     27  C   UNL A   1      43.334  40.926  29.622  1.00  0.00     0.140 A 
ATOM     28  C   UNL A   1      44.620  40.788  30.151  1.00  0.00     0.068 A 
ATOM     29  C   UNL A   1      42.234  41.033  30.479  1.00  0.00     0.083 A 
ATOM     30  C   UNL A   1      44.791  40.652  31.527  1.00  0.00     0.044 A 
ATOM     31  C   UNL A   1      42.415  40.923  31.862  1.00  0.00     0.026 A 
ATOM     32  Cl  UNL A   1      40.646  41.319  29.873  1.00  0.00    -0.080 Cl
ATOM     33  Cl  UNL A   1      46.365  40.385  32.165  1.00  0.00    -0.084 Cl
ATOM     34  C   UNL A   1      43.695  40.714  32.385  1.00  0.00     0.022 A 
ENDBRANCH  26  27
ENDBRANCH  23  26
ENDBRANCH  20  23
ENDBRANCH  16  19
ENDBRANCH   9  15
ENDBRANCH   6   8
ENDBRANCH   5   6
ENDBRANCH   4   5
ENDBRANCH   3   4
ENDBRANCH   2   3
ENDBRANCH   1   2
BRANCH   1  35
ATOM     35  C   UNL A   1      50.284  40.595  29.307  1.00  0.00     0.188 C 
BRANCH  35  36
ATOM     36  O   UNL A   1      51.248  40.376  28.294  1.00  0.00    -0.377 OA
BRANCH  36  37
ATOM     37  C   UNL A   1      51.834  39.087  28.178  1.00  0.00     0.188 C 
BRANCH  37  38
ATOM     38  C   UNL A   1      51.009  37.820  28.509  1.00  0.00     0.188 C 
BRANCH  38  39
ATOM     39  O   UNL A   1      50.742  36.976  27.399  1.00  0.00    -0.376 OA
BRANCH  39  40
ATOM     40  C   UNL A   1      49.387  36.674  27.119  1.00  0.00     0.202 C 
BRANCH  40  41
ATOM     41  C   UNL A   1      48.393  37.828  27.297  1.00  0.00     0.261 C 
BRANCH  41  42
ATOM     42  O   UNL A   1      47.066  37.451  27.692  1.00  0.00    -0.460 OA
BRANCH  42  43
ATOM     43  C   UNL A   1      46.888  37.032  28.964  1.00  0.00     0.338 C 
ATOM     44  O   UNL A   1      47.107  37.655  29.987  1.00  0.00    -0.246 OA
BRANCH  43  45
ATOM     45  C   UNL A   1      46.174  35.740  28.900  1.00  0.00     0.060 A 
ATOM     46  C   UNL A   1      46.563  34.700  29.757  1.00  0.00     0.016 A 
ATOM     47  C   UNL A   1      45.086  35.582  28.039  1.00  0.00     0.016 A 
ATOM     48  C   UNL A   1      45.876  33.487  29.736  1.00  0.00     0.010 A 
ATOM     49  C   UNL A   1      44.421  34.356  27.994  1.00  0.00     0.010 A 
ATOM     50  C   UNL A   1      44.837  33.295  28.818  1.00  0.00    -0.014 A 
BRANCH  50  51
ATOM     51  C   UNL A   1      44.362  31.923  28.529  1.00  0.00     0.031 A 
ATOM     52  C   UNL A   1      43.034  31.514  29.098  1.00  0.00     0.074 A 
ATOM     53  C   UNL A   1      45.076  31.067  27.780  1.00  0.00     0.049 A 
ATOM     54  N   UNL A   1      42.412  30.366  29.030  1.00  0.00    -0.248 NA
ATOM     55  C   UNL A   1      42.311  32.549  29.854  1.00  0.00     0.031 C 
ATOM     56  C   UNL A   1      46.350  31.366  27.134  1.00  0.00     0.029 A 
ATOM     57  N   UNL A   1      44.820  29.761  27.444  1.00  0.00    -0.354 N 
ATOM     58  C   UNL A   1      41.231  30.541  29.740  1.00  0.00     0.074 A 
ATOM     59  C   UNL A   1      41.240  31.889  30.261  1.00  0.00     0.031 C 
ATOM     60  C   UNL A   1      46.768  30.269  26.476  1.00  0.00     0.029 A 
ATOM     61  C   UNL A   1      45.808  29.187  26.685  1.00  0.00     0.049 A 
ATOM     62  H   UNL A   1      44.005  29.284  27.721  1.00  0.00     0.167 HD
ATOM     63  C   UNL A   1      40.223  29.657  29.932  1.00  0.00     0.037 A 
ATOM     64  C   UNL A   1      45.922  27.923  26.231  1.00  0.00     0.037 A 
ATOM     65  C   UNL A   1      40.229  28.311  29.429  1.00  0.00     0.049 A 
ATOM     66  C   UNL A   1      44.837  26.923  26.546  1.00  0.00     0.074 A 
ATOM     67  C   UNL A   1      39.257  27.336  29.554  1.00  0.00     0.029 A 
ATOM     68  N   UNL A   1      41.275  27.743  28.715  1.00  0.00    -0.354 N 
ATOM     69  N   UNL A   1      43.707  27.097  27.191  1.00  0.00    -0.248 NA
ATOM     70  C   UNL A   1      45.047  25.549  26.070  1.00  0.00     0.031 C 
ATOM     71  C   UNL A   1      39.741  26.160  28.973  1.00  0.00     0.029 A 
ATOM     72  C   UNL A   1      40.988  26.419  28.425  1.00  0.00     0.049 A 
ATOM     73  H   UNL A   1      42.101  28.212  28.453  1.00  0.00     0.167 HD
ATOM     74  C   UNL A   1      43.058  25.869  27.167  1.00  0.00     0.074 A 
ATOM     75  C   UNL A   1      43.918  24.959  26.437  1.00  0.00     0.031 C 
ATOM     76  C   UNL A   1      41.855  25.527  27.695  1.00  0.00     0.037 A 
BRANCH  63  77
ATOM     77  C   UNL A   1      39.064  30.120  30.769  1.00  0.00     0.064 A 
ATOM     78  C   UNL A   1      37.956  30.774  30.206  1.00  0.00     0.173 A 
ATOM     79  C   UNL A   1      39.077  29.933  32.159  1.00  0.00     0.173 A 
ATOM     80  F   UNL A   1      37.902  30.994  28.884  1.00  0.00    -0.203 F 
ATOM     81  C   UNL A   1      36.931  31.268  31.010  1.00  0.00     0.198 A 
ATOM     82  C   UNL A   1      38.032  30.396  32.954  1.00  0.00     0.198 A 
ATOM     83  F   UNL A   1      40.110  29.314  32.750  1.00  0.00    -0.203 F 
ATOM     84  F   UNL A   1      35.923  31.958  30.458  1.00  0.00    -0.200 F 
ATOM     85  C   UNL A   1      36.969  31.075  32.382  1.00  0.00     0.200 A 
ATOM     86  F   UNL A   1      38.065  30.198  34.280  1.00  0.00    -0.200 F 
ATOM     87  F   UNL A   1      35.985  31.558  33.155  1.00  0.00    -0.200 F 
ENDBRANCH  63  77
BRANCH  64  88
ATOM     88  C   UNL A   1      47.100  27.534  25.414  1.00  0.00     0.064 A 
ATOM     89  C   UNL A   1      47.123  27.768  24.033  1.00  0.00     0.173 A 
ATOM     90  C   UNL A   1      48.225  26.925  25.992  1.00  0.00     0.173 A 
ATOM     91  F   UNL A   1      46.060  28.321  23.429  1.00  0.00    -0.203 F 
ATOM     92  C   UNL A   1      48.222  27.402  23.258  1.00  0.00     0.198 A 
ATOM     93  C   UNL A   1      49.333  26.584  25.220  1.00  0.00     0.198 A 
ATOM     94  F   UNL A   1      48.250  26.673  27.308  1.00  0.00    -0.203 F 
ATOM     95  F   UNL A   1      48.203  27.605  21.933  1.00  0.00    -0.200 F 
ATOM     96  C   UNL A   1      49.331  26.818  23.853  1.00  0.00     0.200 A 
ATOM     97  F   UNL A   1      50.406  26.028  25.801  1.00  0.00    -0.200 F 
ATOM     98  F   UNL A   1      50.391  26.475  23.110  1.00  0.00    -0.200 F 
ENDBRANCH  64  88
BRANCH  76  99
ATOM     99  C   UNL A   1      41.373  24.121  27.467  1.00  0.00     0.064 A 
ATOM    100  C   UNL A   1      40.294  23.835  26.618  1.00  0.00     0.173 A 
ATOM    101  C   UNL A   1      42.033  23.040  28.073  1.00  0.00     0.173 A 
ATOM    102  F   UNL A   1      39.619  24.831  26.024  1.00  0.00    -0.203 F 
ATOM    103  C   UNL A   1      39.877  22.522  26.406  1.00  0.00     0.198 A 
ATOM    104  C   UNL A   1      41.636  21.728  27.832  1.00  0.00     0.198 A 
ATOM    105  F   UNL A   1      43.078  23.255  28.888  1.00  0.00    -0.203 F 
ATOM    106  F   UNL A   1      38.812  22.277  25.631  1.00  0.00    -0.200 F 
ATOM    107  C   UNL A   1      40.554  21.470  27.006  1.00  0.00     0.200 A 
ATOM    108  F   UNL A   1      42.303  20.712  28.399  1.00  0.00    -0.200 F 
ATOM    109  F   UNL A   1      40.157  20.209  26.792  1.00  0.00    -0.200 F 
ENDBRANCH  76  99
ENDBRANCH  50  51
ENDBRANCH  43  45
ENDBRANCH  42  43
ENDBRANCH  41  42
ENDBRANCH  40  41
ENDBRANCH  39  40
ENDBRANCH  38  39
ENDBRANCH  37  38
ENDBRANCH  36  37
ENDBRANCH  35  36
ENDBRANCH   1  35
TORSDOF 26
ENDMDL
