MODEL 1
REMARK VINA RESULT:      -8.8      0.000      0.000
REMARK SMILES Cc1ccc(C)c(OCCNC(=O)CCC(=O)OCCOCCOCCOCCOC(=O)c2ccc(-c3c4nc(c(-c5c(F)c(F)c(F)c(F)c5F)c5ccc([nH]5)c(-c5c(F)c(F)c(F)c(F)c5F)c5nc(c(-c6c(F)c(F)c(F)c(F)c6F)c6ccc3[nH]6)C=C5)C=C4)cc2)c1
REMARK SMILES IDX 22 1 21 2 20 3 19 4 18 5 16 6 17 7 15 8 14 9 12 10 11 11
REMARK SMILES IDX 13 13 10 14 9 15 8 16 7 17 1 18 2 19 3 20 96 21 4 22 5 23
REMARK SMILES IDX 6 24 23 25 24 26 25 27 26 28 27 29 28 30 29 31 30 32 31 33
REMARK SMILES IDX 32 34 33 35 34 36 95 37 35 38 94 39 36 40 37 41 38 42 88 43
REMARK SMILES IDX 39 44 93 45 87 46 89 47 40 48 92 49 86 50 85 51 41 53 73 54
REMARK SMILES IDX 53 55 72 56 54 57 57 58 71 59 90 60 55 61 56 62 70 64 91 65
REMARK SMILES IDX 58 66 42 67 43 68 51 69 44 70 45 71 49 72 52 73 46 74 47 75
REMARK SMILES IDX 50 76 48 77 74 78 75 79 83 80 76 81 77 82 81 83 84 84 78 85
REMARK SMILES IDX 79 86 82 87 80 88 59 89 60 90 68 91 61 92 62 93 66 94 69 95
REMARK SMILES IDX 63 96 64 97 67 98 65 99
REMARK H PARENT 11 12 89 52 57 63
REMARK Flexibility Score: inf
ROOT
ATOM      1  C   UNL A   1      42.452  40.525  29.184  1.00  0.00     0.188 C 
ENDROOT
BRANCH   1   2
ATOM      2  O   UNL A   1      43.182  41.151  28.138  1.00  0.00    -0.376 OA
BRANCH   2   3
ATOM      3  C   UNL A   1      42.958  40.592  26.844  1.00  0.00     0.202 C 
BRANCH   3   4
ATOM      4  C   UNL A   1      43.838  41.234  25.758  1.00  0.00     0.261 C 
BRANCH   4   5
ATOM      5  O   UNL A   1      44.309  42.549  26.137  1.00  0.00    -0.463 OA
BRANCH   5   6
ATOM      6  C   UNL A   1      44.548  43.424  25.121  1.00  0.00     0.306 C 
ATOM      7  O   UNL A   1      44.823  44.606  25.264  1.00  0.00    -0.252 OA
BRANCH   6   8
ATOM      8  C   UNL A   1      44.418  42.760  23.767  1.00  0.00     0.132 C 
BRANCH   8   9
ATOM      9  C   UNL A   1      45.571  43.034  22.819  1.00  0.00     0.111 C 
BRANCH   9  10
ATOM     10  C   UNL A   1      45.527  42.395  21.444  1.00  0.00     0.220 C 
ATOM     11  N   UNL A   1      44.955  42.989  20.366  1.00  0.00    -0.353 N 
ATOM     12  H   UNL A   1      45.132  42.539  19.510  1.00  0.00     0.163 HD
ATOM     13  O   UNL A   1      45.983  41.258  21.286  1.00  0.00    -0.275 OA
BRANCH  11  14
ATOM     14  C   UNL A   1      44.125  44.178  20.266  1.00  0.00     0.157 C 
BRANCH  14  15
ATOM     15  C   UNL A   1      44.601  45.288  19.288  1.00  0.00     0.250 C 
BRANCH  15  16
ATOM     16  O   UNL A   1      44.122  45.257  17.934  1.00  0.00    -0.491 OA
BRANCH  16  17
ATOM     17  C   UNL A   1      43.467  46.400  17.593  1.00  0.00     0.122 A 
ATOM     18  C   UNL A   1      44.490  49.966  17.077  1.00  0.00     0.044 C 
ATOM     19  C   UNL A   1      43.623  48.743  17.108  1.00  0.00    -0.047 A 
ATOM     20  C   UNL A   1      42.458  48.631  16.343  1.00  0.00     0.004 A 
ATOM     21  C   UNL A   1      44.050  47.641  17.834  1.00  0.00     0.050 A 
ATOM     22  C   UNL A   1      41.770  47.411  16.257  1.00  0.00     0.007 A 
ATOM     23  C   UNL A   1      42.291  46.263  16.854  1.00  0.00    -0.009 A 
ATOM     24  C   UNL A   1      41.635  44.921  16.694  1.00  0.00     0.048 C 
ENDBRANCH  16  17
ENDBRANCH  15  16
ENDBRANCH  14  15
ENDBRANCH  11  14
ENDBRANCH   9  10
ENDBRANCH   8   9
ENDBRANCH   6   8
ENDBRANCH   5   6
ENDBRANCH   4   5
ENDBRANCH   3   4
ENDBRANCH   2   3
ENDBRANCH   1   2
BRANCH   1  25
ATOM     25  C   UNL A   1      42.112  41.432  30.376  1.00  0.00     0.188 C 
BRANCH  25  26
ATOM     26  O   UNL A   1      41.984  40.871  31.684  1.00  0.00    -0.377 OA
BRANCH  26  27
ATOM     27  C   UNL A   1      43.108  40.971  32.547  1.00  0.00     0.188 C 
BRANCH  27  28
ATOM     28  C   UNL A   1      44.236  41.906  32.097  1.00  0.00     0.188 C 
BRANCH  28  29
ATOM     29  O   UNL A   1      45.331  41.197  31.529  1.00  0.00    -0.376 OA
BRANCH  29  30
ATOM     30  C   UNL A   1      45.913  41.834  30.394  1.00  0.00     0.202 C 
BRANCH  30  31
ATOM     31  C   UNL A   1      46.507  40.794  29.437  1.00  0.00     0.261 C 
BRANCH  31  32
ATOM     32  O   UNL A   1      45.851  39.528  29.637  1.00  0.00    -0.460 OA
BRANCH  32  33
ATOM     33  C   UNL A   1      45.794  38.752  28.525  1.00  0.00     0.338 C 
ATOM     34  O   UNL A   1      46.396  38.958  27.482  1.00  0.00    -0.246 OA
BRANCH  33  35
ATOM     35  C   UNL A   1      44.698  37.758  28.687  1.00  0.00     0.060 A 
ATOM     36  C   UNL A   1      44.371  37.358  29.978  1.00  0.00     0.016 A 
ATOM     37  C   UNL A   1      44.166  37.058  27.589  1.00  0.00     0.016 A 
ATOM     38  C   UNL A   1      43.635  36.190  30.153  1.00  0.00     0.010 A 
ATOM     39  C   UNL A   1      43.445  35.875  27.774  1.00  0.00     0.010 A 
ATOM     40  C   UNL A   1      43.242  35.383  29.058  1.00  0.00    -0.014 A 
BRANCH  40  41
ATOM     41  C   UNL A   1      42.615  34.066  29.355  1.00  0.00     0.031 A 
ATOM     42  C   UNL A   1      41.235  34.169  29.893  1.00  0.00     0.074 A 
ATOM     43  C   UNL A   1      43.153  32.826  29.214  1.00  0.00     0.049 A 
ATOM     44  N   UNL A   1      40.785  33.704  31.018  1.00  0.00    -0.248 NA
ATOM     45  C   UNL A   1      40.284  35.011  29.146  1.00  0.00     0.031 C 
ATOM     46  C   UNL A   1      44.456  32.493  28.642  1.00  0.00     0.029 A 
ATOM     47  N   UNL A   1      42.632  31.581  29.534  1.00  0.00    -0.354 N 
ATOM     48  C   UNL A   1      39.437  34.018  31.012  1.00  0.00     0.074 A 
ATOM     49  C   UNL A   1      39.212  34.949  29.931  1.00  0.00     0.031 C 
ATOM     50  C   UNL A   1      44.557  31.156  28.499  1.00  0.00     0.029 A 
ATOM     51  C   UNL A   1      43.357  30.511  29.014  1.00  0.00     0.049 A 
ATOM     52  H   UNL A   1      41.821  31.463  30.081  1.00  0.00     0.167 HD
ATOM     53  C   UNL A   1      38.525  33.216  31.611  1.00  0.00     0.037 A 
ATOM     54  C   UNL A   1      43.035  29.190  28.956  1.00  0.00     0.037 A 
ATOM     55  C   UNL A   1      39.015  32.399  32.674  1.00  0.00     0.049 A 
ATOM     56  C   UNL A   1      41.990  28.861  29.961  1.00  0.00     0.074 A 
ATOM     57  C   UNL A   1      39.116  32.475  34.043  1.00  0.00     0.029 A 
ATOM     58  N   UNL A   1      39.711  31.292  32.289  1.00  0.00    -0.354 N 
ATOM     59  N   UNL A   1      42.216  28.577  31.212  1.00  0.00    -0.248 NA
ATOM     60  C   UNL A   1      40.578  28.977  29.600  1.00  0.00     0.031 C 
ATOM     61  C   UNL A   1      39.852  31.330  34.470  1.00  0.00     0.029 A 
ATOM     62  C   UNL A   1      40.176  30.563  33.355  1.00  0.00     0.049 A 
ATOM     63  H   UNL A   1      39.863  31.043  31.350  1.00  0.00     0.167 HD
ATOM     64  C   UNL A   1      41.032  28.842  31.861  1.00  0.00     0.074 A 
ATOM     65  C   UNL A   1      40.025  28.922  30.812  1.00  0.00     0.031 C 
ATOM     66  C   UNL A   1      41.020  29.406  33.104  1.00  0.00     0.037 A 
BRANCH  53  67
ATOM     67  C   UNL A   1      37.323  32.815  30.811  1.00  0.00     0.064 A 
ATOM     68  C   UNL A   1      37.429  32.010  29.676  1.00  0.00     0.173 A 
ATOM     69  C   UNL A   1      36.064  33.413  31.055  1.00  0.00     0.173 A 
ATOM     70  F   UNL A   1      38.611  31.486  29.324  1.00  0.00    -0.203 F 
ATOM     71  C   UNL A   1      36.316  31.770  28.864  1.00  0.00     0.198 A 
ATOM     72  C   UNL A   1      34.947  33.125  30.283  1.00  0.00     0.198 A 
ATOM     73  F   UNL A   1      35.914  34.347  32.009  1.00  0.00    -0.203 F 
ATOM     74  F   UNL A   1      36.451  31.037  27.751  1.00  0.00    -0.200 F 
ATOM     75  C   UNL A   1      35.075  32.306  29.181  1.00  0.00     0.200 A 
ATOM     76  F   UNL A   1      33.767  33.679  30.592  1.00  0.00    -0.200 F 
ATOM     77  F   UNL A   1      34.011  32.069  28.403  1.00  0.00    -0.200 F 
ENDBRANCH  53  67
BRANCH  54  78
ATOM     78  C   UNL A   1      43.553  28.121  28.043  1.00  0.00     0.064 A 
ATOM     79  C   UNL A   1      44.307  27.035  28.535  1.00  0.00     0.173 A 
ATOM     80  C   UNL A   1      43.140  28.008  26.701  1.00  0.00     0.173 A 
ATOM     81  F   UNL A   1      44.704  26.996  29.814  1.00  0.00    -0.203 F 
ATOM     82  C   UNL A   1      44.615  25.921  27.743  1.00  0.00     0.198 A 
ATOM     83  C   UNL A   1      43.478  26.912  25.902  1.00  0.00     0.198 A 
ATOM     84  F   UNL A   1      42.319  28.910  26.147  1.00  0.00    -0.203 F 
ATOM     85  F   UNL A   1      45.273  24.882  28.278  1.00  0.00    -0.200 F 
ATOM     86  C   UNL A   1      44.202  25.862  26.426  1.00  0.00     0.200 A 
ATOM     87  F   UNL A   1      43.042  26.858  24.634  1.00  0.00    -0.200 F 
ATOM     88  F   UNL A   1      44.460  24.780  25.679  1.00  0.00    -0.200 F 
ENDBRANCH  54  78
BRANCH  66  89
ATOM     89  C   UNL A   1      41.994  28.935  34.150  1.00  0.00     0.064 A 
ATOM     90  C   UNL A   1      43.073  29.672  34.655  1.00  0.00     0.173 A 
ATOM     91  C   UNL A   1      41.813  27.649  34.700  1.00  0.00     0.173 A 
ATOM     92  F   UNL A   1      43.308  30.928  34.257  1.00  0.00    -0.203 F 
ATOM     93  C   UNL A   1      43.916  29.155  35.645  1.00  0.00     0.198 A 
ATOM     94  C   UNL A   1      42.616  27.162  35.731  1.00  0.00     0.198 A 
ATOM     95  F   UNL A   1      40.840  26.846  34.240  1.00  0.00    -0.203 F 
ATOM     96  F   UNL A   1      44.955  29.878  36.086  1.00  0.00    -0.200 F 
ATOM     97  C   UNL A   1      43.670  27.916  36.202  1.00  0.00     0.200 A 
ATOM     98  F   UNL A   1      42.360  25.962  36.269  1.00  0.00    -0.200 F 
ATOM     99  F   UNL A   1      44.441  27.461  37.199  1.00  0.00    -0.200 F 
ENDBRANCH  66  89
ENDBRANCH  40  41
ENDBRANCH  33  35
ENDBRANCH  32  33
ENDBRANCH  31  32
ENDBRANCH  30  31
ENDBRANCH  29  30
ENDBRANCH  28  29
ENDBRANCH  27  28
ENDBRANCH  26  27
ENDBRANCH  25  26
ENDBRANCH   1  25
TORSDOF 26
ENDMDL
MODEL 2
REMARK VINA RESULT:      -8.4      9.545     14.102
REMARK SMILES Cc1ccc(C)c(OCCNC(=O)CCC(=O)OCCOCCOCCOCCOC(=O)c2ccc(-c3c4nc(c(-c5c(F)c(F)c(F)c(F)c5F)c5ccc([nH]5)c(-c5c(F)c(F)c(F)c(F)c5F)c5nc(c(-c6c(F)c(F)c(F)c(F)c6F)c6ccc3[nH]6)C=C5)C=C4)cc2)c1
REMARK SMILES IDX 22 1 21 2 20 3 19 4 18 5 16 6 17 7 15 8 14 9 12 10 11 11
REMARK SMILES IDX 13 13 10 14 9 15 8 16 7 17 1 18 2 19 3 20 96 21 4 22 5 23
REMARK SMILES IDX 6 24 23 25 24 26 25 27 26 28 27 29 28 30 29 31 30 32 31 33
REMARK SMILES IDX 32 34 33 35 34 36 95 37 35 38 94 39 36 40 37 41 38 42 88 43
REMARK SMILES IDX 39 44 93 45 87 46 89 47 40 48 92 49 86 50 85 51 41 53 73 54
REMARK SMILES IDX 53 55 72 56 54 57 57 58 71 59 90 60 55 61 56 62 70 64 91 65
REMARK SMILES IDX 58 66 42 67 43 68 51 69 44 70 45 71 49 72 52 73 46 74 47 75
REMARK SMILES IDX 50 76 48 77 74 78 75 79 83 80 76 81 77 82 81 83 84 84 78 85
REMARK SMILES IDX 79 86 82 87 80 88 59 89 60 90 68 91 61 92 62 93 66 94 69 95
REMARK SMILES IDX 63 96 64 97 67 98 65 99
REMARK H PARENT 11 12 89 52 57 63
REMARK Flexibility Score: inf
ROOT
ATOM      1  C   UNL A   1      34.298  30.188  26.876  1.00  0.00     0.188 C 
ENDROOT
BRANCH   1   2
ATOM      2  O   UNL A   1      33.184  29.380  27.228  1.00  0.00    -0.376 OA
BRANCH   2   3
ATOM      3  C   UNL A   1      31.946  29.796  26.652  1.00  0.00     0.202 C 
BRANCH   3   4
ATOM      4  C   UNL A   1      31.395  28.786  25.631  1.00  0.00     0.261 C 
BRANCH   4   5
ATOM      5  O   UNL A   1      31.871  27.440  25.876  1.00  0.00    -0.463 OA
BRANCH   5   6
ATOM      6  C   UNL A   1      30.995  26.431  25.613  1.00  0.00     0.306 C 
ATOM      7  O   UNL A   1      29.942  26.557  25.006  1.00  0.00    -0.252 OA
BRANCH   6   8
ATOM      8  C   UNL A   1      31.474  25.112  26.179  1.00  0.00     0.132 C 
BRANCH   8   9
ATOM      9  C   UNL A   1      31.050  23.893  25.381  1.00  0.00     0.111 C 
BRANCH   9  10
ATOM     10  C   UNL A   1      30.690  22.634  26.145  1.00  0.00     0.220 C 
ATOM     11  N   UNL A   1      31.402  21.482  26.057  1.00  0.00    -0.353 N 
ATOM     12  H   UNL A   1      31.154  20.796  26.717  1.00  0.00     0.163 HD
ATOM     13  O   UNL A   1      29.674  22.617  26.849  1.00  0.00    -0.275 OA
BRANCH  11  14
ATOM     14  C   UNL A   1      32.469  21.091  25.151  1.00  0.00     0.157 C 
BRANCH  14  15
ATOM     15  C   UNL A   1      32.600  21.897  23.829  1.00  0.00     0.250 C 
BRANCH  15  16
ATOM     16  O   UNL A   1      33.907  22.336  23.423  1.00  0.00    -0.491 OA
BRANCH  16  17
ATOM     17  C   UNL A   1      33.941  23.669  23.152  1.00  0.00     0.122 A 
ATOM     18  C   UNL A   1      31.911  25.975  21.011  1.00  0.00     0.044 C 
ATOM     19  C   UNL A   1      32.938  25.518  22.003  1.00  0.00    -0.047 A 
ATOM     20  C   UNL A   1      33.477  26.373  22.970  1.00  0.00     0.004 A 
ATOM     21  C   UNL A   1      33.284  24.176  22.035  1.00  0.00     0.050 A 
ATOM     22  C   UNL A   1      34.297  25.873  23.993  1.00  0.00     0.007 A 
ATOM     23  C   UNL A   1      34.510  24.500  24.119  1.00  0.00    -0.009 A 
ATOM     24  C   UNL A   1      35.296  23.924  25.262  1.00  0.00     0.048 C 
ENDBRANCH  16  17
ENDBRANCH  15  16
ENDBRANCH  14  15
ENDBRANCH  11  14
ENDBRANCH   9  10
ENDBRANCH   8   9
ENDBRANCH   6   8
ENDBRANCH   5   6
ENDBRANCH   4   5
ENDBRANCH   3   4
ENDBRANCH   2   3
ENDBRANCH   1   2
BRANCH   1  25
ATOM     25  C   UNL A   1      35.193  30.614  28.050  1.00  0.00     0.188 C 
BRANCH  25  26
ATOM     26  O   UNL A   1      36.175  31.633  27.861  1.00  0.00    -0.377 OA
BRANCH  26  27
ATOM     27  C   UNL A   1      36.108  32.766  28.715  1.00  0.00     0.188 C 
BRANCH  27  28
ATOM     28  C   UNL A   1      34.746  33.066  29.350  1.00  0.00     0.188 C 
BRANCH  28  29
ATOM     29  O   UNL A   1      34.785  34.206  30.200  1.00  0.00    -0.376 OA
BRANCH  29  30
ATOM     30  C   UNL A   1      34.760  33.898  31.592  1.00  0.00     0.202 C 
BRANCH  30  31
ATOM     31  C   UNL A   1      36.176  33.929  32.177  1.00  0.00     0.261 C 
BRANCH  31  32
ATOM     32  O   UNL A   1      36.672  32.582  32.305  1.00  0.00    -0.460 OA
BRANCH  32  33
ATOM     33  C   UNL A   1      36.823  32.169  33.589  1.00  0.00     0.338 C 
ATOM     34  O   UNL A   1      36.386  32.740  34.577  1.00  0.00    -0.246 OA
BRANCH  33  35
ATOM     35  C   UNL A   1      37.808  31.054  33.624  1.00  0.00     0.060 A 
ATOM     36  C   UNL A   1      39.080  31.328  34.115  1.00  0.00     0.016 A 
ATOM     37  C   UNL A   1      37.567  29.831  32.973  1.00  0.00     0.016 A 
ATOM     38  C   UNL A   1      40.116  30.445  33.828  1.00  0.00     0.010 A 
ATOM     39  C   UNL A   1      38.616  28.959  32.671  1.00  0.00     0.010 A 
ATOM     40  C   UNL A   1      39.918  29.296  33.024  1.00  0.00    -0.014 A 
BRANCH  40  41
ATOM     41  C   UNL A   1      41.118  28.511  32.626  1.00  0.00     0.031 A 
ATOM     42  C   UNL A   1      41.963  28.090  33.773  1.00  0.00     0.074 A 
ATOM     43  C   UNL A   1      41.524  28.168  31.377  1.00  0.00     0.049 A 
ATOM     44  N   UNL A   1      43.220  28.346  33.970  1.00  0.00    -0.248 NA
ATOM     45  C   UNL A   1      41.284  27.420  34.896  1.00  0.00     0.031 C 
ATOM     46  C   UNL A   1      40.814  28.415  30.123  1.00  0.00     0.029 A 
ATOM     47  N   UNL A   1      42.661  27.494  30.956  1.00  0.00    -0.354 N 
ATOM     48  C   UNL A   1      43.532  27.683  35.143  1.00  0.00     0.074 A 
ATOM     49  C   UNL A   1      42.291  27.267  35.752  1.00  0.00     0.031 C 
ATOM     50  C   UNL A   1      41.434  27.766  29.117  1.00  0.00     0.029 A 
ATOM     51  C   UNL A   1      42.623  27.091  29.622  1.00  0.00     0.049 A 
ATOM     52  H   UNL A   1      43.428  27.316  31.547  1.00  0.00     0.167 HD
ATOM     53  C   UNL A   1      44.766  27.164  35.351  1.00  0.00     0.037 A 
ATOM     54  C   UNL A   1      43.453  26.253  28.944  1.00  0.00     0.037 A 
ATOM     55  C   UNL A   1      45.832  27.779  34.627  1.00  0.00     0.049 A 
ATOM     56  C   UNL A   1      44.763  26.138  29.636  1.00  0.00     0.074 A 
ATOM     57  C   UNL A   1      46.756  28.774  34.840  1.00  0.00     0.029 A 
ATOM     58  N   UNL A   1      45.925  27.430  33.312  1.00  0.00    -0.354 N 
ATOM     59  N   UNL A   1      45.760  26.965  29.496  1.00  0.00    -0.248 NA
ATOM     60  C   UNL A   1      44.951  25.113  30.661  1.00  0.00     0.031 C 
ATOM     61  C   UNL A   1      47.452  28.965  33.609  1.00  0.00     0.029 A 
ATOM     62  C   UNL A   1      46.951  28.072  32.667  1.00  0.00     0.049 A 
ATOM     63  H   UNL A   1      45.321  26.789  32.874  1.00  0.00     0.167 HD
ATOM     64  C   UNL A   1      46.521  26.807  30.631  1.00  0.00     0.074 A 
ATOM     65  C   UNL A   1      46.077  25.554  31.225  1.00  0.00     0.031 C 
ATOM     66  C   UNL A   1      47.116  27.877  31.235  1.00  0.00     0.037 A 
BRANCH  53  67
ATOM     67  C   UNL A   1      44.850  25.737  35.799  1.00  0.00     0.064 A 
ATOM     68  C   UNL A   1      45.572  25.361  36.932  1.00  0.00     0.173 A 
ATOM     69  C   UNL A   1      44.377  24.693  34.968  1.00  0.00     0.173 A 
ATOM     70  F   UNL A   1      46.134  26.291  37.717  1.00  0.00    -0.203 F 
ATOM     71  C   UNL A   1      45.758  24.011  37.248  1.00  0.00     0.198 A 
ATOM     72  C   UNL A   1      44.510  23.355  35.314  1.00  0.00     0.198 A 
ATOM     73  F   UNL A   1      43.840  24.954  33.765  1.00  0.00    -0.203 F 
ATOM     74  F   UNL A   1      46.498  23.673  38.312  1.00  0.00    -0.200 F 
ATOM     75  C   UNL A   1      45.207  23.014  36.454  1.00  0.00     0.200 A 
ATOM     76  F   UNL A   1      43.996  22.410  34.516  1.00  0.00    -0.200 F 
ATOM     77  F   UNL A   1      45.383  21.723  36.762  1.00  0.00    -0.200 F 
ENDBRANCH  53  67
BRANCH  54  78
ATOM     78  C   UNL A   1      43.201  25.469  27.693  1.00  0.00     0.064 A 
ATOM     79  C   UNL A   1      44.070  25.554  26.584  1.00  0.00     0.173 A 
ATOM     80  C   UNL A   1      42.234  24.446  27.622  1.00  0.00     0.173 A 
ATOM     81  F   UNL A   1      45.072  26.443  26.561  1.00  0.00    -0.203 F 
ATOM     82  C   UNL A   1      43.978  24.677  25.495  1.00  0.00     0.198 A 
ATOM     83  C   UNL A   1      42.122  23.595  26.520  1.00  0.00     0.198 A 
ATOM     84  F   UNL A   1      41.427  24.180  28.656  1.00  0.00    -0.203 F 
ATOM     85  F   UNL A   1      44.873  24.752  24.499  1.00  0.00    -0.200 F 
ATOM     86  C   UNL A   1      43.002  23.700  25.463  1.00  0.00     0.200 A 
ATOM     87  F   UNL A   1      41.187  22.632  26.519  1.00  0.00    -0.200 F 
ATOM     88  F   UNL A   1      42.939  22.833  24.442  1.00  0.00    -0.200 F 
ENDBRANCH  54  78
BRANCH  66  89
ATOM     89  C   UNL A   1      47.795  28.929  30.398  1.00  0.00     0.064 A 
ATOM     90  C   UNL A   1      47.259  30.180  30.064  1.00  0.00     0.173 A 
ATOM     91  C   UNL A   1      49.091  28.662  29.913  1.00  0.00     0.173 A 
ATOM     92  F   UNL A   1      46.062  30.571  30.518  1.00  0.00    -0.203 F 
ATOM     93  C   UNL A   1      47.975  31.102  29.293  1.00  0.00     0.198 A 
ATOM     94  C   UNL A   1      49.827  29.608  29.200  1.00  0.00     0.198 A 
ATOM     95  F   UNL A   1      49.665  27.469  30.135  1.00  0.00    -0.203 F 
ATOM     96  F   UNL A   1      47.422  32.280  28.970  1.00  0.00    -0.200 F 
ATOM     97  C   UNL A   1      49.266  30.829  28.889  1.00  0.00     0.200 A 
ATOM     98  F   UNL A   1      51.082  29.334  28.822  1.00  0.00    -0.200 F 
ATOM     99  F   UNL A   1      49.968  31.749  28.213  1.00  0.00    -0.200 F 
ENDBRANCH  66  89
ENDBRANCH  40  41
ENDBRANCH  33  35
ENDBRANCH  32  33
ENDBRANCH  31  32
ENDBRANCH  30  31
ENDBRANCH  29  30
ENDBRANCH  28  29
ENDBRANCH  27  28
ENDBRANCH  26  27
ENDBRANCH  25  26
ENDBRANCH   1  25
TORSDOF 26
ENDMDL
MODEL 3
REMARK VINA RESULT:      -8.3      1.126      2.282
REMARK SMILES Cc1ccc(C)c(OCCNC(=O)CCC(=O)OCCOCCOCCOCCOC(=O)c2ccc(-c3c4nc(c(-c5c(F)c(F)c(F)c(F)c5F)c5ccc([nH]5)c(-c5c(F)c(F)c(F)c(F)c5F)c5nc(c(-c6c(F)c(F)c(F)c(F)c6F)c6ccc3[nH]6)C=C5)C=C4)cc2)c1
REMARK SMILES IDX 22 1 21 2 20 3 19 4 18 5 16 6 17 7 15 8 14 9 12 10 11 11
REMARK SMILES IDX 13 13 10 14 9 15 8 16 7 17 1 18 2 19 3 20 96 21 4 22 5 23
REMARK SMILES IDX 6 24 23 25 24 26 25 27 26 28 27 29 28 30 29 31 30 32 31 33
REMARK SMILES IDX 32 34 33 35 34 36 95 37 35 38 94 39 36 40 37 41 38 42 88 43
REMARK SMILES IDX 39 44 93 45 87 46 89 47 40 48 92 49 86 50 85 51 41 53 73 54
REMARK SMILES IDX 53 55 72 56 54 57 57 58 71 59 90 60 55 61 56 62 70 64 91 65
REMARK SMILES IDX 58 66 42 67 43 68 51 69 44 70 45 71 49 72 52 73 46 74 47 75
REMARK SMILES IDX 50 76 48 77 74 78 75 79 83 80 76 81 77 82 81 83 84 84 78 85
REMARK SMILES IDX 79 86 82 87 80 88 59 89 60 90 68 91 61 92 62 93 66 94 69 95
REMARK SMILES IDX 63 96 64 97 67 98 65 99
REMARK H PARENT 11 12 89 52 57 63
REMARK Flexibility Score: inf
ROOT
ATOM      1  C   UNL A   1      42.296  40.684  30.569  1.00  0.00     0.188 C 
ENDROOT
BRANCH   1   2
ATOM      2  O   UNL A   1      42.094  41.212  29.266  1.00  0.00    -0.376 OA
BRANCH   2   3
ATOM      3  C   UNL A   1      41.950  40.227  28.244  1.00  0.00     0.202 C 
BRANCH   3   4
ATOM      4  C   UNL A   1      42.675  40.609  26.941  1.00  0.00     0.261 C 
BRANCH   4   5
ATOM      5  O   UNL A   1      41.754  40.863  25.853  1.00  0.00    -0.463 OA
BRANCH   5   6
ATOM      6  C   UNL A   1      42.264  41.503  24.765  1.00  0.00     0.306 C 
ATOM      7  O   UNL A   1      41.807  41.432  23.633  1.00  0.00    -0.252 OA
BRANCH   6   8
ATOM      8  C   UNL A   1      43.490  42.316  25.115  1.00  0.00     0.132 C 
BRANCH   8   9
ATOM      9  C   UNL A   1      43.721  43.523  24.225  1.00  0.00     0.111 C 
BRANCH   9  10
ATOM     10  C   UNL A   1      45.062  44.226  24.316  1.00  0.00     0.220 C 
ATOM     11  N   UNL A   1      46.089  43.981  23.464  1.00  0.00    -0.353 N 
ATOM     12  H   UNL A   1      46.841  44.612  23.537  1.00  0.00     0.163 HD
ATOM     13  O   UNL A   1      45.268  45.030  25.232  1.00  0.00    -0.275 OA
BRANCH  11  14
ATOM     14  C   UNL A   1      46.266  42.942  22.463  1.00  0.00     0.157 C 
BRANCH  14  15
ATOM     15  C   UNL A   1      45.730  43.241  21.035  1.00  0.00     0.250 C 
BRANCH  15  16
ATOM     16  O   UNL A   1      44.348  42.970  20.754  1.00  0.00    -0.491 OA
BRANCH  16  17
ATOM     17  C   UNL A   1      43.770  43.954  20.013  1.00  0.00     0.122 A 
ATOM     18  C   UNL A   1      44.970  46.285  17.339  1.00  0.00     0.044 C 
ATOM     19  C   UNL A   1      44.031  45.585  18.275  1.00  0.00    -0.047 A 
ATOM     20  C   UNL A   1      42.655  45.510  18.039  1.00  0.00     0.004 A 
ATOM     21  C   UNL A   1      44.560  44.892  19.354  1.00  0.00     0.050 A 
ATOM     22  C   UNL A   1      41.834  44.698  18.836  1.00  0.00     0.007 A 
ATOM     23  C   UNL A   1      42.391  43.875  19.815  1.00  0.00    -0.009 A 
ATOM     24  C   UNL A   1      41.552  42.918  20.614  1.00  0.00     0.048 C 
ENDBRANCH  16  17
ENDBRANCH  15  16
ENDBRANCH  14  15
ENDBRANCH  11  14
ENDBRANCH   9  10
ENDBRANCH   8   9
ENDBRANCH   6   8
ENDBRANCH   5   6
ENDBRANCH   4   5
ENDBRANCH   3   4
ENDBRANCH   2   3
ENDBRANCH   1   2
BRANCH   1  25
ATOM     25  C   UNL A   1      42.223  41.710  31.709  1.00  0.00     0.188 C 
BRANCH  25  26
ATOM     26  O   UNL A   1      42.430  41.290  33.059  1.00  0.00    -0.377 OA
BRANCH  26  27
ATOM     27  C   UNL A   1      43.727  41.474  33.605  1.00  0.00     0.188 C 
BRANCH  27  28
ATOM     28  C   UNL A   1      44.811  41.973  32.643  1.00  0.00     0.188 C 
BRANCH  28  29
ATOM     29  O   UNL A   1      45.742  40.953  32.301  1.00  0.00    -0.376 OA
BRANCH  29  30
ATOM     30  C   UNL A   1      46.705  41.345  31.324  1.00  0.00     0.202 C 
BRANCH  30  31
ATOM     31  C   UNL A   1      46.991  40.193  30.355  1.00  0.00     0.261 C 
BRANCH  31  32
ATOM     32  O   UNL A   1      45.816  39.369  30.229  1.00  0.00    -0.460 OA
BRANCH  32  33
ATOM     33  C   UNL A   1      45.642  38.841  28.991  1.00  0.00     0.338 C 
ATOM     34  O   UNL A   1      46.147  39.262  27.960  1.00  0.00    -0.246 OA
BRANCH  33  35
ATOM     35  C   UNL A   1      44.552  37.829  29.047  1.00  0.00     0.060 A 
ATOM     36  C   UNL A   1      44.120  37.411  30.301  1.00  0.00     0.016 A 
ATOM     37  C   UNL A   1      44.128  37.134  27.901  1.00  0.00     0.016 A 
ATOM     38  C   UNL A   1      43.389  36.231  30.400  1.00  0.00     0.010 A 
ATOM     39  C   UNL A   1      43.411  35.939  28.011  1.00  0.00     0.010 A 
ATOM     40  C   UNL A   1      43.105  35.430  29.268  1.00  0.00    -0.014 A 
BRANCH  40  41
ATOM     41  C   UNL A   1      42.475  34.101  29.497  1.00  0.00     0.031 A 
ATOM     42  C   UNL A   1      41.076  34.181  29.989  1.00  0.00     0.074 A 
ATOM     43  C   UNL A   1      43.023  32.870  29.333  1.00  0.00     0.049 A 
ATOM     44  N   UNL A   1      40.588  33.676  31.080  1.00  0.00    -0.248 NA
ATOM     45  C   UNL A   1      40.148  35.045  29.238  1.00  0.00     0.031 C 
ATOM     46  C   UNL A   1      44.347  32.561  28.797  1.00  0.00     0.029 A 
ATOM     47  N   UNL A   1      42.497  31.612  29.591  1.00  0.00    -0.354 N 
ATOM     48  C   UNL A   1      39.240  33.985  31.036  1.00  0.00     0.074 A 
ATOM     49  C   UNL A   1      39.048  34.951  29.981  1.00  0.00     0.031 C 
ATOM     50  C   UNL A   1      44.460  31.230  28.611  1.00  0.00     0.029 A 
ATOM     51  C   UNL A   1      43.245  30.563  29.061  1.00  0.00     0.049 A 
ATOM     52  H   UNL A   1      41.668  31.472  30.104  1.00  0.00     0.167 HD
ATOM     53  C   UNL A   1      38.311  33.159  31.575  1.00  0.00     0.037 A 
ATOM     54  C   UNL A   1      42.932  29.244  28.946  1.00  0.00     0.037 A 
ATOM     55  C   UNL A   1      38.767  32.308  32.626  1.00  0.00     0.049 A 
ATOM     56  C   UNL A   1      41.854  28.876  29.901  1.00  0.00     0.074 A 
ATOM     57  C   UNL A   1      38.819  32.337  34.000  1.00  0.00     0.029 A 
ATOM     58  N   UNL A   1      39.481  31.217  32.228  1.00  0.00    -0.354 N 
ATOM     59  N   UNL A   1      42.036  28.550  31.149  1.00  0.00    -0.248 NA
ATOM     60  C   UNL A   1      40.455  29.000  29.494  1.00  0.00     0.031 C 
ATOM     61  C   UNL A   1      39.544  31.180  34.413  1.00  0.00     0.029 A 
ATOM     62  C   UNL A   1      39.912  30.454  33.284  1.00  0.00     0.049 A 
ATOM     63  H   UNL A   1      39.668  31.001  31.287  1.00  0.00     0.167 HD
ATOM     64  C   UNL A   1      40.829  28.788  31.764  1.00  0.00     0.074 A 
ATOM     65  C   UNL A   1      39.859  28.901  30.683  1.00  0.00     0.031 C 
ATOM     66  C   UNL A   1      40.770  29.309  33.024  1.00  0.00     0.037 A 
BRANCH  53  67
ATOM     67  C   UNL A   1      37.140  32.781  30.719  1.00  0.00     0.064 A 
ATOM     68  C   UNL A   1      37.279  31.950  29.607  1.00  0.00     0.173 A 
ATOM     69  C   UNL A   1      35.890  33.425  30.884  1.00  0.00     0.173 A 
ATOM     70  F   UNL A   1      38.459  31.380  29.329  1.00  0.00    -0.203 F 
ATOM     71  C   UNL A   1      36.203  31.730  28.740  1.00  0.00     0.198 A 
ATOM     72  C   UNL A   1      34.807  33.158  30.058  1.00  0.00     0.198 A 
ATOM     73  F   UNL A   1      35.722  34.383  31.810  1.00  0.00    -0.203 F 
ATOM     74  F   UNL A   1      36.372  30.970  27.650  1.00  0.00    -0.200 F 
ATOM     75  C   UNL A   1      34.966  32.313  28.981  1.00  0.00     0.200 A 
ATOM     76  F   UNL A   1      33.632  33.757  30.293  1.00  0.00    -0.200 F 
ATOM     77  F   UNL A   1      33.938  32.095  28.151  1.00  0.00    -0.200 F 
ENDBRANCH  53  67
BRANCH  54  78
ATOM     78  C   UNL A   1      43.488  28.209  28.016  1.00  0.00     0.064 A 
ATOM     79  C   UNL A   1      43.190  28.224  26.637  1.00  0.00     0.173 A 
ATOM     80  C   UNL A   1      44.503  27.311  28.402  1.00  0.00     0.173 A 
ATOM     81  F   UNL A   1      42.289  29.080  26.136  1.00  0.00    -0.203 F 
ATOM     82  C   UNL A   1      43.863  27.407  25.719  1.00  0.00     0.198 A 
ATOM     83  C   UNL A   1      45.148  26.472  27.491  1.00  0.00     0.198 A 
ATOM     84  F   UNL A   1      44.965  27.283  29.659  1.00  0.00    -0.203 F 
ATOM     85  F   UNL A   1      43.594  27.510  24.410  1.00  0.00    -0.200 F 
ATOM     86  C   UNL A   1      44.840  26.529  26.148  1.00  0.00     0.200 A 
ATOM     87  F   UNL A   1      46.116  25.647  27.921  1.00  0.00    -0.200 F 
ATOM     88  F   UNL A   1      45.514  25.776  25.267  1.00  0.00    -0.200 F 
ENDBRANCH  54  78
BRANCH  66  89
ATOM     89  C   UNL A   1      41.708  28.806  34.088  1.00  0.00     0.064 A 
ATOM     90  C   UNL A   1      41.639  27.554  34.715  1.00  0.00     0.173 A 
ATOM     91  C   UNL A   1      42.770  29.640  34.492  1.00  0.00     0.173 A 
ATOM     92  F   UNL A   1      40.713  26.651  34.370  1.00  0.00    -0.203 F 
ATOM     93  C   UNL A   1      42.571  27.165  35.683  1.00  0.00     0.198 A 
ATOM     94  C   UNL A   1      43.734  29.225  35.410  1.00  0.00     0.198 A 
ATOM     95  F   UNL A   1      42.886  30.880  33.989  1.00  0.00    -0.203 F 
ATOM     96  F   UNL A   1      42.459  25.971  36.281  1.00  0.00    -0.200 F 
ATOM     97  C   UNL A   1      43.632  27.986  36.007  1.00  0.00     0.200 A 
ATOM     98  F   UNL A   1      44.763  30.028  35.709  1.00  0.00    -0.200 F 
ATOM     99  F   UNL A   1      44.559  27.574  36.883  1.00  0.00    -0.200 F 
ENDBRANCH  66  89
ENDBRANCH  40  41
ENDBRANCH  33  35
ENDBRANCH  32  33
ENDBRANCH  31  32
ENDBRANCH  30  31
ENDBRANCH  29  30
ENDBRANCH  28  29
ENDBRANCH  27  28
ENDBRANCH  26  27
ENDBRANCH  25  26
ENDBRANCH   1  25
TORSDOF 26
ENDMDL
