MODEL 1
REMARK VINA RESULT:      -9.9      0.000      0.000
REMARK SMILES C[C@@H](Cc1cccs1)N(C)c1ncc(Br)cc1C(=O)OCCOCCOCCOCCOC(=O)c1ccc(-c2c3nc(c(-c4c(F)c(F)c(F)c(F)c4F)c4ccc([nH]4)c(-c4c(F)c(F)c(F)c(F)c4F)c4nc(c(-c5c(F)c(F)c(F)c(F)c5F)c5ccc2[nH]5)C=C4)C=C3)cc1
REMARK SMILES IDX 25 1 24 2 23 3 22 4 21 5 20 6 18 7 19 8 17 9 11 10 12 11
REMARK SMILES IDX 13 12 16 13 14 14 15 15 9 16 10 17 2 18 1 19 3 20 4 21 5 22
REMARK SMILES IDX 8 23 6 24 7 25 26 26 27 27 28 28 29 29 30 30 31 31 32 32
REMARK SMILES IDX 33 33 34 34 35 35 36 36 97 37 37 38 96 39 38 40 39 41 40 42
REMARK SMILES IDX 90 43 41 44 95 45 89 46 91 47 42 48 94 49 88 50 87 51 43 53
REMARK SMILES IDX 75 54 55 55 74 56 56 57 59 58 73 59 92 60 57 61 58 62 72 64
REMARK SMILES IDX 93 65 60 66 44 67 45 68 53 69 46 70 47 71 51 72 54 73 48 74
REMARK SMILES IDX 49 75 52 76 50 77 76 78 77 79 85 80 78 81 79 82 83 83 86 84
REMARK SMILES IDX 80 85 81 86 84 87 82 88 61 89 62 90 70 91 63 92 64 93 68 94
REMARK SMILES IDX 71 95 65 96 66 97 69 98 67 99
REMARK H PARENT 91 52 59 63
REMARK Flexibility Score: inf
ROOT
ATOM      1  C   UNL A   1      32.584  28.698  23.117  1.00  0.00     0.188 C 
ENDROOT
BRANCH   1   2
ATOM      2  C   UNL A   1      33.922  28.595  22.395  1.00  0.00     0.188 C 
BRANCH   2   3
ATOM      3  O   UNL A   1      34.045  27.347  21.722  1.00  0.00    -0.376 OA
BRANCH   3   4
ATOM      4  C   UNL A   1      32.896  26.520  21.821  1.00  0.00     0.202 C 
BRANCH   4   5
ATOM      5  C   UNL A   1      32.898  25.217  21.007  1.00  0.00     0.261 C 
BRANCH   5   6
ATOM      6  O   UNL A   1      32.702  23.982  21.721  1.00  0.00    -0.460 OA
BRANCH   6   7
ATOM      7  C   UNL A   1      33.529  23.655  22.745  1.00  0.00     0.342 C 
ATOM      8  O   UNL A   1      34.737  23.531  22.661  1.00  0.00    -0.246 OA
BRANCH   7   9
ATOM      9  C   UNL A   1      32.697  23.407  23.957  1.00  0.00     0.103 A 
ATOM     10  C   UNL A   1      32.422  22.120  24.443  1.00  0.00     0.143 A 
ATOM     11  N   UNL A   1      31.382  21.918  25.297  1.00  0.00    -0.237 NA
ATOM     12  C   UNL A   1      30.729  22.993  25.800  1.00  0.00     0.129 A 
ATOM     13  C   UNL A   1      32.037  24.508  24.537  1.00  0.00     0.037 A 
ATOM     14  C   UNL A   1      31.060  24.294  25.493  1.00  0.00     0.037 A 
ATOM     15  Br  UNL A   1      30.187  25.738  26.331  1.00  0.00    -0.049 Br
BRANCH  10  16
ATOM     16  N   UNL A   1      33.110  20.990  24.054  1.00  0.00    -0.356 N 
ATOM     17  C   UNL A   1      32.299  20.164  23.148  1.00  0.00     0.145 C 
BRANCH  16  18
ATOM     18  C   UNL A   1      34.039  20.207  24.909  1.00  0.00     0.085 C 
ATOM     19  C   UNL A   1      33.780  18.718  24.541  1.00  0.00     0.031 C 
BRANCH  18  20
ATOM     20  C   UNL A   1      35.574  20.424  24.988  1.00  0.00     0.071 C 
BRANCH  20  21
ATOM     21  C   UNL A   1      36.235  21.718  25.385  1.00  0.00     0.007 A 
ATOM     22  C   UNL A   1      35.732  22.881  25.931  1.00  0.00     0.015 A 
ATOM     23  S   UNL A   1      37.962  21.796  25.375  1.00  0.00    -0.149 S 
ATOM     24  C   UNL A   1      36.725  23.907  26.048  1.00  0.00     0.012 A 
ATOM     25  C   UNL A   1      37.980  23.455  25.724  1.00  0.00     0.065 A 
ENDBRANCH  20  21
ENDBRANCH  18  20
ENDBRANCH  16  18
ENDBRANCH  10  16
ENDBRANCH   7   9
ENDBRANCH   6   7
ENDBRANCH   5   6
ENDBRANCH   4   5
ENDBRANCH   3   4
ENDBRANCH   2   3
ENDBRANCH   1   2
BRANCH   1  26
ATOM     26  O   UNL A   1      32.685  29.372  24.350  1.00  0.00    -0.377 OA
BRANCH  26  27
ATOM     27  C   UNL A   1      32.744  28.546  25.500  1.00  0.00     0.188 C 
BRANCH  27  28
ATOM     28  C   UNL A   1      34.070  28.195  26.223  1.00  0.00     0.188 C 
BRANCH  28  29
ATOM     29  O   UNL A   1      34.797  29.131  27.003  1.00  0.00    -0.376 OA
BRANCH  29  30
ATOM     30  C   UNL A   1      34.249  30.176  27.785  1.00  0.00     0.202 C 
BRANCH  30  31
ATOM     31  C   UNL A   1      34.364  31.668  27.472  1.00  0.00     0.261 C 
BRANCH  31  32
ATOM     32  O   UNL A   1      33.233  32.446  27.843  1.00  0.00    -0.460 OA
BRANCH  32  33
ATOM     33  C   UNL A   1      33.531  33.663  28.351  1.00  0.00     0.338 C 
ATOM     34  O   UNL A   1      32.944  34.717  28.169  1.00  0.00    -0.246 OA
BRANCH  33  35
ATOM     35  C   UNL A   1      34.575  33.486  29.367  1.00  0.00     0.060 A 
ATOM     36  C   UNL A   1      35.839  34.027  29.097  1.00  0.00     0.016 A 
ATOM     37  C   UNL A   1      34.307  32.834  30.573  1.00  0.00     0.016 A 
ATOM     38  C   UNL A   1      36.861  33.887  30.026  1.00  0.00     0.010 A 
ATOM     39  C   UNL A   1      35.343  32.654  31.484  1.00  0.00     0.010 A 
ATOM     40  C   UNL A   1      36.628  33.142  31.186  1.00  0.00    -0.014 A 
BRANCH  40  41
ATOM     41  C   UNL A   1      37.791  32.592  31.909  1.00  0.00     0.031 A 
ATOM     42  C   UNL A   1      38.486  31.420  31.279  1.00  0.00     0.074 A 
ATOM     43  C   UNL A   1      38.217  33.125  33.063  1.00  0.00     0.049 A 
ATOM     44  N   UNL A   1      39.481  30.701  31.727  1.00  0.00    -0.248 NA
ATOM     45  C   UNL A   1      37.984  30.997  29.958  1.00  0.00     0.031 C 
ATOM     46  C   UNL A   1      37.643  34.298  33.720  1.00  0.00     0.029 A 
ATOM     47  N   UNL A   1      39.233  32.731  33.892  1.00  0.00    -0.354 N 
ATOM     48  C   UNL A   1      39.717  29.746  30.747  1.00  0.00     0.074 A 
ATOM     49  C   UNL A   1      38.751  29.953  29.694  1.00  0.00     0.031 C 
ATOM     50  C   UNL A   1      38.306  34.515  34.870  1.00  0.00     0.029 A 
ATOM     51  C   UNL A   1      39.321  33.478  35.040  1.00  0.00     0.049 A 
ATOM     52  H   UNL A   1      39.841  31.985  33.685  1.00  0.00     0.167 HD
ATOM     53  C   UNL A   1      40.661  28.780  30.731  1.00  0.00     0.037 A 
ATOM     54  C   UNL A   1      40.119  33.309  36.111  1.00  0.00     0.037 A 
ATOM     55  C   UNL A   1      41.601  28.571  31.796  1.00  0.00     0.049 A 
ATOM     56  C   UNL A   1      41.107  32.168  36.108  1.00  0.00     0.074 A 
ATOM     57  C   UNL A   1      42.598  27.620  31.895  1.00  0.00     0.029 A 
ATOM     58  N   UNL A   1      41.646  29.331  32.957  1.00  0.00    -0.354 N 
ATOM     59  N   UNL A   1      41.341  31.272  35.177  1.00  0.00    -0.248 NA
ATOM     60  C   UNL A   1      41.944  32.015  37.306  1.00  0.00     0.031 C 
ATOM     61  C   UNL A   1      43.212  27.770  33.143  1.00  0.00     0.029 A 
ATOM     62  C   UNL A   1      42.640  28.853  33.792  1.00  0.00     0.049 A 
ATOM     63  H   UNL A   1      41.057  30.094  33.157  1.00  0.00     0.167 HD
ATOM     64  C   UNL A   1      42.370  30.475  35.660  1.00  0.00     0.074 A 
ATOM     65  C   UNL A   1      42.722  30.998  36.964  1.00  0.00     0.031 C 
ATOM     66  C   UNL A   1      42.976  29.408  35.079  1.00  0.00     0.037 A 
BRANCH  53  67
ATOM     67  C   UNL A   1      40.682  27.859  29.547  1.00  0.00     0.064 A 
ATOM     68  C   UNL A   1      39.773  26.797  29.421  1.00  0.00     0.173 A 
ATOM     69  C   UNL A   1      41.627  28.039  28.527  1.00  0.00     0.173 A 
ATOM     70  F   UNL A   1      38.866  26.565  30.383  1.00  0.00    -0.203 F 
ATOM     71  C   UNL A   1      39.827  25.935  28.328  1.00  0.00     0.198 A 
ATOM     72  C   UNL A   1      41.658  27.194  27.422  1.00  0.00     0.198 A 
ATOM     73  F   UNL A   1      42.525  29.033  28.604  1.00  0.00    -0.203 F 
ATOM     74  F   UNL A   1      38.985  24.895  28.255  1.00  0.00    -0.200 F 
ATOM     75  C   UNL A   1      40.764  26.139  27.327  1.00  0.00     0.200 A 
ATOM     76  F   UNL A   1      42.561  27.396  26.451  1.00  0.00    -0.200 F 
ATOM     77  F   UNL A   1      40.813  25.311  26.274  1.00  0.00    -0.200 F 
ENDBRANCH  53  67
BRANCH  54  78
ATOM     78  C   UNL A   1      40.007  34.222  37.278  1.00  0.00     0.064 A 
ATOM     79  C   UNL A   1      39.134  33.940  38.337  1.00  0.00     0.173 A 
ATOM     80  C   UNL A   1      40.752  35.409  37.347  1.00  0.00     0.173 A 
ATOM     81  F   UNL A   1      38.381  32.830  38.306  1.00  0.00    -0.203 F 
ATOM     82  C   UNL A   1      38.995  34.819  39.410  1.00  0.00     0.198 A 
ATOM     83  C   UNL A   1      40.634  36.273  38.434  1.00  0.00     0.198 A 
ATOM     84  F   UNL A   1      41.600  35.729  36.358  1.00  0.00    -0.203 F 
ATOM     85  F   UNL A   1      38.116  34.548  40.384  1.00  0.00    -0.200 F 
ATOM     86  C   UNL A   1      39.749  35.981  39.460  1.00  0.00     0.200 A 
ATOM     87  F   UNL A   1      41.372  37.389  38.483  1.00  0.00    -0.200 F 
ATOM     88  F   UNL A   1      39.614  36.826  40.491  1.00  0.00    -0.200 F 
ENDBRANCH  54  78
BRANCH  66  89
ATOM     89  C   UNL A   1      44.112  28.769  35.823  1.00  0.00     0.064 A 
ATOM     90  C   UNL A   1      45.433  29.212  35.678  1.00  0.00     0.173 A 
ATOM     91  C   UNL A   1      43.859  27.738  36.741  1.00  0.00     0.173 A 
ATOM     92  F   UNL A   1      45.727  30.188  34.804  1.00  0.00    -0.203 F 
ATOM     93  C   UNL A   1      46.466  28.629  36.407  1.00  0.00     0.198 A 
ATOM     94  C   UNL A   1      44.889  27.180  37.493  1.00  0.00     0.198 A 
ATOM     95  F   UNL A   1      42.609  27.286  36.925  1.00  0.00    -0.203 F 
ATOM     96  F   UNL A   1      47.728  29.037  36.219  1.00  0.00    -0.200 F 
ATOM     97  C   UNL A   1      46.192  27.621  37.320  1.00  0.00     0.200 A 
ATOM     98  F   UNL A   1      44.619  26.220  38.387  1.00  0.00    -0.200 F 
ATOM     99  F   UNL A   1      47.185  27.071  38.030  1.00  0.00    -0.200 F 
ENDBRANCH  66  89
ENDBRANCH  40  41
ENDBRANCH  33  35
ENDBRANCH  32  33
ENDBRANCH  31  32
ENDBRANCH  30  31
ENDBRANCH  29  30
ENDBRANCH  28  29
ENDBRANCH  27  28
ENDBRANCH  26  27
ENDBRANCH   1  26
TORSDOF 24
ENDMDL
MODEL 2
REMARK VINA RESULT:      -9.4      3.618      8.720
REMARK SMILES C[C@@H](Cc1cccs1)N(C)c1ncc(Br)cc1C(=O)OCCOCCOCCOCCOC(=O)c1ccc(-c2c3nc(c(-c4c(F)c(F)c(F)c(F)c4F)c4ccc([nH]4)c(-c4c(F)c(F)c(F)c(F)c4F)c4nc(c(-c5c(F)c(F)c(F)c(F)c5F)c5ccc2[nH]5)C=C4)C=C3)cc1
REMARK SMILES IDX 25 1 24 2 23 3 22 4 21 5 20 6 18 7 19 8 17 9 11 10 12 11
REMARK SMILES IDX 13 12 16 13 14 14 15 15 9 16 10 17 2 18 1 19 3 20 4 21 5 22
REMARK SMILES IDX 8 23 6 24 7 25 26 26 27 27 28 28 29 29 30 30 31 31 32 32
REMARK SMILES IDX 33 33 34 34 35 35 36 36 97 37 37 38 96 39 38 40 39 41 40 42
REMARK SMILES IDX 90 43 41 44 95 45 89 46 91 47 42 48 94 49 88 50 87 51 43 53
REMARK SMILES IDX 75 54 55 55 74 56 56 57 59 58 73 59 92 60 57 61 58 62 72 64
REMARK SMILES IDX 93 65 60 66 44 67 45 68 53 69 46 70 47 71 51 72 54 73 48 74
REMARK SMILES IDX 49 75 52 76 50 77 76 78 77 79 85 80 78 81 79 82 83 83 86 84
REMARK SMILES IDX 80 85 81 86 84 87 82 88 61 89 62 90 70 91 63 92 64 93 68 94
REMARK SMILES IDX 71 95 65 96 66 97 69 98 67 99
REMARK H PARENT 91 52 59 63
REMARK Flexibility Score: inf
ROOT
ATOM      1  C   UNL A   1      40.366  22.383  27.572  1.00  0.00     0.188 C 
ENDROOT
BRANCH   1   2
ATOM      2  C   UNL A   1      40.581  23.851  27.224  1.00  0.00     0.188 C 
BRANCH   2   3
ATOM      3  O   UNL A   1      39.468  24.373  26.506  1.00  0.00    -0.376 OA
BRANCH   3   4
ATOM      4  C   UNL A   1      38.281  23.606  26.639  1.00  0.00     0.202 C 
BRANCH   4   5
ATOM      5  C   UNL A   1      37.239  23.729  25.518  1.00  0.00     0.261 C 
BRANCH   5   6
ATOM      6  O   UNL A   1      35.850  23.755  25.896  1.00  0.00    -0.460 OA
BRANCH   6   7
ATOM      7  C   UNL A   1      34.896  23.955  24.952  1.00  0.00     0.342 C 
ATOM      8  O   UNL A   1      35.087  23.965  23.750  1.00  0.00    -0.246 OA
BRANCH   7   9
ATOM      9  C   UNL A   1      33.603  24.227  25.644  1.00  0.00     0.103 A 
ATOM     10  C   UNL A   1      32.694  23.215  25.985  1.00  0.00     0.143 A 
ATOM     11  N   UNL A   1      31.398  23.523  26.262  1.00  0.00    -0.237 NA
ATOM     12  C   UNL A   1      31.043  24.826  26.370  1.00  0.00     0.129 A 
ATOM     13  C   UNL A   1      33.221  25.571  25.816  1.00  0.00     0.037 A 
ATOM     14  C   UNL A   1      31.929  25.870  26.214  1.00  0.00     0.037 A 
ATOM     15  Br  UNL A   1      31.388  27.650  26.504  1.00  0.00    -0.049 Br
BRANCH  10  16
ATOM     16  N   UNL A   1      33.008  21.872  25.995  1.00  0.00    -0.356 N 
ATOM     17  C   UNL A   1      33.760  21.514  27.206  1.00  0.00     0.145 C 
BRANCH  16  18
ATOM     18  C   UNL A   1      33.369  21.060  24.804  1.00  0.00     0.085 C 
ATOM     19  C   UNL A   1      34.802  20.527  25.088  1.00  0.00     0.031 C 
BRANCH  18  20
ATOM     20  C   UNL A   1      32.522  19.891  24.233  1.00  0.00     0.071 C 
BRANCH  20  21
ATOM     21  C   UNL A   1      32.971  18.454  24.186  1.00  0.00     0.007 A 
ATOM     22  C   UNL A   1      33.699  17.745  23.252  1.00  0.00     0.015 A 
ATOM     23  S   UNL A   1      32.752  17.477  25.594  1.00  0.00    -0.149 S 
ATOM     24  C   UNL A   1      33.801  16.354  23.576  1.00  0.00     0.012 A 
ATOM     25  C   UNL A   1      33.274  16.067  24.811  1.00  0.00     0.065 A 
ENDBRANCH  20  21
ENDBRANCH  18  20
ENDBRANCH  16  18
ENDBRANCH  10  16
ENDBRANCH   7   9
ENDBRANCH   6   7
ENDBRANCH   5   6
ENDBRANCH   4   5
ENDBRANCH   3   4
ENDBRANCH   2   3
ENDBRANCH   1   2
BRANCH   1  26
ATOM     26  O   UNL A   1      41.525  21.606  27.377  1.00  0.00    -0.377 OA
BRANCH  26  27
ATOM     27  C   UNL A   1      42.050  21.604  26.061  1.00  0.00     0.188 C 
BRANCH  27  28
ATOM     28  C   UNL A   1      43.327  20.819  25.660  1.00  0.00     0.188 C 
BRANCH  28  29
ATOM     29  O   UNL A   1      44.633  21.226  26.033  1.00  0.00    -0.376 OA
BRANCH  29  30
ATOM     30  C   UNL A   1      45.617  21.775  25.176  1.00  0.00     0.202 C 
BRANCH  30  31
ATOM     31  C   UNL A   1      45.382  22.896  24.163  1.00  0.00     0.261 C 
BRANCH  31  32
ATOM     32  O   UNL A   1      44.617  23.992  24.649  1.00  0.00    -0.460 OA
BRANCH  32  33
ATOM     33  C   UNL A   1      45.343  25.089  24.962  1.00  0.00     0.338 C 
ATOM     34  O   UNL A   1      46.444  25.404  24.543  1.00  0.00    -0.246 OA
BRANCH  33  35
ATOM     35  C   UNL A   1      44.488  25.990  25.743  1.00  0.00     0.060 A 
ATOM     36  C   UNL A   1      44.934  27.305  25.930  1.00  0.00     0.016 A 
ATOM     37  C   UNL A   1      43.259  25.562  26.249  1.00  0.00     0.016 A 
ATOM     38  C   UNL A   1      44.162  28.197  26.661  1.00  0.00     0.010 A 
ATOM     39  C   UNL A   1      42.506  26.443  27.020  1.00  0.00     0.010 A 
ATOM     40  C   UNL A   1      42.983  27.743  27.261  1.00  0.00    -0.014 A 
BRANCH  40  41
ATOM     41  C   UNL A   1      42.437  28.510  28.396  1.00  0.00     0.031 A 
ATOM     42  C   UNL A   1      43.292  28.599  29.627  1.00  0.00     0.074 A 
ATOM     43  C   UNL A   1      41.241  29.114  28.326  1.00  0.00     0.049 A 
ATOM     44  N   UNL A   1      43.033  29.144  30.786  1.00  0.00    -0.248 NA
ATOM     45  C   UNL A   1      44.628  27.981  29.537  1.00  0.00     0.031 C 
ATOM     46  C   UNL A   1      40.368  29.133  27.155  1.00  0.00     0.029 A 
ATOM     47  N   UNL A   1      40.555  29.821  29.277  1.00  0.00    -0.354 N 
ATOM     48  C   UNL A   1      44.168  28.930  31.556  1.00  0.00     0.074 A 
ATOM     49  C   UNL A   1      45.108  28.186  30.752  1.00  0.00     0.031 C 
ATOM     50  C   UNL A   1      39.242  29.802  27.467  1.00  0.00     0.029 A 
ATOM     51  C   UNL A   1      39.310  30.224  28.865  1.00  0.00     0.049 A 
ATOM     52  H   UNL A   1      40.920  30.021  30.170  1.00  0.00     0.167 HD
ATOM     53  C   UNL A   1      44.402  29.324  32.828  1.00  0.00     0.037 A 
ATOM     54  C   UNL A   1      38.335  30.836  29.563  1.00  0.00     0.037 A 
ATOM     55  C   UNL A   1      43.448  30.045  33.623  1.00  0.00     0.049 A 
ATOM     56  C   UNL A   1      38.587  31.188  31.008  1.00  0.00     0.074 A 
ATOM     57  C   UNL A   1      43.569  30.490  34.925  1.00  0.00     0.029 A 
ATOM     58  N   UNL A   1      42.185  30.414  33.183  1.00  0.00    -0.354 N 
ATOM     59  N   UNL A   1      39.664  30.999  31.735  1.00  0.00    -0.248 NA
ATOM     60  C   UNL A   1      37.487  31.840  31.732  1.00  0.00     0.031 C 
ATOM     61  C   UNL A   1      42.357  31.083  35.292  1.00  0.00     0.029 A 
ATOM     62  C   UNL A   1      41.505  31.063  34.198  1.00  0.00     0.049 A 
ATOM     63  H   UNL A   1      41.826  30.240  32.283  1.00  0.00     0.167 HD
ATOM     64  C   UNL A   1      39.385  31.538  32.985  1.00  0.00     0.074 A 
ATOM     65  C   UNL A   1      38.039  32.069  32.915  1.00  0.00     0.031 C 
ATOM     66  C   UNL A   1      40.170  31.594  34.090  1.00  0.00     0.037 A 
BRANCH  53  67
ATOM     67  C   UNL A   1      45.718  28.939  33.435  1.00  0.00     0.064 A 
ATOM     68  C   UNL A   1      45.903  27.704  34.076  1.00  0.00     0.173 A 
ATOM     69  C   UNL A   1      46.808  29.819  33.379  1.00  0.00     0.173 A 
ATOM     70  F   UNL A   1      44.884  26.838  34.181  1.00  0.00    -0.203 F 
ATOM     71  C   UNL A   1      47.124  27.377  34.660  1.00  0.00     0.198 A 
ATOM     72  C   UNL A   1      48.035  29.476  33.937  1.00  0.00     0.198 A 
ATOM     73  F   UNL A   1      46.681  31.016  32.786  1.00  0.00    -0.203 F 
ATOM     74  F   UNL A   1      47.262  26.216  35.314  1.00  0.00    -0.200 F 
ATOM     75  C   UNL A   1      48.191  28.259  34.583  1.00  0.00     0.200 A 
ATOM     76  F   UNL A   1      49.068  30.327  33.856  1.00  0.00    -0.200 F 
ATOM     77  F   UNL A   1      49.367  27.941  35.141  1.00  0.00    -0.200 F 
ENDBRANCH  53  67
BRANCH  54  78
ATOM     78  C   UNL A   1      37.031  31.137  28.918  1.00  0.00     0.064 A 
ATOM     79  C   UNL A   1      36.711  32.437  28.504  1.00  0.00     0.173 A 
ATOM     80  C   UNL A   1      36.067  30.136  28.723  1.00  0.00     0.173 A 
ATOM     81  F   UNL A   1      37.589  33.434  28.690  1.00  0.00    -0.203 F 
ATOM     82  C   UNL A   1      35.470  32.729  27.939  1.00  0.00     0.198 A 
ATOM     83  C   UNL A   1      34.838  30.423  28.132  1.00  0.00     0.198 A 
ATOM     84  F   UNL A   1      36.320  28.876  29.105  1.00  0.00    -0.203 F 
ATOM     85  F   UNL A   1      35.173  33.991  27.599  1.00  0.00    -0.200 F 
ATOM     86  C   UNL A   1      34.538  31.721  27.749  1.00  0.00     0.200 A 
ATOM     87  F   UNL A   1      33.943  29.445  27.941  1.00  0.00    -0.200 F 
ATOM     88  F   UNL A   1      33.344  32.003  27.208  1.00  0.00    -0.200 F 
ENDBRANCH  54  78
BRANCH  66  89
ATOM     89  C   UNL A   1      39.615  32.296  35.295  1.00  0.00     0.064 A 
ATOM     90  C   UNL A   1      39.835  33.661  35.522  1.00  0.00     0.173 A 
ATOM     91  C   UNL A   1      38.800  31.600  36.201  1.00  0.00     0.173 A 
ATOM     92  F   UNL A   1      40.616  34.368  34.691  1.00  0.00    -0.203 F 
ATOM     93  C   UNL A   1      39.278  34.300  36.627  1.00  0.00     0.198 A 
ATOM     94  C   UNL A   1      38.218  32.249  37.286  1.00  0.00     0.198 A 
ATOM     95  F   UNL A   1      38.550  30.294  36.022  1.00  0.00    -0.203 F 
ATOM     96  F   UNL A   1      39.538  35.595  36.851  1.00  0.00    -0.200 F 
ATOM     97  C   UNL A   1      38.464  33.596  37.503  1.00  0.00     0.200 A 
ATOM     98  F   UNL A   1      37.416  31.571  38.119  1.00  0.00    -0.200 F 
ATOM     99  F   UNL A   1      37.918  34.216  38.557  1.00  0.00    -0.200 F 
ENDBRANCH  66  89
ENDBRANCH  40  41
ENDBRANCH  33  35
ENDBRANCH  32  33
ENDBRANCH  31  32
ENDBRANCH  30  31
ENDBRANCH  29  30
ENDBRANCH  28  29
ENDBRANCH  27  28
ENDBRANCH  26  27
ENDBRANCH   1  26
TORSDOF 24
ENDMDL
MODEL 3
REMARK VINA RESULT:      -9.2      4.440      6.399
REMARK SMILES C[C@@H](Cc1cccs1)N(C)c1ncc(Br)cc1C(=O)OCCOCCOCCOCCOC(=O)c1ccc(-c2c3nc(c(-c4c(F)c(F)c(F)c(F)c4F)c4ccc([nH]4)c(-c4c(F)c(F)c(F)c(F)c4F)c4nc(c(-c5c(F)c(F)c(F)c(F)c5F)c5ccc2[nH]5)C=C4)C=C3)cc1
REMARK SMILES IDX 25 1 24 2 23 3 22 4 21 5 20 6 18 7 19 8 17 9 11 10 12 11
REMARK SMILES IDX 13 12 16 13 14 14 15 15 9 16 10 17 2 18 1 19 3 20 4 21 5 22
REMARK SMILES IDX 8 23 6 24 7 25 26 26 27 27 28 28 29 29 30 30 31 31 32 32
REMARK SMILES IDX 33 33 34 34 35 35 36 36 97 37 37 38 96 39 38 40 39 41 40 42
REMARK SMILES IDX 90 43 41 44 95 45 89 46 91 47 42 48 94 49 88 50 87 51 43 53
REMARK SMILES IDX 75 54 55 55 74 56 56 57 59 58 73 59 92 60 57 61 58 62 72 64
REMARK SMILES IDX 93 65 60 66 44 67 45 68 53 69 46 70 47 71 51 72 54 73 48 74
REMARK SMILES IDX 49 75 52 76 50 77 76 78 77 79 85 80 78 81 79 82 83 83 86 84
REMARK SMILES IDX 80 85 81 86 84 87 82 88 61 89 62 90 70 91 63 92 64 93 68 94
REMARK SMILES IDX 71 95 65 96 66 97 69 98 67 99
REMARK H PARENT 91 52 59 63
REMARK Flexibility Score: inf
ROOT
ATOM      1  C   UNL A   1      31.651  28.778  23.475  1.00  0.00     0.188 C 
ENDROOT
BRANCH   1   2
ATOM      2  C   UNL A   1      33.155  28.955  23.638  1.00  0.00     0.188 C 
BRANCH   2   3
ATOM      3  O   UNL A   1      33.789  27.712  23.918  1.00  0.00    -0.376 OA
BRANCH   3   4
ATOM      4  C   UNL A   1      32.925  26.589  23.827  1.00  0.00     0.202 C 
BRANCH   4   5
ATOM      5  C   UNL A   1      32.830  25.677  25.060  1.00  0.00     0.261 C 
BRANCH   5   6
ATOM      6  O   UNL A   1      34.061  25.184  25.623  1.00  0.00    -0.460 OA
BRANCH   6   7
ATOM      7  C   UNL A   1      34.123  23.917  26.106  1.00  0.00     0.342 C 
ATOM      8  O   UNL A   1      33.335  23.424  26.891  1.00  0.00    -0.246 OA
BRANCH   7   9
ATOM      9  C   UNL A   1      35.352  23.271  25.562  1.00  0.00     0.103 A 
ATOM     10  C   UNL A   1      35.315  22.250  24.601  1.00  0.00     0.143 A 
ATOM     11  N   UNL A   1      36.396  21.445  24.414  1.00  0.00    -0.237 NA
ATOM     12  C   UNL A   1      37.557  21.751  25.042  1.00  0.00     0.129 A 
ATOM     13  C   UNL A   1      36.585  23.598  26.159  1.00  0.00     0.037 A 
ATOM     14  C   UNL A   1      37.708  22.842  25.869  1.00  0.00     0.037 A 
ATOM     15  Br  UNL A   1      39.386  23.274  26.606  1.00  0.00    -0.049 Br
BRANCH  10  16
ATOM     16  N   UNL A   1      34.199  21.943  23.850  1.00  0.00    -0.356 N 
ATOM     17  C   UNL A   1      33.908  23.005  22.878  1.00  0.00     0.145 C 
BRANCH  16  18
ATOM     18  C   UNL A   1      32.990  21.237  24.348  1.00  0.00     0.085 C 
ATOM     19  C   UNL A   1      32.180  20.860  23.075  1.00  0.00     0.031 C 
BRANCH  18  20
ATOM     20  C   UNL A   1      33.004  20.006  25.295  1.00  0.00     0.071 C 
BRANCH  20  21
ATOM     21  C   UNL A   1      33.401  18.614  24.882  1.00  0.00     0.007 A 
ATOM     22  C   UNL A   1      34.492  18.135  24.184  1.00  0.00     0.015 A 
ATOM     23  S   UNL A   1      32.498  17.280  25.508  1.00  0.00    -0.149 S 
ATOM     24  C   UNL A   1      34.405  16.729  23.927  1.00  0.00     0.012 A 
ATOM     25  C   UNL A   1      33.328  16.151  24.554  1.00  0.00     0.065 A 
ENDBRANCH  20  21
ENDBRANCH  18  20
ENDBRANCH  16  18
ENDBRANCH  10  16
ENDBRANCH   7   9
ENDBRANCH   6   7
ENDBRANCH   5   6
ENDBRANCH   4   5
ENDBRANCH   3   4
ENDBRANCH   2   3
ENDBRANCH   1   2
BRANCH   1  26
ATOM     26  O   UNL A   1      30.934  29.166  24.623  1.00  0.00    -0.377 OA
BRANCH  26  27
ATOM     27  C   UNL A   1      31.441  30.296  25.313  1.00  0.00     0.188 C 
BRANCH  27  28
ATOM     28  C   UNL A   1      31.923  30.242  26.786  1.00  0.00     0.188 C 
BRANCH  28  29
ATOM     29  O   UNL A   1      33.239  30.593  27.182  1.00  0.00    -0.376 OA
BRANCH  29  30
ATOM     30  C   UNL A   1      33.650  31.837  27.717  1.00  0.00     0.202 C 
BRANCH  30  31
ATOM     31  C   UNL A   1      34.690  32.025  28.823  1.00  0.00     0.261 C 
BRANCH  31  32
ATOM     32  O   UNL A   1      35.393  30.845  29.190  1.00  0.00    -0.460 OA
BRANCH  32  33
ATOM     33  C   UNL A   1      36.118  30.955  30.326  1.00  0.00     0.338 C 
ATOM     34  O   UNL A   1      35.739  31.321  31.426  1.00  0.00    -0.246 OA
BRANCH  33  35
ATOM     35  C   UNL A   1      37.428  30.337  30.089  1.00  0.00     0.060 A 
ATOM     36  C   UNL A   1      37.982  29.574  31.126  1.00  0.00     0.016 A 
ATOM     37  C   UNL A   1      38.080  30.475  28.862  1.00  0.00     0.016 A 
ATOM     38  C   UNL A   1      39.218  28.969  30.952  1.00  0.00     0.010 A 
ATOM     39  C   UNL A   1      39.340  29.906  28.703  1.00  0.00     0.010 A 
ATOM     40  C   UNL A   1      39.924  29.193  29.765  1.00  0.00    -0.014 A 
BRANCH  40  41
ATOM     41  C   UNL A   1      41.383  28.974  29.768  1.00  0.00     0.031 A 
ATOM     42  C   UNL A   1      41.877  27.701  29.144  1.00  0.00     0.074 A 
ATOM     43  C   UNL A   1      42.228  29.877  30.287  1.00  0.00     0.049 A 
ATOM     44  N   UNL A   1      43.091  27.224  29.072  1.00  0.00    -0.248 NA
ATOM     45  C   UNL A   1      40.855  26.844  28.515  1.00  0.00     0.031 C 
ATOM     46  C   UNL A   1      41.846  31.166  30.860  1.00  0.00     0.029 A 
ATOM     47  N   UNL A   1      43.590  29.831  30.423  1.00  0.00    -0.354 N 
ATOM     48  C   UNL A   1      42.973  26.016  28.397  1.00  0.00     0.074 A 
ATOM     49  C   UNL A   1      41.574  25.816  28.102  1.00  0.00     0.031 C 
ATOM     50  C   UNL A   1      42.954  31.782  31.311  1.00  0.00     0.029 A 
ATOM     51  C   UNL A   1      44.108  30.915  31.085  1.00  0.00     0.049 A 
ATOM     52  H   UNL A   1      44.142  29.093  30.078  1.00  0.00     0.167 HD
ATOM     53  C   UNL A   1      43.953  25.151  28.053  1.00  0.00     0.037 A 
ATOM     54  C   UNL A   1      45.373  31.148  31.485  1.00  0.00     0.037 A 
ATOM     55  C   UNL A   1      45.338  25.354  28.373  1.00  0.00     0.049 A 
ATOM     56  C   UNL A   1      46.436  30.126  31.166  1.00  0.00     0.074 A 
ATOM     57  C   UNL A   1      46.419  24.544  28.085  1.00  0.00     0.029 A 
ATOM     58  N   UNL A   1      45.826  26.451  29.070  1.00  0.00    -0.354 N 
ATOM     59  N   UNL A   1      46.329  28.990  30.516  1.00  0.00    -0.248 NA
ATOM     60  C   UNL A   1      47.796  30.417  31.637  1.00  0.00     0.031 C 
ATOM     61  C   UNL A   1      47.557  25.125  28.655  1.00  0.00     0.029 A 
ATOM     62  C   UNL A   1      47.193  26.327  29.242  1.00  0.00     0.049 A 
ATOM     63  H   UNL A   1      45.280  27.204  29.393  1.00  0.00     0.167 HD
ATOM     64  C   UNL A   1      47.609  28.451  30.470  1.00  0.00     0.074 A 
ATOM     65  C   UNL A   1      48.477  29.389  31.151  1.00  0.00     0.031 C 
ATOM     66  C   UNL A   1      48.032  27.289  29.912  1.00  0.00     0.037 A 
BRANCH  53  67
ATOM     67  C   UNL A   1      43.544  23.898  27.339  1.00  0.00     0.064 A 
ATOM     68  C   UNL A   1      43.021  22.792  28.027  1.00  0.00     0.173 A 
ATOM     69  C   UNL A   1      43.680  23.800  25.947  1.00  0.00     0.173 A 
ATOM     70  F   UNL A   1      42.896  22.824  29.362  1.00  0.00    -0.203 F 
ATOM     71  C   UNL A   1      42.674  21.626  27.349  1.00  0.00     0.198 A 
ATOM     72  C   UNL A   1      43.304  22.645  25.269  1.00  0.00     0.198 A 
ATOM     73  F   UNL A   1      44.184  24.826  25.243  1.00  0.00    -0.203 F 
ATOM     74  F   UNL A   1      42.229  20.563  28.032  1.00  0.00    -0.200 F 
ATOM     75  C   UNL A   1      42.808  21.556  25.970  1.00  0.00     0.200 A 
ATOM     76  F   UNL A   1      43.428  22.581  23.936  1.00  0.00    -0.200 F 
ATOM     77  F   UNL A   1      42.470  20.436  25.319  1.00  0.00    -0.200 F 
ENDBRANCH  53  67
BRANCH  54  78
ATOM     78  C   UNL A   1      45.701  32.384  32.242  1.00  0.00     0.064 A 
ATOM     79  C   UNL A   1      46.133  33.543  31.583  1.00  0.00     0.173 A 
ATOM     80  C   UNL A   1      45.614  32.425  33.641  1.00  0.00     0.173 A 
ATOM     81  F   UNL A   1      46.258  33.547  30.248  1.00  0.00    -0.203 F 
ATOM     82  C   UNL A   1      46.485  34.688  32.296  1.00  0.00     0.198 A 
ATOM     83  C   UNL A   1      45.937  33.580  34.351  1.00  0.00     0.198 A 
ATOM     84  F   UNL A   1      45.209  31.342  34.322  1.00  0.00    -0.203 F 
ATOM     85  F   UNL A   1      46.943  35.765  31.643  1.00  0.00    -0.200 F 
ATOM     86  C   UNL A   1      46.381  34.707  33.678  1.00  0.00     0.200 A 
ATOM     87  F   UNL A   1      45.825  33.597  35.686  1.00  0.00    -0.200 F 
ATOM     88  F   UNL A   1      46.720  35.808  34.363  1.00  0.00    -0.200 F 
ENDBRANCH  54  78
BRANCH  66  89
ATOM     89  C   UNL A   1      49.502  26.991  29.968  1.00  0.00     0.064 A 
ATOM     90  C   UNL A   1      50.401  27.527  29.037  1.00  0.00     0.173 A 
ATOM     91  C   UNL A   1      50.021  26.206  31.010  1.00  0.00     0.173 A 
ATOM     92  F   UNL A   1      49.952  28.275  28.016  1.00  0.00    -0.203 F 
ATOM     93  C   UNL A   1      51.766  27.268  29.131  1.00  0.00     0.198 A 
ATOM     94  C   UNL A   1      51.388  25.976  31.120  1.00  0.00     0.198 A 
ATOM     95  F   UNL A   1      49.202  25.679  31.933  1.00  0.00    -0.203 F 
ATOM     96  F   UNL A   1      52.603  27.752  28.204  1.00  0.00    -0.200 F 
ATOM     97  C   UNL A   1      52.259  26.501  30.177  1.00  0.00     0.200 A 
ATOM     98  F   UNL A   1      51.864  25.251  32.141  1.00  0.00    -0.200 F 
ATOM     99  F   UNL A   1      53.574  26.264  30.273  1.00  0.00    -0.200 F 
ENDBRANCH  66  89
ENDBRANCH  40  41
ENDBRANCH  33  35
ENDBRANCH  32  33
ENDBRANCH  31  32
ENDBRANCH  30  31
ENDBRANCH  29  30
ENDBRANCH  28  29
ENDBRANCH  27  28
ENDBRANCH  26  27
ENDBRANCH   1  26
TORSDOF 24
ENDMDL
