MODEL 1
REMARK VINA RESULT:     -10.3      0.000      0.000
REMARK SMILES O=C(OCCOCCOCCOCCOC(=O)c1noc(-c2ccccc2Cl)n1)c1ccc(-c2c3nc(c(-c4c(F)c(F)c(F)c(F)c4F)c4ccc([nH]4)c(-c4c(F)c(F)c(F)c(F)c4F)c4nc(c(-c5c(F)c(F)c(F)c(F)c5F)c5ccc2[nH]5)C=C4)C=C3)cc1
REMARK SMILES IDX 8 1 7 2 6 3 5 4 4 5 3 6 2 7 1 8 30 9 31 10 92 11 32 12 91 13
REMARK SMILES IDX 33 14 34 15 35 16 85 17 36 18 90 19 84 20 86 21 37 22 89 23
REMARK SMILES IDX 83 24 82 25 38 27 70 28 50 29 69 30 51 31 54 32 68 33 87 34
REMARK SMILES IDX 52 35 53 36 67 38 88 39 55 40 39 41 40 42 48 43 41 44 42 45
REMARK SMILES IDX 46 46 49 47 43 48 44 49 47 50 45 51 71 52 72 53 80 54 73 55
REMARK SMILES IDX 74 56 78 57 81 58 75 59 76 60 79 61 77 62 56 63 57 64 65 65
REMARK SMILES IDX 58 66 59 67 63 68 66 69 60 70 61 71 64 72 62 73 9 74 10 75
REMARK SMILES IDX 11 76 12 77 13 78 14 79 15 80 16 81 17 82 18 83 19 84 29 85
REMARK SMILES IDX 20 86 21 87 22 88 23 89 27 90 24 91 26 92 28 93 25 94
REMARK H PARENT 86 26 54 37
REMARK Flexibility Score: inf
ROOT
ATOM      1  C   UNL A   1      33.957  27.069  23.969  1.00  0.00     0.188 C 
ENDROOT
BRANCH   1   2
ATOM      2  C   UNL A   1      33.791  28.487  23.416  1.00  0.00     0.188 C 
BRANCH   2   3
ATOM      3  O   UNL A   1      33.181  29.329  24.403  1.00  0.00    -0.376 OA
BRANCH   3   4
ATOM      4  C   UNL A   1      33.183  28.792  25.723  1.00  0.00     0.202 C 
BRANCH   4   5
ATOM      5  C   UNL A   1      32.348  29.605  26.715  1.00  0.00     0.261 C 
BRANCH   5   6
ATOM      6  O   UNL A   1      32.556  31.014  26.547  1.00  0.00    -0.460 OA
BRANCH   6   7
ATOM      7  C   UNL A   1      33.358  31.826  27.280  1.00  0.00     0.338 C 
ATOM      8  O   UNL A   1      33.052  33.014  27.381  1.00  0.00    -0.246 OA
BRANCH   7   9
ATOM      9  C   UNL A   1      34.574  31.359  28.018  1.00  0.00     0.060 A 
ATOM     10  C   UNL A   1      34.798  30.057  28.473  1.00  0.00     0.016 A 
ATOM     11  C   UNL A   1      35.606  32.299  28.191  1.00  0.00     0.016 A 
ATOM     12  C   UNL A   1      35.970  29.710  29.140  1.00  0.00     0.010 A 
ATOM     13  C   UNL A   1      36.804  31.950  28.823  1.00  0.00     0.010 A 
ATOM     14  C   UNL A   1      36.980  30.654  29.319  1.00  0.00    -0.014 A 
BRANCH  14  15
ATOM     15  C   UNL A   1      38.180  30.284  30.094  1.00  0.00     0.031 A 
ATOM     16  C   UNL A   1      39.180  29.361  29.470  1.00  0.00     0.074 A 
ATOM     17  C   UNL A   1      38.390  30.828  31.306  1.00  0.00     0.049 A 
ATOM     18  N   UNL A   1      40.255  28.831  29.988  1.00  0.00    -0.248 NA
ATOM     19  C   UNL A   1      38.943  28.994  28.063  1.00  0.00     0.031 C 
ATOM     20  C   UNL A   1      37.518  31.811  31.952  1.00  0.00     0.029 A 
ATOM     21  N   UNL A   1      39.405  30.636  32.207  1.00  0.00    -0.354 N 
ATOM     22  C   UNL A   1      40.806  28.046  28.984  1.00  0.00     0.074 A 
ATOM     23  C   UNL A   1      39.955  28.173  27.822  1.00  0.00     0.031 C 
ATOM     24  C   UNL A   1      38.037  32.137  33.147  1.00  0.00     0.029 A 
ATOM     25  C   UNL A   1      39.239  31.341  33.375  1.00  0.00     0.049 A 
ATOM     26  H   UNL A   1      40.177  30.051  32.034  1.00  0.00     0.167 HD
ATOM     27  C   UNL A   1      41.919  27.282  29.042  1.00  0.00     0.037 A 
ATOM     28  C   UNL A   1      39.959  31.303  34.513  1.00  0.00     0.037 A 
ATOM     29  C   UNL A   1      42.755  27.179  30.205  1.00  0.00     0.049 A 
ATOM     30  C   UNL A   1      41.145  30.376  34.577  1.00  0.00     0.074 A 
ATOM     31  C   UNL A   1      43.899  26.424  30.387  1.00  0.00     0.029 A 
ATOM     32  N   UNL A   1      42.526  27.861  31.393  1.00  0.00    -0.354 N 
ATOM     33  N   UNL A   1      41.648  29.612  33.636  1.00  0.00    -0.248 NA
ATOM     34  C   UNL A   1      41.849  30.284  35.862  1.00  0.00     0.031 C 
ATOM     35  C   UNL A   1      44.337  26.616  31.702  1.00  0.00     0.029 A 
ATOM     36  C   UNL A   1      43.488  27.518  32.325  1.00  0.00     0.049 A 
ATOM     37  H   UNL A   1      41.787  28.493  31.548  1.00  0.00     0.167 HD
ATOM     38  C   UNL A   1      42.720  28.949  34.213  1.00  0.00     0.074 A 
ATOM     39  C   UNL A   1      42.817  29.426  35.579  1.00  0.00     0.031 C 
ATOM     40  C   UNL A   1      43.545  28.017  33.675  1.00  0.00     0.037 A 
BRANCH  27  41
ATOM     41  C   UNL A   1      42.249  26.455  27.838  1.00  0.00     0.064 A 
ATOM     42  C   UNL A   1      43.190  26.873  26.885  1.00  0.00     0.173 A 
ATOM     43  C   UNL A   1      41.612  25.222  27.638  1.00  0.00     0.173 A 
ATOM     44  F   UNL A   1      43.806  28.057  27.020  1.00  0.00    -0.203 F 
ATOM     45  C   UNL A   1      43.466  26.093  25.765  1.00  0.00     0.198 A 
ATOM     46  C   UNL A   1      41.905  24.435  26.527  1.00  0.00     0.198 A 
ATOM     47  F   UNL A   1      40.699  24.782  28.516  1.00  0.00    -0.203 F 
ATOM     48  F   UNL A   1      44.338  26.529  24.846  1.00  0.00    -0.200 F 
ATOM     49  C   UNL A   1      42.828  24.874  25.590  1.00  0.00     0.200 A 
ATOM     50  F   UNL A   1      41.288  23.258  26.360  1.00  0.00    -0.200 F 
ATOM     51  F   UNL A   1      43.094  24.125  24.511  1.00  0.00    -0.200 F 
ENDBRANCH  27  41
BRANCH  28  52
ATOM     52  C   UNL A   1      39.541  32.100  35.698  1.00  0.00     0.064 A 
ATOM     53  C   UNL A   1      38.583  31.619  36.601  1.00  0.00     0.173 A 
ATOM     54  C   UNL A   1      40.068  33.380  35.933  1.00  0.00     0.173 A 
ATOM     55  F   UNL A   1      38.026  30.415  36.408  1.00  0.00    -0.203 F 
ATOM     56  C   UNL A   1      38.154  32.394  37.680  1.00  0.00     0.198 A 
ATOM     57  C   UNL A   1      39.663  34.140  37.029  1.00  0.00     0.198 A 
ATOM     58  F   UNL A   1      40.982  33.895  35.098  1.00  0.00    -0.203 F 
ATOM     59  F   UNL A   1      37.197  31.931  38.495  1.00  0.00    -0.200 F 
ATOM     60  C   UNL A   1      38.699  33.651  37.896  1.00  0.00     0.200 A 
ATOM     61  F   UNL A   1      40.200  35.350  37.238  1.00  0.00    -0.200 F 
ATOM     62  F   UNL A   1      38.285  34.395  38.930  1.00  0.00    -0.200 F 
ENDBRANCH  28  52
BRANCH  40  63
ATOM     63  C   UNL A   1      44.609  27.456  34.567  1.00  0.00     0.064 A 
ATOM     64  C   UNL A   1      44.386  26.289  35.312  1.00  0.00     0.173 A 
ATOM     65  C   UNL A   1      45.875  28.054  34.631  1.00  0.00     0.173 A 
ATOM     66  F   UNL A   1      43.184  25.694  35.291  1.00  0.00    -0.203 F 
ATOM     67  C   UNL A   1      45.395  25.745  36.099  1.00  0.00     0.198 A 
ATOM     68  C   UNL A   1      46.889  27.493  35.402  1.00  0.00     0.198 A 
ATOM     69  F   UNL A   1      46.133  29.168  33.931  1.00  0.00    -0.203 F 
ATOM     70  F   UNL A   1      45.154  24.646  36.827  1.00  0.00    -0.200 F 
ATOM     71  C   UNL A   1      46.647  26.341  36.137  1.00  0.00     0.200 A 
ATOM     72  F   UNL A   1      48.101  28.063  35.428  1.00  0.00    -0.200 F 
ATOM     73  F   UNL A   1      47.622  25.808  36.887  1.00  0.00    -0.200 F 
ENDBRANCH  40  63
ENDBRANCH  14  15
ENDBRANCH   7   9
ENDBRANCH   6   7
ENDBRANCH   5   6
ENDBRANCH   4   5
ENDBRANCH   3   4
ENDBRANCH   2   3
ENDBRANCH   1   2
BRANCH   1  74
ATOM     74  O   UNL A   1      33.553  26.024  23.081  1.00  0.00    -0.377 OA
BRANCH  74  75
ATOM     75  C   UNL A   1      32.943  26.414  21.856  1.00  0.00     0.188 C 
BRANCH  75  76
ATOM     76  C   UNL A   1      31.411  26.284  21.724  1.00  0.00     0.188 C 
BRANCH  76  77
ATOM     77  O   UNL A   1      30.669  27.469  21.989  1.00  0.00    -0.376 OA
BRANCH  77  78
ATOM     78  C   UNL A   1      30.197  27.612  23.327  1.00  0.00     0.202 C 
BRANCH  78  79
ATOM     79  C   UNL A   1      30.050  26.279  24.079  1.00  0.00     0.261 C 
BRANCH  79  80
ATOM     80  O   UNL A   1      30.891  26.153  25.235  1.00  0.00    -0.457 OA
BRANCH  80  81
ATOM     81  C   UNL A   1      30.551  25.197  26.144  1.00  0.00     0.380 C 
ATOM     82  O   UNL A   1      29.422  25.066  26.610  1.00  0.00    -0.242 OA
BRANCH  81  83
ATOM     83  C   UNL A   1      31.652  24.265  26.382  1.00  0.00     0.281 A 
ATOM     84  N   UNL A   1      31.743  23.550  27.520  1.00  0.00    -0.049 NA
ATOM     85  N   UNL A   1      32.633  23.969  25.453  1.00  0.00    -0.181 NA
ATOM     86  O   UNL A   1      32.892  22.782  27.333  1.00  0.00    -0.333 OA
ATOM     87  C   UNL A   1      33.384  23.114  26.106  1.00  0.00     0.259 A 
BRANCH  87  88
ATOM     88  C   UNL A   1      34.731  22.661  25.833  1.00  0.00     0.058 A 
ATOM     89  C   UNL A   1      35.830  23.508  26.037  1.00  0.00     0.015 A 
ATOM     90  C   UNL A   1      34.947  21.367  25.328  1.00  0.00     0.053 A 
ATOM     91  C   UNL A   1      37.123  23.067  25.734  1.00  0.00     0.001 A 
ATOM     92  C   UNL A   1      36.238  20.934  25.026  1.00  0.00     0.021 A 
ATOM     93  Cl  UNL A   1      33.644  20.268  25.022  1.00  0.00    -0.083 Cl
ATOM     94  C   UNL A   1      37.325  21.783  25.227  1.00  0.00     0.002 A 
ENDBRANCH  87  88
ENDBRANCH  81  83
ENDBRANCH  80  81
ENDBRANCH  79  80
ENDBRANCH  78  79
ENDBRANCH  77  78
ENDBRANCH  76  77
ENDBRANCH  75  76
ENDBRANCH  74  75
ENDBRANCH   1  74
TORSDOF 21
ENDMDL
MODEL 2
REMARK VINA RESULT:     -10.2      4.765     10.141
REMARK SMILES O=C(OCCOCCOCCOCCOC(=O)c1noc(-c2ccccc2Cl)n1)c1ccc(-c2c3nc(c(-c4c(F)c(F)c(F)c(F)c4F)c4ccc([nH]4)c(-c4c(F)c(F)c(F)c(F)c4F)c4nc(c(-c5c(F)c(F)c(F)c(F)c5F)c5ccc2[nH]5)C=C4)C=C3)cc1
REMARK SMILES IDX 8 1 7 2 6 3 5 4 4 5 3 6 2 7 1 8 30 9 31 10 92 11 32 12 91 13
REMARK SMILES IDX 33 14 34 15 35 16 85 17 36 18 90 19 84 20 86 21 37 22 89 23
REMARK SMILES IDX 83 24 82 25 38 27 70 28 50 29 69 30 51 31 54 32 68 33 87 34
REMARK SMILES IDX 52 35 53 36 67 38 88 39 55 40 39 41 40 42 48 43 41 44 42 45
REMARK SMILES IDX 46 46 49 47 43 48 44 49 47 50 45 51 71 52 72 53 80 54 73 55
REMARK SMILES IDX 74 56 78 57 81 58 75 59 76 60 79 61 77 62 56 63 57 64 65 65
REMARK SMILES IDX 58 66 59 67 63 68 66 69 60 70 61 71 64 72 62 73 9 74 10 75
REMARK SMILES IDX 11 76 12 77 13 78 14 79 15 80 16 81 17 82 18 83 19 84 29 85
REMARK SMILES IDX 20 86 21 87 22 88 23 89 27 90 24 91 26 92 28 93 25 94
REMARK H PARENT 86 26 54 37
REMARK Flexibility Score: inf
ROOT
ATOM      1  C   UNL A   1      37.830  24.080  26.199  1.00  0.00     0.188 C 
ENDROOT
BRANCH   1   2
ATOM      2  C   UNL A   1      38.919  23.022  26.395  1.00  0.00     0.188 C 
BRANCH   2   3
ATOM      3  O   UNL A   1      38.755  21.968  25.438  1.00  0.00    -0.376 OA
BRANCH   3   4
ATOM      4  C   UNL A   1      38.629  20.666  26.005  1.00  0.00     0.202 C 
BRANCH   4   5
ATOM      5  C   UNL A   1      39.315  19.572  25.185  1.00  0.00     0.261 C 
BRANCH   5   6
ATOM      6  O   UNL A   1      40.362  18.934  25.931  1.00  0.00    -0.460 OA
BRANCH   6   7
ATOM      7  C   UNL A   1      41.665  19.300  26.010  1.00  0.00     0.338 C 
ATOM      8  O   UNL A   1      42.527  18.444  25.815  1.00  0.00    -0.246 OA
BRANCH   7   9
ATOM      9  C   UNL A   1      42.127  20.699  26.275  1.00  0.00     0.060 A 
ATOM     10  C   UNL A   1      42.335  21.684  25.305  1.00  0.00     0.016 A 
ATOM     11  C   UNL A   1      42.285  21.067  27.624  1.00  0.00     0.016 A 
ATOM     12  C   UNL A   1      42.754  22.967  25.647  1.00  0.00     0.010 A 
ATOM     13  C   UNL A   1      42.665  22.365  27.980  1.00  0.00     0.010 A 
ATOM     14  C   UNL A   1      42.921  23.315  26.986  1.00  0.00    -0.014 A 
BRANCH  14  15
ATOM     15  C   UNL A   1      43.437  24.657  27.320  1.00  0.00     0.031 A 
ATOM     16  C   UNL A   1      42.499  25.657  27.920  1.00  0.00     0.074 A 
ATOM     17  C   UNL A   1      44.742  24.935  27.150  1.00  0.00     0.049 A 
ATOM     18  N   UNL A   1      42.702  26.915  28.210  1.00  0.00    -0.248 NA
ATOM     19  C   UNL A   1      41.147  25.173  28.248  1.00  0.00     0.031 C 
ATOM     20  C   UNL A   1      45.750  23.991  26.664  1.00  0.00     0.029 A 
ATOM     21  N   UNL A   1      45.445  26.090  27.372  1.00  0.00    -0.354 N 
ATOM     22  C   UNL A   1      41.499  27.378  28.727  1.00  0.00     0.074 A 
ATOM     23  C   UNL A   1      40.571  26.268  28.720  1.00  0.00     0.031 C 
ATOM     24  C   UNL A   1      46.943  24.605  26.625  1.00  0.00     0.029 A 
ATOM     25  C   UNL A   1      46.771  25.999  27.023  1.00  0.00     0.049 A 
ATOM     26  H   UNL A   1      45.040  26.906  27.746  1.00  0.00     0.167 HD
ATOM     27  C   UNL A   1      41.203  28.625  29.155  1.00  0.00     0.037 A 
ATOM     28  C   UNL A   1      47.719  26.955  26.986  1.00  0.00     0.037 A 
ATOM     29  C   UNL A   1      42.146  29.709  29.161  1.00  0.00     0.049 A 
ATOM     30  C   UNL A   1      47.336  28.356  27.389  1.00  0.00     0.074 A 
ATOM     31  C   UNL A   1      41.956  31.020  29.557  1.00  0.00     0.029 A 
ATOM     32  N   UNL A   1      43.465  29.598  28.744  1.00  0.00    -0.354 N 
ATOM     33  N   UNL A   1      46.191  28.800  27.849  1.00  0.00    -0.248 NA
ATOM     34  C   UNL A   1      48.366  29.393  27.244  1.00  0.00     0.031 C 
ATOM     35  C   UNL A   1      43.151  31.713  29.338  1.00  0.00     0.029 A 
ATOM     36  C   UNL A   1      44.094  30.826  28.841  1.00  0.00     0.049 A 
ATOM     37  H   UNL A   1      43.889  28.769  28.426  1.00  0.00     0.167 HD
ATOM     38  C   UNL A   1      46.358  30.162  28.046  1.00  0.00     0.074 A 
ATOM     39  C   UNL A   1      47.729  30.468  27.686  1.00  0.00     0.031 C 
ATOM     40  C   UNL A   1      45.461  31.085  28.469  1.00  0.00     0.037 A 
BRANCH  27  41
ATOM     41  C   UNL A   1      39.794  28.888  29.585  1.00  0.00     0.064 A 
ATOM     42  C   UNL A   1      39.374  28.698  30.909  1.00  0.00     0.173 A 
ATOM     43  C   UNL A   1      38.848  29.341  28.653  1.00  0.00     0.173 A 
ATOM     44  F   UNL A   1      40.235  28.242  31.832  1.00  0.00    -0.203 F 
ATOM     45  C   UNL A   1      38.052  28.934  31.280  1.00  0.00     0.198 A 
ATOM     46  C   UNL A   1      37.533  29.594  29.031  1.00  0.00     0.198 A 
ATOM     47  F   UNL A   1      39.200  29.530  27.372  1.00  0.00    -0.203 F 
ATOM     48  F   UNL A   1      37.661  28.707  32.542  1.00  0.00    -0.200 F 
ATOM     49  C   UNL A   1      37.135  29.387  30.343  1.00  0.00     0.200 A 
ATOM     50  F   UNL A   1      36.649  30.031  28.124  1.00  0.00    -0.200 F 
ATOM     51  F   UNL A   1      35.863  29.612  30.701  1.00  0.00    -0.200 F 
ENDBRANCH  27  41
BRANCH  28  52
ATOM     52  C   UNL A   1      49.086  26.645  26.487  1.00  0.00     0.064 A 
ATOM     53  C   UNL A   1      50.088  26.172  27.345  1.00  0.00     0.173 A 
ATOM     54  C   UNL A   1      49.430  26.851  25.140  1.00  0.00     0.173 A 
ATOM     55  F   UNL A   1      49.823  25.986  28.646  1.00  0.00    -0.203 F 
ATOM     56  C   UNL A   1      51.383  25.936  26.882  1.00  0.00     0.198 A 
ATOM     57  C   UNL A   1      50.714  26.584  24.672  1.00  0.00     0.198 A 
ATOM     58  F   UNL A   1      48.514  27.310  24.275  1.00  0.00    -0.203 F 
ATOM     59  F   UNL A   1      52.335  25.538  27.736  1.00  0.00    -0.200 F 
ATOM     60  C   UNL A   1      51.693  26.137  25.545  1.00  0.00     0.200 A 
ATOM     61  F   UNL A   1      51.006  26.771  23.377  1.00  0.00    -0.200 F 
ATOM     62  F   UNL A   1      52.938  25.913  25.101  1.00  0.00    -0.200 F 
ENDBRANCH  28  52
BRANCH  40  63
ATOM     63  C   UNL A   1      45.936  32.503  28.557  1.00  0.00     0.064 A 
ATOM     64  C   UNL A   1      45.784  33.384  27.477  1.00  0.00     0.173 A 
ATOM     65  C   UNL A   1      46.491  32.998  29.746  1.00  0.00     0.173 A 
ATOM     66  F   UNL A   1      45.273  32.947  26.316  1.00  0.00    -0.203 F 
ATOM     67  C   UNL A   1      46.181  34.712  27.581  1.00  0.00     0.198 A 
ATOM     68  C   UNL A   1      46.865  34.334  29.854  1.00  0.00     0.198 A 
ATOM     69  F   UNL A   1      46.649  32.192  30.805  1.00  0.00    -0.203 F 
ATOM     70  F   UNL A   1      46.055  35.532  26.528  1.00  0.00    -0.200 F 
ATOM     71  C   UNL A   1      46.713  35.189  28.771  1.00  0.00     0.200 A 
ATOM     72  F   UNL A   1      47.366  34.796  31.007  1.00  0.00    -0.200 F 
ATOM     73  F   UNL A   1      47.083  36.472  28.874  1.00  0.00    -0.200 F 
ENDBRANCH  40  63
ENDBRANCH  14  15
ENDBRANCH   7   9
ENDBRANCH   6   7
ENDBRANCH   5   6
ENDBRANCH   4   5
ENDBRANCH   3   4
ENDBRANCH   2   3
ENDBRANCH   1   2
BRANCH   1  74
ATOM     74  O   UNL A   1      36.547  23.565  25.837  1.00  0.00    -0.377 OA
BRANCH  74  75
ATOM     75  C   UNL A   1      36.158  23.694  24.474  1.00  0.00     0.188 C 
BRANCH  75  76
ATOM     76  C   UNL A   1      35.188  22.649  23.885  1.00  0.00     0.188 C 
BRANCH  76  77
ATOM     77  O   UNL A   1      34.058  23.177  23.198  1.00  0.00    -0.376 OA
BRANCH  77  78
ATOM     78  C   UNL A   1      32.952  22.288  23.063  1.00  0.00     0.202 C 
BRANCH  78  79
ATOM     79  C   UNL A   1      32.797  21.305  24.235  1.00  0.00     0.261 C 
BRANCH  79  80
ATOM     80  O   UNL A   1      31.747  21.639  25.155  1.00  0.00    -0.457 OA
BRANCH  80  81
ATOM     81  C   UNL A   1      32.095  22.374  26.248  1.00  0.00     0.380 C 
ATOM     82  O   UNL A   1      32.913  22.008  27.087  1.00  0.00    -0.242 OA
BRANCH  81  83
ATOM     83  C   UNL A   1      31.485  23.702  26.219  1.00  0.00     0.281 A 
ATOM     84  N   UNL A   1      30.455  24.029  27.023  1.00  0.00    -0.049 NA
ATOM     85  N   UNL A   1      31.948  24.752  25.447  1.00  0.00    -0.181 NA
ATOM     86  O   UNL A   1      30.203  25.363  26.707  1.00  0.00    -0.333 OA
ATOM     87  C   UNL A   1      31.099  25.709  25.740  1.00  0.00     0.259 A 
BRANCH  87  88
ATOM     88  C   UNL A   1      30.826  26.953  25.055  1.00  0.00     0.058 A 
ATOM     89  C   UNL A   1      29.908  27.004  23.995  1.00  0.00     0.015 A 
ATOM     90  C   UNL A   1      31.505  28.125  25.429  1.00  0.00     0.053 A 
ATOM     91  C   UNL A   1      29.681  28.207  23.319  1.00  0.00     0.001 A 
ATOM     92  C   UNL A   1      31.276  29.322  24.750  1.00  0.00     0.021 A 
ATOM     93  Cl  UNL A   1      32.672  28.143  26.709  1.00  0.00    -0.083 Cl
ATOM     94  C   UNL A   1      30.367  29.362  23.695  1.00  0.00     0.002 A 
ENDBRANCH  87  88
ENDBRANCH  81  83
ENDBRANCH  80  81
ENDBRANCH  79  80
ENDBRANCH  78  79
ENDBRANCH  77  78
ENDBRANCH  76  77
ENDBRANCH  75  76
ENDBRANCH  74  75
ENDBRANCH   1  74
TORSDOF 21
ENDMDL
MODEL 3
REMARK VINA RESULT:     -10.0      4.783      9.733
REMARK SMILES O=C(OCCOCCOCCOCCOC(=O)c1noc(-c2ccccc2Cl)n1)c1ccc(-c2c3nc(c(-c4c(F)c(F)c(F)c(F)c4F)c4ccc([nH]4)c(-c4c(F)c(F)c(F)c(F)c4F)c4nc(c(-c5c(F)c(F)c(F)c(F)c5F)c5ccc2[nH]5)C=C4)C=C3)cc1
REMARK SMILES IDX 8 1 7 2 6 3 5 4 4 5 3 6 2 7 1 8 30 9 31 10 92 11 32 12 91 13
REMARK SMILES IDX 33 14 34 15 35 16 85 17 36 18 90 19 84 20 86 21 37 22 89 23
REMARK SMILES IDX 83 24 82 25 38 27 70 28 50 29 69 30 51 31 54 32 68 33 87 34
REMARK SMILES IDX 52 35 53 36 67 38 88 39 55 40 39 41 40 42 48 43 41 44 42 45
REMARK SMILES IDX 46 46 49 47 43 48 44 49 47 50 45 51 71 52 72 53 80 54 73 55
REMARK SMILES IDX 74 56 78 57 81 58 75 59 76 60 79 61 77 62 56 63 57 64 65 65
REMARK SMILES IDX 58 66 59 67 63 68 66 69 60 70 61 71 64 72 62 73 9 74 10 75
REMARK SMILES IDX 11 76 12 77 13 78 14 79 15 80 16 81 17 82 18 83 19 84 29 85
REMARK SMILES IDX 20 86 21 87 22 88 23 89 27 90 24 91 26 92 28 93 25 94
REMARK H PARENT 86 26 54 37
REMARK Flexibility Score: inf
ROOT
ATOM      1  C   UNL A   1      37.917  23.923  26.147  1.00  0.00     0.188 C 
ENDROOT
BRANCH   1   2
ATOM      2  C   UNL A   1      39.160  23.100  26.495  1.00  0.00     0.188 C 
BRANCH   2   3
ATOM      3  O   UNL A   1      39.220  21.932  25.667  1.00  0.00    -0.376 OA
BRANCH   3   4
ATOM      4  C   UNL A   1      39.364  20.706  26.380  1.00  0.00     0.202 C 
BRANCH   4   5
ATOM      5  C   UNL A   1      39.802  19.534  25.500  1.00  0.00     0.261 C 
BRANCH   5   6
ATOM      6  O   UNL A   1      41.046  18.977  25.948  1.00  0.00    -0.460 OA
BRANCH   6   7
ATOM      7  C   UNL A   1      42.289  19.502  25.804  1.00  0.00     0.338 C 
ATOM      8  O   UNL A   1      43.158  18.811  25.273  1.00  0.00    -0.246 OA
BRANCH   7   9
ATOM      9  C   UNL A   1      42.663  20.893  26.209  1.00  0.00     0.060 A 
ATOM     10  C   UNL A   1      42.979  21.937  25.335  1.00  0.00     0.016 A 
ATOM     11  C   UNL A   1      42.608  21.186  27.584  1.00  0.00     0.016 A 
ATOM     12  C   UNL A   1      43.303  23.208  25.804  1.00  0.00     0.010 A 
ATOM     13  C   UNL A   1      42.890  22.470  28.062  1.00  0.00     0.010 A 
ATOM     14  C   UNL A   1      43.260  23.481  27.170  1.00  0.00    -0.014 A 
BRANCH  14  15
ATOM     15  C   UNL A   1      43.679  24.813  27.648  1.00  0.00     0.031 A 
ATOM     16  C   UNL A   1      42.623  25.802  28.033  1.00  0.00     0.074 A 
ATOM     17  C   UNL A   1      44.986  25.092  27.797  1.00  0.00     0.049 A 
ATOM     18  N   UNL A   1      42.747  27.051  28.394  1.00  0.00    -0.248 NA
ATOM     19  C   UNL A   1      41.233  25.313  28.022  1.00  0.00     0.031 C 
ATOM     20  C   UNL A   1      46.083  24.157  27.540  1.00  0.00     0.029 A 
ATOM     21  N   UNL A   1      45.613  26.240  28.207  1.00  0.00    -0.354 N 
ATOM     22  C   UNL A   1      41.456  27.505  28.623  1.00  0.00     0.074 A 
ATOM     23  C   UNL A   1      40.559  26.399  28.371  1.00  0.00     0.031 C 
ATOM     24  C   UNL A   1      47.250  24.770  27.798  1.00  0.00     0.029 A 
ATOM     25  C   UNL A   1      46.985  26.154  28.177  1.00  0.00     0.049 A 
ATOM     26  H   UNL A   1      45.129  27.047  28.494  1.00  0.00     0.167 HD
ATOM     27  C   UNL A   1      41.063  28.742  29.000  1.00  0.00     0.037 A 
ATOM     28  C   UNL A   1      47.912  27.108  28.389  1.00  0.00     0.037 A 
ATOM     29  C   UNL A   1      41.974  29.823  29.254  1.00  0.00     0.049 A 
ATOM     30  C   UNL A   1      47.441  28.500  28.723  1.00  0.00     0.074 A 
ATOM     31  C   UNL A   1      41.693  31.125  29.625  1.00  0.00     0.029 A 
ATOM     32  N   UNL A   1      43.355  29.719  29.157  1.00  0.00    -0.354 N 
ATOM     33  N   UNL A   1      46.217  28.935  28.911  1.00  0.00    -0.248 NA
ATOM     34  C   UNL A   1      48.472  29.537  28.850  1.00  0.00     0.031 C 
ATOM     35  C   UNL A   1      42.904  31.820  29.711  1.00  0.00     0.029 A 
ATOM     36  C   UNL A   1      43.939  30.943  29.429  1.00  0.00     0.049 A 
ATOM     37  H   UNL A   1      43.845  28.896  28.928  1.00  0.00     0.167 HD
ATOM     38  C   UNL A   1      46.330  30.292  29.174  1.00  0.00     0.074 A 
ATOM     39  C   UNL A   1      47.745  30.603  29.155  1.00  0.00     0.031 C 
ATOM     40  C   UNL A   1      45.355  31.207  29.397  1.00  0.00     0.037 A 
BRANCH  27  41
ATOM     41  C   UNL A   1      39.591  28.999  29.092  1.00  0.00     0.064 A 
ATOM     42  C   UNL A   1      38.828  29.359  27.972  1.00  0.00     0.173 A 
ATOM     43  C   UNL A   1      38.935  28.880  30.326  1.00  0.00     0.173 A 
ATOM     44  F   UNL A   1      39.415  29.510  26.775  1.00  0.00    -0.203 F 
ATOM     45  C   UNL A   1      37.463  29.608  28.089  1.00  0.00     0.198 A 
ATOM     46  C   UNL A   1      37.566  29.112  30.436  1.00  0.00     0.198 A 
ATOM     47  F   UNL A   1      39.623  28.546  31.428  1.00  0.00    -0.203 F 
ATOM     48  F   UNL A   1      36.759  29.991  27.014  1.00  0.00    -0.200 F 
ATOM     49  C   UNL A   1      36.833  29.479  29.318  1.00  0.00     0.200 A 
ATOM     50  F   UNL A   1      36.960  28.986  31.623  1.00  0.00    -0.200 F 
ATOM     51  F   UNL A   1      35.519  29.722  29.429  1.00  0.00    -0.200 F 
ENDBRANCH  27  41
BRANCH  28  52
ATOM     52  C   UNL A   1      49.359  26.806  28.218  1.00  0.00     0.064 A 
ATOM     53  C   UNL A   1      49.961  26.808  26.952  1.00  0.00     0.173 A 
ATOM     54  C   UNL A   1      50.165  26.473  29.318  1.00  0.00     0.173 A 
ATOM     55  F   UNL A   1      49.230  27.089  25.863  1.00  0.00    -0.203 F 
ATOM     56  C   UNL A   1      51.305  26.469  26.791  1.00  0.00     0.198 A 
ATOM     57  C   UNL A   1      51.515  26.167  29.161  1.00  0.00     0.198 A 
ATOM     58  F   UNL A   1      49.641  26.447  30.552  1.00  0.00    -0.203 F 
ATOM     59  F   UNL A   1      51.840  26.425  25.564  1.00  0.00    -0.200 F 
ATOM     60  C   UNL A   1      52.082  26.155  27.896  1.00  0.00     0.200 A 
ATOM     61  F   UNL A   1      52.263  25.874  30.233  1.00  0.00    -0.200 F 
ATOM     62  F   UNL A   1      53.372  25.828  27.742  1.00  0.00    -0.200 F 
ENDBRANCH  28  52
BRANCH  40  63
ATOM     63  C   UNL A   1      45.792  32.621  29.628  1.00  0.00     0.064 A 
ATOM     64  C   UNL A   1      46.118  33.075  30.914  1.00  0.00     0.173 A 
ATOM     65  C   UNL A   1      45.941  33.507  28.552  1.00  0.00     0.173 A 
ATOM     66  F   UNL A   1      45.974  32.264  31.973  1.00  0.00    -0.203 F 
ATOM     67  C   UNL A   1      46.570  34.374  31.116  1.00  0.00     0.198 A 
ATOM     68  C   UNL A   1      46.417  34.799  28.756  1.00  0.00     0.198 A 
ATOM     69  F   UNL A   1      45.646  33.113  27.305  1.00  0.00    -0.203 F 
ATOM     70  F   UNL A   1      46.848  34.799  32.356  1.00  0.00    -0.200 F 
ATOM     71  C   UNL A   1      46.728  35.232  30.037  1.00  0.00     0.200 A 
ATOM     72  F   UNL A   1      46.580  35.622  27.712  1.00  0.00    -0.200 F 
ATOM     73  F   UNL A   1      47.175  36.480  30.232  1.00  0.00    -0.200 F 
ENDBRANCH  40  63
ENDBRANCH  14  15
ENDBRANCH   7   9
ENDBRANCH   6   7
ENDBRANCH   5   6
ENDBRANCH   4   5
ENDBRANCH   3   4
ENDBRANCH   2   3
ENDBRANCH   1   2
BRANCH   1  74
ATOM     74  O   UNL A   1      36.846  23.180  25.561  1.00  0.00    -0.377 OA
BRANCH  74  75
ATOM     75  C   UNL A   1      36.617  23.364  24.168  1.00  0.00     0.188 C 
BRANCH  75  76
ATOM     76  C   UNL A   1      35.393  22.676  23.528  1.00  0.00     0.188 C 
BRANCH  76  77
ATOM     77  O   UNL A   1      34.590  23.502  22.691  1.00  0.00    -0.376 OA
BRANCH  77  78
ATOM     78  C   UNL A   1      33.204  23.546  23.022  1.00  0.00     0.202 C 
BRANCH  78  79
ATOM     79  C   UNL A   1      32.650  22.217  23.559  1.00  0.00     0.261 C 
BRANCH  79  80
ATOM     80  O   UNL A   1      31.849  22.342  24.743  1.00  0.00    -0.457 OA
BRANCH  80  81
ATOM     81  C   UNL A   1      32.451  22.882  25.841  1.00  0.00     0.380 C 
ATOM     82  O   UNL A   1      33.405  22.370  26.419  1.00  0.00    -0.242 OA
BRANCH  81  83
ATOM     83  C   UNL A   1      31.915  24.206  26.150  1.00  0.00     0.281 A 
ATOM     84  N   UNL A   1      30.651  24.377  26.584  1.00  0.00    -0.049 NA
ATOM     85  N   UNL A   1      32.657  25.372  26.115  1.00  0.00    -0.181 NA
ATOM     86  O   UNL A   1      30.557  25.753  26.788  1.00  0.00    -0.333 OA
ATOM     87  C   UNL A   1      31.770  26.278  26.451  1.00  0.00     0.259 A 
BRANCH  87  88
ATOM     88  C   UNL A   1      31.805  27.716  26.301  1.00  0.00     0.058 A 
ATOM     89  C   UNL A   1      32.279  28.536  27.337  1.00  0.00     0.015 A 
ATOM     90  C   UNL A   1      31.331  28.311  25.120  1.00  0.00     0.053 A 
ATOM     91  C   UNL A   1      32.274  29.927  27.191  1.00  0.00     0.001 A 
ATOM     92  C   UNL A   1      31.325  29.700  24.981  1.00  0.00     0.021 A 
ATOM     93  Cl  UNL A   1      30.704  27.375  23.805  1.00  0.00    -0.083 Cl
ATOM     94  C   UNL A   1      31.794  30.506  26.016  1.00  0.00     0.002 A 
ENDBRANCH  87  88
ENDBRANCH  81  83
ENDBRANCH  80  81
ENDBRANCH  79  80
ENDBRANCH  78  79
ENDBRANCH  77  78
ENDBRANCH  76  77
ENDBRANCH  75  76
ENDBRANCH  74  75
ENDBRANCH   1  74
TORSDOF 21
ENDMDL
