MODEL 1
REMARK VINA RESULT:      -9.8      0.000      0.000
REMARK SMILES CC(C)(Nc1cccc(F)c1C#N)C(C)(C)C(=O)OCCOCCOCCOCCOC(=O)c1ccc(-c2c3nc(c(-c4c(F)c(F)c(F)c(F)c4F)c4ccc([nH]4)c(-c4c(F)c(F)c(F)c(F)c4F)c4nc(c(-c5c(F)c(F)c(F)c(F)c5F)c5ccc2[nH]5)C=C4)C=C3)cc1
REMARK SMILES IDX 24 1 23 2 22 3 21 4 20 5 19 6 17 7 18 8 14 9 15 10 16 11
REMARK SMILES IDX 2 12 1 13 3 14 4 15 5 17 6 18 11 19 7 20 9 21 8 22 10 23
REMARK SMILES IDX 12 24 13 25 25 26 26 27 27 28 28 29 29 30 30 31 31 32 32 33
REMARK SMILES IDX 33 34 34 35 35 36 96 37 36 38 95 39 37 40 38 41 39 42 89 43
REMARK SMILES IDX 40 44 94 45 88 46 90 47 41 48 93 49 87 50 86 51 42 53 74 54
REMARK SMILES IDX 54 55 73 56 55 57 58 58 72 59 91 60 56 61 57 62 71 64 92 65
REMARK SMILES IDX 59 66 43 67 44 68 52 69 45 70 46 71 50 72 53 73 47 74 48 75
REMARK SMILES IDX 51 76 49 77 75 78 76 79 84 80 77 81 78 82 82 83 85 84 79 85
REMARK SMILES IDX 80 86 83 87 81 88 60 89 61 90 69 91 62 92 63 93 67 94 70 95
REMARK SMILES IDX 64 96 65 97 68 98 66 99
REMARK H PARENT 4 16 90 52 58 63
REMARK Flexibility Score: inf
ROOT
ATOM      1  C   UNL A   1      40.604  20.480  26.398  1.00  0.00     0.188 C 
ENDROOT
BRANCH   1   2
ATOM      2  C   UNL A   1      39.856  21.800  26.620  1.00  0.00     0.188 C 
BRANCH   2   3
ATOM      3  O   UNL A   1      38.959  22.098  25.545  1.00  0.00    -0.376 OA
BRANCH   3   4
ATOM      4  C   UNL A   1      37.597  21.706  25.662  1.00  0.00     0.202 C 
BRANCH   4   5
ATOM      5  C   UNL A   1      36.670  22.074  24.471  1.00  0.00     0.261 C 
BRANCH   5   6
ATOM      6  O   UNL A   1      35.485  22.906  24.620  1.00  0.00    -0.463 OA
BRANCH   6   7
ATOM      7  C   UNL A   1      34.302  22.315  24.895  1.00  0.00     0.313 C 
ATOM      8  O   UNL A   1      34.171  21.580  25.852  1.00  0.00    -0.252 OA
BRANCH   7   9
ATOM      9  C   UNL A   1      33.134  22.684  23.995  1.00  0.00     0.085 C 
ATOM     10  C   UNL A   1      32.290  21.415  23.783  1.00  0.00     0.026 C 
ATOM     11  C   UNL A   1      33.686  23.031  22.579  1.00  0.00     0.026 C 
BRANCH   9  12
ATOM     12  C   UNL A   1      32.339  23.934  24.655  1.00  0.00     0.047 C 
ATOM     13  C   UNL A   1      31.622  23.499  25.953  1.00  0.00     0.035 C 
ATOM     14  C   UNL A   1      31.195  24.448  23.716  1.00  0.00     0.035 C 
BRANCH  12  15
ATOM     15  N   UNL A   1      33.116  25.178  25.008  1.00  0.00    -0.378 N 
ATOM     16  H   UNL A   1      33.799  25.069  25.710  1.00  0.00     0.161 HD
BRANCH  15  17
ATOM     17  C   UNL A   1      32.999  26.450  24.475  1.00  0.00     0.056 A 
ATOM     18  C   UNL A   1      33.727  26.762  23.320  1.00  0.00     0.027 A 
ATOM     19  C   UNL A   1      32.196  27.472  25.032  1.00  0.00     0.111 A 
ATOM     20  C   UNL A   1      33.520  27.960  22.630  1.00  0.00     0.005 A 
ATOM     21  C   UNL A   1      31.905  28.609  24.274  1.00  0.00     0.143 A 
ATOM     22  C   UNL A   1      32.548  28.853  23.069  1.00  0.00     0.041 A 
ATOM     23  F   UNL A   1      30.978  29.488  24.691  1.00  0.00    -0.205 F 
BRANCH  19  24
ATOM     24  C   UNL A   1      31.663  27.410  26.364  1.00  0.00     0.104 C 
ATOM     25  N   UNL A   1      31.222  27.314  27.437  1.00  0.00    -0.192 NA
ENDBRANCH  19  24
ENDBRANCH  15  17
ENDBRANCH  12  15
ENDBRANCH   9  12
ENDBRANCH   7   9
ENDBRANCH   6   7
ENDBRANCH   5   6
ENDBRANCH   4   5
ENDBRANCH   3   4
ENDBRANCH   2   3
ENDBRANCH   1   2
BRANCH   1  26
ATOM     26  O   UNL A   1      41.901  20.508  25.820  1.00  0.00    -0.377 OA
BRANCH  26  27
ATOM     27  C   UNL A   1      42.749  21.575  26.200  1.00  0.00     0.188 C 
BRANCH  27  28
ATOM     28  C   UNL A   1      42.905  22.668  25.120  1.00  0.00     0.188 C 
BRANCH  28  29
ATOM     29  O   UNL A   1      43.816  22.533  24.028  1.00  0.00    -0.376 OA
BRANCH  29  30
ATOM     30  C   UNL A   1      45.214  22.566  24.243  1.00  0.00     0.202 C 
BRANCH  30  31
ATOM     31  C   UNL A   1      45.779  23.926  24.680  1.00  0.00     0.261 C 
BRANCH  31  32
ATOM     32  O   UNL A   1      44.819  24.992  24.747  1.00  0.00    -0.460 OA
BRANCH  32  33
ATOM     33  C   UNL A   1      45.310  26.201  25.115  1.00  0.00     0.338 C 
ATOM     34  O   UNL A   1      46.301  26.764  24.686  1.00  0.00    -0.246 OA
BRANCH  33  35
ATOM     35  C   UNL A   1      44.360  26.838  26.055  1.00  0.00     0.060 A 
ATOM     36  C   UNL A   1      44.480  28.214  26.304  1.00  0.00     0.016 A 
ATOM     37  C   UNL A   1      43.364  26.093  26.692  1.00  0.00     0.016 A 
ATOM     38  C   UNL A   1      43.633  28.843  27.211  1.00  0.00     0.010 A 
ATOM     39  C   UNL A   1      42.548  26.710  27.645  1.00  0.00     0.010 A 
ATOM     40  C   UNL A   1      42.715  28.075  27.938  1.00  0.00    -0.014 A 
BRANCH  40  41
ATOM     41  C   UNL A   1      42.193  28.619  29.212  1.00  0.00     0.031 A 
ATOM     42  C   UNL A   1      40.827  29.253  29.175  1.00  0.00     0.074 A 
ATOM     43  C   UNL A   1      42.875  28.520  30.366  1.00  0.00     0.049 A 
ATOM     44  N   UNL A   1      40.162  29.862  30.122  1.00  0.00    -0.248 NA
ATOM     45  C   UNL A   1      40.114  29.186  27.886  1.00  0.00     0.031 C 
ATOM     46  C   UNL A   1      44.168  27.862  30.533  1.00  0.00     0.029 A 
ATOM     47  N   UNL A   1      42.566  28.985  31.618  1.00  0.00    -0.354 N 
ATOM     48  C   UNL A   1      38.961  30.249  29.540  1.00  0.00     0.074 A 
ATOM     49  C   UNL A   1      38.995  29.835  28.157  1.00  0.00     0.031 C 
ATOM     50  C   UNL A   1      44.552  27.982  31.817  1.00  0.00     0.029 A 
ATOM     51  C   UNL A   1      43.548  28.756  32.549  1.00  0.00     0.049 A 
ATOM     52  H   UNL A   1      41.718  29.442  31.830  1.00  0.00     0.167 HD
ATOM     53  C   UNL A   1      37.918  30.890  30.114  1.00  0.00     0.037 A 
ATOM     54  C   UNL A   1      43.629  29.154  33.833  1.00  0.00     0.037 A 
ATOM     55  C   UNL A   1      37.895  31.310  31.487  1.00  0.00     0.049 A 
ATOM     56  C   UNL A   1      42.494  29.956  34.423  1.00  0.00     0.074 A 
ATOM     57  C   UNL A   1      36.900  31.985  32.168  1.00  0.00     0.029 A 
ATOM     58  N   UNL A   1      38.928  31.093  32.388  1.00  0.00    -0.354 N 
ATOM     59  N   UNL A   1      41.362  30.326  33.872  1.00  0.00    -0.248 NA
ATOM     60  C   UNL A   1      42.648  30.398  35.817  1.00  0.00     0.031 C 
ATOM     61  C   UNL A   1      37.350  32.220  33.471  1.00  0.00     0.029 A 
ATOM     62  C   UNL A   1      38.601  31.639  33.617  1.00  0.00     0.049 A 
ATOM     63  H   UNL A   1      39.767  30.621  32.184  1.00  0.00     0.167 HD
ATOM     64  C   UNL A   1      40.657  31.005  34.857  1.00  0.00     0.074 A 
ATOM     65  C   UNL A   1      41.485  30.991  36.044  1.00  0.00     0.031 C 
ATOM     66  C   UNL A   1      39.435  31.588  34.790  1.00  0.00     0.037 A 
BRANCH  53  67
ATOM     67  C   UNL A   1      36.737  31.205  29.244  1.00  0.00     0.064 A 
ATOM     68  C   UNL A   1      35.795  30.226  28.898  1.00  0.00     0.173 A 
ATOM     69  C   UNL A   1      36.538  32.508  28.765  1.00  0.00     0.173 A 
ATOM     70  F   UNL A   1      35.953  28.960  29.310  1.00  0.00    -0.203 F 
ATOM     71  C   UNL A   1      34.705  30.536  28.087  1.00  0.00     0.198 A 
ATOM     72  C   UNL A   1      35.432  32.822  27.980  1.00  0.00     0.198 A 
ATOM     73  F   UNL A   1      37.413  33.480  29.063  1.00  0.00    -0.203 F 
ATOM     74  F   UNL A   1      33.841  29.575  27.731  1.00  0.00    -0.200 F 
ATOM     75  C   UNL A   1      34.520  31.835  27.636  1.00  0.00     0.200 A 
ATOM     76  F   UNL A   1      35.250  34.079  27.553  1.00  0.00    -0.200 F 
ATOM     77  F   UNL A   1      33.466  32.134  26.865  1.00  0.00    -0.200 F 
ENDBRANCH  53  67
BRANCH  54  78
ATOM     78  C   UNL A   1      44.831  28.830  34.648  1.00  0.00     0.064 A 
ATOM     79  C   UNL A   1      45.960  29.662  34.638  1.00  0.00     0.173 A 
ATOM     80  C   UNL A   1      44.893  27.662  35.421  1.00  0.00     0.173 A 
ATOM     81  F   UNL A   1      45.963  30.778  33.893  1.00  0.00    -0.203 F 
ATOM     82  C   UNL A   1      47.113  29.324  35.346  1.00  0.00     0.198 A 
ATOM     83  C   UNL A   1      46.034  27.339  36.154  1.00  0.00     0.198 A 
ATOM     84  F   UNL A   1      43.844  26.827  35.464  1.00  0.00    -0.203 F 
ATOM     85  F   UNL A   1      48.197  30.107  35.271  1.00  0.00    -0.200 F 
ATOM     86  C   UNL A   1      47.147  28.165  36.107  1.00  0.00     0.200 A 
ATOM     87  F   UNL A   1      46.058  26.224  36.896  1.00  0.00    -0.200 F 
ATOM     88  F   UNL A   1      48.255  27.838  36.786  1.00  0.00    -0.200 F 
ENDBRANCH  54  78
BRANCH  66  89
ATOM     89  C   UNL A   1      38.891  32.206  36.046  1.00  0.00     0.064 A 
ATOM     90  C   UNL A   1      38.132  31.469  36.965  1.00  0.00     0.173 A 
ATOM     91  C   UNL A   1      39.186  33.543  36.357  1.00  0.00     0.173 A 
ATOM     92  F   UNL A   1      37.815  30.191  36.707  1.00  0.00    -0.203 F 
ATOM     93  C   UNL A   1      37.667  32.054  38.139  1.00  0.00     0.198 A 
ATOM     94  C   UNL A   1      38.747  34.115  37.547  1.00  0.00     0.198 A 
ATOM     95  F   UNL A   1      39.918  34.288  35.516  1.00  0.00    -0.203 F 
ATOM     96  F   UNL A   1      36.903  31.344  38.982  1.00  0.00    -0.200 F 
ATOM     97  C   UNL A   1      37.981  33.374  38.433  1.00  0.00     0.200 A 
ATOM     98  F   UNL A   1      39.067  35.383  37.837  1.00  0.00    -0.200 F 
ATOM     99  F   UNL A   1      37.541  33.931  39.569  1.00  0.00    -0.200 F 
ENDBRANCH  66  89
ENDBRANCH  40  41
ENDBRANCH  33  35
ENDBRANCH  32  33
ENDBRANCH  31  32
ENDBRANCH  30  31
ENDBRANCH  29  30
ENDBRANCH  28  29
ENDBRANCH  27  28
ENDBRANCH  26  27
ENDBRANCH   1  26
TORSDOF 24
ENDMDL
MODEL 2
REMARK VINA RESULT:      -9.6      1.757      7.465
REMARK SMILES CC(C)(Nc1cccc(F)c1C#N)C(C)(C)C(=O)OCCOCCOCCOCCOC(=O)c1ccc(-c2c3nc(c(-c4c(F)c(F)c(F)c(F)c4F)c4ccc([nH]4)c(-c4c(F)c(F)c(F)c(F)c4F)c4nc(c(-c5c(F)c(F)c(F)c(F)c5F)c5ccc2[nH]5)C=C4)C=C3)cc1
REMARK SMILES IDX 24 1 23 2 22 3 21 4 20 5 19 6 17 7 18 8 14 9 15 10 16 11
REMARK SMILES IDX 2 12 1 13 3 14 4 15 5 17 6 18 11 19 7 20 9 21 8 22 10 23
REMARK SMILES IDX 12 24 13 25 25 26 26 27 27 28 28 29 29 30 30 31 31 32 32 33
REMARK SMILES IDX 33 34 34 35 35 36 96 37 36 38 95 39 37 40 38 41 39 42 89 43
REMARK SMILES IDX 40 44 94 45 88 46 90 47 41 48 93 49 87 50 86 51 42 53 74 54
REMARK SMILES IDX 54 55 73 56 55 57 58 58 72 59 91 60 56 61 57 62 71 64 92 65
REMARK SMILES IDX 59 66 43 67 44 68 52 69 45 70 46 71 50 72 53 73 47 74 48 75
REMARK SMILES IDX 51 76 49 77 75 78 76 79 84 80 77 81 78 82 82 83 85 84 79 85
REMARK SMILES IDX 80 86 83 87 81 88 60 89 61 90 69 91 62 92 63 93 67 94 70 95
REMARK SMILES IDX 64 96 65 97 68 98 66 99
REMARK H PARENT 4 16 90 52 58 63
REMARK Flexibility Score: inf
ROOT
ATOM      1  C   UNL A   1      36.068  20.950  25.001  1.00  0.00     0.188 C 
ENDROOT
BRANCH   1   2
ATOM      2  C   UNL A   1      34.733  21.058  25.745  1.00  0.00     0.188 C 
BRANCH   2   3
ATOM      3  O   UNL A   1      33.714  21.659  24.938  1.00  0.00    -0.376 OA
BRANCH   3   4
ATOM      4  C   UNL A   1      33.039  22.809  25.432  1.00  0.00     0.202 C 
BRANCH   4   5
ATOM      5  C   UNL A   1      33.919  23.865  26.156  1.00  0.00     0.261 C 
BRANCH   5   6
ATOM      6  O   UNL A   1      33.858  25.287  25.852  1.00  0.00    -0.463 OA
BRANCH   6   7
ATOM      7  C   UNL A   1      32.674  25.829  25.499  1.00  0.00     0.313 C 
ATOM      8  O   UNL A   1      31.753  25.905  26.287  1.00  0.00    -0.252 OA
BRANCH   7   9
ATOM      9  C   UNL A   1      32.585  26.410  24.097  1.00  0.00     0.085 C 
ATOM     10  C   UNL A   1      31.448  25.680  23.361  1.00  0.00     0.026 C 
ATOM     11  C   UNL A   1      33.875  26.021  23.314  1.00  0.00     0.026 C 
BRANCH   9  12
ATOM     12  C   UNL A   1      32.408  28.019  24.207  1.00  0.00     0.047 C 
ATOM     13  C   UNL A   1      32.882  28.708  22.907  1.00  0.00     0.035 C 
ATOM     14  C   UNL A   1      33.313  28.621  25.336  1.00  0.00     0.035 C 
BRANCH  12  15
ATOM     15  N   UNL A   1      31.036  28.575  24.494  1.00  0.00    -0.378 N 
ATOM     16  H   UNL A   1      30.634  28.298  25.349  1.00  0.00     0.161 HD
BRANCH  15  17
ATOM     17  C   UNL A   1      30.268  29.425  23.716  1.00  0.00     0.056 A 
ATOM     18  C   UNL A   1      29.837  28.978  22.461  1.00  0.00     0.027 A 
ATOM     19  C   UNL A   1      29.897  30.734  24.101  1.00  0.00     0.111 A 
ATOM     20  C   UNL A   1      28.916  29.708  21.704  1.00  0.00     0.005 A 
ATOM     21  C   UNL A   1      28.886  31.398  23.400  1.00  0.00     0.143 A 
ATOM     22  C   UNL A   1      28.381  30.886  22.214  1.00  0.00     0.041 A 
ATOM     23  F   UNL A   1      28.369  32.544  23.872  1.00  0.00    -0.205 F 
BRANCH  19  24
ATOM     24  C   UNL A   1      30.521  31.437  25.187  1.00  0.00     0.104 C 
ATOM     25  N   UNL A   1      31.027  31.967  26.091  1.00  0.00    -0.192 NA
ENDBRANCH  19  24
ENDBRANCH  15  17
ENDBRANCH  12  15
ENDBRANCH   9  12
ENDBRANCH   7   9
ENDBRANCH   6   7
ENDBRANCH   5   6
ENDBRANCH   4   5
ENDBRANCH   3   4
ENDBRANCH   2   3
ENDBRANCH   1   2
BRANCH   1  26
ATOM     26  O   UNL A   1      37.201  21.640  25.509  1.00  0.00    -0.377 OA
BRANCH  26  27
ATOM     27  C   UNL A   1      38.435  20.949  25.488  1.00  0.00     0.188 C 
BRANCH  27  28
ATOM     28  C   UNL A   1      39.604  21.731  26.126  1.00  0.00     0.188 C 
BRANCH  28  29
ATOM     29  O   UNL A   1      40.349  21.219  27.232  1.00  0.00    -0.376 OA
BRANCH  29  30
ATOM     30  C   UNL A   1      41.713  20.868  27.086  1.00  0.00     0.202 C 
BRANCH  30  31
ATOM     31  C   UNL A   1      42.389  21.387  25.807  1.00  0.00     0.261 C 
BRANCH  31  32
ATOM     32  O   UNL A   1      42.277  22.801  25.588  1.00  0.00    -0.460 OA
BRANCH  32  33
ATOM     33  C   UNL A   1      43.210  23.565  26.208  1.00  0.00     0.338 C 
ATOM     34  O   UNL A   1      44.421  23.443  26.167  1.00  0.00    -0.246 OA
BRANCH  33  35
ATOM     35  C   UNL A   1      42.534  24.708  26.865  1.00  0.00     0.060 A 
ATOM     36  C   UNL A   1      43.174  25.956  26.869  1.00  0.00     0.016 A 
ATOM     37  C   UNL A   1      41.287  24.555  27.477  1.00  0.00     0.016 A 
ATOM     38  C   UNL A   1      42.591  27.045  27.510  1.00  0.00     0.010 A 
ATOM     39  C   UNL A   1      40.726  25.631  28.169  1.00  0.00     0.010 A 
ATOM     40  C   UNL A   1      41.401  26.864  28.225  1.00  0.00    -0.014 A 
BRANCH  40  41
ATOM     41  C   UNL A   1      41.060  27.838  29.286  1.00  0.00     0.031 A 
ATOM     42  C   UNL A   1      41.888  27.797  30.543  1.00  0.00     0.074 A 
ATOM     43  C   UNL A   1      40.089  28.754  29.132  1.00  0.00     0.049 A 
ATOM     44  N   UNL A   1      41.767  28.485  31.648  1.00  0.00    -0.248 NA
ATOM     45  C   UNL A   1      43.013  26.843  30.549  1.00  0.00     0.031 C 
ATOM     46  C   UNL A   1      39.277  28.935  27.932  1.00  0.00     0.029 A 
ATOM     47  N   UNL A   1      39.621  29.702  30.005  1.00  0.00    -0.354 N 
ATOM     48  C   UNL A   1      42.794  28.045  32.473  1.00  0.00     0.074 A 
ATOM     49  C   UNL A   1      43.513  27.014  31.761  1.00  0.00     0.031 C 
ATOM     50  C   UNL A   1      38.393  29.926  28.152  1.00  0.00     0.029 A 
ATOM     51  C   UNL A   1      38.558  30.421  29.519  1.00  0.00     0.049 A 
ATOM     52  H   UNL A   1      40.012  29.853  30.897  1.00  0.00     0.167 HD
ATOM     53  C   UNL A   1      43.112  28.468  33.718  1.00  0.00     0.037 A 
ATOM     54  C   UNL A   1      37.794  31.349  30.128  1.00  0.00     0.037 A 
ATOM     55  C   UNL A   1      42.386  29.485  34.426  1.00  0.00     0.049 A 
ATOM     56  C   UNL A   1      38.109  31.734  31.554  1.00  0.00     0.074 A 
ATOM     57  C   UNL A   1      42.607  29.978  35.697  1.00  0.00     0.029 A 
ATOM     58  N   UNL A   1      41.289  30.162  33.913  1.00  0.00    -0.354 N 
ATOM     59  N   UNL A   1      39.075  31.314  32.335  1.00  0.00    -0.248 NA
ATOM     60  C   UNL A   1      37.223  32.723  32.185  1.00  0.00     0.031 C 
ATOM     61  C   UNL A   1      41.614  30.921  35.975  1.00  0.00     0.029 A 
ATOM     62  C   UNL A   1      40.810  31.058  34.853  1.00  0.00     0.049 A 
ATOM     63  H   UNL A   1      40.909  30.027  33.016  1.00  0.00     0.167 HD
ATOM     64  C   UNL A   1      38.939  32.012  33.528  1.00  0.00     0.074 A 
ATOM     65  C   UNL A   1      37.799  32.890  33.366  1.00  0.00     0.031 C 
ATOM     66  C   UNL A   1      39.687  31.938  34.656  1.00  0.00     0.037 A 
BRANCH  53  67
ATOM     67  C   UNL A   1      44.272  27.804  34.398  1.00  0.00     0.064 A 
ATOM     68  C   UNL A   1      44.111  26.635  35.157  1.00  0.00     0.173 A 
ATOM     69  C   UNL A   1      45.565  28.335  34.275  1.00  0.00     0.173 A 
ATOM     70  F   UNL A   1      42.892  26.102  35.325  1.00  0.00    -0.203 F 
ATOM     71  C   UNL A   1      45.199  26.033  35.783  1.00  0.00     0.198 A 
ATOM     72  C   UNL A   1      46.655  27.713  34.877  1.00  0.00     0.198 A 
ATOM     73  F   UNL A   1      45.772  29.454  33.565  1.00  0.00    -0.203 F 
ATOM     74  F   UNL A   1      45.016  24.942  36.540  1.00  0.00    -0.200 F 
ATOM     75  C   UNL A   1      46.471  26.567  35.636  1.00  0.00     0.200 A 
ATOM     76  F   UNL A   1      47.884  28.226  34.727  1.00  0.00    -0.200 F 
ATOM     77  F   UNL A   1      47.518  25.981  36.231  1.00  0.00    -0.200 F 
ENDBRANCH  53  67
BRANCH  54  78
ATOM     78  C   UNL A   1      36.643  31.965  29.414  1.00  0.00     0.064 A 
ATOM     79  C   UNL A   1      36.607  33.342  29.148  1.00  0.00     0.173 A 
ATOM     80  C   UNL A   1      35.536  31.200  29.022  1.00  0.00     0.173 A 
ATOM     81  F   UNL A   1      37.629  34.124  29.528  1.00  0.00    -0.203 F 
ATOM     82  C   UNL A   1      35.498  33.931  28.543  1.00  0.00     0.198 A 
ATOM     83  C   UNL A   1      34.441  31.783  28.388  1.00  0.00     0.198 A 
ATOM     84  F   UNL A   1      35.515  29.879  29.256  1.00  0.00    -0.203 F 
ATOM     85  F   UNL A   1      35.466  35.258  28.353  1.00  0.00    -0.200 F 
ATOM     86  C   UNL A   1      34.418  33.151  28.158  1.00  0.00     0.200 A 
ATOM     87  F   UNL A   1      33.405  31.024  28.010  1.00  0.00    -0.200 F 
ATOM     88  F   UNL A   1      33.351  33.717  27.579  1.00  0.00    -0.200 F 
ENDBRANCH  54  78
BRANCH  66  89
ATOM     89  C   UNL A   1      39.338  32.869  35.782  1.00  0.00     0.064 A 
ATOM     90  C   UNL A   1      38.450  32.498  36.800  1.00  0.00     0.173 A 
ATOM     91  C   UNL A   1      39.951  34.129  35.868  1.00  0.00     0.173 A 
ATOM     92  F   UNL A   1      37.831  31.309  36.756  1.00  0.00    -0.203 F 
ATOM     93  C   UNL A   1      38.168  33.365  37.852  1.00  0.00     0.198 A 
ATOM     94  C   UNL A   1      39.691  34.980  36.938  1.00  0.00     0.198 A 
ATOM     95  F   UNL A   1      40.818  34.527  34.925  1.00  0.00    -0.203 F 
ATOM     96  F   UNL A   1      37.279  33.009  38.791  1.00  0.00    -0.200 F 
ATOM     97  C   UNL A   1      38.794  34.601  37.924  1.00  0.00     0.200 A 
ATOM     98  F   UNL A   1      40.311  36.165  37.016  1.00  0.00    -0.200 F 
ATOM     99  F   UNL A   1      38.528  35.430  38.944  1.00  0.00    -0.200 F 
ENDBRANCH  66  89
ENDBRANCH  40  41
ENDBRANCH  33  35
ENDBRANCH  32  33
ENDBRANCH  31  32
ENDBRANCH  30  31
ENDBRANCH  29  30
ENDBRANCH  28  29
ENDBRANCH  27  28
ENDBRANCH  26  27
ENDBRANCH   1  26
TORSDOF 24
ENDMDL
MODEL 3
REMARK VINA RESULT:      -9.3      6.151     11.507
REMARK SMILES CC(C)(Nc1cccc(F)c1C#N)C(C)(C)C(=O)OCCOCCOCCOCCOC(=O)c1ccc(-c2c3nc(c(-c4c(F)c(F)c(F)c(F)c4F)c4ccc([nH]4)c(-c4c(F)c(F)c(F)c(F)c4F)c4nc(c(-c5c(F)c(F)c(F)c(F)c5F)c5ccc2[nH]5)C=C4)C=C3)cc1
REMARK SMILES IDX 24 1 23 2 22 3 21 4 20 5 19 6 17 7 18 8 14 9 15 10 16 11
REMARK SMILES IDX 2 12 1 13 3 14 4 15 5 17 6 18 11 19 7 20 9 21 8 22 10 23
REMARK SMILES IDX 12 24 13 25 25 26 26 27 27 28 28 29 29 30 30 31 31 32 32 33
REMARK SMILES IDX 33 34 34 35 35 36 96 37 36 38 95 39 37 40 38 41 39 42 89 43
REMARK SMILES IDX 40 44 94 45 88 46 90 47 41 48 93 49 87 50 86 51 42 53 74 54
REMARK SMILES IDX 54 55 73 56 55 57 58 58 72 59 91 60 56 61 57 62 71 64 92 65
REMARK SMILES IDX 59 66 43 67 44 68 52 69 45 70 46 71 50 72 53 73 47 74 48 75
REMARK SMILES IDX 51 76 49 77 75 78 76 79 84 80 77 81 78 82 82 83 85 84 79 85
REMARK SMILES IDX 80 86 83 87 81 88 60 89 61 90 69 91 62 92 63 93 67 94 70 95
REMARK SMILES IDX 64 96 65 97 68 98 66 99
REMARK H PARENT 4 16 90 52 58 63
REMARK Flexibility Score: inf
ROOT
ATOM      1  C   UNL A   1      37.176  32.201  39.067  1.00  0.00     0.188 C 
ENDROOT
BRANCH   1   2
ATOM      2  C   UNL A   1      37.932  32.779  37.866  1.00  0.00     0.188 C 
BRANCH   2   3
ATOM      3  O   UNL A   1      37.529  32.175  36.633  1.00  0.00    -0.376 OA
BRANCH   3   4
ATOM      4  C   UNL A   1      38.321  31.122  36.095  1.00  0.00     0.202 C 
BRANCH   4   5
ATOM      5  C   UNL A   1      38.838  31.323  34.644  1.00  0.00     0.261 C 
BRANCH   5   6
ATOM      6  O   UNL A   1      39.263  30.218  33.797  1.00  0.00    -0.463 OA
BRANCH   6   7
ATOM      7  C   UNL A   1      39.477  30.446  32.484  1.00  0.00     0.313 C 
ATOM      8  O   UNL A   1      40.278  31.278  32.109  1.00  0.00    -0.252 OA
BRANCH   7   9
ATOM      9  C   UNL A   1      38.727  29.553  31.509  1.00  0.00     0.085 C 
ATOM     10  C   UNL A   1      37.906  28.547  32.335  1.00  0.00     0.026 C 
ATOM     11  C   UNL A   1      39.762  28.678  30.739  1.00  0.00     0.026 C 
BRANCH   9  12
ATOM     12  C   UNL A   1      37.859  30.485  30.505  1.00  0.00     0.047 C 
ATOM     13  C   UNL A   1      36.471  29.858  30.245  1.00  0.00     0.035 C 
ATOM     14  C   UNL A   1      38.528  30.584  29.091  1.00  0.00     0.035 C 
BRANCH  12  15
ATOM     15  N   UNL A   1      37.600  31.918  30.895  1.00  0.00    -0.378 N 
ATOM     16  H   UNL A   1      38.389  32.508  30.901  1.00  0.00     0.161 HD
BRANCH  15  17
ATOM     17  C   UNL A   1      36.401  32.515  31.246  1.00  0.00     0.056 A 
ATOM     18  C   UNL A   1      35.956  32.399  32.567  1.00  0.00     0.027 A 
ATOM     19  C   UNL A   1      35.578  33.230  30.344  1.00  0.00     0.111 A 
ATOM     20  C   UNL A   1      34.853  33.123  33.032  1.00  0.00     0.005 A 
ATOM     21  C   UNL A   1      34.555  34.042  30.841  1.00  0.00     0.143 A 
ATOM     22  C   UNL A   1      34.198  34.006  32.181  1.00  0.00     0.041 A 
ATOM     23  F   UNL A   1      33.904  34.892  30.029  1.00  0.00    -0.205 F 
BRANCH  19  24
ATOM     24  C   UNL A   1      35.732  33.157  28.918  1.00  0.00     0.104 C 
ATOM     25  N   UNL A   1      35.810  33.104  27.758  1.00  0.00    -0.192 NA
ENDBRANCH  19  24
ENDBRANCH  15  17
ENDBRANCH  12  15
ENDBRANCH   9  12
ENDBRANCH   7   9
ENDBRANCH   6   7
ENDBRANCH   5   6
ENDBRANCH   4   5
ENDBRANCH   3   4
ENDBRANCH   2   3
ENDBRANCH   1   2
BRANCH   1  26
ATOM     26  O   UNL A   1      37.199  32.900  40.302  1.00  0.00    -0.377 OA
BRANCH  26  27
ATOM     27  C   UNL A   1      38.138  33.952  40.425  1.00  0.00     0.188 C 
BRANCH  27  28
ATOM     28  C   UNL A   1      37.822  34.944  41.566  1.00  0.00     0.188 C 
BRANCH  28  29
ATOM     29  O   UNL A   1      38.637  36.088  41.826  1.00  0.00    -0.376 OA
BRANCH  29  30
ATOM     30  C   UNL A   1      40.045  35.969  41.920  1.00  0.00     0.202 C 
BRANCH  30  31
ATOM     31  C   UNL A   1      40.842  36.789  40.895  1.00  0.00     0.261 C 
BRANCH  31  32
ATOM     32  O   UNL A   1      41.110  36.120  39.653  1.00  0.00    -0.460 OA
BRANCH  32  33
ATOM     33  C   UNL A   1      40.323  36.483  38.610  1.00  0.00     0.338 C 
ATOM     34  O   UNL A   1      39.334  37.194  38.634  1.00  0.00    -0.246 OA
BRANCH  33  35
ATOM     35  C   UNL A   1      40.934  35.987  37.355  1.00  0.00     0.060 A 
ATOM     36  C   UNL A   1      40.102  35.752  36.250  1.00  0.00     0.016 A 
ATOM     37  C   UNL A   1      42.308  35.750  37.264  1.00  0.00     0.016 A 
ATOM     38  C   UNL A   1      40.630  35.247  35.065  1.00  0.00     0.010 A 
ATOM     39  C   UNL A   1      42.832  35.192  36.094  1.00  0.00     0.010 A 
ATOM     40  C   UNL A   1      41.985  34.898  35.012  1.00  0.00    -0.014 A 
BRANCH  40  41
ATOM     41  C   UNL A   1      42.423  33.929  33.981  1.00  0.00     0.031 A 
ATOM     42  C   UNL A   1      42.740  34.482  32.617  1.00  0.00     0.074 A 
ATOM     43  C   UNL A   1      42.579  32.622  34.248  1.00  0.00     0.049 A 
ATOM     44  N   UNL A   1      43.079  33.857  31.520  1.00  0.00    -0.248 NA
ATOM     45  C   UNL A   1      42.663  35.947  32.474  1.00  0.00     0.031 C 
ATOM     46  C   UNL A   1      42.376  31.991  35.549  1.00  0.00     0.029 A 
ATOM     47  N   UNL A   1      42.944  31.589  33.423  1.00  0.00    -0.354 N 
ATOM     48  C   UNL A   1      43.252  34.851  30.565  1.00  0.00     0.074 A 
ATOM     49  C   UNL A   1      42.955  36.116  31.196  1.00  0.00     0.031 C 
ATOM     50  C   UNL A   1      42.601  30.670  35.430  1.00  0.00     0.029 A 
ATOM     51  C   UNL A   1      42.929  30.362  34.037  1.00  0.00     0.049 A 
ATOM     52  H   UNL A   1      43.192  31.715  32.478  1.00  0.00     0.167 HD
ATOM     53  C   UNL A   1      43.630  34.720  29.273  1.00  0.00     0.037 A 
ATOM     54  C   UNL A   1      43.130  29.135  33.519  1.00  0.00     0.037 A 
ATOM     55  C   UNL A   1      43.912  33.458  28.648  1.00  0.00     0.049 A 
ATOM     56  C   UNL A   1      43.454  29.006  32.050  1.00  0.00     0.074 A 
ATOM     57  C   UNL A   1      44.284  33.205  27.341  1.00  0.00     0.029 A 
ATOM     58  N   UNL A   1      43.848  32.233  29.295  1.00  0.00    -0.354 N 
ATOM     59  N   UNL A   1      43.611  29.945  31.147  1.00  0.00    -0.248 NA
ATOM     60  C   UNL A   1      43.627  27.644  31.525  1.00  0.00     0.031 C 
ATOM     61  C   UNL A   1      44.398  31.821  27.183  1.00  0.00     0.029 A 
ATOM     62  C   UNL A   1      44.155  31.216  28.408  1.00  0.00     0.049 A 
ATOM     63  H   UNL A   1      43.618  32.105  30.244  1.00  0.00     0.167 HD
ATOM     64  C   UNL A   1      43.940  29.294  29.965  1.00  0.00     0.074 A 
ATOM     65  C   UNL A   1      43.966  27.878  30.266  1.00  0.00     0.031 C 
ATOM     66  C   UNL A   1      44.198  29.816  28.741  1.00  0.00     0.037 A 
BRANCH  53  67
ATOM     67  C   UNL A   1      43.723  35.970  28.450  1.00  0.00     0.064 A 
ATOM     68  C   UNL A   1      44.944  36.629  28.245  1.00  0.00     0.173 A 
ATOM     69  C   UNL A   1      42.577  36.505  27.843  1.00  0.00     0.173 A 
ATOM     70  F   UNL A   1      46.064  36.171  28.823  1.00  0.00    -0.203 F 
ATOM     71  C   UNL A   1      45.011  37.790  27.479  1.00  0.00     0.198 A 
ATOM     72  C   UNL A   1      42.653  37.649  27.053  1.00  0.00     0.198 A 
ATOM     73  F   UNL A   1      41.384  35.916  28.012  1.00  0.00    -0.203 F 
ATOM     74  F   UNL A   1      46.181  38.429  27.333  1.00  0.00    -0.200 F 
ATOM     75  C   UNL A   1      43.867  38.294  26.877  1.00  0.00     0.200 A 
ATOM     76  F   UNL A   1      41.548  38.129  26.465  1.00  0.00    -0.200 F 
ATOM     77  F   UNL A   1      43.935  39.405  26.131  1.00  0.00    -0.200 F 
ENDBRANCH  53  67
BRANCH  54  78
ATOM     78  C   UNL A   1      43.009  27.925  34.376  1.00  0.00     0.064 A 
ATOM     79  C   UNL A   1      41.808  27.204  34.447  1.00  0.00     0.173 A 
ATOM     80  C   UNL A   1      44.076  27.488  35.174  1.00  0.00     0.173 A 
ATOM     81  F   UNL A   1      40.748  27.596  33.725  1.00  0.00    -0.203 F 
ATOM     82  C   UNL A   1      41.671  26.112  35.303  1.00  0.00     0.198 A 
ATOM     83  C   UNL A   1      43.950  26.377  36.006  1.00  0.00     0.198 A 
ATOM     84  F   UNL A   1      45.247  28.143  35.148  1.00  0.00    -0.203 F 
ATOM     85  F   UNL A   1      40.494  25.478  35.395  1.00  0.00    -0.200 F 
ATOM     86  C   UNL A   1      42.744  25.696  36.078  1.00  0.00     0.200 A 
ATOM     87  F   UNL A   1      44.992  25.973  36.744  1.00  0.00    -0.200 F 
ATOM     88  F   UNL A   1      42.612  24.648  36.903  1.00  0.00    -0.200 F 
ENDBRANCH  54  78
BRANCH  66  89
ATOM     89  C   UNL A   1      44.589  28.862  27.649  1.00  0.00     0.064 A 
ATOM     90  C   UNL A   1      45.900  28.384  27.518  1.00  0.00     0.173 A 
ATOM     91  C   UNL A   1      43.620  28.379  26.756  1.00  0.00     0.173 A 
ATOM     92  F   UNL A   1      46.864  28.824  28.341  1.00  0.00    -0.203 F 
ATOM     93  C   UNL A   1      46.231  27.474  26.518  1.00  0.00     0.198 A 
ATOM     94  C   UNL A   1      43.948  27.446  25.778  1.00  0.00     0.198 A 
ATOM     95  F   UNL A   1      42.348  28.798  26.845  1.00  0.00    -0.203 F 
ATOM     96  F   UNL A   1      47.501  27.065  26.383  1.00  0.00    -0.200 F 
ATOM     97  C   UNL A   1      45.255  27.000  25.654  1.00  0.00     0.200 A 
ATOM     98  F   UNL A   1      43.000  26.975  24.957  1.00  0.00    -0.200 F 
ATOM     99  F   UNL A   1      45.575  26.116  24.700  1.00  0.00    -0.200 F 
ENDBRANCH  66  89
ENDBRANCH  40  41
ENDBRANCH  33  35
ENDBRANCH  32  33
ENDBRANCH  31  32
ENDBRANCH  30  31
ENDBRANCH  29  30
ENDBRANCH  28  29
ENDBRANCH  27  28
ENDBRANCH  26  27
ENDBRANCH   1  26
TORSDOF 24
ENDMDL
