MODEL 1
REMARK VINA RESULT:      -9.2      0.000      0.000
REMARK SMILES C[C@@H]1CC[C@H](C)[N@H+]1Cc1cc2c(cc1Cl)C=C(C(=O)OCCOCCOCCOCCOC(=O)c1ccc(-c3c4nc(c(-c5c(F)c(F)c(F)c(F)c5F)c5ccc([nH]5)c(-c5c(F)c(F)c(F)c(F)c5F)c5nc(c(-c6c(F)c(F)c(F)c(F)c6F)c6ccc3[nH]6)C=C5)C=C4)cc1)[C@@H](C(F)(F)F)O2
REMARK SMILES IDX 26 1 25 2 24 3 23 4 22 5 21 6 20 7 18 8 19 9 17 10 9 11
REMARK SMILES IDX 10 12 14 13 11 14 13 15 15 16 12 17 103 18 16 19 98 20 8 21
REMARK SMILES IDX 7 22 6 23 5 24 4 25 3 26 2 27 1 29 99 30 100 31 101 32
REMARK SMILES IDX 102 33 27 34 28 35 29 36 30 37 31 38 32 39 33 40 34 41 35 42
REMARK SMILES IDX 36 43 97 44 37 45 96 46 38 47 39 48 40 49 90 50 41 51 95 52
REMARK SMILES IDX 89 53 91 54 42 55 94 56 88 57 87 58 43 60 75 61 55 62 74 63
REMARK SMILES IDX 56 64 59 65 73 66 92 67 57 68 58 69 72 71 93 72 60 73 44 74
REMARK SMILES IDX 45 75 53 76 46 77 47 78 51 79 54 80 48 81 49 82 52 83 50 84
REMARK SMILES IDX 76 85 77 86 85 87 78 88 79 89 83 90 86 91 80 92 81 93 84 94
REMARK SMILES IDX 82 95 61 96 62 97 70 98 63 99 64 100 68 101 71 102 65 103
REMARK SMILES IDX 66 104 69 105 67 106
REMARK H PARENT 7 28 91 59 59 70
REMARK Flexibility Score: inf
ROOT
ATOM      1  O   UNL A   1      36.907  23.782  25.133  1.00  0.00    -0.377 OA
ENDROOT
BRANCH   1   2
ATOM      2  C   UNL A   1      35.530  24.121  25.167  1.00  0.00     0.188 C 
BRANCH   2   3
ATOM      3  C   UNL A   1      34.782  23.773  23.868  1.00  0.00     0.188 C 
BRANCH   3   4
ATOM      4  O   UNL A   1      33.541  24.464  23.726  1.00  0.00    -0.376 OA
BRANCH   4   5
ATOM      5  C   UNL A   1      33.563  25.664  22.961  1.00  0.00     0.202 C 
BRANCH   5   6
ATOM      6  C   UNL A   1      33.080  26.926  23.695  1.00  0.00     0.261 C 
BRANCH   6   7
ATOM      7  O   UNL A   1      34.019  27.456  24.645  1.00  0.00    -0.460 OA
BRANCH   7   8
ATOM      8  C   UNL A   1      33.587  27.559  25.916  1.00  0.00     0.338 C 
ATOM      9  O   UNL A   1      33.022  26.692  26.561  1.00  0.00    -0.246 OA
BRANCH   8  10
ATOM     10  C   UNL A   1      34.053  28.842  26.478  1.00  0.00     0.087 C 
ATOM     11  C   UNL A   1      36.374  32.369  29.228  1.00  0.00     0.029 A 
ATOM     12  C   UNL A   1      35.400  32.398  28.200  1.00  0.00     0.058 A 
ATOM     13  C   UNL A   1      36.898  31.116  29.587  1.00  0.00     0.050 A 
ATOM     14  C   UNL A   1      34.979  31.226  27.560  1.00  0.00     0.128 A 
ATOM     15  C   UNL A   1      36.552  29.963  28.878  1.00  0.00     0.033 A 
ATOM     16  Cl  UNL A   1      37.873  30.858  30.992  1.00  0.00    -0.084 Cl
ATOM     17  C   UNL A   1      35.580  30.012  27.881  1.00  0.00     0.019 A 
ATOM     18  O   UNL A   1      33.978  31.339  26.636  1.00  0.00    -0.475 OA
ATOM     19  C   UNL A   1      35.147  28.784  27.245  1.00  0.00     0.027 C 
ATOM     20  C   UNL A   1      33.316  30.120  26.174  1.00  0.00     0.316 C 
BRANCH  11  21
ATOM     21  C   UNL A   1      36.752  33.668  29.922  1.00  0.00     0.301 C 
BRANCH  21  22
ATOM     22  N   UNL A   1      36.037  34.021  31.156  1.00  0.00    -0.327 N 
ATOM     23  C   UNL A   1      37.649  34.686  32.913  1.00  0.00     0.075 C 
ATOM     24  C   UNL A   1      36.659  33.637  32.427  1.00  0.00     0.181 C 
ATOM     25  C   UNL A   1      35.484  33.496  33.394  1.00  0.00     0.071 C 
ATOM     26  C   UNL A   1      34.378  32.977  32.500  1.00  0.00     0.071 C 
ATOM     27  C   UNL A   1      34.603  33.726  31.193  1.00  0.00     0.181 C 
ATOM     28  H   UNL A   1      36.138  35.034  31.081  1.00  0.00     0.348 HD
ATOM     29  C   UNL A   1      33.816  35.035  31.133  1.00  0.00     0.075 C 
ENDBRANCH  21  22
ENDBRANCH  11  21
BRANCH  20  30
ATOM     30  C   UNL A   1      31.876  30.068  26.706  1.00  0.00     0.430 C 
ATOM     31  F   UNL A   1      31.398  31.306  26.972  1.00  0.00    -0.167 F 
ATOM     32  F   UNL A   1      31.033  29.510  25.803  1.00  0.00    -0.167 F 
ATOM     33  F   UNL A   1      31.784  29.341  27.843  1.00  0.00    -0.167 F 
ENDBRANCH  20  30
ENDBRANCH   8  10
ENDBRANCH   7   8
ENDBRANCH   6   7
ENDBRANCH   5   6
ENDBRANCH   4   5
ENDBRANCH   3   4
ENDBRANCH   2   3
ENDBRANCH   1   2
BRANCH   1  34
ATOM     34  C   UNL A   1      37.663  23.941  26.333  1.00  0.00     0.188 C 
BRANCH  34  35
ATOM     35  C   UNL A   1      39.187  23.685  26.392  1.00  0.00     0.188 C 
BRANCH  35  36
ATOM     36  O   UNL A   1      39.538  22.347  26.731  1.00  0.00    -0.376 OA
BRANCH  36  37
ATOM     37  C   UNL A   1      40.923  22.079  26.912  1.00  0.00     0.202 C 
BRANCH  37  38
ATOM     38  C   UNL A   1      41.769  23.346  27.067  1.00  0.00     0.261 C 
BRANCH  38  39
ATOM     39  O   UNL A   1      42.770  23.532  26.054  1.00  0.00    -0.460 OA
BRANCH  39  40
ATOM     40  C   UNL A   1      44.050  23.240  26.373  1.00  0.00     0.338 C 
ATOM     41  O   UNL A   1      44.555  22.139  26.489  1.00  0.00    -0.246 OA
BRANCH  40  42
ATOM     42  C   UNL A   1      44.796  24.515  26.355  1.00  0.00     0.060 A 
ATOM     43  C   UNL A   1      45.565  24.891  27.461  1.00  0.00     0.016 A 
ATOM     44  C   UNL A   1      44.677  25.362  25.248  1.00  0.00     0.016 A 
ATOM     45  C   UNL A   1      46.230  26.117  27.450  1.00  0.00     0.010 A 
ATOM     46  C   UNL A   1      45.333  26.594  25.243  1.00  0.00     0.010 A 
ATOM     47  C   UNL A   1      46.127  26.969  26.338  1.00  0.00    -0.014 A 
BRANCH  47  48
ATOM     48  C   UNL A   1      46.982  28.174  26.261  1.00  0.00     0.031 A 
ATOM     49  C   UNL A   1      46.437  29.550  26.479  1.00  0.00     0.074 A 
ATOM     50  C   UNL A   1      48.289  27.996  25.998  1.00  0.00     0.049 A 
ATOM     51  N   UNL A   1      47.078  30.692  26.508  1.00  0.00    -0.248 NA
ATOM     52  C   UNL A   1      44.988  29.661  26.687  1.00  0.00     0.031 C 
ATOM     53  C   UNL A   1      48.923  26.698  25.769  1.00  0.00     0.029 A 
ATOM     54  N   UNL A   1      49.313  28.899  25.889  1.00  0.00    -0.354 N 
ATOM     55  C   UNL A   1      46.119  31.658  26.770  1.00  0.00     0.074 A 
ATOM     56  C   UNL A   1      44.842  30.972  26.837  1.00  0.00     0.031 C 
ATOM     57  C   UNL A   1      50.236  26.885  25.571  1.00  0.00     0.029 A 
ATOM     58  C   UNL A   1      50.527  28.314  25.636  1.00  0.00     0.049 A 
ATOM     59  H   UNL A   1      49.190  29.871  25.984  1.00  0.00     0.167 HD
ATOM     60  C   UNL A   1      46.295  32.990  26.953  1.00  0.00     0.037 A 
ATOM     61  C   UNL A   1      51.743  28.867  25.480  1.00  0.00     0.037 A 
ATOM     62  C   UNL A   1      47.564  33.670  26.844  1.00  0.00     0.049 A 
ATOM     63  C   UNL A   1      51.898  30.353  25.607  1.00  0.00     0.074 A 
ATOM     64  C   UNL A   1      47.844  35.015  27.020  1.00  0.00     0.029 A 
ATOM     65  N   UNL A   1      48.766  33.058  26.512  1.00  0.00    -0.354 N 
ATOM     66  N   UNL A   1      50.993  31.256  25.895  1.00  0.00    -0.248 NA
ATOM     67  C   UNL A   1      53.245  30.895  25.393  1.00  0.00     0.031 C 
ATOM     68  C   UNL A   1      49.200  35.224  26.745  1.00  0.00     0.029 A 
ATOM     69  C   UNL A   1      49.782  34.002  26.449  1.00  0.00     0.049 A 
ATOM     70  H   UNL A   1      48.881  32.094  26.346  1.00  0.00     0.167 HD
ATOM     71  C   UNL A   1      51.660  32.473  25.907  1.00  0.00     0.074 A 
ATOM     72  C   UNL A   1      53.052  32.187  25.622  1.00  0.00     0.031 C 
ATOM     73  C   UNL A   1      51.159  33.713  26.133  1.00  0.00     0.037 A 
BRANCH  60  74
ATOM     74  C   UNL A   1      45.079  33.805  27.289  1.00  0.00     0.064 A 
ATOM     75  C   UNL A   1      44.279  34.371  26.284  1.00  0.00     0.173 A 
ATOM     76  C   UNL A   1      44.682  33.991  28.622  1.00  0.00     0.173 A 
ATOM     77  F   UNL A   1      44.616  34.228  24.993  1.00  0.00    -0.203 F 
ATOM     78  C   UNL A   1      43.145  35.116  26.601  1.00  0.00     0.198 A 
ATOM     79  C   UNL A   1      43.533  34.714  28.935  1.00  0.00     0.198 A 
ATOM     80  F   UNL A   1      45.404  33.464  29.622  1.00  0.00    -0.203 F 
ATOM     81  F   UNL A   1      42.423  35.683  25.625  1.00  0.00    -0.200 F 
ATOM     82  C   UNL A   1      42.770  35.282  27.926  1.00  0.00     0.200 A 
ATOM     83  F   UNL A   1      43.164  34.862  30.215  1.00  0.00    -0.200 F 
ATOM     84  F   UNL A   1      41.678  35.995  28.230  1.00  0.00    -0.200 F 
ENDBRANCH  60  74
BRANCH  61  85
ATOM     85  C   UNL A   1      52.909  27.984  25.237  1.00  0.00     0.064 A 
ATOM     86  C   UNL A   1      53.369  27.755  23.936  1.00  0.00     0.173 A 
ATOM     87  C   UNL A   1      53.624  27.411  26.300  1.00  0.00     0.173 A 
ATOM     88  F   UNL A   1      52.706  28.271  22.891  1.00  0.00    -0.203 F 
ATOM     89  C   UNL A   1      54.508  26.988  23.702  1.00  0.00     0.198 A 
ATOM     90  C   UNL A   1      54.776  26.664  26.067  1.00  0.00     0.198 A 
ATOM     91  F   UNL A   1      53.223  27.610  27.563  1.00  0.00    -0.203 F 
ATOM     92  F   UNL A   1      54.921  26.772  22.447  1.00  0.00    -0.200 F 
ATOM     93  C   UNL A   1      55.216  26.452  24.769  1.00  0.00     0.200 A 
ATOM     94  F   UNL A   1      55.467  26.163  27.100  1.00  0.00    -0.200 F 
ATOM     95  F   UNL A   1      56.325  25.734  24.544  1.00  0.00    -0.200 F 
ENDBRANCH  61  85
BRANCH  73  96
ATOM     96  C   UNL A   1      52.131  34.858  26.069  1.00  0.00     0.064 A 
ATOM     97  C   UNL A   1      52.345  35.572  24.879  1.00  0.00     0.173 A 
ATOM     98  C   UNL A   1      52.848  35.254  27.207  1.00  0.00     0.173 A 
ATOM     99  F   UNL A   1      51.697  35.222  23.757  1.00  0.00    -0.203 F 
ATOM    100  C   UNL A   1      53.262  36.618  24.824  1.00  0.00     0.198 A 
ATOM    101  C   UNL A   1      53.743  36.321  27.157  1.00  0.00     0.198 A 
ATOM    102  F   UNL A   1      52.681  34.610  28.372  1.00  0.00    -0.203 F 
ATOM    103  F   UNL A   1      53.490  37.247  23.663  1.00  0.00    -0.200 F 
ATOM    104  C   UNL A   1      53.956  36.995  25.964  1.00  0.00     0.200 A 
ATOM    105  F   UNL A   1      54.405  36.691  28.262  1.00  0.00    -0.200 F 
ATOM    106  F   UNL A   1      54.840  38.002  25.910  1.00  0.00    -0.200 F 
ENDBRANCH  73  96
ENDBRANCH  47  48
ENDBRANCH  40  42
ENDBRANCH  39  40
ENDBRANCH  38  39
ENDBRANCH  37  38
ENDBRANCH  36  37
ENDBRANCH  35  36
ENDBRANCH  34  35
ENDBRANCH   1  34
TORSDOF 23
ENDMDL
MODEL 2
REMARK VINA RESULT:      -9.2      7.789     12.682
REMARK SMILES C[C@@H]1CC[C@H](C)[N@H+]1Cc1cc2c(cc1Cl)C=C(C(=O)OCCOCCOCCOCCOC(=O)c1ccc(-c3c4nc(c(-c5c(F)c(F)c(F)c(F)c5F)c5ccc([nH]5)c(-c5c(F)c(F)c(F)c(F)c5F)c5nc(c(-c6c(F)c(F)c(F)c(F)c6F)c6ccc3[nH]6)C=C5)C=C4)cc1)[C@@H](C(F)(F)F)O2
REMARK SMILES IDX 26 1 25 2 24 3 23 4 22 5 21 6 20 7 18 8 19 9 17 10 9 11
REMARK SMILES IDX 10 12 14 13 11 14 13 15 15 16 12 17 103 18 16 19 98 20 8 21
REMARK SMILES IDX 7 22 6 23 5 24 4 25 3 26 2 27 1 29 99 30 100 31 101 32
REMARK SMILES IDX 102 33 27 34 28 35 29 36 30 37 31 38 32 39 33 40 34 41 35 42
REMARK SMILES IDX 36 43 97 44 37 45 96 46 38 47 39 48 40 49 90 50 41 51 95 52
REMARK SMILES IDX 89 53 91 54 42 55 94 56 88 57 87 58 43 60 75 61 55 62 74 63
REMARK SMILES IDX 56 64 59 65 73 66 92 67 57 68 58 69 72 71 93 72 60 73 44 74
REMARK SMILES IDX 45 75 53 76 46 77 47 78 51 79 54 80 48 81 49 82 52 83 50 84
REMARK SMILES IDX 76 85 77 86 85 87 78 88 79 89 83 90 86 91 80 92 81 93 84 94
REMARK SMILES IDX 82 95 61 96 62 97 70 98 63 99 64 100 68 101 71 102 65 103
REMARK SMILES IDX 66 104 69 105 67 106
REMARK H PARENT 7 28 91 59 59 70
REMARK Flexibility Score: inf
ROOT
ATOM      1  O   UNL A   1      42.725  23.634  28.384  1.00  0.00    -0.377 OA
ENDROOT
BRANCH   1   2
ATOM      2  C   UNL A   1      41.526  23.408  27.661  1.00  0.00     0.188 C 
BRANCH   2   3
ATOM      3  C   UNL A   1      40.884  22.040  27.951  1.00  0.00     0.188 C 
BRANCH   3   4
ATOM      4  O   UNL A   1      40.297  21.434  26.799  1.00  0.00    -0.376 OA
BRANCH   4   5
ATOM      5  C   UNL A   1      39.282  22.179  26.135  1.00  0.00     0.202 C 
BRANCH   5   6
ATOM      6  C   UNL A   1      38.202  21.343  25.428  1.00  0.00     0.261 C 
BRANCH   6   7
ATOM      7  O   UNL A   1      36.866  21.850  25.579  1.00  0.00    -0.460 OA
BRANCH   7   8
ATOM      8  C   UNL A   1      35.880  21.097  25.057  1.00  0.00     0.338 C 
ATOM      9  O   UNL A   1      35.862  19.881  24.981  1.00  0.00    -0.246 OA
BRANCH   8  10
ATOM     10  C   UNL A   1      34.732  21.968  24.735  1.00  0.00     0.087 C 
ATOM     11  C   UNL A   1      31.822  25.736  23.087  1.00  0.00     0.029 A 
ATOM     12  C   UNL A   1      31.582  24.551  23.823  1.00  0.00     0.058 A 
ATOM     13  C   UNL A   1      33.133  25.964  22.635  1.00  0.00     0.050 A 
ATOM     14  C   UNL A   1      32.608  23.635  24.086  1.00  0.00     0.128 A 
ATOM     15  C   UNL A   1      34.129  25.000  22.810  1.00  0.00     0.033 A 
ATOM     16  Cl  UNL A   1      33.666  27.470  21.974  1.00  0.00    -0.084 Cl
ATOM     17  C   UNL A   1      33.876  23.848  23.552  1.00  0.00     0.019 A 
ATOM     18  O   UNL A   1      32.303  22.558  24.872  1.00  0.00    -0.475 OA
ATOM     19  C   UNL A   1      34.956  22.923  23.826  1.00  0.00     0.027 C 
ATOM     20  C   UNL A   1      33.401  21.754  25.407  1.00  0.00     0.316 C 
BRANCH  11  21
ATOM     21  C   UNL A   1      30.679  26.719  22.880  1.00  0.00     0.301 C 
BRANCH  21  22
ATOM     22  N   UNL A   1      30.504  27.789  23.871  1.00  0.00    -0.327 N 
ATOM     23  C   UNL A   1      28.657  29.289  23.187  1.00  0.00     0.075 C 
ATOM     24  C   UNL A   1      30.160  29.123  23.367  1.00  0.00     0.181 C 
ATOM     25  C   UNL A   1      30.698  30.078  24.432  1.00  0.00     0.071 C 
ATOM     26  C   UNL A   1      31.941  29.365  24.921  1.00  0.00     0.071 C 
ATOM     27  C   UNL A   1      31.531  27.898  24.910  1.00  0.00     0.181 C 
ATOM     28  H   UNL A   1      29.661  27.421  24.312  1.00  0.00     0.348 HD
ATOM     29  C   UNL A   1      30.945  27.450  26.249  1.00  0.00     0.075 C 
ENDBRANCH  21  22
ENDBRANCH  11  21
BRANCH  20  30
ATOM     30  C   UNL A   1      33.510  21.955  26.926  1.00  0.00     0.430 C 
ATOM     31  F   UNL A   1      32.346  22.400  27.454  1.00  0.00    -0.167 F 
ATOM     32  F   UNL A   1      33.808  20.795  27.560  1.00  0.00    -0.167 F 
ATOM     33  F   UNL A   1      34.474  22.848  27.249  1.00  0.00    -0.167 F 
ENDBRANCH  20  30
ENDBRANCH   8  10
ENDBRANCH   7   8
ENDBRANCH   6   7
ENDBRANCH   5   6
ENDBRANCH   4   5
ENDBRANCH   3   4
ENDBRANCH   2   3
ENDBRANCH   1   2
BRANCH   1  34
ATOM     34  C   UNL A   1      43.371  24.896  28.229  1.00  0.00     0.188 C 
BRANCH  34  35
ATOM     35  C   UNL A   1      44.512  25.123  27.210  1.00  0.00     0.188 C 
BRANCH  35  36
ATOM     36  O   UNL A   1      44.079  25.165  25.853  1.00  0.00    -0.376 OA
BRANCH  36  37
ATOM     37  C   UNL A   1      43.939  26.454  25.270  1.00  0.00     0.202 C 
BRANCH  37  38
ATOM     38  C   UNL A   1      42.482  26.908  25.146  1.00  0.00     0.261 C 
BRANCH  38  39
ATOM     39  O   UNL A   1      41.970  27.616  26.285  1.00  0.00    -0.460 OA
BRANCH  39  40
ATOM     40  C   UNL A   1      42.628  28.728  26.683  1.00  0.00     0.338 C 
ATOM     41  O   UNL A   1      42.759  29.772  26.072  1.00  0.00    -0.246 OA
BRANCH  40  42
ATOM     42  C   UNL A   1      42.994  28.525  28.099  1.00  0.00     0.060 A 
ATOM     43  C   UNL A   1      44.333  28.598  28.494  1.00  0.00     0.016 A 
ATOM     44  C   UNL A   1      41.994  28.203  29.024  1.00  0.00     0.016 A 
ATOM     45  C   UNL A   1      44.670  28.362  29.826  1.00  0.00     0.010 A 
ATOM     46  C   UNL A   1      42.335  27.955  30.355  1.00  0.00     0.010 A 
ATOM     47  C   UNL A   1      43.673  28.051  30.765  1.00  0.00    -0.014 A 
BRANCH  47  48
ATOM     48  C   UNL A   1      44.019  27.987  32.203  1.00  0.00     0.031 A 
ATOM     49  C   UNL A   1      44.515  26.731  32.845  1.00  0.00     0.074 A 
ATOM     50  C   UNL A   1      43.886  29.112  32.926  1.00  0.00     0.049 A 
ATOM     51  N   UNL A   1      44.919  26.543  34.077  1.00  0.00    -0.248 NA
ATOM     52  C   UNL A   1      44.561  25.531  32.001  1.00  0.00     0.031 C 
ATOM     53  C   UNL A   1      43.410  30.391  32.398  1.00  0.00     0.029 A 
ATOM     54  N   UNL A   1      44.144  29.365  34.248  1.00  0.00    -0.354 N 
ATOM     55  C   UNL A   1      45.300  25.212  34.152  1.00  0.00     0.074 A 
ATOM     56  C   UNL A   1      45.026  24.625  32.853  1.00  0.00     0.031 C 
ATOM     57  C   UNL A   1      43.434  31.303  33.381  1.00  0.00     0.029 A 
ATOM     58  C   UNL A   1      43.903  30.666  34.609  1.00  0.00     0.049 A 
ATOM     59  H   UNL A   1      44.471  28.681  34.876  1.00  0.00     0.167 HD
ATOM     60  C   UNL A   1      45.842  24.551  35.204  1.00  0.00     0.037 A 
ATOM     61  C   UNL A   1      44.049  31.281  35.796  1.00  0.00     0.037 A 
ATOM     62  C   UNL A   1      46.073  25.132  36.505  1.00  0.00     0.049 A 
ATOM     63  C   UNL A   1      44.576  30.504  36.967  1.00  0.00     0.074 A 
ATOM     64  C   UNL A   1      46.625  24.545  37.631  1.00  0.00     0.029 A 
ATOM     65  N   UNL A   1      45.749  26.435  36.861  1.00  0.00    -0.354 N 
ATOM     66  N   UNL A   1      44.971  29.256  37.019  1.00  0.00    -0.248 NA
ATOM     67  C   UNL A   1      44.681  31.226  38.240  1.00  0.00     0.031 C 
ATOM     68  C   UNL A   1      46.587  25.472  38.679  1.00  0.00     0.029 A 
ATOM     69  C   UNL A   1      46.060  26.659  38.195  1.00  0.00     0.049 A 
ATOM     70  H   UNL A   1      45.355  27.103  36.254  1.00  0.00     0.167 HD
ATOM     71  C   UNL A   1      45.381  29.042  38.327  1.00  0.00     0.074 A 
ATOM     72  C   UNL A   1      45.209  30.300  39.028  1.00  0.00     0.031 C 
ATOM     73  C   UNL A   1      45.856  27.904  38.893  1.00  0.00     0.037 A 
BRANCH  60  74
ATOM     74  C   UNL A   1      46.222  23.113  34.991  1.00  0.00     0.064 A 
ATOM     75  C   UNL A   1      47.555  22.737  34.758  1.00  0.00     0.173 A 
ATOM     76  C   UNL A   1      45.258  22.095  35.058  1.00  0.00     0.173 A 
ATOM     77  F   UNL A   1      48.515  23.671  34.678  1.00  0.00    -0.203 F 
ATOM     78  C   UNL A   1      47.902  21.401  34.572  1.00  0.00     0.198 A 
ATOM     79  C   UNL A   1      45.614  20.758  34.899  1.00  0.00     0.198 A 
ATOM     80  F   UNL A   1      43.971  22.397  35.288  1.00  0.00    -0.203 F 
ATOM     81  F   UNL A   1      49.174  21.072  34.308  1.00  0.00    -0.200 F 
ATOM     82  C   UNL A   1      46.933  20.413  34.649  1.00  0.00     0.200 A 
ATOM     83  F   UNL A   1      44.678  19.803  34.986  1.00  0.00    -0.200 F 
ATOM     84  F   UNL A   1      47.269  19.128  34.474  1.00  0.00    -0.200 F 
ENDBRANCH  60  74
BRANCH  61  85
ATOM     85  C   UNL A   1      43.735  32.725  35.901  1.00  0.00     0.064 A 
ATOM     86  C   UNL A   1      44.720  33.688  35.653  1.00  0.00     0.173 A 
ATOM     87  C   UNL A   1      42.434  33.170  36.180  1.00  0.00     0.173 A 
ATOM     88  F   UNL A   1      45.980  33.306  35.398  1.00  0.00    -0.203 F 
ATOM     89  C   UNL A   1      44.417  35.047  35.675  1.00  0.00     0.198 A 
ATOM     90  C   UNL A   1      42.127  34.529  36.180  1.00  0.00     0.198 A 
ATOM     91  F   UNL A   1      41.457  32.283  36.416  1.00  0.00    -0.203 F 
ATOM     92  F   UNL A   1      45.381  35.949  35.449  1.00  0.00    -0.200 F 
ATOM     93  C   UNL A   1      43.118  35.465  35.928  1.00  0.00     0.200 A 
ATOM     94  F   UNL A   1      40.868  34.928  36.406  1.00  0.00    -0.200 F 
ATOM     95  F   UNL A   1      42.822  36.772  35.926  1.00  0.00    -0.200 F 
ENDBRANCH  61  85
BRANCH  73  96
ATOM     96  C   UNL A   1      46.213  27.970  40.351  1.00  0.00     0.064 A 
ATOM     97  C   UNL A   1      45.271  27.680  41.351  1.00  0.00     0.173 A 
ATOM     98  C   UNL A   1      47.510  28.317  40.757  1.00  0.00     0.173 A 
ATOM     99  F   UNL A   1      44.011  27.360  41.017  1.00  0.00    -0.203 F 
ATOM    100  C   UNL A   1      45.605  27.764  42.700  1.00  0.00     0.198 A 
ATOM    101  C   UNL A   1      47.851  28.371  42.107  1.00  0.00     0.198 A 
ATOM    102  F   UNL A   1      48.452  28.602  39.845  1.00  0.00    -0.203 F 
ATOM    103  F   UNL A   1      44.673  27.536  43.636  1.00  0.00    -0.200 F 
ATOM    104  C   UNL A   1      46.896  28.104  43.077  1.00  0.00     0.200 A 
ATOM    105  F   UNL A   1      49.102  28.689  42.470  1.00  0.00    -0.200 F 
ATOM    106  F   UNL A   1      47.217  28.185  44.375  1.00  0.00    -0.200 F 
ENDBRANCH  73  96
ENDBRANCH  47  48
ENDBRANCH  40  42
ENDBRANCH  39  40
ENDBRANCH  38  39
ENDBRANCH  37  38
ENDBRANCH  36  37
ENDBRANCH  35  36
ENDBRANCH  34  35
ENDBRANCH   1  34
TORSDOF 23
ENDMDL
MODEL 3
REMARK VINA RESULT:      -9.2      6.823     12.780
REMARK SMILES C[C@@H]1CC[C@H](C)[N@H+]1Cc1cc2c(cc1Cl)C=C(C(=O)OCCOCCOCCOCCOC(=O)c1ccc(-c3c4nc(c(-c5c(F)c(F)c(F)c(F)c5F)c5ccc([nH]5)c(-c5c(F)c(F)c(F)c(F)c5F)c5nc(c(-c6c(F)c(F)c(F)c(F)c6F)c6ccc3[nH]6)C=C5)C=C4)cc1)[C@@H](C(F)(F)F)O2
REMARK SMILES IDX 26 1 25 2 24 3 23 4 22 5 21 6 20 7 18 8 19 9 17 10 9 11
REMARK SMILES IDX 10 12 14 13 11 14 13 15 15 16 12 17 103 18 16 19 98 20 8 21
REMARK SMILES IDX 7 22 6 23 5 24 4 25 3 26 2 27 1 29 99 30 100 31 101 32
REMARK SMILES IDX 102 33 27 34 28 35 29 36 30 37 31 38 32 39 33 40 34 41 35 42
REMARK SMILES IDX 36 43 97 44 37 45 96 46 38 47 39 48 40 49 90 50 41 51 95 52
REMARK SMILES IDX 89 53 91 54 42 55 94 56 88 57 87 58 43 60 75 61 55 62 74 63
REMARK SMILES IDX 56 64 59 65 73 66 92 67 57 68 58 69 72 71 93 72 60 73 44 74
REMARK SMILES IDX 45 75 53 76 46 77 47 78 51 79 54 80 48 81 49 82 52 83 50 84
REMARK SMILES IDX 76 85 77 86 85 87 78 88 79 89 83 90 86 91 80 92 81 93 84 94
REMARK SMILES IDX 82 95 61 96 62 97 70 98 63 99 64 100 68 101 71 102 65 103
REMARK SMILES IDX 66 104 69 105 67 106
REMARK H PARENT 7 28 91 59 59 70
REMARK Flexibility Score: inf
ROOT
ATOM      1  O   UNL A   1      37.597  31.305  33.847  1.00  0.00    -0.377 OA
ENDROOT
BRANCH   1   2
ATOM      2  C   UNL A   1      38.827  31.882  34.254  1.00  0.00     0.188 C 
BRANCH   2   3
ATOM      3  C   UNL A   1      38.968  32.009  35.781  1.00  0.00     0.188 C 
BRANCH   3   4
ATOM      4  O   UNL A   1      39.672  30.919  36.377  1.00  0.00    -0.376 OA
BRANCH   4   5
ATOM      5  C   UNL A   1      40.903  30.546  35.766  1.00  0.00     0.202 C 
BRANCH   5   6
ATOM      6  C   UNL A   1      41.312  29.075  35.945  1.00  0.00     0.261 C 
BRANCH   6   7
ATOM      7  O   UNL A   1      42.714  28.874  36.190  1.00  0.00    -0.460 OA
BRANCH   7   8
ATOM      8  C   UNL A   1      43.391  28.188  35.251  1.00  0.00     0.338 C 
ATOM      9  O   UNL A   1      43.616  28.552  34.110  1.00  0.00    -0.246 OA
BRANCH   8  10
ATOM     10  C   UNL A   1      43.973  26.979  35.867  1.00  0.00     0.087 C 
ATOM     11  C   UNL A   1      47.115  23.329  37.348  1.00  0.00     0.029 A 
ATOM     12  C   UNL A   1      45.726  23.561  37.500  1.00  0.00     0.058 A 
ATOM     13  C   UNL A   1      47.868  24.316  36.688  1.00  0.00     0.050 A 
ATOM     14  C   UNL A   1      45.125  24.730  37.020  1.00  0.00     0.128 A 
ATOM     15  C   UNL A   1      47.283  25.525  36.302  1.00  0.00     0.033 A 
ATOM     16  Cl  UNL A   1      49.500  24.082  36.168  1.00  0.00    -0.084 Cl
ATOM     17  C   UNL A   1      45.912  25.725  36.447  1.00  0.00     0.019 A 
ATOM     18  O   UNL A   1      43.766  24.833  37.140  1.00  0.00    -0.475 OA
ATOM     19  C   UNL A   1      45.308  26.935  35.927  1.00  0.00     0.027 C 
ATOM     20  C   UNL A   1      43.079  25.886  36.393  1.00  0.00     0.316 C 
BRANCH  11  21
ATOM     21  C   UNL A   1      47.702  22.016  37.843  1.00  0.00     0.301 C 
BRANCH  21  22
ATOM     22  N   UNL A   1      47.465  20.810  37.038  1.00  0.00    -0.327 N 
ATOM     23  C   UNL A   1      49.340  20.456  35.461  1.00  0.00     0.075 C 
ATOM     24  C   UNL A   1      47.879  20.847  35.632  1.00  0.00     0.181 C 
ATOM     25  C   UNL A   1      46.954  19.847  34.940  1.00  0.00     0.071 C 
ATOM     26  C   UNL A   1      45.664  19.992  35.720  1.00  0.00     0.071 C 
ATOM     27  C   UNL A   1      46.141  20.193  37.152  1.00  0.00     0.181 C 
ATOM     28  H   UNL A   1      48.128  20.200  37.518  1.00  0.00     0.348 HD
ATOM     29  C   UNL A   1      46.262  18.873  37.913  1.00  0.00     0.075 C 
ENDBRANCH  21  22
ENDBRANCH  11  21
BRANCH  20  30
ATOM     30  C   UNL A   1      42.238  25.269  35.266  1.00  0.00     0.430 C 
ATOM     31  F   UNL A   1      42.852  25.387  34.065  1.00  0.00    -0.167 F 
ATOM     32  F   UNL A   1      42.032  23.945  35.469  1.00  0.00    -0.167 F 
ATOM     33  F   UNL A   1      41.023  25.854  35.164  1.00  0.00    -0.167 F 
ENDBRANCH  20  30
ENDBRANCH   8  10
ENDBRANCH   7   8
ENDBRANCH   6   7
ENDBRANCH   5   6
ENDBRANCH   4   5
ENDBRANCH   3   4
ENDBRANCH   2   3
ENDBRANCH   1   2
BRANCH   1  34
ATOM     34  C   UNL A   1      36.609  32.167  33.284  1.00  0.00     0.188 C 
BRANCH  34  35
ATOM     35  C   UNL A   1      35.873  31.834  31.965  1.00  0.00     0.188 C 
BRANCH  35  36
ATOM     36  O   UNL A   1      35.172  32.936  31.397  1.00  0.00    -0.376 OA
BRANCH  36  37
ATOM     37  C   UNL A   1      34.542  32.710  30.142  1.00  0.00     0.202 C 
BRANCH  37  38
ATOM     38  C   UNL A   1      35.427  31.954  29.148  1.00  0.00     0.261 C 
BRANCH  38  39
ATOM     39  O   UNL A   1      34.715  31.220  28.141  1.00  0.00    -0.460 OA
BRANCH  39  40
ATOM     40  C   UNL A   1      34.936  29.889  28.057  1.00  0.00     0.338 C 
ATOM     41  O   UNL A   1      34.187  29.038  27.614  1.00  0.00    -0.246 OA
BRANCH  40  42
ATOM     42  C   UNL A   1      36.351  29.666  28.415  1.00  0.00     0.060 A 
ATOM     43  C   UNL A   1      36.690  29.265  29.711  1.00  0.00     0.016 A 
ATOM     44  C   UNL A   1      37.345  29.919  27.463  1.00  0.00     0.016 A 
ATOM     45  C   UNL A   1      38.033  29.100  30.049  1.00  0.00     0.010 A 
ATOM     46  C   UNL A   1      38.690  29.765  27.807  1.00  0.00     0.010 A 
ATOM     47  C   UNL A   1      39.038  29.338  29.098  1.00  0.00    -0.014 A 
BRANCH  47  48
ATOM     48  C   UNL A   1      40.439  28.981  29.412  1.00  0.00     0.031 A 
ATOM     49  C   UNL A   1      41.056  27.699  28.952  1.00  0.00     0.074 A 
ATOM     50  C   UNL A   1      41.162  29.864  30.124  1.00  0.00     0.049 A 
ATOM     51  N   UNL A   1      42.289  27.283  29.095  1.00  0.00    -0.248 NA
ATOM     52  C   UNL A   1      40.176  26.760  28.245  1.00  0.00     0.031 C 
ATOM     53  C   UNL A   1      40.658  31.145  30.622  1.00  0.00     0.029 A 
ATOM     54  N   UNL A   1      42.466  29.826  30.543  1.00  0.00    -0.354 N 
ATOM     55  C   UNL A   1      42.348  26.047  28.469  1.00  0.00     0.074 A 
ATOM     56  C   UNL A   1      41.008  25.758  27.991  1.00  0.00     0.031 C 
ATOM     57  C   UNL A   1      41.650  31.783  31.259  1.00  0.00     0.029 A 
ATOM     58  C   UNL A   1      42.848  30.948  31.233  1.00  0.00     0.049 A 
ATOM     59  H   UNL A   1      43.070  29.069  30.364  1.00  0.00     0.167 HD
ATOM     60  C   UNL A   1      43.425  25.243  28.296  1.00  0.00     0.037 A 
ATOM     61  C   UNL A   1      44.033  31.272  31.778  1.00  0.00     0.037 A 
ATOM     62  C   UNL A   1      44.745  25.520  28.811  1.00  0.00     0.049 A 
ATOM     63  C   UNL A   1      45.189  30.326  31.643  1.00  0.00     0.074 A 
ATOM     64  C   UNL A   1      45.901  24.769  28.680  1.00  0.00     0.029 A 
ATOM     65  N   UNL A   1      45.083  26.633  29.571  1.00  0.00    -0.354 N 
ATOM     66  N   UNL A   1      45.247  29.178  31.014  1.00  0.00    -0.248 NA
ATOM     67  C   UNL A   1      46.445  30.725  32.289  1.00  0.00     0.031 C 
ATOM     68  C   UNL A   1      46.922  25.399  29.402  1.00  0.00     0.029 A 
ATOM     69  C   UNL A   1      46.419  26.572  29.942  1.00  0.00     0.049 A 
ATOM     70  H   UNL A   1      44.463  27.359  29.812  1.00  0.00     0.167 HD
ATOM     71  C   UNL A   1      46.546  28.719  31.179  1.00  0.00     0.074 A 
ATOM     72  C   UNL A   1      47.249  29.728  31.947  1.00  0.00     0.031 C 
ATOM     73  C   UNL A   1      47.102  27.565  30.733  1.00  0.00     0.037 A 
BRANCH  60  74
ATOM     74  C   UNL A   1      43.218  23.975  27.517  1.00  0.00     0.064 A 
ATOM     75  C   UNL A   1      42.744  22.807  28.135  1.00  0.00     0.173 A 
ATOM     76  C   UNL A   1      43.457  23.932  26.134  1.00  0.00     0.173 A 
ATOM     77  F   UNL A   1      42.506  22.792  29.455  1.00  0.00    -0.203 F 
ATOM     78  C   UNL A   1      42.543  21.638  27.405  1.00  0.00     0.198 A 
ATOM     79  C   UNL A   1      43.229  22.769  25.403  1.00  0.00     0.198 A 
ATOM     80  F   UNL A   1      43.902  25.021  25.491  1.00  0.00    -0.203 F 
ATOM     81  F   UNL A   1      42.131  20.525  28.026  1.00  0.00    -0.200 F 
ATOM     82  C   UNL A   1      42.780  21.621  26.039  1.00  0.00     0.200 A 
ATOM     83  F   UNL A   1      43.446  22.758  24.080  1.00  0.00    -0.200 F 
ATOM     84  F   UNL A   1      42.583  20.498  25.337  1.00  0.00    -0.200 F 
ENDBRANCH  60  74
BRANCH  61  85
ATOM     85  C   UNL A   1      44.179  32.583  32.456  1.00  0.00     0.064 A 
ATOM     86  C   UNL A   1      44.052  32.683  33.845  1.00  0.00     0.173 A 
ATOM     87  C   UNL A   1      44.516  33.741  31.739  1.00  0.00     0.173 A 
ATOM     88  F   UNL A   1      43.716  31.604  34.567  1.00  0.00    -0.203 F 
ATOM     89  C   UNL A   1      44.261  33.895  34.499  1.00  0.00     0.198 A 
ATOM     90  C   UNL A   1      44.747  34.947  32.396  1.00  0.00     0.198 A 
ATOM     91  F   UNL A   1      44.655  33.689  30.407  1.00  0.00    -0.203 F 
ATOM     92  F   UNL A   1      44.119  33.969  35.829  1.00  0.00    -0.200 F 
ATOM     93  C   UNL A   1      44.619  35.023  33.775  1.00  0.00     0.200 A 
ATOM     94  F   UNL A   1      45.110  36.030  31.695  1.00  0.00    -0.200 F 
ATOM     95  F   UNL A   1      44.843  36.183  34.407  1.00  0.00    -0.200 F 
ENDBRANCH  61  85
BRANCH  73  96
ATOM     96  C   UNL A   1      48.546  27.330  31.079  1.00  0.00     0.064 A 
ATOM     97  C   UNL A   1      49.582  27.782  30.246  1.00  0.00     0.173 A 
ATOM     98  C   UNL A   1      48.901  26.658  32.258  1.00  0.00     0.173 A 
ATOM     99  F   UNL A   1      49.296  28.415  29.098  1.00  0.00    -0.203 F 
ATOM    100  C   UNL A   1      50.916  27.541  30.564  1.00  0.00     0.198 A 
ATOM    101  C   UNL A   1      50.237  26.445  32.589  1.00  0.00     0.198 A 
ATOM    102  F   UNL A   1      47.952  26.207  33.093  1.00  0.00    -0.203 F 
ATOM    103  F   UNL A   1      51.885  27.933  29.725  1.00  0.00    -0.200 F 
ATOM    104  C   UNL A   1      51.243  26.878  31.737  1.00  0.00     0.200 A 
ATOM    105  F   UNL A   1      50.552  25.814  33.729  1.00  0.00    -0.200 F 
ATOM    106  F   UNL A   1      52.527  26.647  32.042  1.00  0.00    -0.200 F 
ENDBRANCH  73  96
ENDBRANCH  47  48
ENDBRANCH  40  42
ENDBRANCH  39  40
ENDBRANCH  38  39
ENDBRANCH  37  38
ENDBRANCH  36  37
ENDBRANCH  35  36
ENDBRANCH  34  35
ENDBRANCH   1  34
TORSDOF 23
ENDMDL
