MODEL 1
REMARK VINA RESULT:     -11.7      0.000      0.000
REMARK SMILES Cc1ccc(S(=O)(=O)Nc2cc(C(=O)OCCOCCOCCOCCOC(=O)c3ccc(-c4c5nc(c(-c6c(F)c(F)c(F)c(F)c6F)c6ccc([nH]6)c(-c6c(F)c(F)c(F)c(F)c6F)c6nc(c(-c7c(F)c(F)c(F)c(F)c7F)c7ccc4[nH]7)C=C6)C=C5)cc3)ccc2C)c(Br)c1
REMARK SMILES IDX 20 1 19 2 18 3 17 4 16 5 15 6 13 7 14 8 12 9 10 10 11 11
REMARK SMILES IDX 95 12 94 13 96 14 93 15 9 16 6 18 7 19 8 20 5 21 1 22 2 23
REMARK SMILES IDX 3 24 99 25 4 26 97 27 98 28 21 29 22 30 23 31 24 32 25 33
REMARK SMILES IDX 26 34 27 35 28 36 29 37 30 38 31 39 92 40 32 41 91 42 33 43
REMARK SMILES IDX 34 44 35 45 85 46 36 47 90 48 84 49 86 50 37 51 89 52 83 53
REMARK SMILES IDX 82 54 38 56 70 57 50 58 69 59 51 60 54 61 68 62 87 63 52 64
REMARK SMILES IDX 53 65 67 67 88 68 55 69 39 70 40 71 48 72 41 73 42 74 46 75
REMARK SMILES IDX 49 76 43 77 44 78 47 79 45 80 71 81 72 82 80 83 73 84 74 85
REMARK SMILES IDX 78 86 81 87 75 88 76 89 79 90 77 91 56 92 57 93 65 94 58 95
REMARK SMILES IDX 59 96 63 97 66 98 60 99 61 100 64 101 62 102
REMARK H PARENT 9 17 86 55 54 66
REMARK Flexibility Score: inf
ROOT
ATOM      1  C   UNL A   1      36.410  32.643  28.446  1.00  0.00     0.188 C 
ENDROOT
BRANCH   1   2
ATOM      2  C   UNL A   1      36.826  31.190  28.128  1.00  0.00     0.188 C 
BRANCH   2   3
ATOM      3  O   UNL A   1      36.002  30.324  27.374  1.00  0.00    -0.376 OA
BRANCH   3   4
ATOM      4  C   UNL A   1      34.700  30.076  27.873  1.00  0.00     0.202 C 
BRANCH   4   5
ATOM      5  C   UNL A   1      33.502  30.269  26.971  1.00  0.00     0.261 C 
BRANCH   5   6
ATOM      6  O   UNL A   1      33.192  29.004  26.410  1.00  0.00    -0.460 OA
BRANCH   6   7
ATOM      7  C   UNL A   1      32.252  29.088  25.458  1.00  0.00     0.338 C 
ATOM      8  O   UNL A   1      31.399  29.932  25.332  1.00  0.00    -0.246 OA
BRANCH   7   9
ATOM      9  C   UNL A   1      32.603  28.102  24.426  1.00  0.00     0.062 A 
ATOM     10  C   UNL A   1      32.730  25.858  23.578  1.00  0.00     0.053 A 
ATOM     11  C   UNL A   1      32.674  26.730  24.661  1.00  0.00     0.042 A 
ATOM     12  C   UNL A   1      32.884  26.385  22.279  1.00  0.00    -0.027 A 
ATOM     13  C   UNL A   1      33.072  27.769  22.112  1.00  0.00     0.006 A 
ATOM     14  C   UNL A   1      32.791  25.599  21.006  1.00  0.00     0.046 C 
ATOM     15  C   UNL A   1      32.899  28.629  23.176  1.00  0.00     0.016 A 
BRANCH  10  16
ATOM     16  N   UNL A   1      32.748  24.464  23.860  1.00  0.00    -0.279 N 
ATOM     17  H   UNL A   1      31.877  24.003  23.855  1.00  0.00     0.180 HD
BRANCH  16  18
ATOM     18  S   UNL A   1      34.107  23.511  24.206  1.00  0.00     0.263 S 
ATOM     19  O   UNL A   1      34.398  23.921  25.567  1.00  0.00    -0.201 OA
ATOM     20  O   UNL A   1      35.061  23.766  23.148  1.00  0.00    -0.201 OA
BRANCH  18  21
ATOM     21  C   UNL A   1      33.831  21.754  24.233  1.00  0.00     0.101 A 
ATOM     22  C   UNL A   1      33.140  17.484  24.544  1.00  0.00     0.044 C 
ATOM     23  C   UNL A   1      33.367  18.958  24.388  1.00  0.00    -0.050 A 
ATOM     24  C   UNL A   1      32.413  19.808  23.830  1.00  0.00     0.005 A 
ATOM     25  C   UNL A   1      34.575  19.508  24.813  1.00  0.00     0.020 A 
ATOM     26  C   UNL A   1      32.673  21.180  23.704  1.00  0.00     0.024 A 
ATOM     27  C   UNL A   1      34.822  20.887  24.720  1.00  0.00     0.038 A 
ATOM     28  Br  UNL A   1      36.618  21.381  25.113  1.00  0.00    -0.049 Br
ENDBRANCH  18  21
ENDBRANCH  16  18
ENDBRANCH  10  16
ENDBRANCH   7   9
ENDBRANCH   6   7
ENDBRANCH   5   6
ENDBRANCH   4   5
ENDBRANCH   3   4
ENDBRANCH   2   3
ENDBRANCH   1   2
BRANCH   1  29
ATOM     29  O   UNL A   1      35.555  33.349  27.567  1.00  0.00    -0.377 OA
BRANCH  29  30
ATOM     30  C   UNL A   1      34.731  34.365  28.131  1.00  0.00     0.188 C 
BRANCH  30  31
ATOM     31  C   UNL A   1      33.225  34.185  28.207  1.00  0.00     0.188 C 
BRANCH  31  32
ATOM     32  O   UNL A   1      32.797  34.648  29.484  1.00  0.00    -0.376 OA
BRANCH  32  33
ATOM     33  C   UNL A   1      32.816  36.060  29.651  1.00  0.00     0.202 C 
BRANCH  33  34
ATOM     34  C   UNL A   1      32.560  36.509  31.096  1.00  0.00     0.261 C 
BRANCH  34  35
ATOM     35  O   UNL A   1      33.811  36.894  31.702  1.00  0.00    -0.460 OA
BRANCH  35  36
ATOM     36  C   UNL A   1      34.029  36.425  32.962  1.00  0.00     0.338 C 
ATOM     37  O   UNL A   1      33.997  37.095  33.980  1.00  0.00    -0.246 OA
BRANCH  36  38
ATOM     38  C   UNL A   1      34.604  35.049  32.895  1.00  0.00     0.060 A 
ATOM     39  C   UNL A   1      34.706  34.253  34.049  1.00  0.00     0.016 A 
ATOM     40  C   UNL A   1      35.343  34.710  31.775  1.00  0.00     0.016 A 
ATOM     41  C   UNL A   1      35.686  33.246  34.137  1.00  0.00     0.010 A 
ATOM     42  C   UNL A   1      36.376  33.810  31.916  1.00  0.00     0.010 A 
ATOM     43  C   UNL A   1      36.601  33.095  33.103  1.00  0.00    -0.014 A 
BRANCH  43  44
ATOM     44  C   UNL A   1      37.868  32.328  33.152  1.00  0.00     0.031 A 
ATOM     45  C   UNL A   1      37.906  31.014  32.423  1.00  0.00     0.074 A 
ATOM     46  C   UNL A   1      39.013  32.984  33.496  1.00  0.00     0.049 A 
ATOM     47  N   UNL A   1      38.970  30.332  32.183  1.00  0.00    -0.248 NA
ATOM     48  C   UNL A   1      36.737  30.396  31.796  1.00  0.00     0.031 C 
ATOM     49  C   UNL A   1      40.396  32.687  33.098  1.00  0.00     0.029 A 
ATOM     50  N   UNL A   1      39.178  34.142  34.258  1.00  0.00    -0.354 N 
ATOM     51  C   UNL A   1      38.710  29.376  31.211  1.00  0.00     0.074 A 
ATOM     52  C   UNL A   1      37.290  29.465  31.007  1.00  0.00     0.031 C 
ATOM     53  C   UNL A   1      41.267  33.529  33.675  1.00  0.00     0.029 A 
ATOM     54  C   UNL A   1      40.519  34.234  34.682  1.00  0.00     0.049 A 
ATOM     55  H   UNL A   1      38.469  34.792  34.466  1.00  0.00     0.167 HD
ATOM     56  C   UNL A   1      39.778  28.715  30.658  1.00  0.00     0.037 A 
ATOM     57  C   UNL A   1      40.770  34.091  36.016  1.00  0.00     0.037 A 
ATOM     58  C   UNL A   1      40.987  29.049  31.420  1.00  0.00     0.049 A 
ATOM     59  C   UNL A   1      41.332  32.688  36.251  1.00  0.00     0.074 A 
ATOM     60  C   UNL A   1      42.152  29.708  31.093  1.00  0.00     0.029 A 
ATOM     61  N   UNL A   1      40.971  28.944  32.818  1.00  0.00    -0.354 N 
ATOM     62  N   UNL A   1      41.036  31.633  35.515  1.00  0.00    -0.248 NA
ATOM     63  C   UNL A   1      42.496  32.457  37.100  1.00  0.00     0.031 C 
ATOM     64  C   UNL A   1      42.729  30.151  32.305  1.00  0.00     0.029 A 
ATOM     65  C   UNL A   1      41.984  29.690  33.388  1.00  0.00     0.049 A 
ATOM     66  H   UNL A   1      40.321  28.408  33.328  1.00  0.00     0.167 HD
ATOM     67  C   UNL A   1      42.036  30.695  35.638  1.00  0.00     0.074 A 
ATOM     68  C   UNL A   1      42.892  31.241  36.685  1.00  0.00     0.031 C 
ATOM     69  C   UNL A   1      42.264  29.610  34.822  1.00  0.00     0.037 A 
BRANCH  56  70
ATOM     70  C   UNL A   1      39.853  27.916  29.346  1.00  0.00     0.064 A 
ATOM     71  C   UNL A   1      39.315  26.601  29.266  1.00  0.00     0.173 A 
ATOM     72  C   UNL A   1      40.487  28.329  28.159  1.00  0.00     0.173 A 
ATOM     73  F   UNL A   1      38.602  26.068  30.266  1.00  0.00    -0.203 F 
ATOM     74  C   UNL A   1      39.466  25.767  28.148  1.00  0.00     0.198 A 
ATOM     75  C   UNL A   1      40.607  27.507  27.024  1.00  0.00     0.198 A 
ATOM     76  F   UNL A   1      41.013  29.548  28.029  1.00  0.00    -0.203 F 
ATOM     77  F   UNL A   1      38.971  24.520  28.174  1.00  0.00    -0.200 F 
ATOM     78  C   UNL A   1      40.114  26.220  27.023  1.00  0.00     0.200 A 
ATOM     79  F   UNL A   1      41.211  27.980  25.924  1.00  0.00    -0.200 F 
ATOM     80  F   UNL A   1      40.243  25.435  25.946  1.00  0.00    -0.200 F 
ENDBRANCH  56  70
BRANCH  57  81
ATOM     81  C   UNL A   1      39.849  35.018  36.770  1.00  0.00     0.064 A 
ATOM     82  C   UNL A   1      38.935  34.319  37.607  1.00  0.00     0.173 A 
ATOM     83  C   UNL A   1      40.296  36.262  37.246  1.00  0.00     0.173 A 
ATOM     84  F   UNL A   1      38.426  33.147  37.194  1.00  0.00    -0.203 F 
ATOM     85  C   UNL A   1      38.756  34.671  38.947  1.00  0.00     0.198 A 
ATOM     86  C   UNL A   1      40.052  36.645  38.578  1.00  0.00     0.198 A 
ATOM     87  F   UNL A   1      41.137  37.004  36.513  1.00  0.00    -0.203 F 
ATOM     88  F   UNL A   1      38.119  33.837  39.783  1.00  0.00    -0.200 F 
ATOM     89  C   UNL A   1      39.364  35.806  39.445  1.00  0.00     0.200 A 
ATOM     90  F   UNL A   1      40.606  37.765  39.064  1.00  0.00    -0.200 F 
ATOM     91  F   UNL A   1      39.352  36.052  40.764  1.00  0.00    -0.200 F 
ENDBRANCH  57  81
BRANCH  69  92
ATOM     92  C   UNL A   1      42.937  28.332  35.300  1.00  0.00     0.064 A 
ATOM     93  C   UNL A   1      44.264  28.000  34.990  1.00  0.00     0.173 A 
ATOM     94  C   UNL A   1      42.320  27.491  36.267  1.00  0.00     0.173 A 
ATOM     95  F   UNL A   1      45.016  28.770  34.194  1.00  0.00    -0.203 F 
ATOM     96  C   UNL A   1      44.897  26.885  35.538  1.00  0.00     0.198 A 
ATOM     97  C   UNL A   1      42.983  26.428  36.872  1.00  0.00     0.198 A 
ATOM     98  F   UNL A   1      41.067  27.683  36.698  1.00  0.00    -0.203 F 
ATOM     99  F   UNL A   1      46.145  26.585  35.157  1.00  0.00    -0.200 F 
ATOM    100  C   UNL A   1      44.265  26.111  36.492  1.00  0.00     0.200 A 
ATOM    101  F   UNL A   1      42.373  25.734  37.843  1.00  0.00    -0.200 F 
ATOM    102  F   UNL A   1      44.899  25.078  37.059  1.00  0.00    -0.200 F 
ENDBRANCH  69  92
ENDBRANCH  43  44
ENDBRANCH  36  38
ENDBRANCH  35  36
ENDBRANCH  34  35
ENDBRANCH  33  34
ENDBRANCH  32  33
ENDBRANCH  31  32
ENDBRANCH  30  31
ENDBRANCH  29  30
ENDBRANCH   1  29
TORSDOF 23
ENDMDL
MODEL 2
REMARK VINA RESULT:     -10.9      4.976     10.759
REMARK SMILES Cc1ccc(S(=O)(=O)Nc2cc(C(=O)OCCOCCOCCOCCOC(=O)c3ccc(-c4c5nc(c(-c6c(F)c(F)c(F)c(F)c6F)c6ccc([nH]6)c(-c6c(F)c(F)c(F)c(F)c6F)c6nc(c(-c7c(F)c(F)c(F)c(F)c7F)c7ccc4[nH]7)C=C6)C=C5)cc3)ccc2C)c(Br)c1
REMARK SMILES IDX 20 1 19 2 18 3 17 4 16 5 15 6 13 7 14 8 12 9 10 10 11 11
REMARK SMILES IDX 95 12 94 13 96 14 93 15 9 16 6 18 7 19 8 20 5 21 1 22 2 23
REMARK SMILES IDX 3 24 99 25 4 26 97 27 98 28 21 29 22 30 23 31 24 32 25 33
REMARK SMILES IDX 26 34 27 35 28 36 29 37 30 38 31 39 92 40 32 41 91 42 33 43
REMARK SMILES IDX 34 44 35 45 85 46 36 47 90 48 84 49 86 50 37 51 89 52 83 53
REMARK SMILES IDX 82 54 38 56 70 57 50 58 69 59 51 60 54 61 68 62 87 63 52 64
REMARK SMILES IDX 53 65 67 67 88 68 55 69 39 70 40 71 48 72 41 73 42 74 46 75
REMARK SMILES IDX 49 76 43 77 44 78 47 79 45 80 71 81 72 82 80 83 73 84 74 85
REMARK SMILES IDX 78 86 81 87 75 88 76 89 79 90 77 91 56 92 57 93 65 94 58 95
REMARK SMILES IDX 59 96 63 97 66 98 60 99 61 100 64 101 62 102
REMARK H PARENT 9 17 86 55 54 66
REMARK Flexibility Score: inf
ROOT
ATOM      1  C   UNL A   1      43.527  19.481  25.805  1.00  0.00     0.188 C 
ENDROOT
BRANCH   1   2
ATOM      2  C   UNL A   1      42.114  18.904  26.040  1.00  0.00     0.188 C 
BRANCH   2   3
ATOM      3  O   UNL A   1      41.092  19.656  26.662  1.00  0.00    -0.376 OA
BRANCH   3   4
ATOM      4  C   UNL A   1      40.067  20.165  25.827  1.00  0.00     0.202 C 
BRANCH   4   5
ATOM      5  C   UNL A   1      39.317  21.413  26.236  1.00  0.00     0.261 C 
BRANCH   5   6
ATOM      6  O   UNL A   1      38.261  21.591  25.306  1.00  0.00    -0.460 OA
BRANCH   6   7
ATOM      7  C   UNL A   1      37.569  22.716  25.535  1.00  0.00     0.338 C 
ATOM      8  O   UNL A   1      37.999  23.803  25.833  1.00  0.00    -0.246 OA
BRANCH   7   9
ATOM      9  C   UNL A   1      36.189  22.461  25.099  1.00  0.00     0.062 A 
ATOM     10  C   UNL A   1      34.382  22.645  23.526  1.00  0.00     0.053 A 
ATOM     11  C   UNL A   1      35.572  23.142  24.050  1.00  0.00     0.042 A 
ATOM     12  C   UNL A   1      33.743  21.568  24.173  1.00  0.00    -0.027 A 
ATOM     13  C   UNL A   1      34.266  21.079  25.384  1.00  0.00     0.006 A 
ATOM     14  C   UNL A   1      32.559  20.816  23.645  1.00  0.00     0.046 C 
ATOM     15  C   UNL A   1      35.502  21.500  25.829  1.00  0.00     0.016 A 
BRANCH  10  16
ATOM     16  N   UNL A   1      33.814  23.339  22.422  1.00  0.00    -0.279 N 
ATOM     17  H   UNL A   1      34.050  23.008  21.525  1.00  0.00     0.180 HD
BRANCH  16  18
ATOM     18  S   UNL A   1      32.773  24.676  22.485  1.00  0.00     0.263 S 
ATOM     19  O   UNL A   1      31.527  24.043  22.874  1.00  0.00    -0.201 OA
ATOM     20  O   UNL A   1      32.886  25.340  21.205  1.00  0.00    -0.201 OA
BRANCH  18  21
ATOM     21  C   UNL A   1      33.155  25.892  23.727  1.00  0.00     0.101 A 
ATOM     22  C   UNL A   1      34.272  28.711  26.828  1.00  0.00     0.044 C 
ATOM     23  C   UNL A   1      33.860  27.772  25.734  1.00  0.00    -0.050 A 
ATOM     24  C   UNL A   1      34.040  28.070  24.383  1.00  0.00     0.005 A 
ATOM     25  C   UNL A   1      33.272  26.554  26.069  1.00  0.00     0.020 A 
ATOM     26  C   UNL A   1      33.637  27.160  23.396  1.00  0.00     0.024 A 
ATOM     27  C   UNL A   1      32.900  25.627  25.082  1.00  0.00     0.038 A 
ATOM     28  Br  UNL A   1      31.887  24.157  25.743  1.00  0.00    -0.049 Br
ENDBRANCH  18  21
ENDBRANCH  16  18
ENDBRANCH  10  16
ENDBRANCH   7   9
ENDBRANCH   6   7
ENDBRANCH   5   6
ENDBRANCH   4   5
ENDBRANCH   3   4
ENDBRANCH   2   3
ENDBRANCH   1   2
BRANCH   1  29
ATOM     29  O   UNL A   1      44.082  19.501  24.504  1.00  0.00    -0.377 OA
BRANCH  29  30
ATOM     30  C   UNL A   1      45.089  20.473  24.237  1.00  0.00     0.188 C 
BRANCH  30  31
ATOM     31  C   UNL A   1      44.747  21.952  24.206  1.00  0.00     0.188 C 
BRANCH  31  32
ATOM     32  O   UNL A   1      45.169  22.521  25.442  1.00  0.00    -0.376 OA
BRANCH  32  33
ATOM     33  C   UNL A   1      44.219  23.371  26.069  1.00  0.00     0.202 C 
BRANCH  33  34
ATOM     34  C   UNL A   1      42.774  22.864  25.956  1.00  0.00     0.261 C 
BRANCH  34  35
ATOM     35  O   UNL A   1      41.867  23.963  26.178  1.00  0.00    -0.460 OA
BRANCH  35  36
ATOM     36  C   UNL A   1      41.286  24.013  27.409  1.00  0.00     0.338 C 
ATOM     37  O   UNL A   1      41.100  23.056  28.140  1.00  0.00    -0.246 OA
BRANCH  36  38
ATOM     38  C   UNL A   1      40.640  25.344  27.607  1.00  0.00     0.060 A 
ATOM     39  C   UNL A   1      40.674  26.320  26.596  1.00  0.00     0.016 A 
ATOM     40  C   UNL A   1      40.322  25.724  28.900  1.00  0.00     0.016 A 
ATOM     41  C   UNL A   1      40.582  27.687  26.920  1.00  0.00     0.010 A 
ATOM     42  C   UNL A   1      40.358  27.062  29.219  1.00  0.00     0.010 A 
ATOM     43  C   UNL A   1      40.532  28.068  28.255  1.00  0.00    -0.014 A 
BRANCH  43  44
ATOM     44  C   UNL A   1      40.751  29.432  28.791  1.00  0.00     0.031 A 
ATOM     45  C   UNL A   1      39.562  30.350  28.843  1.00  0.00     0.074 A 
ATOM     46  C   UNL A   1      41.862  29.664  29.547  1.00  0.00     0.049 A 
ATOM     47  N   UNL A   1      39.521  31.473  29.467  1.00  0.00    -0.248 NA
ATOM     48  C   UNL A   1      38.254  30.022  28.273  1.00  0.00     0.031 C 
ATOM     49  C   UNL A   1      42.052  30.648  30.621  1.00  0.00     0.029 A 
ATOM     50  N   UNL A   1      43.087  28.995  29.553  1.00  0.00    -0.354 N 
ATOM     51  C   UNL A   1      38.205  31.889  29.610  1.00  0.00     0.074 A 
ATOM     52  C   UNL A   1      37.454  30.936  28.839  1.00  0.00     0.031 C 
ATOM     53  C   UNL A   1      43.303  30.613  31.106  1.00  0.00     0.029 A 
ATOM     54  C   UNL A   1      44.054  29.800  30.188  1.00  0.00     0.049 A 
ATOM     55  H   UNL A   1      43.249  28.101  29.173  1.00  0.00     0.167 HD
ATOM     56  C   UNL A   1      37.951  32.942  30.452  1.00  0.00     0.037 A 
ATOM     57  C   UNL A   1      45.061  30.303  29.417  1.00  0.00     0.037 A 
ATOM     58  C   UNL A   1      39.228  33.541  30.860  1.00  0.00     0.049 A 
ATOM     59  C   UNL A   1      44.763  31.778  29.142  1.00  0.00     0.074 A 
ATOM     60  C   UNL A   1      39.864  33.660  32.076  1.00  0.00     0.029 A 
ATOM     61  N   UNL A   1      40.179  33.867  29.882  1.00  0.00    -0.354 N 
ATOM     62  N   UNL A   1      43.550  32.293  29.068  1.00  0.00    -0.248 NA
ATOM     63  C   UNL A   1      45.791  32.807  29.265  1.00  0.00     0.031 C 
ATOM     64  C   UNL A   1      41.234  33.878  31.805  1.00  0.00     0.029 A 
ATOM     65  C   UNL A   1      41.440  33.991  30.432  1.00  0.00     0.049 A 
ATOM     66  H   UNL A   1      39.974  33.992  28.927  1.00  0.00     0.167 HD
ATOM     67  C   UNL A   1      43.612  33.645  29.319  1.00  0.00     0.074 A 
ATOM     68  C   UNL A   1      45.043  33.918  29.379  1.00  0.00     0.031 C 
ATOM     69  C   UNL A   1      42.564  34.482  29.635  1.00  0.00     0.037 A 
BRANCH  56  70
ATOM     70  C   UNL A   1      36.623  33.374  31.096  1.00  0.00     0.064 A 
ATOM     71  C   UNL A   1      35.606  33.992  30.316  1.00  0.00     0.173 A 
ATOM     72  C   UNL A   1      36.297  33.284  32.463  1.00  0.00     0.173 A 
ATOM     73  F   UNL A   1      35.698  34.089  28.984  1.00  0.00    -0.203 F 
ATOM     74  C   UNL A   1      34.429  34.530  30.860  1.00  0.00     0.198 A 
ATOM     75  C   UNL A   1      35.100  33.790  33.003  1.00  0.00     0.198 A 
ATOM     76  F   UNL A   1      37.107  32.695  33.343  1.00  0.00    -0.203 F 
ATOM     77  F   UNL A   1      33.544  35.142  30.059  1.00  0.00    -0.200 F 
ATOM     78  C   UNL A   1      34.175  34.429  32.207  1.00  0.00     0.200 A 
ATOM     79  F   UNL A   1      34.855  33.651  34.315  1.00  0.00    -0.200 F 
ATOM     80  F   UNL A   1      33.044  34.924  32.728  1.00  0.00    -0.200 F 
ENDBRANCH  56  70
BRANCH  57  81
ATOM     81  C   UNL A   1      45.665  29.166  28.630  1.00  0.00     0.064 A 
ATOM     82  C   UNL A   1      45.517  29.334  27.225  1.00  0.00     0.173 A 
ATOM     83  C   UNL A   1      46.842  28.530  29.056  1.00  0.00     0.173 A 
ATOM     84  F   UNL A   1      44.393  29.889  26.741  1.00  0.00    -0.203 F 
ATOM     85  C   UNL A   1      46.600  29.191  26.353  1.00  0.00     0.198 A 
ATOM     86  C   UNL A   1      47.906  28.323  28.157  1.00  0.00     0.198 A 
ATOM     87  F   UNL A   1      47.056  28.304  30.359  1.00  0.00    -0.203 F 
ATOM     88  F   UNL A   1      46.508  29.627  25.088  1.00  0.00    -0.200 F 
ATOM     89  C   UNL A   1      47.812  28.738  26.835  1.00  0.00     0.200 A 
ATOM     90  F   UNL A   1      49.078  27.848  28.605  1.00  0.00    -0.200 F 
ATOM     91  F   UNL A   1      48.902  28.773  26.054  1.00  0.00    -0.200 F 
ENDBRANCH  57  81
BRANCH  69  92
ATOM     92  C   UNL A   1      42.558  35.969  29.315  1.00  0.00     0.064 A 
ATOM     93  C   UNL A   1      43.308  36.912  30.035  1.00  0.00     0.173 A 
ATOM     94  C   UNL A   1      41.947  36.466  28.131  1.00  0.00     0.173 A 
ATOM     95  F   UNL A   1      44.042  36.566  31.099  1.00  0.00    -0.203 F 
ATOM     96  C   UNL A   1      43.381  38.250  29.648  1.00  0.00     0.198 A 
ATOM     97  C   UNL A   1      42.090  37.783  27.707  1.00  0.00     0.198 A 
ATOM     98  F   UNL A   1      41.219  35.695  27.314  1.00  0.00    -0.203 F 
ATOM     99  F   UNL A   1      44.062  39.116  30.410  1.00  0.00    -0.200 F 
ATOM    100  C   UNL A   1      42.789  38.681  28.477  1.00  0.00     0.200 A 
ATOM    101  F   UNL A   1      41.565  38.162  26.533  1.00  0.00    -0.200 F 
ATOM    102  F   UNL A   1      42.913  39.954  28.082  1.00  0.00    -0.200 F 
ENDBRANCH  69  92
ENDBRANCH  43  44
ENDBRANCH  36  38
ENDBRANCH  35  36
ENDBRANCH  34  35
ENDBRANCH  33  34
ENDBRANCH  32  33
ENDBRANCH  31  32
ENDBRANCH  30  31
ENDBRANCH  29  30
ENDBRANCH   1  29
TORSDOF 23
ENDMDL
MODEL 3
REMARK VINA RESULT:     -10.9      2.152      4.031
REMARK SMILES Cc1ccc(S(=O)(=O)Nc2cc(C(=O)OCCOCCOCCOCCOC(=O)c3ccc(-c4c5nc(c(-c6c(F)c(F)c(F)c(F)c6F)c6ccc([nH]6)c(-c6c(F)c(F)c(F)c(F)c6F)c6nc(c(-c7c(F)c(F)c(F)c(F)c7F)c7ccc4[nH]7)C=C6)C=C5)cc3)ccc2C)c(Br)c1
REMARK SMILES IDX 20 1 19 2 18 3 17 4 16 5 15 6 13 7 14 8 12 9 10 10 11 11
REMARK SMILES IDX 95 12 94 13 96 14 93 15 9 16 6 18 7 19 8 20 5 21 1 22 2 23
REMARK SMILES IDX 3 24 99 25 4 26 97 27 98 28 21 29 22 30 23 31 24 32 25 33
REMARK SMILES IDX 26 34 27 35 28 36 29 37 30 38 31 39 92 40 32 41 91 42 33 43
REMARK SMILES IDX 34 44 35 45 85 46 36 47 90 48 84 49 86 50 37 51 89 52 83 53
REMARK SMILES IDX 82 54 38 56 70 57 50 58 69 59 51 60 54 61 68 62 87 63 52 64
REMARK SMILES IDX 53 65 67 67 88 68 55 69 39 70 40 71 48 72 41 73 42 74 46 75
REMARK SMILES IDX 49 76 43 77 44 78 47 79 45 80 71 81 72 82 80 83 73 84 74 85
REMARK SMILES IDX 78 86 81 87 75 88 76 89 79 90 77 91 56 92 57 93 65 94 58 95
REMARK SMILES IDX 59 96 63 97 66 98 60 99 61 100 64 101 62 102
REMARK H PARENT 9 17 86 55 54 66
REMARK Flexibility Score: inf
ROOT
ATOM      1  C   UNL A   1      31.374  29.978  25.202  1.00  0.00     0.188 C 
ENDROOT
BRANCH   1   2
ATOM      2  C   UNL A   1      31.344  29.170  23.886  1.00  0.00     0.188 C 
BRANCH   2   3
ATOM      3  O   UNL A   1      32.528  28.799  23.209  1.00  0.00    -0.376 OA
BRANCH   3   4
ATOM      4  C   UNL A   1      32.679  27.429  22.881  1.00  0.00     0.202 C 
BRANCH   4   5
ATOM      5  C   UNL A   1      31.616  26.733  22.062  1.00  0.00     0.261 C 
BRANCH   5   6
ATOM      6  O   UNL A   1      31.931  25.350  22.054  1.00  0.00    -0.460 OA
BRANCH   6   7
ATOM      7  C   UNL A   1      31.343  24.690  23.062  1.00  0.00     0.338 C 
ATOM      8  O   UNL A   1      30.248  24.881  23.533  1.00  0.00    -0.246 OA
BRANCH   7   9
ATOM      9  C   UNL A   1      32.167  23.504  23.332  1.00  0.00     0.062 A 
ATOM     10  C   UNL A   1      33.917  22.347  24.503  1.00  0.00     0.053 A 
ATOM     11  C   UNL A   1      33.359  23.540  24.055  1.00  0.00     0.042 A 
ATOM     12  C   UNL A   1      33.359  21.125  24.076  1.00  0.00    -0.027 A 
ATOM     13  C   UNL A   1      32.314  21.132  23.133  1.00  0.00     0.006 A 
ATOM     14  C   UNL A   1      33.733  19.770  24.597  1.00  0.00     0.046 C 
ATOM     15  C   UNL A   1      31.697  22.316  22.788  1.00  0.00     0.016 A 
BRANCH  10  16
ATOM     16  N   UNL A   1      35.105  22.432  25.282  1.00  0.00    -0.279 N 
ATOM     17  H   UNL A   1      35.141  21.873  26.091  1.00  0.00     0.180 HD
BRANCH  16  18
ATOM     18  S   UNL A   1      36.464  23.394  24.964  1.00  0.00     0.263 S 
ATOM     19  O   UNL A   1      36.017  24.683  25.455  1.00  0.00    -0.201 OA
ATOM     20  O   UNL A   1      36.770  23.214  23.561  1.00  0.00    -0.201 OA
BRANCH  18  21
ATOM     21  C   UNL A   1      37.937  22.969  25.866  1.00  0.00     0.101 A 
ATOM     22  C   UNL A   1      41.650  21.931  27.853  1.00  0.00     0.044 C 
ATOM     23  C   UNL A   1      40.348  22.304  27.210  1.00  0.00    -0.050 A 
ATOM     24  C   UNL A   1      39.766  23.561  27.372  1.00  0.00     0.005 A 
ATOM     25  C   UNL A   1      39.686  21.365  26.421  1.00  0.00     0.020 A 
ATOM     26  C   UNL A   1      38.545  23.862  26.751  1.00  0.00     0.024 A 
ATOM     27  C   UNL A   1      38.482  21.678  25.770  1.00  0.00     0.038 A 
ATOM     28  Br  UNL A   1      37.625  20.181  24.964  1.00  0.00    -0.049 Br
ENDBRANCH  18  21
ENDBRANCH  16  18
ENDBRANCH  10  16
ENDBRANCH   7   9
ENDBRANCH   6   7
ENDBRANCH   5   6
ENDBRANCH   4   5
ENDBRANCH   3   4
ENDBRANCH   2   3
ENDBRANCH   1   2
BRANCH   1  29
ATOM     29  O   UNL A   1      32.585  30.134  25.916  1.00  0.00    -0.377 OA
BRANCH  29  30
ATOM     30  C   UNL A   1      32.619  31.124  26.940  1.00  0.00     0.188 C 
BRANCH  30  31
ATOM     31  C   UNL A   1      33.924  31.474  27.633  1.00  0.00     0.188 C 
BRANCH  31  32
ATOM     32  O   UNL A   1      34.106  32.883  27.527  1.00  0.00    -0.376 OA
BRANCH  32  33
ATOM     33  C   UNL A   1      32.956  33.663  27.823  1.00  0.00     0.202 C 
BRANCH  33  34
ATOM     34  C   UNL A   1      33.172  34.662  28.968  1.00  0.00     0.261 C 
BRANCH  34  35
ATOM     35  O   UNL A   1      34.495  34.481  29.512  1.00  0.00    -0.460 OA
BRANCH  35  36
ATOM     36  C   UNL A   1      34.552  34.006  30.787  1.00  0.00     0.338 C 
ATOM     37  O   UNL A   1      34.233  34.628  31.787  1.00  0.00    -0.246 OA
BRANCH  36  38
ATOM     38  C   UNL A   1      35.337  32.738  30.818  1.00  0.00     0.060 A 
ATOM     39  C   UNL A   1      35.298  31.892  31.940  1.00  0.00     0.016 A 
ATOM     40  C   UNL A   1      36.356  32.583  29.893  1.00  0.00     0.016 A 
ATOM     41  C   UNL A   1      36.379  31.036  32.226  1.00  0.00     0.010 A 
ATOM     42  C   UNL A   1      37.458  31.837  30.246  1.00  0.00     0.010 A 
ATOM     43  C   UNL A   1      37.517  31.088  31.432  1.00  0.00    -0.014 A 
BRANCH  43  44
ATOM     44  C   UNL A   1      38.844  30.513  31.755  1.00  0.00     0.031 A 
ATOM     45  C   UNL A   1      39.286  29.314  30.964  1.00  0.00     0.074 A 
ATOM     46  C   UNL A   1      39.739  31.284  32.437  1.00  0.00     0.049 A 
ATOM     47  N   UNL A   1      40.476  28.827  30.962  1.00  0.00    -0.248 NA
ATOM     48  C   UNL A   1      38.432  28.610  30.006  1.00  0.00     0.031 C 
ATOM     49  C   UNL A   1      41.206  31.241  32.396  1.00  0.00     0.029 A 
ATOM     50  N   UNL A   1      39.509  32.356  33.301  1.00  0.00    -0.354 N 
ATOM     51  C   UNL A   1      40.633  27.964  29.885  1.00  0.00     0.074 A 
ATOM     52  C   UNL A   1      39.314  27.869  29.322  1.00  0.00     0.031 C 
ATOM     53  C   UNL A   1      41.750  32.127  33.244  1.00  0.00     0.029 A 
ATOM     54  C   UNL A   1      40.667  32.592  34.069  1.00  0.00     0.049 A 
ATOM     55  H   UNL A   1      38.670  32.867  33.363  1.00  0.00     0.167 HD
ATOM     56  C   UNL A   1      41.901  27.536  29.585  1.00  0.00     0.037 A 
ATOM     57  C   UNL A   1      40.601  32.332  35.407  1.00  0.00     0.037 A 
ATOM     58  C   UNL A   1      42.809  27.950  30.662  1.00  0.00     0.049 A 
ATOM     59  C   UNL A   1      41.318  31.008  35.674  1.00  0.00     0.074 A 
ATOM     60  C   UNL A   1      43.887  28.806  30.704  1.00  0.00     0.029 A 
ATOM     61  N   UNL A   1      42.465  27.680  31.994  1.00  0.00    -0.354 N 
ATOM     62  N   UNL A   1      41.399  30.015  34.809  1.00  0.00    -0.248 NA
ATOM     63  C   UNL A   1      42.258  30.851  36.780  1.00  0.00     0.031 C 
ATOM     64  C   UNL A   1      44.062  29.183  32.055  1.00  0.00     0.029 A 
ATOM     65  C   UNL A   1      43.163  28.494  32.865  1.00  0.00     0.049 A 
ATOM     66  H   UNL A   1      41.811  26.999  32.272  1.00  0.00     0.167 HD
ATOM     67  C   UNL A   1      42.483  29.225  35.119  1.00  0.00     0.074 A 
ATOM     68  C   UNL A   1      42.946  29.763  36.393  1.00  0.00     0.031 C 
ATOM     69  C   UNL A   1      43.088  28.288  34.312  1.00  0.00     0.037 A 
BRANCH  56  70
ATOM     70  C   UNL A   1      42.435  26.916  28.283  1.00  0.00     0.064 A 
ATOM     71  C   UNL A   1      42.421  27.657  27.068  1.00  0.00     0.173 A 
ATOM     72  C   UNL A   1      42.904  25.598  28.123  1.00  0.00     0.173 A 
ATOM     73  F   UNL A   1      42.088  28.953  27.035  1.00  0.00    -0.203 F 
ATOM     74  C   UNL A   1      42.765  27.112  25.822  1.00  0.00     0.198 A 
ATOM     75  C   UNL A   1      43.285  25.061  26.879  1.00  0.00     0.198 A 
ATOM     76  F   UNL A   1      43.031  24.765  29.157  1.00  0.00    -0.203 F 
ATOM     77  F   UNL A   1      42.676  27.866  24.716  1.00  0.00    -0.200 F 
ATOM     78  C   UNL A   1      43.198  25.811  25.726  1.00  0.00     0.200 A 
ATOM     79  F   UNL A   1      43.738  23.801  26.813  1.00  0.00    -0.200 F 
ATOM     80  F   UNL A   1      43.547  25.291  24.541  1.00  0.00    -0.200 F 
ENDBRANCH  56  70
BRANCH  57  81
ATOM     81  C   UNL A   1      39.377  33.020  35.960  1.00  0.00     0.064 A 
ATOM     82  C   UNL A   1      38.429  32.103  36.494  1.00  0.00     0.173 A 
ATOM     83  C   UNL A   1      39.470  34.262  36.609  1.00  0.00     0.173 A 
ATOM     84  F   UNL A   1      38.249  30.915  35.893  1.00  0.00    -0.203 F 
ATOM     85  C   UNL A   1      37.876  32.281  37.765  1.00  0.00     0.198 A 
ATOM     86  C   UNL A   1      38.851  34.461  37.858  1.00  0.00     0.198 A 
ATOM     87  F   UNL A   1      40.316  35.198  36.161  1.00  0.00    -0.203 F 
ATOM     88  F   UNL A   1      37.216  31.275  38.359  1.00  0.00    -0.200 F 
ATOM     89  C   UNL A   1      38.136  33.440  38.469  1.00  0.00     0.200 A 
ATOM     90  F   UNL A   1      39.065  35.598  38.537  1.00  0.00    -0.200 F 
ATOM     91  F   UNL A   1      37.767  33.542  39.755  1.00  0.00    -0.200 F 
ENDBRANCH  57  81
BRANCH  69  92
ATOM     92  C   UNL A   1      43.830  27.075  34.852  1.00  0.00     0.064 A 
ATOM     93  C   UNL A   1      43.194  25.865  35.173  1.00  0.00     0.173 A 
ATOM     94  C   UNL A   1      45.251  27.028  34.873  1.00  0.00     0.173 A 
ATOM     95  F   UNL A   1      41.867  25.718  35.075  1.00  0.00    -0.203 F 
ATOM     96  C   UNL A   1      43.910  24.730  35.551  1.00  0.00     0.198 A 
ATOM     97  C   UNL A   1      45.962  25.870  35.172  1.00  0.00     0.198 A 
ATOM     98  F   UNL A   1      46.014  28.085  34.566  1.00  0.00    -0.203 F 
ATOM     99  F   UNL A   1      43.245  23.622  35.904  1.00  0.00    -0.200 F 
ATOM    100  C   UNL A   1      45.291  24.726  35.533  1.00  0.00     0.200 A 
ATOM    101  F   UNL A   1      47.299  25.872  35.081  1.00  0.00    -0.200 F 
ATOM    102  F   UNL A   1      45.972  23.615  35.839  1.00  0.00    -0.200 F 
ENDBRANCH  69  92
ENDBRANCH  43  44
ENDBRANCH  36  38
ENDBRANCH  35  36
ENDBRANCH  34  35
ENDBRANCH  33  34
ENDBRANCH  32  33
ENDBRANCH  31  32
ENDBRANCH  30  31
ENDBRANCH  29  30
ENDBRANCH   1  29
TORSDOF 23
ENDMDL
