MODEL 1
REMARK VINA RESULT:      -8.7      0.000      0.000
REMARK SMILES COc1cc2ccccc2cc1C(=O)Nc1cc(C(=O)OCCOCCOCCOCCOC(=O)c2ccc(-c3c4nc(c(-c5c(F)c(F)c(F)c(F)c5F)c5ccc([nH]5)c(-c5c(F)c(F)c(F)c(F)c5F)c5nc(c(-c6c(F)c(F)c(F)c(F)c6F)c6ccc3[nH]6)C=C5)C=C4)cc2)ccc1C
REMARK SMILES IDX 26 1 25 2 24 3 23 4 22 5 21 6 19 7 20 8 18 9 16 10 17 11
REMARK SMILES IDX 101 12 100 13 102 14 99 15 15 16 13 17 14 18 12 20 3 21 4 22
REMARK SMILES IDX 5 23 11 24 6 25 10 26 7 27 9 28 8 29 2 30 1 31 27 32 28 33
REMARK SMILES IDX 29 34 30 35 31 36 32 37 33 38 34 39 35 40 36 41 37 42 98 43
REMARK SMILES IDX 38 44 97 45 39 46 40 47 41 48 91 49 42 50 96 51 90 52 92 53
REMARK SMILES IDX 43 54 95 55 89 56 88 57 44 59 76 60 56 61 75 62 57 63 60 64
REMARK SMILES IDX 74 65 93 66 58 67 59 68 73 70 94 71 61 72 45 73 46 74 54 75
REMARK SMILES IDX 47 76 48 77 52 78 55 79 49 80 50 81 53 82 51 83 77 84 78 85
REMARK SMILES IDX 86 86 79 87 80 88 84 89 87 90 81 91 82 92 85 93 83 94 62 95
REMARK SMILES IDX 63 96 71 97 64 98 65 99 69 100 72 101 66 102 67 103 70 104
REMARK SMILES IDX 68 105
REMARK H PARENT 15 19 92 58 60 69
REMARK Flexibility Score: inf
ROOT
ATOM      1  C   UNL A   1      38.710  33.867  29.437  1.00  0.00     0.188 C 
ENDROOT
BRANCH   1   2
ATOM      2  C   UNL A   1      37.262  33.470  29.123  1.00  0.00     0.188 C 
BRANCH   2   3
ATOM      3  O   UNL A   1      36.253  34.446  28.913  1.00  0.00    -0.376 OA
BRANCH   3   4
ATOM      4  C   UNL A   1      34.959  34.132  29.429  1.00  0.00     0.202 C 
BRANCH   4   5
ATOM      5  C   UNL A   1      34.764  32.723  29.995  1.00  0.00     0.261 C 
BRANCH   5   6
ATOM      6  O   UNL A   1      34.090  32.776  31.254  1.00  0.00    -0.460 OA
BRANCH   6   7
ATOM      7  C   UNL A   1      34.651  33.607  32.152  1.00  0.00     0.338 C 
ATOM      8  O   UNL A   1      34.134  34.544  32.725  1.00  0.00    -0.246 OA
BRANCH   7   9
ATOM      9  C   UNL A   1      35.886  32.939  32.614  1.00  0.00     0.062 A 
ATOM     10  C   UNL A   1      37.202  30.996  33.112  1.00  0.00     0.045 A 
ATOM     11  C   UNL A   1      35.955  31.579  32.930  1.00  0.00     0.042 A 
ATOM     12  C   UNL A   1      38.340  31.832  33.233  1.00  0.00    -0.027 A 
ATOM     13  C   UNL A   1      38.200  33.227  33.160  1.00  0.00     0.006 A 
ATOM     14  C   UNL A   1      39.757  31.327  33.151  1.00  0.00     0.046 C 
ATOM     15  C   UNL A   1      36.988  33.774  32.792  1.00  0.00     0.016 A 
BRANCH  10  16
ATOM     16  N   UNL A   1      37.404  29.612  33.123  1.00  0.00    -0.322 N 
ATOM     17  C   UNL A   1      37.768  28.637  32.227  1.00  0.00     0.259 C 
ATOM     18  O   UNL A   1      37.773  27.495  32.712  1.00  0.00    -0.269 OA
ATOM     19  H   UNL A   1      37.243  29.233  34.017  1.00  0.00     0.170 HD
BRANCH  17  20
ATOM     20  C   UNL A   1      38.217  28.774  30.807  1.00  0.00     0.082 A 
ATOM     21  C   UNL A   1      37.503  29.207  29.686  1.00  0.00     0.132 A 
ATOM     22  C   UNL A   1      38.076  29.123  28.411  1.00  0.00     0.056 A 
ATOM     23  C   UNL A   1      39.410  28.763  28.221  1.00  0.00    -0.015 A 
ATOM     24  C   UNL A   1      39.587  28.457  30.607  1.00  0.00     0.026 A 
ATOM     25  C   UNL A   1      39.973  28.727  26.941  1.00  0.00     0.009 A 
ATOM     26  C   UNL A   1      40.200  28.467  29.339  1.00  0.00    -0.017 A 
ATOM     27  C   UNL A   1      41.324  28.433  26.769  1.00  0.00     0.001 A 
ATOM     28  C   UNL A   1      41.566  28.188  29.154  1.00  0.00     0.009 A 
ATOM     29  C   UNL A   1      42.125  28.173  27.874  1.00  0.00     0.001 A 
BRANCH  21  30
ATOM     30  O   UNL A   1      36.220  29.662  29.643  1.00  0.00    -0.496 OA
ATOM     31  C   UNL A   1      35.643  29.701  28.345  1.00  0.00     0.278 C 
ENDBRANCH  21  30
ENDBRANCH  17  20
ENDBRANCH  10  16
ENDBRANCH   7   9
ENDBRANCH   6   7
ENDBRANCH   5   6
ENDBRANCH   4   5
ENDBRANCH   3   4
ENDBRANCH   2   3
ENDBRANCH   1   2
BRANCH   1  32
ATOM     32  O   UNL A   1      39.519  32.892  30.083  1.00  0.00    -0.377 OA
BRANCH  32  33
ATOM     33  C   UNL A   1      40.859  33.360  30.251  1.00  0.00     0.188 C 
BRANCH  33  34
ATOM     34  C   UNL A   1      40.904  34.340  31.403  1.00  0.00     0.188 C 
BRANCH  34  35
ATOM     35  O   UNL A   1      42.165  34.581  32.010  1.00  0.00    -0.376 OA
BRANCH  35  36
ATOM     36  C   UNL A   1      42.469  33.968  33.257  1.00  0.00     0.202 C 
BRANCH  36  37
ATOM     37  C   UNL A   1      41.599  34.417  34.436  1.00  0.00     0.261 C 
BRANCH  37  38
ATOM     38  O   UNL A   1      41.114  33.247  35.126  1.00  0.00    -0.460 OA
BRANCH  38  39
ATOM     39  C   UNL A   1      41.677  33.006  36.342  1.00  0.00     0.338 C 
ATOM     40  O   UNL A   1      41.880  33.850  37.200  1.00  0.00    -0.246 OA
BRANCH  39  41
ATOM     41  C   UNL A   1      42.349  31.664  36.321  1.00  0.00     0.060 A 
ATOM     42  C   UNL A   1      43.753  31.618  36.255  1.00  0.00     0.016 A 
ATOM     43  C   UNL A   1      41.611  30.553  35.925  1.00  0.00     0.016 A 
ATOM     44  C   UNL A   1      44.399  30.562  35.587  1.00  0.00     0.010 A 
ATOM     45  C   UNL A   1      42.247  29.568  35.184  1.00  0.00     0.010 A 
ATOM     46  C   UNL A   1      43.637  29.593  34.935  1.00  0.00    -0.014 A 
BRANCH  46  47
ATOM     47  C   UNL A   1      44.100  28.768  33.781  1.00  0.00     0.031 A 
ATOM     48  C   UNL A   1      44.003  29.355  32.392  1.00  0.00     0.074 A 
ATOM     49  C   UNL A   1      44.936  27.719  34.031  1.00  0.00     0.049 A 
ATOM     50  N   UNL A   1      44.583  28.901  31.331  1.00  0.00    -0.248 NA
ATOM     51  C   UNL A   1      43.208  30.548  32.087  1.00  0.00     0.031 C 
ATOM     52  C   UNL A   1      46.065  27.283  33.210  1.00  0.00     0.029 A 
ATOM     53  N   UNL A   1      45.033  26.853  35.135  1.00  0.00    -0.354 N 
ATOM     54  C   UNL A   1      44.483  29.841  30.311  1.00  0.00     0.074 A 
ATOM     55  C   UNL A   1      43.564  30.821  30.826  1.00  0.00     0.031 C 
ATOM     56  C   UNL A   1      46.669  26.210  33.730  1.00  0.00     0.029 A 
ATOM     57  C   UNL A   1      45.769  25.703  34.710  1.00  0.00     0.049 A 
ATOM     58  H   UNL A   1      44.663  27.008  36.033  1.00  0.00     0.167 HD
ATOM     59  C   UNL A   1      45.260  29.706  29.186  1.00  0.00     0.037 A 
ATOM     60  C   UNL A   1      45.133  24.505  34.533  1.00  0.00     0.037 A 
ATOM     61  C   UNL A   1      45.851  28.355  29.104  1.00  0.00     0.049 A 
ATOM     62  C   UNL A   1      44.796  24.190  33.058  1.00  0.00     0.074 A 
ATOM     63  C   UNL A   1      47.092  27.799  28.839  1.00  0.00     0.029 A 
ATOM     64  N   UNL A   1      45.056  27.281  29.482  1.00  0.00    -0.354 N 
ATOM     65  N   UNL A   1      45.256  24.844  32.012  1.00  0.00    -0.248 NA
ATOM     66  C   UNL A   1      43.854  23.147  32.657  1.00  0.00     0.031 C 
ATOM     67  C   UNL A   1      47.011  26.387  29.065  1.00  0.00     0.029 A 
ATOM     68  C   UNL A   1      45.720  26.080  29.453  1.00  0.00     0.049 A 
ATOM     69  H   UNL A   1      44.112  27.371  29.742  1.00  0.00     0.167 HD
ATOM     70  C   UNL A   1      44.667  24.385  30.856  1.00  0.00     0.074 A 
ATOM     71  C   UNL A   1      43.786  23.327  31.324  1.00  0.00     0.031 C 
ATOM     72  C   UNL A   1      44.899  24.890  29.598  1.00  0.00     0.037 A 
BRANCH  59  73
ATOM     73  C   UNL A   1      45.608  30.814  28.173  1.00  0.00     0.064 A 
ATOM     74  C   UNL A   1      46.848  31.501  28.243  1.00  0.00     0.173 A 
ATOM     75  C   UNL A   1      44.734  31.335  27.192  1.00  0.00     0.173 A 
ATOM     76  F   UNL A   1      47.820  31.106  29.073  1.00  0.00    -0.203 F 
ATOM     77  C   UNL A   1      47.152  32.626  27.458  1.00  0.00     0.198 A 
ATOM     78  C   UNL A   1      45.068  32.416  26.359  1.00  0.00     0.198 A 
ATOM     79  F   UNL A   1      43.499  30.856  27.016  1.00  0.00    -0.203 F 
ATOM     80  F   UNL A   1      48.316  33.269  27.635  1.00  0.00    -0.200 F 
ATOM     81  C   UNL A   1      46.265  33.079  26.508  1.00  0.00     0.200 A 
ATOM     82  F   UNL A   1      44.199  32.824  25.420  1.00  0.00    -0.200 F 
ATOM     83  F   UNL A   1      46.559  34.141  25.744  1.00  0.00    -0.200 F 
ENDBRANCH  59  73
BRANCH  60  84
ATOM     84  C   UNL A   1      44.432  24.179  35.825  1.00  0.00     0.064 A 
ATOM     85  C   UNL A   1      45.338  23.952  36.898  1.00  0.00     0.173 A 
ATOM     86  C   UNL A   1      43.243  24.854  36.128  1.00  0.00     0.173 A 
ATOM     87  F   UNL A   1      46.475  23.271  36.675  1.00  0.00    -0.203 F 
ATOM     88  C   UNL A   1      45.244  24.696  38.075  1.00  0.00     0.198 A 
ATOM     89  C   UNL A   1      43.124  25.545  37.340  1.00  0.00     0.198 A 
ATOM     90  F   UNL A   1      42.317  25.045  35.178  1.00  0.00    -0.203 F 
ATOM     91  F   UNL A   1      46.278  24.731  38.929  1.00  0.00    -0.200 F 
ATOM     92  C   UNL A   1      44.161  25.534  38.268  1.00  0.00     0.200 A 
ATOM     93  F   UNL A   1      42.077  26.359  37.541  1.00  0.00    -0.200 F 
ATOM     94  F   UNL A   1      44.159  26.401  39.291  1.00  0.00    -0.200 F 
ENDBRANCH  60  84
BRANCH  72  95
ATOM     95  C   UNL A   1      44.296  24.357  28.309  1.00  0.00     0.064 A 
ATOM     96  C   UNL A   1      45.061  23.765  27.299  1.00  0.00     0.173 A 
ATOM     97  C   UNL A   1      42.929  24.567  27.981  1.00  0.00     0.173 A 
ATOM     98  F   UNL A   1      46.374  23.576  27.454  1.00  0.00    -0.203 F 
ATOM     99  C   UNL A   1      44.508  23.371  26.078  1.00  0.00     0.198 A 
ATOM    100  C   UNL A   1      42.387  24.213  26.747  1.00  0.00     0.198 A 
ATOM    101  F   UNL A   1      42.062  25.107  28.849  1.00  0.00    -0.203 F 
ATOM    102  F   UNL A   1      45.286  22.774  25.166  1.00  0.00    -0.200 F 
ATOM    103  C   UNL A   1      43.175  23.600  25.799  1.00  0.00     0.200 A 
ATOM    104  F   UNL A   1      41.095  24.468  26.489  1.00  0.00    -0.200 F 
ATOM    105  F   UNL A   1      42.652  23.232  24.622  1.00  0.00    -0.200 F 
ENDBRANCH  72  95
ENDBRANCH  46  47
ENDBRANCH  39  41
ENDBRANCH  38  39
ENDBRANCH  37  38
ENDBRANCH  36  37
ENDBRANCH  35  36
ENDBRANCH  34  35
ENDBRANCH  33  34
ENDBRANCH  32  33
ENDBRANCH   1  32
TORSDOF 23
ENDMDL
MODEL 2
REMARK VINA RESULT:      -8.6      4.219      8.739
REMARK SMILES COc1cc2ccccc2cc1C(=O)Nc1cc(C(=O)OCCOCCOCCOCCOC(=O)c2ccc(-c3c4nc(c(-c5c(F)c(F)c(F)c(F)c5F)c5ccc([nH]5)c(-c5c(F)c(F)c(F)c(F)c5F)c5nc(c(-c6c(F)c(F)c(F)c(F)c6F)c6ccc3[nH]6)C=C5)C=C4)cc2)ccc1C
REMARK SMILES IDX 26 1 25 2 24 3 23 4 22 5 21 6 19 7 20 8 18 9 16 10 17 11
REMARK SMILES IDX 101 12 100 13 102 14 99 15 15 16 13 17 14 18 12 20 3 21 4 22
REMARK SMILES IDX 5 23 11 24 6 25 10 26 7 27 9 28 8 29 2 30 1 31 27 32 28 33
REMARK SMILES IDX 29 34 30 35 31 36 32 37 33 38 34 39 35 40 36 41 37 42 98 43
REMARK SMILES IDX 38 44 97 45 39 46 40 47 41 48 91 49 42 50 96 51 90 52 92 53
REMARK SMILES IDX 43 54 95 55 89 56 88 57 44 59 76 60 56 61 75 62 57 63 60 64
REMARK SMILES IDX 74 65 93 66 58 67 59 68 73 70 94 71 61 72 45 73 46 74 54 75
REMARK SMILES IDX 47 76 48 77 52 78 55 79 49 80 50 81 53 82 51 83 77 84 78 85
REMARK SMILES IDX 86 86 79 87 80 88 84 89 87 90 81 91 82 92 85 93 83 94 62 95
REMARK SMILES IDX 63 96 71 97 64 98 65 99 69 100 72 101 66 102 67 103 70 104
REMARK SMILES IDX 68 105
REMARK H PARENT 15 19 92 58 60 69
REMARK Flexibility Score: inf
ROOT
ATOM      1  C   UNL A   1      34.454  33.071  28.941  1.00  0.00     0.188 C 
ENDROOT
BRANCH   1   2
ATOM      2  C   UNL A   1      35.343  31.821  28.953  1.00  0.00     0.188 C 
BRANCH   2   3
ATOM      3  O   UNL A   1      36.241  31.538  27.891  1.00  0.00    -0.376 OA
BRANCH   3   4
ATOM      4  C   UNL A   1      36.463  30.156  27.609  1.00  0.00     0.202 C 
BRANCH   4   5
ATOM      5  C   UNL A   1      35.229  29.251  27.572  1.00  0.00     0.261 C 
BRANCH   5   6
ATOM      6  O   UNL A   1      34.469  29.485  26.385  1.00  0.00    -0.460 OA
BRANCH   6   7
ATOM      7  C   UNL A   1      33.180  29.807  26.602  1.00  0.00     0.338 C 
ATOM      8  O   UNL A   1      32.719  30.451  27.521  1.00  0.00    -0.246 OA
BRANCH   7   9
ATOM      9  C   UNL A   1      32.479  29.580  25.321  1.00  0.00     0.062 A 
ATOM     10  C   UNL A   1      32.242  28.538  23.174  1.00  0.00     0.045 A 
ATOM     11  C   UNL A   1      33.055  28.919  24.232  1.00  0.00     0.042 A 
ATOM     12  C   UNL A   1      30.923  29.050  23.101  1.00  0.00    -0.027 A 
ATOM     13  C   UNL A   1      30.452  29.924  24.093  1.00  0.00     0.006 A 
ATOM     14  C   UNL A   1      29.866  28.503  22.177  1.00  0.00     0.046 C 
ATOM     15  C   UNL A   1      31.205  30.139  25.229  1.00  0.00     0.016 A 
BRANCH  10  16
ATOM     16  N   UNL A   1      32.639  27.617  22.198  1.00  0.00    -0.322 N 
ATOM     17  C   UNL A   1      33.171  26.352  22.160  1.00  0.00     0.259 C 
ATOM     18  O   UNL A   1      33.402  25.945  21.010  1.00  0.00    -0.269 OA
ATOM     19  H   UNL A   1      32.500  27.973  21.291  1.00  0.00     0.170 HD
BRANCH  17  20
ATOM     20  C   UNL A   1      33.432  25.398  23.282  1.00  0.00     0.082 A 
ATOM     21  C   UNL A   1      32.725  25.210  24.473  1.00  0.00     0.132 A 
ATOM     22  C   UNL A   1      33.227  24.354  25.461  1.00  0.00     0.056 A 
ATOM     23  C   UNL A   1      34.343  23.546  25.244  1.00  0.00    -0.015 A 
ATOM     24  C   UNL A   1      34.537  24.534  23.053  1.00  0.00     0.026 A 
ATOM     25  C   UNL A   1      34.801  22.667  26.231  1.00  0.00     0.009 A 
ATOM     26  C   UNL A   1      34.989  23.598  24.002  1.00  0.00    -0.017 A 
ATOM     27  C   UNL A   1      35.875  21.815  25.978  1.00  0.00     0.001 A 
ATOM     28  C   UNL A   1      36.061  22.721  23.753  1.00  0.00     0.009 A 
ATOM     29  C   UNL A   1      36.499  21.833  24.738  1.00  0.00     0.001 A 
BRANCH  21  30
ATOM     30  O   UNL A   1      31.581  25.835  24.868  1.00  0.00    -0.496 OA
ATOM     31  C   UNL A   1      31.160  25.530  26.190  1.00  0.00     0.278 C 
ENDBRANCH  21  30
ENDBRANCH  17  20
ENDBRANCH  10  16
ENDBRANCH   7   9
ENDBRANCH   6   7
ENDBRANCH   5   6
ENDBRANCH   4   5
ENDBRANCH   3   4
ENDBRANCH   2   3
ENDBRANCH   1   2
BRANCH   1  32
ATOM     32  O   UNL A   1      35.073  34.305  29.284  1.00  0.00    -0.377 OA
BRANCH  32  33
ATOM     33  C   UNL A   1      35.902  34.165  30.440  1.00  0.00     0.188 C 
BRANCH  33  34
ATOM     34  C   UNL A   1      35.036  34.188  31.680  1.00  0.00     0.188 C 
BRANCH  34  35
ATOM     35  O   UNL A   1      35.564  34.817  32.838  1.00  0.00    -0.376 OA
BRANCH  35  36
ATOM     36  C   UNL A   1      36.839  34.421  33.328  1.00  0.00     0.202 C 
BRANCH  36  37
ATOM     37  C   UNL A   1      36.956  32.947  33.733  1.00  0.00     0.261 C 
BRANCH  37  38
ATOM     38  O   UNL A   1      38.017  32.338  32.969  1.00  0.00    -0.460 OA
BRANCH  38  39
ATOM     39  C   UNL A   1      39.232  32.291  33.584  1.00  0.00     0.338 C 
ATOM     40  O   UNL A   1      39.404  32.228  34.789  1.00  0.00    -0.246 OA
BRANCH  39  41
ATOM     41  C   UNL A   1      40.296  32.711  32.612  1.00  0.00     0.060 A 
ATOM     42  C   UNL A   1      39.931  32.935  31.273  1.00  0.00     0.016 A 
ATOM     43  C   UNL A   1      41.626  32.444  32.921  1.00  0.00     0.016 A 
ATOM     44  C   UNL A   1      40.841  32.668  30.234  1.00  0.00     0.010 A 
ATOM     45  C   UNL A   1      42.484  32.090  31.891  1.00  0.00     0.010 A 
ATOM     46  C   UNL A   1      42.087  32.120  30.536  1.00  0.00    -0.014 A 
BRANCH  46  47
ATOM     47  C   UNL A   1      42.915  31.301  29.603  1.00  0.00     0.031 A 
ATOM     48  C   UNL A   1      42.758  29.798  29.632  1.00  0.00     0.074 A 
ATOM     49  C   UNL A   1      43.465  31.917  28.517  1.00  0.00     0.049 A 
ATOM     50  N   UNL A   1      43.188  28.970  28.740  1.00  0.00    -0.248 NA
ATOM     51  C   UNL A   1      42.077  29.091  30.720  1.00  0.00     0.031 C 
ATOM     52  C   UNL A   1      43.610  31.360  27.173  1.00  0.00     0.029 A 
ATOM     53  N   UNL A   1      43.938  33.229  28.336  1.00  0.00    -0.354 N 
ATOM     54  C   UNL A   1      42.631  27.716  28.965  1.00  0.00     0.074 A 
ATOM     55  C   UNL A   1      41.993  27.842  30.248  1.00  0.00     0.031 C 
ATOM     56  C   UNL A   1      44.208  32.220  26.342  1.00  0.00     0.029 A 
ATOM     57  C   UNL A   1      44.777  33.223  27.178  1.00  0.00     0.049 A 
ATOM     58  H   UNL A   1      43.731  34.008  28.901  1.00  0.00     0.167 HD
ATOM     59  C   UNL A   1      42.715  26.750  27.991  1.00  0.00     0.037 A 
ATOM     60  C   UNL A   1      46.133  33.347  27.309  1.00  0.00     0.037 A 
ATOM     61  C   UNL A   1      43.709  27.117  26.961  1.00  0.00     0.049 A 
ATOM     62  C   UNL A   1      46.893  32.004  27.228  1.00  0.00     0.074 A 
ATOM     63  C   UNL A   1      43.785  27.135  25.578  1.00  0.00     0.029 A 
ATOM     64  N   UNL A   1      44.885  27.720  27.387  1.00  0.00    -0.354 N 
ATOM     65  N   UNL A   1      46.379  30.857  26.835  1.00  0.00    -0.248 NA
ATOM     66  C   UNL A   1      48.282  31.843  27.651  1.00  0.00     0.031 C 
ATOM     67  C   UNL A   1      45.021  27.753  25.202  1.00  0.00     0.029 A 
ATOM     68  C   UNL A   1      45.703  28.100  26.353  1.00  0.00     0.049 A 
ATOM     69  H   UNL A   1      45.109  27.859  28.334  1.00  0.00     0.167 HD
ATOM     70  C   UNL A   1      47.290  29.838  26.994  1.00  0.00     0.074 A 
ATOM     71  C   UNL A   1      48.464  30.515  27.522  1.00  0.00     0.031 C 
ATOM     72  C   UNL A   1      47.048  28.513  26.717  1.00  0.00     0.037 A 
BRANCH  59  73
ATOM     73  C   UNL A   1      41.833  25.494  27.866  1.00  0.00     0.064 A 
ATOM     74  C   UNL A   1      42.374  24.199  28.080  1.00  0.00     0.173 A 
ATOM     75  C   UNL A   1      40.491  25.473  27.424  1.00  0.00     0.173 A 
ATOM     76  F   UNL A   1      43.613  24.030  28.558  1.00  0.00    -0.203 F 
ATOM     77  C   UNL A   1      41.667  23.014  27.819  1.00  0.00     0.198 A 
ATOM     78  C   UNL A   1      39.761  24.287  27.231  1.00  0.00     0.198 A 
ATOM     79  F   UNL A   1      39.828  26.591  27.114  1.00  0.00    -0.203 F 
ATOM     80  F   UNL A   1      42.272  21.827  27.974  1.00  0.00    -0.200 F 
ATOM     81  C   UNL A   1      40.356  23.057  27.403  1.00  0.00     0.200 A 
ATOM     82  F   UNL A   1      38.476  24.352  26.851  1.00  0.00    -0.200 F 
ATOM     83  F   UNL A   1      39.671  21.928  27.170  1.00  0.00    -0.200 F 
ENDBRANCH  59  73
BRANCH  60  84
ATOM     84  C   UNL A   1      46.390  34.612  28.085  1.00  0.00     0.064 A 
ATOM     85  C   UNL A   1      45.914  35.773  27.413  1.00  0.00     0.173 A 
ATOM     86  C   UNL A   1      46.251  34.581  29.477  1.00  0.00     0.173 A 
ATOM     87  F   UNL A   1      46.061  35.877  26.082  1.00  0.00    -0.203 F 
ATOM     88  C   UNL A   1      45.013  36.634  28.040  1.00  0.00     0.198 A 
ATOM     89  C   UNL A   1      45.398  35.491  30.113  1.00  0.00     0.198 A 
ATOM     90  F   UNL A   1      46.736  33.546  30.179  1.00  0.00    -0.203 F 
ATOM     91  F   UNL A   1      44.311  37.515  27.310  1.00  0.00    -0.200 F 
ATOM     92  C   UNL A   1      44.715  36.455  29.378  1.00  0.00     0.200 A 
ATOM     93  F   UNL A   1      45.103  35.330  31.412  1.00  0.00    -0.200 F 
ATOM     94  F   UNL A   1      43.707  37.140  29.938  1.00  0.00    -0.200 F 
ENDBRANCH  60  84
BRANCH  72  95
ATOM     95  C   UNL A   1      48.061  27.387  26.840  1.00  0.00     0.064 A 
ATOM     96  C   UNL A   1      48.294  26.701  28.036  1.00  0.00     0.173 A 
ATOM     97  C   UNL A   1      48.949  27.061  25.779  1.00  0.00     0.173 A 
ATOM     98  F   UNL A   1      47.575  26.965  29.130  1.00  0.00    -0.203 F 
ATOM     99  C   UNL A   1      49.297  25.737  28.160  1.00  0.00     0.198 A 
ATOM    100  C   UNL A   1      49.977  26.130  25.916  1.00  0.00     0.198 A 
ATOM    101  F   UNL A   1      48.844  27.618  24.565  1.00  0.00    -0.203 F 
ATOM    102  F   UNL A   1      49.445  25.088  29.323  1.00  0.00    -0.200 F 
ATOM    103  C   UNL A   1      50.142  25.457  27.105  1.00  0.00     0.200 A 
ATOM    104  F   UNL A   1      50.801  25.892  24.885  1.00  0.00    -0.200 F 
ATOM    105  F   UNL A   1      51.111  24.540  27.233  1.00  0.00    -0.200 F 
ENDBRANCH  72  95
ENDBRANCH  46  47
ENDBRANCH  39  41
ENDBRANCH  38  39
ENDBRANCH  37  38
ENDBRANCH  36  37
ENDBRANCH  35  36
ENDBRANCH  34  35
ENDBRANCH  33  34
ENDBRANCH  32  33
ENDBRANCH   1  32
TORSDOF 23
ENDMDL
MODEL 3
REMARK VINA RESULT:      -8.5      2.611      5.331
REMARK SMILES COc1cc2ccccc2cc1C(=O)Nc1cc(C(=O)OCCOCCOCCOCCOC(=O)c2ccc(-c3c4nc(c(-c5c(F)c(F)c(F)c(F)c5F)c5ccc([nH]5)c(-c5c(F)c(F)c(F)c(F)c5F)c5nc(c(-c6c(F)c(F)c(F)c(F)c6F)c6ccc3[nH]6)C=C5)C=C4)cc2)ccc1C
REMARK SMILES IDX 26 1 25 2 24 3 23 4 22 5 21 6 19 7 20 8 18 9 16 10 17 11
REMARK SMILES IDX 101 12 100 13 102 14 99 15 15 16 13 17 14 18 12 20 3 21 4 22
REMARK SMILES IDX 5 23 11 24 6 25 10 26 7 27 9 28 8 29 2 30 1 31 27 32 28 33
REMARK SMILES IDX 29 34 30 35 31 36 32 37 33 38 34 39 35 40 36 41 37 42 98 43
REMARK SMILES IDX 38 44 97 45 39 46 40 47 41 48 91 49 42 50 96 51 90 52 92 53
REMARK SMILES IDX 43 54 95 55 89 56 88 57 44 59 76 60 56 61 75 62 57 63 60 64
REMARK SMILES IDX 74 65 93 66 58 67 59 68 73 70 94 71 61 72 45 73 46 74 54 75
REMARK SMILES IDX 47 76 48 77 52 78 55 79 49 80 50 81 53 82 51 83 77 84 78 85
REMARK SMILES IDX 86 86 79 87 80 88 84 89 87 90 81 91 82 92 85 93 83 94 62 95
REMARK SMILES IDX 63 96 71 97 64 98 65 99 69 100 72 101 66 102 67 103 70 104
REMARK SMILES IDX 68 105
REMARK H PARENT 15 19 92 58 60 69
REMARK Flexibility Score: inf
ROOT
ATOM      1  C   UNL A   1      33.947  34.549  28.595  1.00  0.00     0.188 C 
ENDROOT
BRANCH   1   2
ATOM      2  C   UNL A   1      34.466  33.176  28.152  1.00  0.00     0.188 C 
BRANCH   2   3
ATOM      3  O   UNL A   1      33.582  32.144  27.742  1.00  0.00    -0.376 OA
BRANCH   3   4
ATOM      4  C   UNL A   1      34.143  30.834  27.654  1.00  0.00     0.202 C 
BRANCH   4   5
ATOM      5  C   UNL A   1      35.667  30.727  27.757  1.00  0.00     0.261 C 
BRANCH   5   6
ATOM      6  O   UNL A   1      36.044  29.477  28.337  1.00  0.00    -0.460 OA
BRANCH   6   7
ATOM      7  C   UNL A   1      36.613  29.576  29.554  1.00  0.00     0.338 C 
ATOM      8  O   UNL A   1      36.083  29.436  30.637  1.00  0.00    -0.246 OA
BRANCH   7   9
ATOM      9  C   UNL A   1      38.071  29.492  29.334  1.00  0.00     0.062 A 
ATOM     10  C   UNL A   1      40.003  28.986  28.004  1.00  0.00     0.045 A 
ATOM     11  C   UNL A   1      38.652  28.801  28.266  1.00  0.00     0.042 A 
ATOM     12  C   UNL A   1      40.805  29.650  28.965  1.00  0.00    -0.027 A 
ATOM     13  C   UNL A   1      40.231  30.118  30.158  1.00  0.00     0.006 A 
ATOM     14  C   UNL A   1      42.196  30.156  28.684  1.00  0.00     0.046 C 
ATOM     15  C   UNL A   1      38.861  30.093  30.313  1.00  0.00     0.016 A 
BRANCH  10  16
ATOM     16  N   UNL A   1      40.608  28.600  26.803  1.00  0.00    -0.322 N 
ATOM     17  C   UNL A   1      41.326  27.528  26.332  1.00  0.00     0.259 C 
ATOM     18  O   UNL A   1      41.702  27.661  25.157  1.00  0.00    -0.269 OA
ATOM     19  H   UNL A   1      40.486  29.282  26.105  1.00  0.00     0.170 HD
BRANCH  17  20
ATOM     20  C   UNL A   1      41.642  26.229  27.002  1.00  0.00     0.082 A 
ATOM     21  C   UNL A   1      40.988  24.997  26.909  1.00  0.00     0.132 A 
ATOM     22  C   UNL A   1      41.367  23.935  27.739  1.00  0.00     0.056 A 
ATOM     23  C   UNL A   1      42.491  24.003  28.562  1.00  0.00    -0.015 A 
ATOM     24  C   UNL A   1      42.812  26.271  27.807  1.00  0.00     0.026 A 
ATOM     25  C   UNL A   1      42.875  22.914  29.351  1.00  0.00     0.009 A 
ATOM     26  C   UNL A   1      43.260  25.174  28.568  1.00  0.00    -0.017 A 
ATOM     27  C   UNL A   1      44.037  22.969  30.118  1.00  0.00     0.001 A 
ATOM     28  C   UNL A   1      44.439  25.211  29.333  1.00  0.00     0.009 A 
ATOM     29  C   UNL A   1      44.826  24.112  30.103  1.00  0.00     0.001 A 
BRANCH  21  30
ATOM     30  O   UNL A   1      39.919  24.681  26.127  1.00  0.00    -0.496 OA
ATOM     31  C   UNL A   1      38.719  24.408  26.837  1.00  0.00     0.278 C 
ENDBRANCH  21  30
ENDBRANCH  17  20
ENDBRANCH  10  16
ENDBRANCH   7   9
ENDBRANCH   6   7
ENDBRANCH   5   6
ENDBRANCH   4   5
ENDBRANCH   3   4
ENDBRANCH   2   3
ENDBRANCH   1   2
BRANCH   1  32
ATOM     32  O   UNL A   1      33.290  34.614  29.855  1.00  0.00    -0.377 OA
BRANCH  32  33
ATOM     33  C   UNL A   1      32.773  35.923  30.103  1.00  0.00     0.188 C 
BRANCH  33  34
ATOM     34  C   UNL A   1      32.685  36.150  31.596  1.00  0.00     0.188 C 
BRANCH  34  35
ATOM     35  O   UNL A   1      33.723  36.902  32.208  1.00  0.00    -0.376 OA
BRANCH  35  36
ATOM     36  C   UNL A   1      34.342  36.407  33.389  1.00  0.00     0.202 C 
BRANCH  36  37
ATOM     37  C   UNL A   1      34.975  35.017  33.262  1.00  0.00     0.261 C 
BRANCH  37  38
ATOM     38  O   UNL A   1      36.405  35.144  33.394  1.00  0.00    -0.460 OA
BRANCH  38  39
ATOM     39  C   UNL A   1      37.144  34.381  32.542  1.00  0.00     0.338 C 
ATOM     40  O   UNL A   1      36.752  33.947  31.471  1.00  0.00    -0.246 OA
BRANCH  39  41
ATOM     41  C   UNL A   1      38.341  33.842  33.269  1.00  0.00     0.060 A 
ATOM     42  C   UNL A   1      39.411  34.713  33.539  1.00  0.00     0.016 A 
ATOM     43  C   UNL A   1      38.564  32.468  33.263  1.00  0.00     0.016 A 
ATOM     44  C   UNL A   1      40.731  34.229  33.573  1.00  0.00     0.010 A 
ATOM     45  C   UNL A   1      39.873  32.014  33.200  1.00  0.00     0.010 A 
ATOM     46  C   UNL A   1      40.979  32.889  33.275  1.00  0.00    -0.014 A 
BRANCH  46  47
ATOM     47  C   UNL A   1      42.265  32.349  32.745  1.00  0.00     0.031 A 
ATOM     48  C   UNL A   1      42.694  32.751  31.353  1.00  0.00     0.074 A 
ATOM     49  C   UNL A   1      43.177  31.861  33.634  1.00  0.00     0.049 A 
ATOM     50  N   UNL A   1      43.871  32.596  30.844  1.00  0.00    -0.248 NA
ATOM     51  C   UNL A   1      41.785  33.383  30.392  1.00  0.00     0.031 C 
ATOM     52  C   UNL A   1      44.631  32.003  33.567  1.00  0.00     0.029 A 
ATOM     53  N   UNL A   1      43.011  31.204  34.867  1.00  0.00    -0.354 N 
ATOM     54  C   UNL A   1      43.961  33.320  29.659  1.00  0.00     0.074 A 
ATOM     55  C   UNL A   1      42.610  33.741  29.401  1.00  0.00     0.031 C 
ATOM     56  C   UNL A   1      45.236  31.391  34.589  1.00  0.00     0.029 A 
ATOM     57  C   UNL A   1      44.244  30.549  35.170  1.00  0.00     0.049 A 
ATOM     58  H   UNL A   1      42.196  31.196  35.419  1.00  0.00     0.167 HD
ATOM     59  C   UNL A   1      45.193  33.537  29.089  1.00  0.00     0.037 A 
ATOM     60  C   UNL A   1      44.340  29.187  35.090  1.00  0.00     0.037 A 
ATOM     61  C   UNL A   1      46.217  32.650  29.678  1.00  0.00     0.049 A 
ATOM     62  C   UNL A   1      44.993  28.683  33.784  1.00  0.00     0.074 A 
ATOM     63  C   UNL A   1      47.508  32.767  30.166  1.00  0.00     0.029 A 
ATOM     64  N   UNL A   1      45.850  31.342  29.962  1.00  0.00    -0.354 N 
ATOM     65  N   UNL A   1      45.631  29.433  32.909  1.00  0.00    -0.248 NA
ATOM     66  C   UNL A   1      44.915  27.295  33.332  1.00  0.00     0.031 C 
ATOM     67  C   UNL A   1      47.891  31.510  30.736  1.00  0.00     0.029 A 
ATOM     68  C   UNL A   1      46.840  30.624  30.583  1.00  0.00     0.049 A 
ATOM     69  H   UNL A   1      44.969  30.966  29.737  1.00  0.00     0.167 HD
ATOM     70  C   UNL A   1      45.985  28.693  31.803  1.00  0.00     0.074 A 
ATOM     71  C   UNL A   1      45.498  27.360  32.120  1.00  0.00     0.031 C 
ATOM     72  C   UNL A   1      46.623  29.191  30.693  1.00  0.00     0.037 A 
BRANCH  59  73
ATOM     73  C   UNL A   1      45.548  34.627  28.060  1.00  0.00     0.064 A 
ATOM     74  C   UNL A   1      46.313  34.317  26.905  1.00  0.00     0.173 A 
ATOM     75  C   UNL A   1      45.281  36.007  28.200  1.00  0.00     0.173 A 
ATOM     76  F   UNL A   1      46.607  33.052  26.581  1.00  0.00    -0.203 F 
ATOM     77  C   UNL A   1      46.807  35.291  26.022  1.00  0.00     0.198 A 
ATOM     78  C   UNL A   1      45.717  36.974  27.277  1.00  0.00     0.198 A 
ATOM     79  F   UNL A   1      44.624  36.500  29.254  1.00  0.00    -0.203 F 
ATOM     80  F   UNL A   1      47.587  34.926  24.993  1.00  0.00    -0.200 F 
ATOM     81  C   UNL A   1      46.501  36.621  26.202  1.00  0.00     0.200 A 
ATOM     82  F   UNL A   1      45.384  38.262  27.458  1.00  0.00    -0.200 F 
ATOM     83  F   UNL A   1      46.956  37.552  25.352  1.00  0.00    -0.200 F 
ENDBRANCH  59  73
BRANCH  60  84
ATOM     84  C   UNL A   1      43.260  28.615  35.970  1.00  0.00     0.064 A 
ATOM     85  C   UNL A   1      42.181  28.062  35.225  1.00  0.00     0.173 A 
ATOM     86  C   UNL A   1      43.638  27.940  37.138  1.00  0.00     0.173 A 
ATOM     87  F   UNL A   1      41.747  28.690  34.120  1.00  0.00    -0.203 F 
ATOM     88  C   UNL A   1      41.795  26.735  35.416  1.00  0.00     0.198 A 
ATOM     89  C   UNL A   1      43.194  26.632  37.361  1.00  0.00     0.198 A 
ATOM     90  F   UNL A   1      44.604  28.441  37.921  1.00  0.00    -0.203 F 
ATOM     91  F   UNL A   1      41.031  26.122  34.498  1.00  0.00    -0.200 F 
ATOM     92  C   UNL A   1      42.346  26.005  36.453  1.00  0.00     0.200 A 
ATOM     93  F   UNL A   1      43.718  25.915  38.366  1.00  0.00    -0.200 F 
ATOM     94  F   UNL A   1      42.141  24.682  36.525  1.00  0.00    -0.200 F 
ENDBRANCH  60  84
BRANCH  72  95
ATOM     95  C   UNL A   1      47.065  28.375  29.489  1.00  0.00     0.064 A 
ATOM     96  C   UNL A   1      48.360  27.865  29.351  1.00  0.00     0.173 A 
ATOM     97  C   UNL A   1      46.231  28.208  28.351  1.00  0.00     0.173 A 
ATOM     98  F   UNL A   1      49.265  28.018  30.321  1.00  0.00    -0.203 F 
ATOM     99  C   UNL A   1      48.781  27.202  28.196  1.00  0.00     0.198 A 
ATOM    100  C   UNL A   1      46.665  27.585  27.182  1.00  0.00     0.198 A 
ATOM    101  F   UNL A   1      44.957  28.626  28.333  1.00  0.00    -0.203 F 
ATOM    102  F   UNL A   1      50.023  26.702  28.141  1.00  0.00    -0.200 F 
ATOM    103  C   UNL A   1      47.938  27.068  27.110  1.00  0.00     0.200 A 
ATOM    104  F   UNL A   1      45.836  27.488  26.132  1.00  0.00    -0.200 F 
ATOM    105  F   UNL A   1      48.351  26.443  26.000  1.00  0.00    -0.200 F 
ENDBRANCH  72  95
ENDBRANCH  46  47
ENDBRANCH  39  41
ENDBRANCH  38  39
ENDBRANCH  37  38
ENDBRANCH  36  37
ENDBRANCH  35  36
ENDBRANCH  34  35
ENDBRANCH  33  34
ENDBRANCH  32  33
ENDBRANCH   1  32
TORSDOF 23
ENDMDL
