MODEL 1
REMARK VINA RESULT:     -10.2      0.000      0.000
REMARK SMILES CN1C(=O)C[C@@H](C(=O)OCCOCCOCCOCCOC(=O)c2ccc(-c3c4nc(c(-c5c(F)c(F)c(F)c(F)c5F)c5ccc([nH]5)c(-c5c(F)c(F)c(F)c(F)c5F)c5nc(c(-c6c(F)c(F)c(F)c(F)c6F)c6ccc3[nH]6)C=C5)C=C4)cc2)C12CC[NH+](CCSc1ccccc1)CC2
REMARK SMILES IDX 14 1 13 2 12 3 11 4 10 5 9 6 7 7 8 8 6 9 1 10 2 11 3 12
REMARK SMILES IDX 87 13 4 14 5 15 88 16 101 17 89 18 100 19 90 20 91 22 92 23
REMARK SMILES IDX 93 24 94 25 95 26 99 27 96 28 98 29 97 30 15 31 16 32 17 33
REMARK SMILES IDX 18 34 19 35 20 36 21 37 22 38 23 39 24 40 25 41 86 42 26 43
REMARK SMILES IDX 85 44 27 45 28 46 29 47 79 48 30 49 84 50 78 51 80 52 31 53
REMARK SMILES IDX 83 54 77 55 76 56 32 58 64 59 44 60 63 61 45 62 48 63 62 64
REMARK SMILES IDX 81 65 46 66 47 67 61 69 82 70 49 71 33 72 34 73 42 74 35 75
REMARK SMILES IDX 36 76 40 77 43 78 37 79 38 80 41 81 39 82 65 83 66 84 74 85
REMARK SMILES IDX 67 86 68 87 72 88 75 89 69 90 70 91 73 92 71 93 50 94 51 95
REMARK SMILES IDX 59 96 52 97 53 98 57 99 60 100 54 101 55 102 58 103 56 104
REMARK H PARENT 90 21 80 57 48 68
REMARK Flexibility Score: inf
ROOT
ATOM      1  C   UNL A   1      36.647  23.678  25.051  1.00  0.00     0.188 C 
ENDROOT
BRANCH   1   2
ATOM      2  C   UNL A   1      35.220  23.648  25.607  1.00  0.00     0.188 C 
BRANCH   2   3
ATOM      3  O   UNL A   1      34.349  22.643  25.104  1.00  0.00    -0.376 OA
BRANCH   3   4
ATOM      4  C   UNL A   1      33.078  22.455  25.721  1.00  0.00     0.202 C 
BRANCH   4   5
ATOM      5  C   UNL A   1      32.336  23.674  26.298  1.00  0.00     0.261 C 
BRANCH   5   6
ATOM      6  O   UNL A   1      31.877  24.646  25.320  1.00  0.00    -0.463 OA
BRANCH   6   7
ATOM      7  C   UNL A   1      30.898  25.447  25.777  1.00  0.00     0.311 C 
ATOM      8  O   UNL A   1      29.980  25.029  26.490  1.00  0.00    -0.252 OA
BRANCH   7   9
ATOM      9  C   UNL A   1      30.997  26.941  25.543  1.00  0.00     0.134 C 
ATOM     10  C   UNL A   1      33.234  28.421  22.893  1.00  0.00     0.147 C 
ATOM     11  N   UNL A   1      32.171  27.890  23.731  1.00  0.00    -0.339 N 
ATOM     12  C   UNL A   1      30.956  27.496  23.201  1.00  0.00     0.223 C 
ATOM     13  C   UNL A   1      32.169  27.926  25.205  1.00  0.00     0.067 C 
ATOM     14  O   UNL A   1      30.655  27.460  22.021  1.00  0.00    -0.275 OA
ATOM     15  C   UNL A   1      30.032  27.177  24.338  1.00  0.00     0.118 C 
ATOM     16  C   UNL A   1      33.622  27.883  25.780  1.00  0.00     0.091 C 
ATOM     17  C   UNL A   1      31.616  29.296  25.650  1.00  0.00     0.091 C 
ATOM     18  C   UNL A   1      33.984  28.777  27.015  1.00  0.00     0.264 C 
ATOM     19  C   UNL A   1      31.759  29.422  27.160  1.00  0.00     0.264 C 
ATOM     20  N   UNL A   1      33.087  29.835  27.457  1.00  0.00    -0.334 N 
ATOM     21  H   UNL A   1      33.338  29.901  28.443  1.00  0.00     0.348 HD
BRANCH  20  22
ATOM     22  C   UNL A   1      33.292  31.274  27.181  1.00  0.00     0.273 C 
BRANCH  22  23
ATOM     23  C   UNL A   1      34.575  32.084  27.724  1.00  0.00     0.136 C 
BRANCH  23  24
ATOM     24  S   UNL A   1      34.522  33.240  29.261  1.00  0.00    -0.120 SA
BRANCH  24  25
ATOM     25  C   UNL A   1      36.028  33.056  30.286  1.00  0.00     0.007 A 
ATOM     26  C   UNL A   1      37.314  33.208  29.723  1.00  0.00     0.015 A 
ATOM     27  C   UNL A   1      35.971  33.049  31.685  1.00  0.00     0.015 A 
ATOM     28  C   UNL A   1      38.490  33.142  30.480  1.00  0.00     0.001 A 
ATOM     29  C   UNL A   1      37.150  33.109  32.462  1.00  0.00     0.001 A 
ATOM     30  C   UNL A   1      38.408  33.114  31.861  1.00  0.00     0.000 A 
ENDBRANCH  24  25
ENDBRANCH  23  24
ENDBRANCH  22  23
ENDBRANCH  20  22
ENDBRANCH   7   9
ENDBRANCH   6   7
ENDBRANCH   5   6
ENDBRANCH   4   5
ENDBRANCH   3   4
ENDBRANCH   2   3
ENDBRANCH   1   2
BRANCH   1  31
ATOM     31  O   UNL A   1      37.601  23.220  25.994  1.00  0.00    -0.377 OA
BRANCH  31  32
ATOM     32  C   UNL A   1      38.321  22.008  25.774  1.00  0.00     0.188 C 
BRANCH  32  33
ATOM     33  C   UNL A   1      39.694  21.799  26.427  1.00  0.00     0.188 C 
BRANCH  33  34
ATOM     34  O   UNL A   1      40.063  20.511  26.921  1.00  0.00    -0.376 OA
BRANCH  34  35
ATOM     35  C   UNL A   1      40.405  19.479  26.008  1.00  0.00     0.202 C 
BRANCH  35  36
ATOM     36  C   UNL A   1      41.825  18.919  26.118  1.00  0.00     0.261 C 
BRANCH  36  37
ATOM     37  O   UNL A   1      42.648  19.305  25.003  1.00  0.00    -0.460 OA
BRANCH  37  38
ATOM     38  C   UNL A   1      43.722  20.041  25.343  1.00  0.00     0.338 C 
ATOM     39  O   UNL A   1      44.899  19.811  25.069  1.00  0.00    -0.246 OA
BRANCH  38  40
ATOM     40  C   UNL A   1      43.315  21.301  25.978  1.00  0.00     0.060 A 
ATOM     41  C   UNL A   1      43.041  22.369  25.117  1.00  0.00     0.016 A 
ATOM     42  C   UNL A   1      43.348  21.489  27.363  1.00  0.00     0.016 A 
ATOM     43  C   UNL A   1      42.900  23.649  25.622  1.00  0.00     0.010 A 
ATOM     44  C   UNL A   1      43.222  22.787  27.874  1.00  0.00     0.010 A 
ATOM     45  C   UNL A   1      43.073  23.873  26.993  1.00  0.00    -0.014 A 
BRANCH  45  46
ATOM     46  C   UNL A   1      43.385  25.261  27.403  1.00  0.00     0.031 A 
ATOM     47  C   UNL A   1      44.725  25.829  27.016  1.00  0.00     0.074 A 
ATOM     48  C   UNL A   1      42.435  26.040  27.942  1.00  0.00     0.049 A 
ATOM     49  N   UNL A   1      45.193  27.041  27.169  1.00  0.00    -0.248 NA
ATOM     50  C   UNL A   1      45.662  24.907  26.349  1.00  0.00     0.031 C 
ATOM     51  C   UNL A   1      41.081  25.605  28.281  1.00  0.00     0.029 A 
ATOM     52  N   UNL A   1      42.458  27.369  28.276  1.00  0.00    -0.354 N 
ATOM     53  C   UNL A   1      46.468  27.026  26.614  1.00  0.00     0.074 A 
ATOM     54  C   UNL A   1      46.722  25.677  26.163  1.00  0.00     0.031 C 
ATOM     55  C   UNL A   1      40.400  26.651  28.779  1.00  0.00     0.029 A 
ATOM     56  C   UNL A   1      41.280  27.816  28.820  1.00  0.00     0.049 A 
ATOM     57  H   UNL A   1      43.244  27.946  28.139  1.00  0.00     0.167 HD
ATOM     58  C   UNL A   1      47.340  28.052  26.478  1.00  0.00     0.037 A 
ATOM     59  C   UNL A   1      40.964  29.030  29.310  1.00  0.00     0.037 A 
ATOM     60  C   UNL A   1      47.074  29.391  26.932  1.00  0.00     0.049 A 
ATOM     61  C   UNL A   1      41.987  30.134  29.228  1.00  0.00     0.074 A 
ATOM     62  C   UNL A   1      47.891  30.504  26.867  1.00  0.00     0.029 A 
ATOM     63  N   UNL A   1      45.892  29.793  27.541  1.00  0.00    -0.354 N 
ATOM     64  N   UNL A   1      43.192  30.112  28.707  1.00  0.00    -0.248 NA
ATOM     65  C   UNL A   1      41.603  31.434  29.791  1.00  0.00     0.031 C 
ATOM     66  C   UNL A   1      47.225  31.567  27.487  1.00  0.00     0.029 A 
ATOM     67  C   UNL A   1      45.969  31.133  27.881  1.00  0.00     0.049 A 
ATOM     68  H   UNL A   1      45.117  29.210  27.707  1.00  0.00     0.167 HD
ATOM     69  C   UNL A   1      43.700  31.395  28.862  1.00  0.00     0.074 A 
ATOM     70  C   UNL A   1      42.659  32.177  29.497  1.00  0.00     0.031 C 
ATOM     71  C   UNL A   1      44.917  31.886  28.516  1.00  0.00     0.037 A 
BRANCH  58  72
ATOM     72  C   UNL A   1      48.667  27.757  25.840  1.00  0.00     0.064 A 
ATOM     73  C   UNL A   1      48.816  27.662  24.447  1.00  0.00     0.173 A 
ATOM     74  C   UNL A   1      49.813  27.588  26.631  1.00  0.00     0.173 A 
ATOM     75  F   UNL A   1      47.750  27.795  23.643  1.00  0.00    -0.203 F 
ATOM     76  C   UNL A   1      50.055  27.384  23.875  1.00  0.00     0.198 A 
ATOM     77  C   UNL A   1      51.057  27.343  26.055  1.00  0.00     0.198 A 
ATOM     78  F   UNL A   1      49.729  27.667  27.968  1.00  0.00    -0.203 F 
ATOM     79  F   UNL A   1      50.163  27.248  22.545  1.00  0.00    -0.200 F 
ATOM     80  C   UNL A   1      51.175  27.234  24.678  1.00  0.00     0.200 A 
ATOM     81  F   UNL A   1      52.140  27.209  26.832  1.00  0.00    -0.200 F 
ATOM     82  F   UNL A   1      52.369  26.976  24.125  1.00  0.00    -0.200 F 
ENDBRANCH  58  72
BRANCH  59  83
ATOM     83  C   UNL A   1      39.640  29.251  29.950  1.00  0.00     0.064 A 
ATOM     84  C   UNL A   1      39.480  29.217  31.341  1.00  0.00     0.173 A 
ATOM     85  C   UNL A   1      38.495  29.477  29.170  1.00  0.00     0.173 A 
ATOM     86  F   UNL A   1      40.537  28.985  32.133  1.00  0.00    -0.203 F 
ATOM     87  C   UNL A   1      38.223  29.374  31.926  1.00  0.00     0.198 A 
ATOM     88  C   UNL A   1      37.246  29.668  29.755  1.00  0.00     0.198 A 
ATOM     89  F   UNL A   1      38.591  29.521  27.832  1.00  0.00    -0.203 F 
ATOM     90  F   UNL A   1      38.090  29.279  33.256  1.00  0.00    -0.200 F 
ATOM     91  C   UNL A   1      37.109  29.604  31.133  1.00  0.00     0.200 A 
ATOM     92  F   UNL A   1      36.177  29.906  28.984  1.00  0.00    -0.200 F 
ATOM     93  F   UNL A   1      35.903  29.756  31.696  1.00  0.00    -0.200 F 
ENDBRANCH  59  83
BRANCH  71  94
ATOM     94  C   UNL A   1      45.173  33.339  28.797  1.00  0.00     0.064 A 
ATOM     95  C   UNL A   1      45.788  33.763  29.985  1.00  0.00     0.173 A 
ATOM     96  C   UNL A   1      44.823  34.318  27.854  1.00  0.00     0.173 A 
ATOM     97  F   UNL A   1      46.132  32.867  30.923  1.00  0.00    -0.203 F 
ATOM     98  C   UNL A   1      46.006  35.114  30.235  1.00  0.00     0.198 A 
ATOM     99  C   UNL A   1      45.078  35.665  28.092  1.00  0.00     0.198 A 
ATOM    100  F   UNL A   1      44.243  33.967  26.696  1.00  0.00    -0.203 F 
ATOM    101  F   UNL A   1      46.535  35.499  31.405  1.00  0.00    -0.200 F 
ATOM    102  C   UNL A   1      45.658  36.064  29.287  1.00  0.00     0.200 A 
ATOM    103  F   UNL A   1      44.758  36.580  27.164  1.00  0.00    -0.200 F 
ATOM    104  F   UNL A   1      45.872  37.364  29.528  1.00  0.00    -0.200 F 
ENDBRANCH  71  94
ENDBRANCH  45  46
ENDBRANCH  38  40
ENDBRANCH  37  38
ENDBRANCH  36  37
ENDBRANCH  35  36
ENDBRANCH  34  35
ENDBRANCH  33  34
ENDBRANCH  32  33
ENDBRANCH  31  32
ENDBRANCH   1  31
TORSDOF 24
ENDMDL
MODEL 2
REMARK VINA RESULT:     -10.2      0.889      7.021
REMARK SMILES CN1C(=O)C[C@@H](C(=O)OCCOCCOCCOCCOC(=O)c2ccc(-c3c4nc(c(-c5c(F)c(F)c(F)c(F)c5F)c5ccc([nH]5)c(-c5c(F)c(F)c(F)c(F)c5F)c5nc(c(-c6c(F)c(F)c(F)c(F)c6F)c6ccc3[nH]6)C=C5)C=C4)cc2)C12CC[NH+](CCSc1ccccc1)CC2
REMARK SMILES IDX 14 1 13 2 12 3 11 4 10 5 9 6 7 7 8 8 6 9 1 10 2 11 3 12
REMARK SMILES IDX 87 13 4 14 5 15 88 16 101 17 89 18 100 19 90 20 91 22 92 23
REMARK SMILES IDX 93 24 94 25 95 26 99 27 96 28 98 29 97 30 15 31 16 32 17 33
REMARK SMILES IDX 18 34 19 35 20 36 21 37 22 38 23 39 24 40 25 41 86 42 26 43
REMARK SMILES IDX 85 44 27 45 28 46 29 47 79 48 30 49 84 50 78 51 80 52 31 53
REMARK SMILES IDX 83 54 77 55 76 56 32 58 64 59 44 60 63 61 45 62 48 63 62 64
REMARK SMILES IDX 81 65 46 66 47 67 61 69 82 70 49 71 33 72 34 73 42 74 35 75
REMARK SMILES IDX 36 76 40 77 43 78 37 79 38 80 41 81 39 82 65 83 66 84 74 85
REMARK SMILES IDX 67 86 68 87 72 88 75 89 69 90 70 91 73 92 71 93 50 94 51 95
REMARK SMILES IDX 59 96 52 97 53 98 57 99 60 100 54 101 55 102 58 103 56 104
REMARK H PARENT 90 21 80 57 48 68
REMARK Flexibility Score: inf
ROOT
ATOM      1  C   UNL A   1      35.825  22.194  24.417  1.00  0.00     0.188 C 
ENDROOT
BRANCH   1   2
ATOM      2  C   UNL A   1      34.340  22.178  24.791  1.00  0.00     0.188 C 
BRANCH   2   3
ATOM      3  O   UNL A   1      33.403  22.374  23.739  1.00  0.00    -0.376 OA
BRANCH   3   4
ATOM      4  C   UNL A   1      32.020  22.138  23.989  1.00  0.00     0.202 C 
BRANCH   4   5
ATOM      5  C   UNL A   1      31.251  23.095  24.919  1.00  0.00     0.261 C 
BRANCH   5   6
ATOM      6  O   UNL A   1      31.413  24.510  24.630  1.00  0.00    -0.463 OA
BRANCH   6   7
ATOM      7  C   UNL A   1      30.885  25.314  25.569  1.00  0.00     0.311 C 
ATOM      8  O   UNL A   1      30.410  24.876  26.623  1.00  0.00    -0.252 OA
BRANCH   7   9
ATOM      9  C   UNL A   1      31.006  26.815  25.410  1.00  0.00     0.134 C 
ATOM     10  C   UNL A   1      33.253  28.391  22.825  1.00  0.00     0.147 C 
ATOM     11  N   UNL A   1      32.187  27.836  23.641  1.00  0.00    -0.339 N 
ATOM     12  C   UNL A   1      30.963  27.489  23.100  1.00  0.00     0.223 C 
ATOM     13  C   UNL A   1      32.193  27.798  25.116  1.00  0.00     0.067 C 
ATOM     14  O   UNL A   1      30.654  27.517  21.921  1.00  0.00    -0.275 OA
ATOM     15  C   UNL A   1      30.039  27.128  24.225  1.00  0.00     0.118 C 
ATOM     16  C   UNL A   1      33.648  27.702  25.679  1.00  0.00     0.091 C 
ATOM     17  C   UNL A   1      31.664  29.152  25.633  1.00  0.00     0.091 C 
ATOM     18  C   UNL A   1      34.032  28.526  26.955  1.00  0.00     0.264 C 
ATOM     19  C   UNL A   1      31.818  29.199  27.146  1.00  0.00     0.264 C 
ATOM     20  N   UNL A   1      33.153  29.575  27.455  1.00  0.00    -0.334 N 
ATOM     21  H   UNL A   1      33.411  29.587  28.442  1.00  0.00     0.348 HD
BRANCH  20  22
ATOM     22  C   UNL A   1      33.381  31.023  27.251  1.00  0.00     0.273 C 
BRANCH  22  23
ATOM     23  C   UNL A   1      34.029  31.965  28.387  1.00  0.00     0.136 C 
BRANCH  23  24
ATOM     24  S   UNL A   1      35.369  33.294  28.019  1.00  0.00    -0.120 SA
BRANCH  24  25
ATOM     25  C   UNL A   1      36.598  33.394  29.373  1.00  0.00     0.007 A 
ATOM     26  C   UNL A   1      36.209  33.242  30.722  1.00  0.00     0.015 A 
ATOM     27  C   UNL A   1      37.975  33.333  29.123  1.00  0.00     0.015 A 
ATOM     28  C   UNL A   1      37.122  33.245  31.783  1.00  0.00     0.001 A 
ATOM     29  C   UNL A   1      38.902  33.209  30.184  1.00  0.00     0.001 A 
ATOM     30  C   UNL A   1      38.478  33.206  31.512  1.00  0.00     0.000 A 
ENDBRANCH  24  25
ENDBRANCH  23  24
ENDBRANCH  22  23
ENDBRANCH  20  22
ENDBRANCH   7   9
ENDBRANCH   6   7
ENDBRANCH   5   6
ENDBRANCH   4   5
ENDBRANCH   3   4
ENDBRANCH   2   3
ENDBRANCH   1   2
BRANCH   1  31
ATOM     31  O   UNL A   1      36.656  21.806  25.497  1.00  0.00    -0.377 OA
BRANCH  31  32
ATOM     32  C   UNL A   1      37.914  21.174  25.260  1.00  0.00     0.188 C 
BRANCH  32  33
ATOM     33  C   UNL A   1      39.189  21.732  25.905  1.00  0.00     0.188 C 
BRANCH  33  34
ATOM     34  O   UNL A   1      40.114  20.851  26.543  1.00  0.00    -0.376 OA
BRANCH  34  35
ATOM     35  C   UNL A   1      40.235  19.511  26.089  1.00  0.00     0.202 C 
BRANCH  35  36
ATOM     36  C   UNL A   1      41.641  18.906  26.128  1.00  0.00     0.261 C 
BRANCH  36  37
ATOM     37  O   UNL A   1      42.461  19.371  25.041  1.00  0.00    -0.460 OA
BRANCH  37  38
ATOM     38  C   UNL A   1      43.605  19.963  25.432  1.00  0.00     0.338 C 
ATOM     39  O   UNL A   1      44.750  19.539  25.285  1.00  0.00    -0.246 OA
BRANCH  38  40
ATOM     40  C   UNL A   1      43.348  21.316  25.942  1.00  0.00     0.060 A 
ATOM     41  C   UNL A   1      43.053  22.294  24.986  1.00  0.00     0.016 A 
ATOM     42  C   UNL A   1      43.538  21.661  27.284  1.00  0.00     0.016 A 
ATOM     43  C   UNL A   1      43.048  23.631  25.340  1.00  0.00     0.010 A 
ATOM     44  C   UNL A   1      43.550  23.015  27.640  1.00  0.00     0.010 A 
ATOM     45  C   UNL A   1      43.378  24.000  26.649  1.00  0.00    -0.014 A 
BRANCH  45  46
ATOM     46  C   UNL A   1      43.819  25.398  26.852  1.00  0.00     0.031 A 
ATOM     47  C   UNL A   1      42.832  26.374  27.435  1.00  0.00     0.074 A 
ATOM     48  C   UNL A   1      45.109  25.735  26.689  1.00  0.00     0.049 A 
ATOM     49  N   UNL A   1      43.005  27.619  27.798  1.00  0.00    -0.248 NA
ATOM     50  C   UNL A   1      41.464  25.873  27.655  1.00  0.00     0.031 C 
ATOM     51  C   UNL A   1      46.158  24.839  26.205  1.00  0.00     0.029 A 
ATOM     52  N   UNL A   1      45.758  26.916  26.937  1.00  0.00    -0.354 N 
ATOM     53  C   UNL A   1      41.776  28.042  28.291  1.00  0.00     0.074 A 
ATOM     54  C   UNL A   1      40.853  26.941  28.141  1.00  0.00     0.031 C 
ATOM     55  C   UNL A   1      47.324  25.506  26.188  1.00  0.00     0.029 A 
ATOM     56  C   UNL A   1      47.095  26.878  26.633  1.00  0.00     0.049 A 
ATOM     57  H   UNL A   1      45.308  27.713  27.298  1.00  0.00     0.167 HD
ATOM     58  C   UNL A   1      41.454  29.237  28.838  1.00  0.00     0.037 A 
ATOM     59  C   UNL A   1      48.019  27.856  26.691  1.00  0.00     0.037 A 
ATOM     60  C   UNL A   1      42.384  30.326  28.983  1.00  0.00     0.049 A 
ATOM     61  C   UNL A   1      47.613  29.207  27.222  1.00  0.00     0.074 A 
ATOM     62  C   UNL A   1      42.164  31.588  29.501  1.00  0.00     0.029 A 
ATOM     63  N   UNL A   1      43.717  30.274  28.600  1.00  0.00    -0.354 N 
ATOM     64  N   UNL A   1      46.448  29.602  27.681  1.00  0.00    -0.248 NA
ATOM     65  C   UNL A   1      48.650  30.245  27.251  1.00  0.00     0.031 C 
ATOM     66  C   UNL A   1      43.350  32.319  29.381  1.00  0.00     0.029 A 
ATOM     67  C   UNL A   1      44.327  31.493  28.848  1.00  0.00     0.049 A 
ATOM     68  H   UNL A   1      44.163  29.488  28.209  1.00  0.00     0.167 HD
ATOM     69  C   UNL A   1      46.618  30.924  28.072  1.00  0.00     0.074 A 
ATOM     70  C   UNL A   1      48.007  31.252  27.823  1.00  0.00     0.031 C 
ATOM     71  C   UNL A   1      45.712  31.792  28.587  1.00  0.00     0.037 A 
BRANCH  58  72
ATOM     72  C   UNL A   1      40.036  29.436  29.292  1.00  0.00     0.064 A 
ATOM     73  C   UNL A   1      38.988  29.640  28.380  1.00  0.00     0.173 A 
ATOM     74  C   UNL A   1      39.715  29.401  30.657  1.00  0.00     0.173 A 
ATOM     75  F   UNL A   1      39.239  29.703  27.064  1.00  0.00    -0.203 F 
ATOM     76  C   UNL A   1      37.679  29.826  28.821  1.00  0.00     0.198 A 
ATOM     77  C   UNL A   1      38.402  29.555  31.093  1.00  0.00     0.198 A 
ATOM     78  F   UNL A   1      40.678  29.211  31.572  1.00  0.00    -0.203 F 
ATOM     79  F   UNL A   1      36.702  30.069  27.935  1.00  0.00    -0.200 F 
ATOM     80  C   UNL A   1      37.386  29.774  30.174  1.00  0.00     0.200 A 
ATOM     81  F   UNL A   1      38.120  29.493  32.401  1.00  0.00    -0.200 F 
ATOM     82  F   UNL A   1      36.125  29.944  30.597  1.00  0.00    -0.200 F 
ENDBRANCH  58  72
BRANCH  59  83
ATOM     83  C   UNL A   1      49.402  27.602  26.206  1.00  0.00     0.064 A 
ATOM     84  C   UNL A   1      49.714  27.597  24.841  1.00  0.00     0.173 A 
ATOM     85  C   UNL A   1      50.442  27.332  27.110  1.00  0.00     0.173 A 
ATOM     86  F   UNL A   1      48.754  27.829  23.933  1.00  0.00    -0.203 F 
ATOM     87  C   UNL A   1      51.003  27.304  24.397  1.00  0.00     0.198 A 
ATOM     88  C   UNL A   1      51.737  27.074  26.669  1.00  0.00     0.198 A 
ATOM     89  F   UNL A   1      50.199  27.325  28.430  1.00  0.00    -0.203 F 
ATOM     90  F   UNL A   1      51.261  27.249  23.083  1.00  0.00    -0.200 F 
ATOM     91  C   UNL A   1      52.015  27.049  25.311  1.00  0.00     0.200 A 
ATOM     92  F   UNL A   1      52.712  26.845  27.558  1.00  0.00    -0.200 F 
ATOM     93  F   UNL A   1      53.253  26.770  24.884  1.00  0.00    -0.200 F 
ENDBRANCH  59  83
BRANCH  71  94
ATOM     94  C   UNL A   1      46.204  33.168  28.933  1.00  0.00     0.064 A 
ATOM     95  C   UNL A   1      46.062  34.247  28.047  1.00  0.00     0.173 A 
ATOM     96  C   UNL A   1      46.801  33.417  30.179  1.00  0.00     0.173 A 
ATOM     97  F   UNL A   1      45.508  34.060  26.840  1.00  0.00    -0.203 F 
ATOM     98  C   UNL A   1      46.536  35.513  28.379  1.00  0.00     0.198 A 
ATOM     99  C   UNL A   1      47.238  34.693  30.523  1.00  0.00     0.198 A 
ATOM    100  F   UNL A   1      46.950  32.424  31.069  1.00  0.00    -0.203 F 
ATOM    101  F   UNL A   1      46.448  36.512  27.491  1.00  0.00    -0.200 F 
ATOM    102  C   UNL A   1      47.117  35.737  29.619  1.00  0.00     0.200 A 
ATOM    103  F   UNL A   1      47.782  34.911  31.729  1.00  0.00    -0.200 F 
ATOM    104  F   UNL A   1      47.568  36.957  29.938  1.00  0.00    -0.200 F 
ENDBRANCH  71  94
ENDBRANCH  45  46
ENDBRANCH  38  40
ENDBRANCH  37  38
ENDBRANCH  36  37
ENDBRANCH  35  36
ENDBRANCH  34  35
ENDBRANCH  33  34
ENDBRANCH  32  33
ENDBRANCH  31  32
ENDBRANCH   1  31
TORSDOF 24
ENDMDL
MODEL 3
REMARK VINA RESULT:      -9.4      3.794      8.845
REMARK SMILES CN1C(=O)C[C@@H](C(=O)OCCOCCOCCOCCOC(=O)c2ccc(-c3c4nc(c(-c5c(F)c(F)c(F)c(F)c5F)c5ccc([nH]5)c(-c5c(F)c(F)c(F)c(F)c5F)c5nc(c(-c6c(F)c(F)c(F)c(F)c6F)c6ccc3[nH]6)C=C5)C=C4)cc2)C12CC[NH+](CCSc1ccccc1)CC2
REMARK SMILES IDX 14 1 13 2 12 3 11 4 10 5 9 6 7 7 8 8 6 9 1 10 2 11 3 12
REMARK SMILES IDX 87 13 4 14 5 15 88 16 101 17 89 18 100 19 90 20 91 22 92 23
REMARK SMILES IDX 93 24 94 25 95 26 99 27 96 28 98 29 97 30 15 31 16 32 17 33
REMARK SMILES IDX 18 34 19 35 20 36 21 37 22 38 23 39 24 40 25 41 86 42 26 43
REMARK SMILES IDX 85 44 27 45 28 46 29 47 79 48 30 49 84 50 78 51 80 52 31 53
REMARK SMILES IDX 83 54 77 55 76 56 32 58 64 59 44 60 63 61 45 62 48 63 62 64
REMARK SMILES IDX 81 65 46 66 47 67 61 69 82 70 49 71 33 72 34 73 42 74 35 75
REMARK SMILES IDX 36 76 40 77 43 78 37 79 38 80 41 81 39 82 65 83 66 84 74 85
REMARK SMILES IDX 67 86 68 87 72 88 75 89 69 90 70 91 73 92 71 93 50 94 51 95
REMARK SMILES IDX 59 96 52 97 53 98 57 99 60 100 54 101 55 102 58 103 56 104
REMARK H PARENT 90 21 80 57 48 68
REMARK Flexibility Score: inf
ROOT
ATOM      1  C   UNL A   1      34.556  20.934  24.761  1.00  0.00     0.188 C 
ENDROOT
BRANCH   1   2
ATOM      2  C   UNL A   1      33.269  20.570  25.507  1.00  0.00     0.188 C 
BRANCH   2   3
ATOM      3  O   UNL A   1      32.039  20.959  24.907  1.00  0.00    -0.376 OA
BRANCH   3   4
ATOM      4  C   UNL A   1      31.414  22.169  25.328  1.00  0.00     0.202 C 
BRANCH   4   5
ATOM      5  C   UNL A   1      31.681  23.465  24.541  1.00  0.00     0.261 C 
BRANCH   5   6
ATOM      6  O   UNL A   1      30.681  24.508  24.698  1.00  0.00    -0.463 OA
BRANCH   6   7
ATOM      7  C   UNL A   1      30.906  25.313  25.752  1.00  0.00     0.311 C 
ATOM      8  O   UNL A   1      31.136  24.872  26.883  1.00  0.00    -0.252 OA
BRANCH   7   9
ATOM      9  C   UNL A   1      31.032  26.805  25.528  1.00  0.00     0.134 C 
ATOM     10  C   UNL A   1      33.363  28.266  22.949  1.00  0.00     0.147 C 
ATOM     11  N   UNL A   1      32.270  27.746  23.755  1.00  0.00    -0.339 N 
ATOM     12  C   UNL A   1      31.066  27.372  23.189  1.00  0.00     0.223 C 
ATOM     13  C   UNL A   1      32.226  27.776  25.228  1.00  0.00     0.067 C 
ATOM     14  O   UNL A   1      30.797  27.345  22.000  1.00  0.00    -0.275 OA
ATOM     15  C   UNL A   1      30.105  27.061  24.298  1.00  0.00     0.118 C 
ATOM     16  C   UNL A   1      33.663  27.709  25.844  1.00  0.00     0.091 C 
ATOM     17  C   UNL A   1      31.680  29.151  25.664  1.00  0.00     0.091 C 
ATOM     18  C   UNL A   1      34.002  28.593  27.093  1.00  0.00     0.264 C 
ATOM     19  C   UNL A   1      31.782  29.269  27.178  1.00  0.00     0.264 C 
ATOM     20  N   UNL A   1      33.106  29.662  27.515  1.00  0.00    -0.334 N 
ATOM     21  H   UNL A   1      33.331  29.719  28.508  1.00  0.00     0.348 HD
BRANCH  20  22
ATOM     22  C   UNL A   1      33.340  31.099  27.252  1.00  0.00     0.273 C 
BRANCH  22  23
ATOM     23  C   UNL A   1      34.293  32.004  28.183  1.00  0.00     0.136 C 
BRANCH  23  24
ATOM     24  S   UNL A   1      34.328  33.926  28.107  1.00  0.00    -0.120 SA
BRANCH  24  25
ATOM     25  C   UNL A   1      34.042  34.664  29.758  1.00  0.00     0.007 A 
ATOM     26  C   UNL A   1      33.068  35.668  29.948  1.00  0.00     0.015 A 
ATOM     27  C   UNL A   1      34.553  34.080  30.925  1.00  0.00     0.015 A 
ATOM     28  C   UNL A   1      32.769  36.213  31.203  1.00  0.00     0.001 A 
ATOM     29  C   UNL A   1      34.160  34.541  32.202  1.00  0.00     0.001 A 
ATOM     30  C   UNL A   1      33.302  35.632  32.340  1.00  0.00     0.000 A 
ENDBRANCH  24  25
ENDBRANCH  23  24
ENDBRANCH  22  23
ENDBRANCH  20  22
ENDBRANCH   7   9
ENDBRANCH   6   7
ENDBRANCH   5   6
ENDBRANCH   4   5
ENDBRANCH   3   4
ENDBRANCH   2   3
ENDBRANCH   1   2
BRANCH   1  31
ATOM     31  O   UNL A   1      34.932  22.285  24.965  1.00  0.00    -0.377 OA
BRANCH  31  32
ATOM     32  C   UNL A   1      36.204  22.763  24.528  1.00  0.00     0.188 C 
BRANCH  32  33
ATOM     33  C   UNL A   1      37.468  22.427  25.328  1.00  0.00     0.188 C 
BRANCH  33  34
ATOM     34  O   UNL A   1      38.173  23.458  26.020  1.00  0.00    -0.376 OA
BRANCH  34  35
ATOM     35  C   UNL A   1      39.345  23.138  26.756  1.00  0.00     0.202 C 
BRANCH  35  36
ATOM     36  C   UNL A   1      39.835  24.196  27.747  1.00  0.00     0.261 C 
BRANCH  36  37
ATOM     37  O   UNL A   1      39.361  25.512  27.412  1.00  0.00    -0.460 OA
BRANCH  37  38
ATOM     38  C   UNL A   1      40.340  26.394  27.136  1.00  0.00     0.338 C 
ATOM     39  O   UNL A   1      41.029  26.447  26.119  1.00  0.00    -0.246 OA
BRANCH  38  40
ATOM     40  C   UNL A   1      40.407  27.442  28.162  1.00  0.00     0.060 A 
ATOM     41  C   UNL A   1      39.645  28.591  27.925  1.00  0.00     0.016 A 
ATOM     42  C   UNL A   1      41.295  27.383  29.240  1.00  0.00     0.016 A 
ATOM     43  C   UNL A   1      39.838  29.723  28.697  1.00  0.00     0.010 A 
ATOM     44  C   UNL A   1      41.504  28.533  30.011  1.00  0.00     0.010 A 
ATOM     45  C   UNL A   1      40.827  29.723  29.687  1.00  0.00    -0.014 A 
BRANCH  45  46
ATOM     46  C   UNL A   1      41.313  31.047  30.137  1.00  0.00     0.031 A 
ATOM     47  C   UNL A   1      40.680  31.655  31.361  1.00  0.00     0.074 A 
ATOM     48  C   UNL A   1      42.402  31.597  29.578  1.00  0.00     0.049 A 
ATOM     49  N   UNL A   1      40.995  32.748  32.007  1.00  0.00    -0.248 NA
ATOM     50  C   UNL A   1      39.544  30.921  31.947  1.00  0.00     0.031 C 
ATOM     51  C   UNL A   1      43.135  31.044  28.440  1.00  0.00     0.029 A 
ATOM     52  N   UNL A   1      43.096  32.731  29.910  1.00  0.00    -0.354 N 
ATOM     53  C   UNL A   1      40.104  32.826  33.072  1.00  0.00     0.074 A 
ATOM     54  C   UNL A   1      39.207  31.699  32.963  1.00  0.00     0.031 C 
ATOM     55  C   UNL A   1      44.178  31.845  28.164  1.00  0.00     0.029 A 
ATOM     56  C   UNL A   1      44.167  32.977  29.088  1.00  0.00     0.049 A 
ATOM     57  H   UNL A   1      42.849  33.313  30.664  1.00  0.00     0.167 HD
ATOM     58  C   UNL A   1      40.054  33.747  34.062  1.00  0.00     0.037 A 
ATOM     59  C   UNL A   1      45.025  34.015  29.078  1.00  0.00     0.037 A 
ATOM     60  C   UNL A   1      40.954  34.864  34.160  1.00  0.00     0.049 A 
ATOM     61  C   UNL A   1      44.891  35.076  30.141  1.00  0.00     0.074 A 
ATOM     62  C   UNL A   1      40.983  35.872  35.106  1.00  0.00     0.029 A 
ATOM     63  N   UNL A   1      41.987  35.119  33.268  1.00  0.00    -0.354 N 
ATOM     64  N   UNL A   1      44.044  35.147  31.141  1.00  0.00    -0.248 NA
ATOM     65  C   UNL A   1      45.838  36.195  30.079  1.00  0.00     0.031 C 
ATOM     66  C   UNL A   1      41.999  36.767  34.756  1.00  0.00     0.029 A 
ATOM     67  C   UNL A   1      42.645  36.284  33.628  1.00  0.00     0.049 A 
ATOM     68  H   UNL A   1      42.217  34.556  32.494  1.00  0.00     0.167 HD
ATOM     69  C   UNL A   1      44.368  36.303  31.838  1.00  0.00     0.074 A 
ATOM     70  C   UNL A   1      45.510  36.885  31.161  1.00  0.00     0.031 C 
ATOM     71  C   UNL A   1      43.778  36.842  32.934  1.00  0.00     0.037 A 
BRANCH  58  72
ATOM     72  C   UNL A   1      38.975  33.597  35.097  1.00  0.00     0.064 A 
ATOM     73  C   UNL A   1      37.646  33.970  34.842  1.00  0.00     0.173 A 
ATOM     74  C   UNL A   1      39.270  33.054  36.357  1.00  0.00     0.173 A 
ATOM     75  F   UNL A   1      37.311  34.513  33.662  1.00  0.00    -0.203 F 
ATOM     76  C   UNL A   1      36.660  33.827  35.816  1.00  0.00     0.198 A 
ATOM     77  C   UNL A   1      38.277  32.883  37.317  1.00  0.00     0.198 A 
ATOM     78  F   UNL A   1      40.524  32.683  36.655  1.00  0.00    -0.203 F 
ATOM     79  F   UNL A   1      35.408  34.236  35.567  1.00  0.00    -0.200 F 
ATOM     80  C   UNL A   1      36.975  33.275  37.049  1.00  0.00     0.200 A 
ATOM     81  F   UNL A   1      38.581  32.339  38.503  1.00  0.00    -0.200 F 
ATOM     82  F   UNL A   1      36.024  33.130  37.983  1.00  0.00    -0.200 F 
ENDBRANCH  58  72
BRANCH  59  83
ATOM     83  C   UNL A   1      46.057  34.116  28.013  1.00  0.00     0.064 A 
ATOM     84  C   UNL A   1      47.368  33.665  28.212  1.00  0.00     0.173 A 
ATOM     85  C   UNL A   1      45.753  34.697  26.771  1.00  0.00     0.173 A 
ATOM     86  F   UNL A   1      47.718  33.121  29.387  1.00  0.00    -0.203 F 
ATOM     87  C   UNL A   1      48.340  33.815  27.224  1.00  0.00     0.198 A 
ATOM     88  C   UNL A   1      46.715  34.816  25.771  1.00  0.00     0.198 A 
ATOM     89  F   UNL A   1      44.512  35.145  26.526  1.00  0.00    -0.203 F 
ATOM     90  F   UNL A   1      49.601  33.427  27.463  1.00  0.00    -0.200 F 
ATOM     91  C   UNL A   1      48.012  34.385  26.003  1.00  0.00     0.200 A 
ATOM     92  F   UNL A   1      46.386  35.352  24.589  1.00  0.00    -0.200 F 
ATOM     93  F   UNL A   1      48.946  34.527  25.054  1.00  0.00    -0.200 F 
ENDBRANCH  59  83
BRANCH  71  94
ATOM     94  C   UNL A   1      44.373  38.109  33.478  1.00  0.00     0.064 A 
ATOM     95  C   UNL A   1      43.969  39.371  33.016  1.00  0.00     0.173 A 
ATOM     96  C   UNL A   1      45.340  38.061  34.494  1.00  0.00     0.173 A 
ATOM     97  F   UNL A   1      43.055  39.471  32.039  1.00  0.00    -0.203 F 
ATOM     98  C   UNL A   1      44.541  40.535  33.522  1.00  0.00     0.198 A 
ATOM     99  C   UNL A   1      45.880  39.228  35.025  1.00  0.00     0.198 A 
ATOM    100  F   UNL A   1      45.753  36.881  34.981  1.00  0.00    -0.203 F 
ATOM    101  F   UNL A   1      44.185  41.725  33.020  1.00  0.00    -0.200 F 
ATOM    102  C   UNL A   1      45.490  40.464  34.530  1.00  0.00     0.200 A 
ATOM    103  F   UNL A   1      46.784  39.157  36.013  1.00  0.00    -0.200 F 
ATOM    104  F   UNL A   1      46.036  41.585  35.019  1.00  0.00    -0.200 F 
ENDBRANCH  71  94
ENDBRANCH  45  46
ENDBRANCH  38  40
ENDBRANCH  37  38
ENDBRANCH  36  37
ENDBRANCH  35  36
ENDBRANCH  34  35
ENDBRANCH  33  34
ENDBRANCH  32  33
ENDBRANCH  31  32
ENDBRANCH   1  31
TORSDOF 24
ENDMDL
