MODEL 1
REMARK VINA RESULT:     -10.5      0.000      0.000
REMARK SMILES O=C(OCCOCCOCCOCCOC(=O)C1CN(C(=O)CC2CC[NH2+]CC2)C1)c1ccc(-c2c3nc(c(-c4c(F)c(F)c(F)c(F)c4F)c4ccc([nH]4)c(-c4c(F)c(F)c(F)c(F)c4F)c4nc(c(-c5c(F)c(F)c(F)c(F)c5F)c5ccc2[nH]5)C=C4)C=C3)cc1
REMARK SMILES IDX 9 1 8 2 7 3 6 4 5 5 4 6 3 7 2 8 1 9 31 10 32 11 93 12 33 13
REMARK SMILES IDX 92 14 34 15 35 16 36 17 86 18 37 19 91 20 85 21 87 22 38 23
REMARK SMILES IDX 90 24 84 25 83 26 39 28 71 29 51 30 70 31 52 32 55 33 69 34
REMARK SMILES IDX 88 35 53 36 54 37 68 39 89 40 56 41 40 42 41 43 49 44 42 45
REMARK SMILES IDX 43 46 47 47 50 48 44 49 45 50 48 51 46 52 72 53 73 54 81 55
REMARK SMILES IDX 74 56 75 57 79 58 82 59 76 60 77 61 80 62 78 63 57 64 58 65
REMARK SMILES IDX 66 66 59 67 60 68 64 69 67 70 61 71 62 72 65 73 63 74 10 75
REMARK SMILES IDX 11 76 12 77 13 78 14 79 15 80 16 81 17 82 18 83 19 84 30 85
REMARK SMILES IDX 20 86 21 87 22 88 23 89 24 90 25 91 29 92 26 93 28 94 27 95
REMARK H PARENT 87 27 55 38 27 96 27 97
REMARK Flexibility Score: inf
ROOT
ATOM      1  O   UNL A   1      40.129  22.385  26.116  1.00  0.00    -0.377 OA
ENDROOT
BRANCH   1   2
ATOM      2  C   UNL A   1      40.802  21.534  27.048  1.00  0.00     0.188 C 
BRANCH   2   3
ATOM      3  C   UNL A   1      41.221  20.172  26.491  1.00  0.00     0.188 C 
BRANCH   3   4
ATOM      4  O   UNL A   1      42.251  20.335  25.526  1.00  0.00    -0.376 OA
BRANCH   4   5
ATOM      5  C   UNL A   1      43.408  21.080  25.872  1.00  0.00     0.202 C 
BRANCH   5   6
ATOM      6  C   UNL A   1      44.004  21.982  24.791  1.00  0.00     0.261 C 
BRANCH   6   7
ATOM      7  O   UNL A   1      43.413  23.294  24.678  1.00  0.00    -0.460 OA
BRANCH   7   8
ATOM      8  C   UNL A   1      43.916  24.491  25.069  1.00  0.00     0.338 C 
ATOM      9  O   UNL A   1      44.948  24.922  24.565  1.00  0.00    -0.246 OA
BRANCH   8  10
ATOM     10  C   UNL A   1      43.224  25.320  26.081  1.00  0.00     0.060 A 
ATOM     11  C   UNL A   1      43.388  26.694  26.150  1.00  0.00     0.016 A 
ATOM     12  C   UNL A   1      42.290  24.727  26.934  1.00  0.00     0.016 A 
ATOM     13  C   UNL A   1      42.888  27.430  27.200  1.00  0.00     0.010 A 
ATOM     14  C   UNL A   1      41.631  25.502  27.897  1.00  0.00     0.010 A 
ATOM     15  C   UNL A   1      41.986  26.847  28.078  1.00  0.00    -0.014 A 
BRANCH  15  16
ATOM     16  C   UNL A   1      41.533  27.659  29.228  1.00  0.00     0.031 A 
ATOM     17  C   UNL A   1      42.391  27.687  30.457  1.00  0.00     0.074 A 
ATOM     18  C   UNL A   1      40.474  28.484  29.092  1.00  0.00     0.049 A 
ATOM     19  N   UNL A   1      42.173  28.265  31.607  1.00  0.00    -0.248 NA
ATOM     20  C   UNL A   1      43.675  26.966  30.383  1.00  0.00     0.031 C 
ATOM     21  C   UNL A   1      39.655  28.620  27.881  1.00  0.00     0.029 A 
ATOM     22  N   UNL A   1      39.935  29.401  29.953  1.00  0.00    -0.354 N 
ATOM     23  C   UNL A   1      43.265  27.941  32.401  1.00  0.00     0.074 A 
ATOM     24  C   UNL A   1      44.138  27.103  31.614  1.00  0.00     0.031 C 
ATOM     25  C   UNL A   1      38.764  29.606  28.056  1.00  0.00     0.029 A 
ATOM     26  C   UNL A   1      38.866  30.087  29.426  1.00  0.00     0.049 A 
ATOM     27  H   UNL A   1      40.280  29.557  30.862  1.00  0.00     0.167 HD
ATOM     28  C   UNL A   1      43.509  28.318  33.675  1.00  0.00     0.037 A 
ATOM     29  C   UNL A   1      38.031  30.965  30.010  1.00  0.00     0.037 A 
ATOM     30  C   UNL A   1      42.626  29.172  34.421  1.00  0.00     0.049 A 
ATOM     31  C   UNL A   1      38.273  31.294  31.457  1.00  0.00     0.074 A 
ATOM     32  C   UNL A   1      42.701  29.558  35.745  1.00  0.00     0.029 A 
ATOM     33  N   UNL A   1      41.501  29.787  33.884  1.00  0.00    -0.354 N 
ATOM     34  N   UNL A   1      39.246  30.893  32.244  1.00  0.00    -0.248 NA
ATOM     35  C   UNL A   1      37.299  32.175  32.107  1.00  0.00     0.031 C 
ATOM     36  C   UNL A   1      41.600  30.378  36.018  1.00  0.00     0.029 A 
ATOM     37  C   UNL A   1      40.869  30.547  34.851  1.00  0.00     0.049 A 
ATOM     38  H   UNL A   1      41.200  29.696  32.950  1.00  0.00     0.167 HD
ATOM     39  C   UNL A   1      39.005  31.477  33.478  1.00  0.00     0.074 A 
ATOM     40  C   UNL A   1      37.814  32.292  33.322  1.00  0.00     0.031 C 
ATOM     41  C   UNL A   1      39.688  31.346  34.642  1.00  0.00     0.037 A 
BRANCH  28  42
ATOM     42  C   UNL A   1      44.731  27.753  34.335  1.00  0.00     0.064 A 
ATOM     43  C   UNL A   1      44.698  26.550  35.059  1.00  0.00     0.173 A 
ATOM     44  C   UNL A   1      45.948  28.447  34.277  1.00  0.00     0.173 A 
ATOM     45  F   UNL A   1      43.551  25.865  35.178  1.00  0.00    -0.203 F 
ATOM     46  C   UNL A   1      45.830  26.081  35.723  1.00  0.00     0.198 A 
ATOM     47  C   UNL A   1      47.085  27.961  34.917  1.00  0.00     0.198 A 
ATOM     48  F   UNL A   1      46.033  29.608  33.610  1.00  0.00    -0.203 F 
ATOM     49  F   UNL A   1      45.757  24.965  36.461  1.00  0.00    -0.200 F 
ATOM     50  C   UNL A   1      47.023  26.783  35.647  1.00  0.00     0.200 A 
ATOM     51  F   UNL A   1      48.237  28.641  34.842  1.00  0.00    -0.200 F 
ATOM     52  F   UNL A   1      48.109  26.335  36.292  1.00  0.00    -0.200 F 
ENDBRANCH  28  42
BRANCH  29  53
ATOM     53  C   UNL A   1      36.859  31.510  29.269  1.00  0.00     0.064 A 
ATOM     54  C   UNL A   1      36.781  32.862  28.905  1.00  0.00     0.173 A 
ATOM     55  C   UNL A   1      35.766  30.692  28.936  1.00  0.00     0.173 A 
ATOM     56  F   UNL A   1      37.785  33.697  29.212  1.00  0.00    -0.203 F 
ATOM     57  C   UNL A   1      35.651  33.376  28.266  1.00  0.00     0.198 A 
ATOM     58  C   UNL A   1      34.656  31.196  28.262  1.00  0.00     0.198 A 
ATOM     59  F   UNL A   1      35.779  29.389  29.257  1.00  0.00    -0.203 F 
ATOM     60  F   UNL A   1      35.580  34.684  27.988  1.00  0.00    -0.200 F 
ATOM     61  C   UNL A   1      34.592  32.542  27.941  1.00  0.00     0.200 A 
ATOM     62  F   UNL A   1      33.647  30.379  27.932  1.00  0.00    -0.200 F 
ATOM     63  F   UNL A   1      33.509  33.036  27.329  1.00  0.00    -0.200 F 
ENDBRANCH  29  53
BRANCH  41  64
ATOM     64  C   UNL A   1      39.173  32.128  35.811  1.00  0.00     0.064 A 
ATOM     65  C   UNL A   1      38.321  31.550  36.763  1.00  0.00     0.173 A 
ATOM     66  C   UNL A   1      39.556  33.465  35.989  1.00  0.00     0.173 A 
ATOM     67  F   UNL A   1      37.914  30.278  36.622  1.00  0.00    -0.203 F 
ATOM     68  C   UNL A   1      37.841  32.296  37.834  1.00  0.00     0.198 A 
ATOM     69  C   UNL A   1      39.103  34.196  37.081  1.00  0.00     0.198 A 
ATOM     70  F   UNL A   1      40.375  34.058  35.107  1.00  0.00    -0.203 F 
ATOM     71  F   UNL A   1      36.978  31.744  38.698  1.00  0.00    -0.200 F 
ATOM     72  C   UNL A   1      38.239  33.615  37.997  1.00  0.00     0.200 A 
ATOM     73  F   UNL A   1      39.501  35.465  37.245  1.00  0.00    -0.200 F 
ATOM     74  F   UNL A   1      37.779  34.331  39.031  1.00  0.00    -0.200 F 
ENDBRANCH  41  64
ENDBRANCH  15  16
ENDBRANCH   8  10
ENDBRANCH   7   8
ENDBRANCH   6   7
ENDBRANCH   5   6
ENDBRANCH   4   5
ENDBRANCH   3   4
ENDBRANCH   2   3
ENDBRANCH   1   2
BRANCH   1  75
ATOM     75  C   UNL A   1      38.732  22.576  26.331  1.00  0.00     0.188 C 
BRANCH  75  76
ATOM     76  C   UNL A   1      37.734  21.859  25.393  1.00  0.00     0.188 C 
BRANCH  76  77
ATOM     77  O   UNL A   1      36.605  22.649  25.043  1.00  0.00    -0.376 OA
BRANCH  77  78
ATOM     78  C   UNL A   1      35.428  22.442  25.818  1.00  0.00     0.202 C 
BRANCH  78  79
ATOM     79  C   UNL A   1      34.745  21.058  25.757  1.00  0.00     0.261 C 
BRANCH  79  80
ATOM     80  O   UNL A   1      33.323  21.074  25.954  1.00  0.00    -0.463 OA
BRANCH  80  81
ATOM     81  C   UNL A   1      32.515  21.471  24.925  1.00  0.00     0.312 C 
ATOM     82  O   UNL A   1      32.572  20.980  23.810  1.00  0.00    -0.252 OA
BRANCH  81  83
ATOM     83  C   UNL A   1      31.444  22.477  25.428  1.00  0.00     0.138 C 
ATOM     84  C   UNL A   1      31.830  23.597  26.403  1.00  0.00     0.136 C 
ATOM     85  C   UNL A   1      31.069  23.583  24.418  1.00  0.00     0.136 C 
ATOM     86  N   UNL A   1      31.082  24.489  25.536  1.00  0.00    -0.341 N 
ATOM     87  C   UNL A   1      30.556  25.728  25.748  1.00  0.00     0.222 C 
ATOM     88  O   UNL A   1      30.647  26.314  26.824  1.00  0.00    -0.275 OA
BRANCH  87  89
ATOM     89  C   UNL A   1      29.821  26.342  24.565  1.00  0.00     0.104 C 
BRANCH  89  90
ATOM     90  C   UNL A   1      30.787  27.031  23.576  1.00  0.00     0.009 C 
ATOM     91  C   UNL A   1      31.914  27.782  24.302  1.00  0.00     0.065 C 
ATOM     92  C   UNL A   1      30.050  28.000  22.636  1.00  0.00     0.065 C 
ATOM     93  C   UNL A   1      31.445  29.097  24.925  1.00  0.00     0.260 C 
ATOM     94  C   UNL A   1      29.629  29.288  23.338  1.00  0.00     0.260 C 
ATOM     95  N   UNL A   1      30.780  29.953  23.942  1.00  0.00    -0.346 N 
ATOM     96  H   UNL A   1      31.447  30.191  23.207  1.00  0.00     0.346 HD
ATOM     97  H   UNL A   1      30.449  30.789  24.421  1.00  0.00     0.346 HD
ENDBRANCH  89  90
ENDBRANCH  87  89
ENDBRANCH  81  83
ENDBRANCH  80  81
ENDBRANCH  79  80
ENDBRANCH  78  79
ENDBRANCH  77  78
ENDBRANCH  76  77
ENDBRANCH  75  76
ENDBRANCH   1  75
TORSDOF 22
ENDMDL
MODEL 2
REMARK VINA RESULT:     -10.4      4.422      8.696
REMARK SMILES O=C(OCCOCCOCCOCCOC(=O)C1CN(C(=O)CC2CC[NH2+]CC2)C1)c1ccc(-c2c3nc(c(-c4c(F)c(F)c(F)c(F)c4F)c4ccc([nH]4)c(-c4c(F)c(F)c(F)c(F)c4F)c4nc(c(-c5c(F)c(F)c(F)c(F)c5F)c5ccc2[nH]5)C=C4)C=C3)cc1
REMARK SMILES IDX 9 1 8 2 7 3 6 4 5 5 4 6 3 7 2 8 1 9 31 10 32 11 93 12 33 13
REMARK SMILES IDX 92 14 34 15 35 16 36 17 86 18 37 19 91 20 85 21 87 22 38 23
REMARK SMILES IDX 90 24 84 25 83 26 39 28 71 29 51 30 70 31 52 32 55 33 69 34
REMARK SMILES IDX 88 35 53 36 54 37 68 39 89 40 56 41 40 42 41 43 49 44 42 45
REMARK SMILES IDX 43 46 47 47 50 48 44 49 45 50 48 51 46 52 72 53 73 54 81 55
REMARK SMILES IDX 74 56 75 57 79 58 82 59 76 60 77 61 80 62 78 63 57 64 58 65
REMARK SMILES IDX 66 66 59 67 60 68 64 69 67 70 61 71 62 72 65 73 63 74 10 75
REMARK SMILES IDX 11 76 12 77 13 78 14 79 15 80 16 81 17 82 18 83 19 84 30 85
REMARK SMILES IDX 20 86 21 87 22 88 23 89 24 90 25 91 29 92 26 93 28 94 27 95
REMARK H PARENT 87 27 55 38 27 96 27 97
REMARK Flexibility Score: inf
ROOT
ATOM      1  O   UNL A   1      33.614  20.817  23.887  1.00  0.00    -0.377 OA
ENDROOT
BRANCH   1   2
ATOM      2  C   UNL A   1      33.203  22.157  23.601  1.00  0.00     0.188 C 
BRANCH   2   3
ATOM      3  C   UNL A   1      34.320  23.084  23.118  1.00  0.00     0.188 C 
BRANCH   3   4
ATOM      4  O   UNL A   1      35.341  23.173  24.104  1.00  0.00    -0.376 OA
BRANCH   4   5
ATOM      5  C   UNL A   1      36.673  22.841  23.748  1.00  0.00     0.202 C 
BRANCH   5   6
ATOM      6  C   UNL A   1      37.226  21.518  24.277  1.00  0.00     0.261 C 
BRANCH   6   7
ATOM      7  O   UNL A   1      37.669  21.530  25.650  1.00  0.00    -0.460 OA
BRANCH   7   8
ATOM      8  C   UNL A   1      38.935  21.558  26.136  1.00  0.00     0.338 C 
ATOM      9  O   UNL A   1      39.601  20.530  26.183  1.00  0.00    -0.246 OA
BRANCH   8  10
ATOM     10  C   UNL A   1      39.556  22.824  26.588  1.00  0.00     0.060 A 
ATOM     11  C   UNL A   1      39.061  24.063  26.219  1.00  0.00     0.016 A 
ATOM     12  C   UNL A   1      40.612  22.784  27.502  1.00  0.00     0.016 A 
ATOM     13  C   UNL A   1      39.746  25.226  26.491  1.00  0.00     0.010 A 
ATOM     14  C   UNL A   1      41.208  23.975  27.935  1.00  0.00     0.010 A 
ATOM     15  C   UNL A   1      40.820  25.200  27.370  1.00  0.00    -0.014 A 
BRANCH  15  16
ATOM     16  C   UNL A   1      41.564  26.461  27.574  1.00  0.00     0.031 A 
ATOM     17  C   UNL A   1      40.947  27.514  28.446  1.00  0.00     0.074 A 
ATOM     18  C   UNL A   1      42.833  26.571  27.133  1.00  0.00     0.049 A 
ATOM     19  N   UNL A   1      41.370  28.718  28.717  1.00  0.00    -0.248 NA
ATOM     20  C   UNL A   1      39.676  27.163  29.106  1.00  0.00     0.031 C 
ATOM     21  C   UNL A   1      43.564  25.539  26.387  1.00  0.00     0.029 A 
ATOM     22  N   UNL A   1      43.755  27.571  27.291  1.00  0.00    -0.354 N 
ATOM     23  C   UNL A   1      40.402  29.279  29.538  1.00  0.00     0.074 A 
ATOM     24  C   UNL A   1      39.358  28.296  29.710  1.00  0.00     0.031 C 
ATOM     25  C   UNL A   1      44.833  25.934  26.209  1.00  0.00     0.029 A 
ATOM     26  C   UNL A   1      44.973  27.290  26.718  1.00  0.00     0.049 A 
ATOM     27  H   UNL A   1      43.564  28.410  27.769  1.00  0.00     0.167 HD
ATOM     28  C   UNL A   1      40.395  30.509  30.097  1.00  0.00     0.037 A 
ATOM     29  C   UNL A   1      46.061  28.070  26.576  1.00  0.00     0.037 A 
ATOM     30  C   UNL A   1      41.463  31.454  29.922  1.00  0.00     0.049 A 
ATOM     31  C   UNL A   1      45.988  29.467  27.128  1.00  0.00     0.074 A 
ATOM     32  C   UNL A   1      41.545  32.764  30.352  1.00  0.00     0.029 A 
ATOM     33  N   UNL A   1      42.653  31.169  29.263  1.00  0.00    -0.354 N 
ATOM     34  N   UNL A   1      45.019  30.038  27.806  1.00  0.00    -0.248 NA
ATOM     35  C   UNL A   1      47.142  30.336  26.880  1.00  0.00     0.031 C 
ATOM     36  C   UNL A   1      42.772  33.283  29.921  1.00  0.00     0.029 A 
ATOM     37  C   UNL A   1      43.477  32.280  29.270  1.00  0.00     0.049 A 
ATOM     38  H   UNL A   1      42.878  30.302  28.853  1.00  0.00     0.167 HD
ATOM     39  C   UNL A   1      45.448  31.329  28.072  1.00  0.00     0.074 A 
ATOM     40  C   UNL A   1      46.782  31.442  27.514  1.00  0.00     0.031 C 
ATOM     41  C   UNL A   1      44.800  32.340  28.704  1.00  0.00     0.037 A 
BRANCH  28  42
ATOM     42  C   UNL A   1      39.176  30.900  30.879  1.00  0.00     0.064 A 
ATOM     43  C   UNL A   1      39.055  30.633  32.252  1.00  0.00     0.173 A 
ATOM     44  C   UNL A   1      38.092  31.514  30.234  1.00  0.00     0.173 A 
ATOM     45  F   UNL A   1      40.047  30.015  32.910  1.00  0.00    -0.203 F 
ATOM     46  C   UNL A   1      37.884  30.943  32.942  1.00  0.00     0.198 A 
ATOM     47  C   UNL A   1      36.934  31.847  30.933  1.00  0.00     0.198 A 
ATOM     48  F   UNL A   1      38.149  31.778  28.920  1.00  0.00    -0.203 F 
ATOM     49  F   UNL A   1      37.767  30.620  34.237  1.00  0.00    -0.200 F 
ATOM     50  C   UNL A   1      36.827  31.553  32.284  1.00  0.00     0.200 A 
ATOM     51  F   UNL A   1      35.915  32.437  30.294  1.00  0.00    -0.200 F 
ATOM     52  F   UNL A   1      35.700  31.841  32.947  1.00  0.00    -0.200 F 
ENDBRANCH  28  42
BRANCH  29  53
ATOM     53  C   UNL A   1      47.249  27.588  25.816  1.00  0.00     0.064 A 
ATOM     54  C   UNL A   1      48.369  27.051  26.464  1.00  0.00     0.173 A 
ATOM     55  C   UNL A   1      47.303  27.689  24.415  1.00  0.00     0.173 A 
ATOM     56  F   UNL A   1      48.383  26.947  27.801  1.00  0.00    -0.203 F 
ATOM     57  C   UNL A   1      49.502  26.661  25.748  1.00  0.00     0.198 A 
ATOM     58  C   UNL A   1      48.418  27.262  23.697  1.00  0.00     0.198 A 
ATOM     59  F   UNL A   1      46.263  28.195  23.736  1.00  0.00    -0.203 F 
ATOM     60  F   UNL A   1      50.581  26.210  26.401  1.00  0.00    -0.200 F 
ATOM     61  C   UNL A   1      49.523  26.762  24.365  1.00  0.00     0.200 A 
ATOM     62  F   UNL A   1      48.421  27.343  22.359  1.00  0.00    -0.200 F 
ATOM     63  F   UNL A   1      50.611  26.388  23.679  1.00  0.00    -0.200 F 
ENDBRANCH  29  53
BRANCH  41  64
ATOM     64  C   UNL A   1      45.550  33.629  28.844  1.00  0.00     0.064 A 
ATOM     65  C   UNL A   1      45.430  34.654  27.894  1.00  0.00     0.173 A 
ATOM     66  C   UNL A   1      46.380  33.845  29.952  1.00  0.00     0.173 A 
ATOM     67  F   UNL A   1      44.660  34.482  26.808  1.00  0.00    -0.203 F 
ATOM     68  C   UNL A   1      46.144  35.839  28.033  1.00  0.00     0.198 A 
ATOM     69  C   UNL A   1      47.064  35.046  30.106  1.00  0.00     0.198 A 
ATOM     70  F   UNL A   1      46.520  32.896  30.889  1.00  0.00    -0.203 F 
ATOM     71  F   UNL A   1      46.064  36.782  27.084  1.00  0.00    -0.200 F 
ATOM     72  C   UNL A   1      46.954  36.037  29.142  1.00  0.00     0.200 A 
ATOM     73  F   UNL A   1      47.833  35.242  31.186  1.00  0.00    -0.200 F 
ATOM     74  F   UNL A   1      47.638  37.181  29.276  1.00  0.00    -0.200 F 
ENDBRANCH  41  64
ENDBRANCH  15  16
ENDBRANCH   8  10
ENDBRANCH   7   8
ENDBRANCH   6   7
ENDBRANCH   5   6
ENDBRANCH   4   5
ENDBRANCH   3   4
ENDBRANCH   2   3
ENDBRANCH   1   2
BRANCH   1  75
ATOM     75  C   UNL A   1      33.494  20.397  25.245  1.00  0.00     0.188 C 
BRANCH  75  76
ATOM     76  C   UNL A   1      34.279  21.169  26.329  1.00  0.00     0.188 C 
BRANCH  76  77
ATOM     77  O   UNL A   1      33.592  21.277  27.569  1.00  0.00    -0.376 OA
BRANCH  77  78
ATOM     78  C   UNL A   1      33.152  22.582  27.933  1.00  0.00     0.202 C 
BRANCH  78  79
ATOM     79  C   UNL A   1      32.665  23.529  26.815  1.00  0.00     0.261 C 
BRANCH  79  80
ATOM     80  O   UNL A   1      31.326  23.289  26.357  1.00  0.00    -0.463 OA
BRANCH  80  81
ATOM     81  C   UNL A   1      30.466  24.345  26.238  1.00  0.00     0.312 C 
ATOM     82  O   UNL A   1      29.435  24.437  26.883  1.00  0.00    -0.252 OA
BRANCH  81  83
ATOM     83  C   UNL A   1      31.071  25.441  25.319  1.00  0.00     0.138 C 
ATOM     84  C   UNL A   1      31.031  25.284  23.793  1.00  0.00     0.136 C 
ATOM     85  C   UNL A   1      30.190  26.698  25.141  1.00  0.00     0.136 C 
ATOM     86  N   UNL A   1      30.566  26.658  23.753  1.00  0.00    -0.341 N 
ATOM     87  C   UNL A   1      30.542  27.577  22.746  1.00  0.00     0.222 C 
ATOM     88  O   UNL A   1      30.968  27.340  21.619  1.00  0.00    -0.275 OA
BRANCH  87  89
ATOM     89  C   UNL A   1      29.967  28.939  23.112  1.00  0.00     0.104 C 
BRANCH  89  90
ATOM     90  C   UNL A   1      28.774  29.326  22.213  1.00  0.00     0.009 C 
ATOM     91  C   UNL A   1      29.041  30.621  21.429  1.00  0.00     0.065 C 
ATOM     92  C   UNL A   1      27.473  29.477  23.021  1.00  0.00     0.065 C 
ATOM     93  C   UNL A   1      28.931  31.874  22.298  1.00  0.00     0.260 C 
ATOM     94  C   UNL A   1      27.445  30.760  23.848  1.00  0.00     0.260 C 
ATOM     95  N   UNL A   1      27.650  31.932  23.001  1.00  0.00    -0.346 N 
ATOM     96  H   UNL A   1      26.898  31.977  22.314  1.00  0.00     0.346 HD
ATOM     97  H   UNL A   1      27.651  32.758  23.597  1.00  0.00     0.346 HD
ENDBRANCH  89  90
ENDBRANCH  87  89
ENDBRANCH  81  83
ENDBRANCH  80  81
ENDBRANCH  79  80
ENDBRANCH  78  79
ENDBRANCH  77  78
ENDBRANCH  76  77
ENDBRANCH  75  76
ENDBRANCH   1  75
TORSDOF 22
ENDMDL
MODEL 3
REMARK VINA RESULT:     -10.3      4.294      6.775
REMARK SMILES O=C(OCCOCCOCCOCCOC(=O)C1CN(C(=O)CC2CC[NH2+]CC2)C1)c1ccc(-c2c3nc(c(-c4c(F)c(F)c(F)c(F)c4F)c4ccc([nH]4)c(-c4c(F)c(F)c(F)c(F)c4F)c4nc(c(-c5c(F)c(F)c(F)c(F)c5F)c5ccc2[nH]5)C=C4)C=C3)cc1
REMARK SMILES IDX 9 1 8 2 7 3 6 4 5 5 4 6 3 7 2 8 1 9 31 10 32 11 93 12 33 13
REMARK SMILES IDX 92 14 34 15 35 16 36 17 86 18 37 19 91 20 85 21 87 22 38 23
REMARK SMILES IDX 90 24 84 25 83 26 39 28 71 29 51 30 70 31 52 32 55 33 69 34
REMARK SMILES IDX 88 35 53 36 54 37 68 39 89 40 56 41 40 42 41 43 49 44 42 45
REMARK SMILES IDX 43 46 47 47 50 48 44 49 45 50 48 51 46 52 72 53 73 54 81 55
REMARK SMILES IDX 74 56 75 57 79 58 82 59 76 60 77 61 80 62 78 63 57 64 58 65
REMARK SMILES IDX 66 66 59 67 60 68 64 69 67 70 61 71 62 72 65 73 63 74 10 75
REMARK SMILES IDX 11 76 12 77 13 78 14 79 15 80 16 81 17 82 18 83 19 84 30 85
REMARK SMILES IDX 20 86 21 87 22 88 23 89 24 90 25 91 29 92 26 93 28 94 27 95
REMARK H PARENT 87 27 55 38 27 96 27 97
REMARK Flexibility Score: inf
ROOT
ATOM      1  O   UNL A   1      33.727  21.962  27.257  1.00  0.00    -0.377 OA
ENDROOT
BRANCH   1   2
ATOM      2  C   UNL A   1      33.252  20.954  26.361  1.00  0.00     0.188 C 
BRANCH   2   3
ATOM      3  C   UNL A   1      34.247  20.536  25.276  1.00  0.00     0.188 C 
BRANCH   3   4
ATOM      4  O   UNL A   1      35.408  21.355  25.336  1.00  0.00    -0.376 OA
BRANCH   4   5
ATOM      5  C   UNL A   1      36.653  20.816  24.923  1.00  0.00     0.202 C 
BRANCH   5   6
ATOM      6  C   UNL A   1      37.916  21.459  25.498  1.00  0.00     0.261 C 
BRANCH   6   7
ATOM      7  O   UNL A   1      39.023  20.562  25.728  1.00  0.00    -0.460 OA
BRANCH   7   8
ATOM      8  C   UNL A   1      40.121  20.747  26.504  1.00  0.00     0.338 C 
ATOM      9  O   UNL A   1      40.841  19.796  26.789  1.00  0.00    -0.246 OA
BRANCH   8  10
ATOM     10  C   UNL A   1      40.497  22.091  26.994  1.00  0.00     0.060 A 
ATOM     11  C   UNL A   1      39.869  23.243  26.550  1.00  0.00     0.016 A 
ATOM     12  C   UNL A   1      41.441  22.211  28.017  1.00  0.00     0.016 A 
ATOM     13  C   UNL A   1      40.342  24.495  26.871  1.00  0.00     0.010 A 
ATOM     14  C   UNL A   1      41.806  23.479  28.487  1.00  0.00     0.010 A 
ATOM     15  C   UNL A   1      41.306  24.631  27.860  1.00  0.00    -0.014 A 
BRANCH  15  16
ATOM     16  C   UNL A   1      41.831  25.989  28.118  1.00  0.00     0.031 A 
ATOM     17  C   UNL A   1      43.167  26.353  27.544  1.00  0.00     0.074 A 
ATOM     18  C   UNL A   1      41.041  26.915  28.699  1.00  0.00     0.049 A 
ATOM     19  N   UNL A   1      43.861  27.448  27.689  1.00  0.00    -0.248 NA
ATOM     20  C   UNL A   1      43.813  25.344  26.683  1.00  0.00     0.031 C 
ATOM     21  C   UNL A   1      39.671  26.684  29.173  1.00  0.00     0.029 A 
ATOM     22  N   UNL A   1      41.248  28.246  28.941  1.00  0.00    -0.354 N 
ATOM     23  C   UNL A   1      45.037  27.243  26.980  1.00  0.00     0.074 A 
ATOM     24  C   UNL A   1      44.976  25.915  26.417  1.00  0.00     0.031 C 
ATOM     25  C   UNL A   1      39.143  27.844  29.588  1.00  0.00     0.029 A 
ATOM     26  C   UNL A   1      40.171  28.872  29.524  1.00  0.00     0.049 A 
ATOM     27  H   UNL A   1      42.087  28.711  28.719  1.00  0.00     0.167 HD
ATOM     28  C   UNL A   1      46.071  28.098  26.816  1.00  0.00     0.037 A 
ATOM     29  C   UNL A   1      40.055  30.125  30.002  1.00  0.00     0.037 A 
ATOM     30  C   UNL A   1      46.087  29.422  27.374  1.00  0.00     0.049 A 
ATOM     31  C   UNL A   1      41.255  31.023  29.889  1.00  0.00     0.074 A 
ATOM     32  C   UNL A   1      47.103  30.357  27.366  1.00  0.00     0.029 A 
ATOM     33  N   UNL A   1      45.009  30.001  28.034  1.00  0.00    -0.354 N 
ATOM     34  N   UNL A   1      42.414  30.785  29.318  1.00  0.00    -0.248 NA
ATOM     35  C   UNL A   1      41.147  32.350  30.501  1.00  0.00     0.031 C 
ATOM     36  C   UNL A   1      46.652  31.490  28.054  1.00  0.00     0.029 A 
ATOM     37  C   UNL A   1      45.336  31.281  28.443  1.00  0.00     0.049 A 
ATOM     38  H   UNL A   1      44.140  29.564  28.186  1.00  0.00     0.167 HD
ATOM     39  C   UNL A   1      43.170  31.934  29.495  1.00  0.00     0.074 A 
ATOM     40  C   UNL A   1      42.321  32.881  30.194  1.00  0.00     0.031 C 
ATOM     41  C   UNL A   1      44.452  32.187  29.132  1.00  0.00     0.037 A 
BRANCH  28  42
ATOM     42  C   UNL A   1      47.267  27.590  26.068  1.00  0.00     0.064 A 
ATOM     43  C   UNL A   1      48.360  27.000  26.724  1.00  0.00     0.173 A 
ATOM     44  C   UNL A   1      47.341  27.735  24.675  1.00  0.00     0.173 A 
ATOM     45  F   UNL A   1      48.357  26.871  28.059  1.00  0.00    -0.203 F 
ATOM     46  C   UNL A   1      49.491  26.599  26.014  1.00  0.00     0.198 A 
ATOM     47  C   UNL A   1      48.461  27.308  23.966  1.00  0.00     0.198 A 
ATOM     48  F   UNL A   1      46.332  28.305  24.000  1.00  0.00    -0.203 F 
ATOM     49  F   UNL A   1      50.547  26.098  26.669  1.00  0.00    -0.200 F 
ATOM     50  C   UNL A   1      49.539  26.749  24.637  1.00  0.00     0.200 A 
ATOM     51  F   UNL A   1      48.504  27.453  22.635  1.00  0.00    -0.200 F 
ATOM     52  F   UNL A   1      50.630  26.371  23.958  1.00  0.00    -0.200 F 
ENDBRANCH  28  42
BRANCH  29  53
ATOM     53  C   UNL A   1      38.812  30.561  30.700  1.00  0.00     0.064 A 
ATOM     54  C   UNL A   1      37.759  31.177  30.011  1.00  0.00     0.173 A 
ATOM     55  C   UNL A   1      38.666  30.401  32.088  1.00  0.00     0.173 A 
ATOM     56  F   UNL A   1      37.849  31.374  28.687  1.00  0.00    -0.203 F 
ATOM     57  C   UNL A   1      36.626  31.640  30.684  1.00  0.00     0.198 A 
ATOM     58  C   UNL A   1      37.518  30.826  32.754  1.00  0.00     0.198 A 
ATOM     59  F   UNL A   1      39.639  29.819  32.805  1.00  0.00    -0.203 F 
ATOM     60  F   UNL A   1      35.664  32.281  30.007  1.00  0.00    -0.200 F 
ATOM     61  C   UNL A   1      36.505  31.459  32.053  1.00  0.00     0.200 A 
ATOM     62  F   UNL A   1      37.399  30.628  34.074  1.00  0.00    -0.200 F 
ATOM     63  F   UNL A   1      35.418  31.903  32.697  1.00  0.00    -0.200 F 
ENDBRANCH  29  53
BRANCH  41  64
ATOM     64  C   UNL A   1      44.983  33.548  29.461  1.00  0.00     0.064 A 
ATOM     65  C   UNL A   1      45.683  33.795  30.651  1.00  0.00     0.173 A 
ATOM     66  C   UNL A   1      44.807  34.610  28.563  1.00  0.00     0.173 A 
ATOM     67  F   UNL A   1      45.860  32.811  31.547  1.00  0.00    -0.203 F 
ATOM     68  C   UNL A   1      46.158  35.068  30.946  1.00  0.00     0.198 A 
ATOM     69  C   UNL A   1      45.314  35.872  28.845  1.00  0.00     0.198 A 
ATOM     70  F   UNL A   1      44.150  34.419  27.409  1.00  0.00    -0.203 F 
ATOM     71  F   UNL A   1      46.770  35.298  32.116  1.00  0.00    -0.200 F 
ATOM     72  C   UNL A   1      45.980  36.104  30.040  1.00  0.00     0.200 A 
ATOM     73  F   UNL A   1      45.156  36.868  27.962  1.00  0.00    -0.200 F 
ATOM     74  F   UNL A   1      46.441  37.329  30.324  1.00  0.00    -0.200 F 
ENDBRANCH  41  64
ENDBRANCH  15  16
ENDBRANCH   8  10
ENDBRANCH   7   8
ENDBRANCH   6   7
ENDBRANCH   5   6
ENDBRANCH   4   5
ENDBRANCH   3   4
ENDBRANCH   2   3
ENDBRANCH   1   2
BRANCH   1  75
ATOM     75  C   UNL A   1      32.932  23.141  27.359  1.00  0.00     0.188 C 
BRANCH  75  76
ATOM     76  C   UNL A   1      33.047  24.209  26.248  1.00  0.00     0.188 C 
BRANCH  76  77
ATOM     77  O   UNL A   1      31.794  24.658  25.749  1.00  0.00    -0.376 OA
BRANCH  77  78
ATOM     78  C   UNL A   1      31.040  23.711  24.997  1.00  0.00     0.202 C 
BRANCH  78  79
ATOM     79  C   UNL A   1      31.725  23.016  23.800  1.00  0.00     0.261 C 
BRANCH  79  80
ATOM     80  O   UNL A   1      31.792  23.801  22.600  1.00  0.00    -0.463 OA
BRANCH  80  81
ATOM     81  C   UNL A   1      32.985  24.360  22.239  1.00  0.00     0.312 C 
ATOM     82  O   UNL A   1      33.954  23.698  21.906  1.00  0.00    -0.252 OA
BRANCH  81  83
ATOM     83  C   UNL A   1      32.863  25.906  22.156  1.00  0.00     0.138 C 
ATOM     84  C   UNL A   1      31.487  26.581  22.243  1.00  0.00     0.136 C 
ATOM     85  C   UNL A   1      33.233  26.657  23.455  1.00  0.00     0.136 C 
ATOM     86  N   UNL A   1      32.095  27.496  23.191  1.00  0.00    -0.341 N 
ATOM     87  C   UNL A   1      31.715  28.730  23.630  1.00  0.00     0.222 C 
ATOM     88  O   UNL A   1      30.702  29.297  23.227  1.00  0.00    -0.275 OA
BRANCH  87  89
ATOM     89  C   UNL A   1      32.644  29.382  24.645  1.00  0.00     0.104 C 
BRANCH  89  90
ATOM     90  C   UNL A   1      32.190  29.122  26.098  1.00  0.00     0.009 C 
ATOM     91  C   UNL A   1      31.972  30.430  26.875  1.00  0.00     0.065 C 
ATOM     92  C   UNL A   1      33.188  28.234  26.860  1.00  0.00     0.065 C 
ATOM     93  C   UNL A   1      33.283  31.097  27.291  1.00  0.00     0.260 C 
ATOM     94  C   UNL A   1      34.461  28.985  27.245  1.00  0.00     0.260 C 
ATOM     95  N   UNL A   1      34.147  30.176  28.029  1.00  0.00    -0.346 N 
ATOM     96  H   UNL A   1      33.670  29.891  28.885  1.00  0.00     0.346 HD
ATOM     97  H   UNL A   1      35.020  30.658  28.238  1.00  0.00     0.346 HD
ENDBRANCH  89  90
ENDBRANCH  87  89
ENDBRANCH  81  83
ENDBRANCH  80  81
ENDBRANCH  79  80
ENDBRANCH  78  79
ENDBRANCH  77  78
ENDBRANCH  76  77
ENDBRANCH  75  76
ENDBRANCH   1  75
TORSDOF 22
ENDMDL
