MODEL 1
REMARK VINA RESULT:     -10.7      0.000      0.000
REMARK SMILES O=C(OCCOCCOCCOCCOC(=O)[C@@H](NC(=O)[C@H]1CC[C@@H]2CCCC[C@H]2[NH2+]1)C1CC1)c1ccc(-c2c3nc(c(-c4c(F)c(F)c(F)c(F)c4F)c4ccc([nH]4)c(-c4c(F)c(F)c(F)c(F)c4F)c4nc(c(-c5c(F)c(F)c(F)c(F)c5F)c5ccc2[nH]5)C=C4)C=C3)cc1
REMARK SMILES IDX 9 1 8 2 7 3 6 4 5 5 4 6 3 7 2 8 1 9 35 10 36 11 97 12 37 13
REMARK SMILES IDX 96 14 38 15 39 16 40 17 90 18 41 19 95 20 89 21 91 22 42 23
REMARK SMILES IDX 94 24 88 25 87 26 43 28 75 29 55 30 74 31 56 32 59 33 73 34
REMARK SMILES IDX 92 35 57 36 58 37 72 39 93 40 60 41 44 42 45 43 53 44 46 45
REMARK SMILES IDX 47 46 51 47 54 48 48 49 49 50 52 51 50 52 76 53 77 54 85 55
REMARK SMILES IDX 78 56 79 57 83 58 86 59 80 60 81 61 84 62 82 63 61 64 62 65
REMARK SMILES IDX 70 66 63 67 64 68 68 69 71 70 65 71 66 72 69 73 67 74 10 75
REMARK SMILES IDX 11 76 12 77 13 78 14 79 15 80 16 81 17 82 18 83 19 84 20 85
REMARK SMILES IDX 21 87 22 88 23 89 31 90 24 91 30 92 25 95 29 96 26 97 28 98
REMARK SMILES IDX 27 99 32 100 33 101 34 102
REMARK H PARENT 91 27 59 38 19 86 31 93 31 94
REMARK Flexibility Score: inf
ROOT
ATOM      1  O   UNL A   1      40.435  20.617  27.124  1.00  0.00    -0.377 OA
ENDROOT
BRANCH   1   2
ATOM      2  C   UNL A   1      40.702  19.571  26.184  1.00  0.00     0.188 C 
BRANCH   2   3
ATOM      3  C   UNL A   1      42.172  19.171  26.104  1.00  0.00     0.188 C 
BRANCH   3   4
ATOM      4  O   UNL A   1      42.854  20.079  25.257  1.00  0.00    -0.376 OA
BRANCH   4   5
ATOM      5  C   UNL A   1      43.731  21.025  25.859  1.00  0.00     0.202 C 
BRANCH   5   6
ATOM      6  C   UNL A   1      44.155  22.143  24.933  1.00  0.00     0.261 C 
BRANCH   6   7
ATOM      7  O   UNL A   1      43.377  23.348  25.051  1.00  0.00    -0.460 OA
BRANCH   7   8
ATOM      8  C   UNL A   1      43.746  24.623  25.278  1.00  0.00     0.338 C 
ATOM      9  O   UNL A   1      44.607  25.124  24.536  1.00  0.00    -0.246 OA
BRANCH   8  10
ATOM     10  C   UNL A   1      43.136  25.523  26.292  1.00  0.00     0.060 A 
ATOM     11  C   UNL A   1      43.360  26.893  26.401  1.00  0.00     0.016 A 
ATOM     12  C   UNL A   1      42.156  24.961  27.126  1.00  0.00     0.016 A 
ATOM     13  C   UNL A   1      42.739  27.669  27.355  1.00  0.00     0.010 A 
ATOM     14  C   UNL A   1      41.473  25.743  28.060  1.00  0.00     0.010 A 
ATOM     15  C   UNL A   1      41.798  27.097  28.192  1.00  0.00    -0.014 A 
BRANCH  15  16
ATOM     16  C   UNL A   1      41.358  27.923  29.319  1.00  0.00     0.031 A 
ATOM     17  C   UNL A   1      42.249  27.950  30.518  1.00  0.00     0.074 A 
ATOM     18  C   UNL A   1      40.333  28.776  29.159  1.00  0.00     0.049 A 
ATOM     19  N   UNL A   1      42.067  28.522  31.673  1.00  0.00    -0.248 NA
ATOM     20  C   UNL A   1      43.539  27.245  30.390  1.00  0.00     0.031 C 
ATOM     21  C   UNL A   1      39.564  28.955  27.921  1.00  0.00     0.029 A 
ATOM     22  N   UNL A   1      39.790  29.687  30.020  1.00  0.00    -0.354 N 
ATOM     23  C   UNL A   1      43.188  28.199  32.424  1.00  0.00     0.074 A 
ATOM     24  C   UNL A   1      44.055  27.395  31.597  1.00  0.00     0.031 C 
ATOM     25  C   UNL A   1      38.660  29.931  28.103  1.00  0.00     0.029 A 
ATOM     26  C   UNL A   1      38.721  30.366  29.491  1.00  0.00     0.049 A 
ATOM     27  H   UNL A   1      40.132  29.841  30.931  1.00  0.00     0.167 HD
ATOM     28  C   UNL A   1      43.441  28.540  33.705  1.00  0.00     0.037 A 
ATOM     29  C   UNL A   1      37.857  31.197  30.102  1.00  0.00     0.037 A 
ATOM     30  C   UNL A   1      42.540  29.351  34.473  1.00  0.00     0.049 A 
ATOM     31  C   UNL A   1      38.085  31.453  31.568  1.00  0.00     0.074 A 
ATOM     32  C   UNL A   1      42.600  29.700  35.806  1.00  0.00     0.029 A 
ATOM     33  N   UNL A   1      41.396  29.946  33.947  1.00  0.00    -0.354 N 
ATOM     34  N   UNL A   1      39.071  31.046  32.334  1.00  0.00    -0.248 NA
ATOM     35  C   UNL A   1      37.075  32.255  32.263  1.00  0.00     0.031 C 
ATOM     36  C   UNL A   1      41.465  30.465  36.098  1.00  0.00     0.029 A 
ATOM     37  C   UNL A   1      40.729  30.645  34.933  1.00  0.00     0.049 A 
ATOM     38  H   UNL A   1      41.106  29.877  33.009  1.00  0.00     0.167 HD
ATOM     39  C   UNL A   1      38.813  31.552  33.597  1.00  0.00     0.074 A 
ATOM     40  C   UNL A   1      37.584  32.318  33.484  1.00  0.00     0.031 C 
ATOM     41  C   UNL A   1      39.513  31.400  34.749  1.00  0.00     0.037 A 
BRANCH  28  42
ATOM     42  C   UNL A   1      44.657  27.938  34.341  1.00  0.00     0.064 A 
ATOM     43  C   UNL A   1      44.642  26.671  34.944  1.00  0.00     0.173 A 
ATOM     44  C   UNL A   1      45.843  28.685  34.416  1.00  0.00     0.173 A 
ATOM     45  F   UNL A   1      43.520  25.935  34.941  1.00  0.00    -0.203 F 
ATOM     46  C   UNL A   1      45.759  26.188  35.624  1.00  0.00     0.198 A 
ATOM     47  C   UNL A   1      46.966  28.187  35.072  1.00  0.00     0.198 A 
ATOM     48  F   UNL A   1      45.906  29.911  33.876  1.00  0.00    -0.203 F 
ATOM     49  F   UNL A   1      45.699  25.007  36.255  1.00  0.00    -0.200 F 
ATOM     50  C   UNL A   1      46.920  26.944  35.684  1.00  0.00     0.200 A 
ATOM     51  F   UNL A   1      48.086  28.922  35.132  1.00  0.00    -0.200 F 
ATOM     52  F   UNL A   1      47.989  26.484  36.350  1.00  0.00    -0.200 F 
ENDBRANCH  28  42
BRANCH  29  53
ATOM     53  C   UNL A   1      36.686  31.750  29.371  1.00  0.00     0.064 A 
ATOM     54  C   UNL A   1      36.598  33.112  29.053  1.00  0.00     0.173 A 
ATOM     55  C   UNL A   1      35.610  30.929  28.990  1.00  0.00     0.173 A 
ATOM     56  F   UNL A   1      37.586  33.947  29.407  1.00  0.00    -0.203 F 
ATOM     57  C   UNL A   1      35.476  33.632  28.406  1.00  0.00     0.198 A 
ATOM     58  C   UNL A   1      34.507  31.443  28.313  1.00  0.00     0.198 A 
ATOM     59  F   UNL A   1      35.633  29.617  29.268  1.00  0.00    -0.203 F 
ATOM     60  F   UNL A   1      35.399  34.948  28.162  1.00  0.00    -0.200 F 
ATOM     61  C   UNL A   1      34.435  32.797  28.032  1.00  0.00     0.200 A 
ATOM     62  F   UNL A   1      33.512  30.626  27.938  1.00  0.00    -0.200 F 
ATOM     63  F   UNL A   1      33.359  33.299  27.411  1.00  0.00    -0.200 F 
ENDBRANCH  29  53
BRANCH  41  64
ATOM     64  C   UNL A   1      38.982  32.115  35.952  1.00  0.00     0.064 A 
ATOM     65  C   UNL A   1      38.174  31.466  36.895  1.00  0.00     0.173 A 
ATOM     66  C   UNL A   1      39.339  33.451  36.187  1.00  0.00     0.173 A 
ATOM     67  F   UNL A   1      37.795  30.193  36.700  1.00  0.00    -0.203 F 
ATOM     68  C   UNL A   1      37.722  32.139  38.025  1.00  0.00     0.198 A 
ATOM     69  C   UNL A   1      38.916  34.108  37.335  1.00  0.00     0.198 A 
ATOM     70  F   UNL A   1      40.118  34.107  35.313  1.00  0.00    -0.203 F 
ATOM     71  F   UNL A   1      36.911  31.518  38.891  1.00  0.00    -0.200 F 
ATOM     72  C   UNL A   1      38.102  33.455  38.249  1.00  0.00     0.200 A 
ATOM     73  F   UNL A   1      39.298  35.372  37.559  1.00  0.00    -0.200 F 
ATOM     74  F   UNL A   1      37.678  34.096  39.345  1.00  0.00    -0.200 F 
ENDBRANCH  41  64
ENDBRANCH  15  16
ENDBRANCH   8  10
ENDBRANCH   7   8
ENDBRANCH   6   7
ENDBRANCH   5   6
ENDBRANCH   4   5
ENDBRANCH   3   4
ENDBRANCH   2   3
ENDBRANCH   1   2
BRANCH   1  75
ATOM     75  C   UNL A   1      40.311  21.940  26.612  1.00  0.00     0.188 C 
BRANCH  75  76
ATOM     76  C   UNL A   1      38.917  22.526  26.362  1.00  0.00     0.188 C 
BRANCH  76  77
ATOM     77  O   UNL A   1      38.030  21.591  25.785  1.00  0.00    -0.376 OA
BRANCH  77  78
ATOM     78  C   UNL A   1      37.338  22.014  24.617  1.00  0.00     0.202 C 
BRANCH  78  79
ATOM     79  C   UNL A   1      36.710  23.430  24.515  1.00  0.00     0.261 C 
BRANCH  79  80
ATOM     80  O   UNL A   1      36.041  23.933  25.687  1.00  0.00    -0.462 OA
BRANCH  80  81
ATOM     81  C   UNL A   1      34.756  24.352  25.555  1.00  0.00     0.329 C 
ATOM     82  O   UNL A   1      34.452  25.531  25.349  1.00  0.00    -0.250 OA
BRANCH  81  83
ATOM     83  C   UNL A   1      33.746  23.173  25.381  1.00  0.00     0.195 C 
BRANCH  83  84
ATOM     84  N   UNL A   1      33.198  22.692  24.086  1.00  0.00    -0.337 N 
ATOM     85  C   UNL A   1      32.329  22.996  23.099  1.00  0.00     0.278 C 
ATOM     86  H   UNL A   1      33.627  21.833  23.867  1.00  0.00     0.164 HD
ATOM     87  O   UNL A   1      32.207  22.121  22.225  1.00  0.00    -0.268 OA
BRANCH  85  88
ATOM     88  C   UNL A   1      31.618  24.337  22.883  1.00  0.00     0.272 C 
ATOM     89  C   UNL A   1      30.581  24.687  23.945  1.00  0.00     0.076 C 
ATOM     90  N   UNL A   1      32.685  25.307  22.648  1.00  0.00    -0.333 N 
ATOM     91  C   UNL A   1      30.176  26.167  23.882  1.00  0.00     0.016 C 
ATOM     92  C   UNL A   1      32.322  26.710  22.696  1.00  0.00     0.186 C 
ATOM     93  H   UNL A   1      33.073  25.120  21.724  1.00  0.00     0.347 HD
ATOM     94  H   UNL A   1      33.336  25.176  23.422  1.00  0.00     0.347 HD
ATOM     95  C   UNL A   1      31.444  27.018  23.921  1.00  0.00     0.048 C 
ATOM     96  C   UNL A   1      33.646  27.490  22.698  1.00  0.00     0.065 C 
ATOM     97  C   UNL A   1      31.236  28.518  24.084  1.00  0.00     0.010 C 
ATOM     98  C   UNL A   1      33.482  28.967  23.020  1.00  0.00     0.006 C 
ATOM     99  C   UNL A   1      32.606  29.186  24.250  1.00  0.00     0.001 C 
ENDBRANCH  85  88
ENDBRANCH  83  84
BRANCH  83 100
ATOM    100  C   UNL A   1      33.733  22.223  26.555  1.00  0.00     0.023 C 
ATOM    101  C   UNL A   1      34.060  22.583  27.975  1.00  0.00     0.007 C 
ATOM    102  C   UNL A   1      32.634  22.353  27.545  1.00  0.00     0.007 C 
ENDBRANCH  83 100
ENDBRANCH  81  83
ENDBRANCH  80  81
ENDBRANCH  79  80
ENDBRANCH  78  79
ENDBRANCH  77  78
ENDBRANCH  76  77
ENDBRANCH  75  76
ENDBRANCH   1  75
TORSDOF 23
ENDMDL
MODEL 2
REMARK VINA RESULT:     -10.5      1.404      7.325
REMARK SMILES O=C(OCCOCCOCCOCCOC(=O)[C@@H](NC(=O)[C@H]1CC[C@@H]2CCCC[C@H]2[NH2+]1)C1CC1)c1ccc(-c2c3nc(c(-c4c(F)c(F)c(F)c(F)c4F)c4ccc([nH]4)c(-c4c(F)c(F)c(F)c(F)c4F)c4nc(c(-c5c(F)c(F)c(F)c(F)c5F)c5ccc2[nH]5)C=C4)C=C3)cc1
REMARK SMILES IDX 9 1 8 2 7 3 6 4 5 5 4 6 3 7 2 8 1 9 35 10 36 11 97 12 37 13
REMARK SMILES IDX 96 14 38 15 39 16 40 17 90 18 41 19 95 20 89 21 91 22 42 23
REMARK SMILES IDX 94 24 88 25 87 26 43 28 75 29 55 30 74 31 56 32 59 33 73 34
REMARK SMILES IDX 92 35 57 36 58 37 72 39 93 40 60 41 44 42 45 43 53 44 46 45
REMARK SMILES IDX 47 46 51 47 54 48 48 49 49 50 52 51 50 52 76 53 77 54 85 55
REMARK SMILES IDX 78 56 79 57 83 58 86 59 80 60 81 61 84 62 82 63 61 64 62 65
REMARK SMILES IDX 70 66 63 67 64 68 68 69 71 70 65 71 66 72 69 73 67 74 10 75
REMARK SMILES IDX 11 76 12 77 13 78 14 79 15 80 16 81 17 82 18 83 19 84 20 85
REMARK SMILES IDX 21 87 22 88 23 89 31 90 24 91 30 92 25 95 29 96 26 97 28 98
REMARK SMILES IDX 27 99 32 100 33 101 34 102
REMARK H PARENT 91 27 59 38 19 86 31 93 31 94
REMARK Flexibility Score: inf
ROOT
ATOM      1  O   UNL A   1      40.314  21.441  27.396  1.00  0.00    -0.377 OA
ENDROOT
BRANCH   1   2
ATOM      2  C   UNL A   1      41.096  20.246  27.295  1.00  0.00     0.188 C 
BRANCH   2   3
ATOM      3  C   UNL A   1      42.098  20.257  26.145  1.00  0.00     0.188 C 
BRANCH   3   4
ATOM      4  O   UNL A   1      43.143  21.163  26.451  1.00  0.00    -0.376 OA
BRANCH   4   5
ATOM      5  C   UNL A   1      43.845  21.764  25.368  1.00  0.00     0.202 C 
BRANCH   5   6
ATOM      6  C   UNL A   1      43.125  22.943  24.751  1.00  0.00     0.261 C 
BRANCH   6   7
ATOM      7  O   UNL A   1      43.899  24.155  24.693  1.00  0.00    -0.460 OA
BRANCH   7   8
ATOM      8  C   UNL A   1      44.552  24.837  25.653  1.00  0.00     0.338 C 
ATOM      9  O   UNL A   1      45.793  24.858  25.613  1.00  0.00    -0.246 OA
BRANCH   8  10
ATOM     10  C   UNL A   1      43.905  25.655  26.713  1.00  0.00     0.060 A 
ATOM     11  C   UNL A   1      44.020  27.036  26.856  1.00  0.00     0.016 A 
ATOM     12  C   UNL A   1      43.004  24.991  27.559  1.00  0.00     0.016 A 
ATOM     13  C   UNL A   1      43.371  27.730  27.852  1.00  0.00     0.010 A 
ATOM     14  C   UNL A   1      42.292  25.687  28.538  1.00  0.00     0.010 A 
ATOM     15  C   UNL A   1      42.509  27.060  28.700  1.00  0.00    -0.014 A 
BRANCH  15  16
ATOM     16  C   UNL A   1      42.042  27.815  29.866  1.00  0.00     0.031 A 
ATOM     17  C   UNL A   1      40.748  28.547  29.715  1.00  0.00     0.074 A 
ATOM     18  C   UNL A   1      42.644  27.645  31.055  1.00  0.00     0.049 A 
ATOM     19  N   UNL A   1      40.150  29.351  30.546  1.00  0.00    -0.248 NA
ATOM     20  C   UNL A   1      40.015  28.326  28.454  1.00  0.00     0.031 C 
ATOM     21  C   UNL A   1      43.785  26.755  31.308  1.00  0.00     0.029 A 
ATOM     22  N   UNL A   1      42.355  28.170  32.282  1.00  0.00    -0.354 N 
ATOM     23  C   UNL A   1      39.005  29.774  29.886  1.00  0.00     0.074 A 
ATOM     24  C   UNL A   1      38.977  29.131  28.595  1.00  0.00     0.031 C 
ATOM     25  C   UNL A   1      44.085  26.788  32.615  1.00  0.00     0.029 A 
ATOM     26  C   UNL A   1      43.228  27.771  33.263  1.00  0.00     0.049 A 
ATOM     27  H   UNL A   1      41.596  28.775  32.446  1.00  0.00     0.167 HD
ATOM     28  C   UNL A   1      38.076  30.645  30.335  1.00  0.00     0.037 A 
ATOM     29  C   UNL A   1      43.345  28.217  34.527  1.00  0.00     0.037 A 
ATOM     30  C   UNL A   1      38.156  31.245  31.637  1.00  0.00     0.049 A 
ATOM     31  C   UNL A   1      42.381  29.289  34.959  1.00  0.00     0.074 A 
ATOM     32  C   UNL A   1      37.357  32.218  32.200  1.00  0.00     0.029 A 
ATOM     33  N   UNL A   1      39.118  30.908  32.585  1.00  0.00    -0.354 N 
ATOM     34  N   UNL A   1      41.367  29.803  34.300  1.00  0.00    -0.248 NA
ATOM     35  C   UNL A   1      42.586  29.865  36.290  1.00  0.00     0.031 C 
ATOM     36  C   UNL A   1      37.866  32.504  33.471  1.00  0.00     0.029 A 
ATOM     37  C   UNL A   1      38.946  31.667  33.726  1.00  0.00     0.049 A 
ATOM     38  H   UNL A   1      39.819  30.227  32.461  1.00  0.00     0.167 HD
ATOM     39  C   UNL A   1      40.802  30.751  35.138  1.00  0.00     0.074 A 
ATOM     40  C   UNL A   1      41.577  30.720  36.365  1.00  0.00     0.031 C 
ATOM     41  C   UNL A   1      39.748  31.576  34.922  1.00  0.00     0.037 A 
BRANCH  28  42
ATOM     42  C   UNL A   1      37.007  31.057  29.370  1.00  0.00     0.064 A 
ATOM     43  C   UNL A   1      36.980  32.326  28.773  1.00  0.00     0.173 A 
ATOM     44  C   UNL A   1      35.942  30.184  29.099  1.00  0.00     0.173 A 
ATOM     45  F   UNL A   1      37.950  33.216  29.034  1.00  0.00    -0.203 F 
ATOM     46  C   UNL A   1      35.912  32.717  27.967  1.00  0.00     0.198 A 
ATOM     47  C   UNL A   1      34.891  30.567  28.270  1.00  0.00     0.198 A 
ATOM     48  F   UNL A   1      35.907  28.966  29.660  1.00  0.00    -0.203 F 
ATOM     49  F   UNL A   1      35.871  33.959  27.467  1.00  0.00    -0.200 F 
ATOM     50  C   UNL A   1      34.871  31.836  27.714  1.00  0.00     0.200 A 
ATOM     51  F   UNL A   1      33.884  29.714  28.030  1.00  0.00    -0.200 F 
ATOM     52  F   UNL A   1      33.838  32.218  26.949  1.00  0.00    -0.200 F 
ENDBRANCH  28  42
BRANCH  29  53
ATOM     53  C   UNL A   1      44.440  27.731  35.408  1.00  0.00     0.064 A 
ATOM     54  C   UNL A   1      45.702  28.342  35.412  1.00  0.00     0.173 A 
ATOM     55  C   UNL A   1      44.258  26.624  36.255  1.00  0.00     0.173 A 
ATOM     56  F   UNL A   1      45.940  29.391  34.612  1.00  0.00    -0.203 F 
ATOM     57  C   UNL A   1      46.738  27.854  36.208  1.00  0.00     0.198 A 
ATOM     58  C   UNL A   1      45.283  26.159  37.075  1.00  0.00     0.198 A 
ATOM     59  F   UNL A   1      43.074  25.993  36.294  1.00  0.00    -0.203 F 
ATOM     60  F   UNL A   1      47.948  28.428  36.153  1.00  0.00    -0.200 F 
ATOM     61  C   UNL A   1      46.527  26.767  37.043  1.00  0.00     0.200 A 
ATOM     62  F   UNL A   1      45.066  25.119  37.893  1.00  0.00    -0.200 F 
ATOM     63  F   UNL A   1      47.524  26.300  37.807  1.00  0.00    -0.200 F 
ENDBRANCH  29  53
BRANCH  41  64
ATOM     64  C   UNL A   1      39.358  32.471  36.057  1.00  0.00     0.064 A 
ATOM     65  C   UNL A   1      38.420  32.073  37.018  1.00  0.00     0.173 A 
ATOM     66  C   UNL A   1      39.980  33.719  36.210  1.00  0.00     0.173 A 
ATOM     67  F   UNL A   1      37.789  30.894  36.900  1.00  0.00    -0.203 F 
ATOM     68  C   UNL A   1      38.100  32.906  38.085  1.00  0.00     0.198 A 
ATOM     69  C   UNL A   1      39.685  34.532  37.296  1.00  0.00     0.198 A 
ATOM     70  F   UNL A   1      40.891  34.136  35.316  1.00  0.00    -0.203 F 
ATOM     71  F   UNL A   1      37.166  32.530  38.968  1.00  0.00    -0.200 F 
ATOM     72  C   UNL A   1      38.740  34.129  38.228  1.00  0.00     0.200 A 
ATOM     73  F   UNL A   1      40.317  35.704  37.444  1.00  0.00    -0.200 F 
ATOM     74  F   UNL A   1      38.442  34.922  39.265  1.00  0.00    -0.200 F 
ENDBRANCH  41  64
ENDBRANCH  15  16
ENDBRANCH   8  10
ENDBRANCH   7   8
ENDBRANCH   6   7
ENDBRANCH   5   6
ENDBRANCH   4   5
ENDBRANCH   3   4
ENDBRANCH   2   3
ENDBRANCH   1   2
BRANCH   1  75
ATOM     75  C   UNL A   1      39.825  22.007  26.184  1.00  0.00     0.188 C 
BRANCH  75  76
ATOM     76  C   UNL A   1      38.339  22.360  26.060  1.00  0.00     0.188 C 
BRANCH  76  77
ATOM     77  O   UNL A   1      37.838  22.157  24.755  1.00  0.00    -0.376 OA
BRANCH  77  78
ATOM     78  C   UNL A   1      36.710  21.300  24.639  1.00  0.00     0.202 C 
BRANCH  78  79
ATOM     79  C   UNL A   1      35.668  21.170  25.782  1.00  0.00     0.261 C 
BRANCH  79  80
ATOM     80  O   UNL A   1      34.367  21.738  25.544  1.00  0.00    -0.462 OA
BRANCH  80  81
ATOM     81  C   UNL A   1      33.462  20.994  24.858  1.00  0.00     0.329 C 
ATOM     82  O   UNL A   1      33.652  19.808  24.566  1.00  0.00    -0.250 OA
BRANCH  81  83
ATOM     83  C   UNL A   1      32.063  21.679  24.754  1.00  0.00     0.195 C 
BRANCH  83  84
ATOM     84  N   UNL A   1      31.237  22.133  25.903  1.00  0.00    -0.337 N 
ATOM     85  C   UNL A   1      30.969  23.197  26.689  1.00  0.00     0.278 C 
ATOM     86  H   UNL A   1      30.680  21.378  26.203  1.00  0.00     0.164 HD
ATOM     87  O   UNL A   1      30.183  22.968  27.625  1.00  0.00    -0.268 OA
BRANCH  85  88
ATOM     88  C   UNL A   1      31.407  24.647  26.452  1.00  0.00     0.272 C 
ATOM     89  C   UNL A   1      32.847  24.807  25.975  1.00  0.00     0.076 C 
ATOM     90  N   UNL A   1      30.360  25.237  25.621  1.00  0.00    -0.333 N 
ATOM     91  C   UNL A   1      33.111  26.213  25.416  1.00  0.00     0.016 C 
ATOM     92  C   UNL A   1      30.652  26.517  25.006  1.00  0.00     0.186 C 
ATOM     93  H   UNL A   1      29.535  25.358  26.208  1.00  0.00     0.347 HD
ATOM     94  H   UNL A   1      30.244  24.589  24.843  1.00  0.00     0.347 HD
ATOM     95  C   UNL A   1      32.049  26.521  24.362  1.00  0.00     0.048 C 
ATOM     96  C   UNL A   1      29.525  26.764  23.990  1.00  0.00     0.065 C 
ATOM     97  C   UNL A   1      32.271  27.785  23.541  1.00  0.00     0.010 C 
ATOM     98  C   UNL A   1      29.798  27.926  23.049  1.00  0.00     0.006 C 
ATOM     99  C   UNL A   1      31.199  27.853  22.448  1.00  0.00     0.001 C 
ENDBRANCH  85  88
ENDBRANCH  83  84
BRANCH  83 100
ATOM    100  C   UNL A   1      31.807  22.306  23.404  1.00  0.00     0.023 C 
ATOM    101  C   UNL A   1      32.859  22.822  22.466  1.00  0.00     0.007 C 
ATOM    102  C   UNL A   1      32.153  21.520  22.193  1.00  0.00     0.007 C 
ENDBRANCH  83 100
ENDBRANCH  81  83
ENDBRANCH  80  81
ENDBRANCH  79  80
ENDBRANCH  78  79
ENDBRANCH  77  78
ENDBRANCH  76  77
ENDBRANCH  75  76
ENDBRANCH   1  75
TORSDOF 23
ENDMDL
MODEL 3
REMARK VINA RESULT:     -10.0      1.032      2.214
REMARK SMILES O=C(OCCOCCOCCOCCOC(=O)[C@@H](NC(=O)[C@H]1CC[C@@H]2CCCC[C@H]2[NH2+]1)C1CC1)c1ccc(-c2c3nc(c(-c4c(F)c(F)c(F)c(F)c4F)c4ccc([nH]4)c(-c4c(F)c(F)c(F)c(F)c4F)c4nc(c(-c5c(F)c(F)c(F)c(F)c5F)c5ccc2[nH]5)C=C4)C=C3)cc1
REMARK SMILES IDX 9 1 8 2 7 3 6 4 5 5 4 6 3 7 2 8 1 9 35 10 36 11 97 12 37 13
REMARK SMILES IDX 96 14 38 15 39 16 40 17 90 18 41 19 95 20 89 21 91 22 42 23
REMARK SMILES IDX 94 24 88 25 87 26 43 28 75 29 55 30 74 31 56 32 59 33 73 34
REMARK SMILES IDX 92 35 57 36 58 37 72 39 93 40 60 41 44 42 45 43 53 44 46 45
REMARK SMILES IDX 47 46 51 47 54 48 48 49 49 50 52 51 50 52 76 53 77 54 85 55
REMARK SMILES IDX 78 56 79 57 83 58 86 59 80 60 81 61 84 62 82 63 61 64 62 65
REMARK SMILES IDX 70 66 63 67 64 68 68 69 71 70 65 71 66 72 69 73 67 74 10 75
REMARK SMILES IDX 11 76 12 77 13 78 14 79 15 80 16 81 17 82 18 83 19 84 20 85
REMARK SMILES IDX 21 87 22 88 23 89 31 90 24 91 30 92 25 95 29 96 26 97 28 98
REMARK SMILES IDX 27 99 32 100 33 101 34 102
REMARK H PARENT 91 27 59 38 19 86 31 93 31 94
REMARK Flexibility Score: inf
ROOT
ATOM      1  O   UNL A   1      39.984  21.258  27.216  1.00  0.00    -0.377 OA
ENDROOT
BRANCH   1   2
ATOM      2  C   UNL A   1      40.517  20.224  26.382  1.00  0.00     0.188 C 
BRANCH   2   3
ATOM      3  C   UNL A   1      41.883  19.712  26.826  1.00  0.00     0.188 C 
BRANCH   3   4
ATOM      4  O   UNL A   1      42.891  20.528  26.255  1.00  0.00    -0.376 OA
BRANCH   4   5
ATOM      5  C   UNL A   1      43.431  21.579  27.049  1.00  0.00     0.202 C 
BRANCH   5   6
ATOM      6  C   UNL A   1      44.367  22.498  26.295  1.00  0.00     0.261 C 
BRANCH   6   7
ATOM      7  O   UNL A   1      43.710  23.500  25.498  1.00  0.00    -0.460 OA
BRANCH   7   8
ATOM      8  C   UNL A   1      43.808  24.843  25.504  1.00  0.00     0.338 C 
ATOM      9  O   UNL A   1      44.375  25.393  24.546  1.00  0.00    -0.246 OA
BRANCH   8  10
ATOM     10  C   UNL A   1      43.205  25.740  26.526  1.00  0.00     0.060 A 
ATOM     11  C   UNL A   1      43.612  27.043  26.803  1.00  0.00     0.016 A 
ATOM     12  C   UNL A   1      42.050  25.273  27.171  1.00  0.00     0.016 A 
ATOM     13  C   UNL A   1      42.989  27.824  27.750  1.00  0.00     0.010 A 
ATOM     14  C   UNL A   1      41.369  26.073  28.093  1.00  0.00     0.010 A 
ATOM     15  C   UNL A   1      41.870  27.342  28.403  1.00  0.00    -0.014 A 
BRANCH  15  16
ATOM     16  C   UNL A   1      41.408  28.129  29.549  1.00  0.00     0.031 A 
ATOM     17  C   UNL A   1      42.286  28.133  30.757  1.00  0.00     0.074 A 
ATOM     18  C   UNL A   1      40.373  28.973  29.403  1.00  0.00     0.049 A 
ATOM     19  N   UNL A   1      42.085  28.669  31.926  1.00  0.00    -0.248 NA
ATOM     20  C   UNL A   1      43.587  27.449  30.622  1.00  0.00     0.031 C 
ATOM     21  C   UNL A   1      39.614  29.178  28.163  1.00  0.00     0.029 A 
ATOM     22  N   UNL A   1      39.810  29.852  30.284  1.00  0.00    -0.354 N 
ATOM     23  C   UNL A   1      43.203  28.340  32.679  1.00  0.00     0.074 A 
ATOM     24  C   UNL A   1      44.089  27.572  31.838  1.00  0.00     0.031 C 
ATOM     25  C   UNL A   1      38.695  30.135  28.363  1.00  0.00     0.029 A 
ATOM     26  C   UNL A   1      38.737  30.531  29.764  1.00  0.00     0.049 A 
ATOM     27  H   UNL A   1      40.140  29.984  31.202  1.00  0.00     0.167 HD
ATOM     28  C   UNL A   1      43.439  28.647  33.972  1.00  0.00     0.037 A 
ATOM     29  C   UNL A   1      37.856  31.333  30.389  1.00  0.00     0.037 A 
ATOM     30  C   UNL A   1      42.519  29.424  34.754  1.00  0.00     0.049 A 
ATOM     31  C   UNL A   1      38.066  31.550  31.864  1.00  0.00     0.074 A 
ATOM     32  C   UNL A   1      42.562  29.736  36.096  1.00  0.00     0.029 A 
ATOM     33  N   UNL A   1      41.374  30.019  34.233  1.00  0.00    -0.354 N 
ATOM     34  N   UNL A   1      39.050  31.134  32.628  1.00  0.00    -0.248 NA
ATOM     35  C   UNL A   1      37.038  32.319  32.571  1.00  0.00     0.031 C 
ATOM     36  C   UNL A   1      41.415  30.477  36.398  1.00  0.00     0.029 A 
ATOM     37  C   UNL A   1      40.687  30.681  35.232  1.00  0.00     0.049 A 
ATOM     38  H   UNL A   1      41.093  29.973  33.290  1.00  0.00     0.167 HD
ATOM     39  C   UNL A   1      38.773  31.600  33.903  1.00  0.00     0.074 A 
ATOM     40  C   UNL A   1      37.535  32.353  33.799  1.00  0.00     0.031 C 
ATOM     41  C   UNL A   1      39.464  31.425  35.057  1.00  0.00     0.037 A 
BRANCH  28  42
ATOM     42  C   UNL A   1      44.657  28.044  34.603  1.00  0.00     0.064 A 
ATOM     43  C   UNL A   1      45.929  28.627  34.493  1.00  0.00     0.173 A 
ATOM     44  C   UNL A   1      44.558  26.811  35.266  1.00  0.00     0.173 A 
ATOM     45  F   UNL A   1      46.086  29.783  33.829  1.00  0.00    -0.203 F 
ATOM     46  C   UNL A   1      47.058  27.984  34.996  1.00  0.00     0.198 A 
ATOM     47  C   UNL A   1      45.685  26.185  35.793  1.00  0.00     0.198 A 
ATOM     48  F   UNL A   1      43.370  26.199  35.381  1.00  0.00    -0.203 F 
ATOM     49  F   UNL A   1      48.271  28.524  34.815  1.00  0.00    -0.200 F 
ATOM     50  C   UNL A   1      46.934  26.766  35.648  1.00  0.00     0.200 A 
ATOM     51  F   UNL A   1      45.563  25.006  36.419  1.00  0.00    -0.200 F 
ATOM     52  F   UNL A   1      48.024  26.142  36.119  1.00  0.00    -0.200 F 
ENDBRANCH  28  42
BRANCH  29  53
ATOM     53  C   UNL A   1      36.685  31.891  29.662  1.00  0.00     0.064 A 
ATOM     54  C   UNL A   1      35.627  31.073  29.242  1.00  0.00     0.173 A 
ATOM     55  C   UNL A   1      36.605  33.260  29.350  1.00  0.00     0.173 A 
ATOM     56  F   UNL A   1      35.657  29.757  29.496  1.00  0.00    -0.203 F 
ATOM     57  C   UNL A   1      34.552  31.596  28.522  1.00  0.00     0.198 A 
ATOM     58  C   UNL A   1      35.514  33.786  28.661  1.00  0.00     0.198 A 
ATOM     59  F   UNL A   1      37.587  34.094  29.721  1.00  0.00    -0.203 F 
ATOM     60  F   UNL A   1      33.580  30.780  28.089  1.00  0.00    -0.200 F 
ATOM     61  C   UNL A   1      34.493  32.952  28.237  1.00  0.00     0.200 A 
ATOM     62  F   UNL A   1      35.456  35.101  28.405  1.00  0.00    -0.200 F 
ATOM     63  F   UNL A   1      33.460  33.451  27.546  1.00  0.00    -0.200 F 
ENDBRANCH  29  53
BRANCH  41  64
ATOM     64  C   UNL A   1      38.911  32.098  36.274  1.00  0.00     0.064 A 
ATOM     65  C   UNL A   1      39.195  33.439  36.565  1.00  0.00     0.173 A 
ATOM     66  C   UNL A   1      38.040  31.402  37.125  1.00  0.00     0.173 A 
ATOM     67  F   UNL A   1      40.037  34.137  35.787  1.00  0.00    -0.203 F 
ATOM     68  C   UNL A   1      38.641  34.055  37.682  1.00  0.00     0.198 A 
ATOM     69  C   UNL A   1      37.460  32.031  38.218  1.00  0.00     0.198 A 
ATOM     70  F   UNL A   1      37.736  30.118  36.878  1.00  0.00    -0.203 F 
ATOM     71  F   UNL A   1      38.960  35.323  37.972  1.00  0.00    -0.200 F 
ATOM     72  C   UNL A   1      37.767  33.354  38.501  1.00  0.00     0.200 A 
ATOM     73  F   UNL A   1      36.602  31.359  38.998  1.00  0.00    -0.200 F 
ATOM     74  F   UNL A   1      37.222  33.954  39.567  1.00  0.00    -0.200 F 
ENDBRANCH  41  64
ENDBRANCH  15  16
ENDBRANCH   8  10
ENDBRANCH   7   8
ENDBRANCH   6   7
ENDBRANCH   5   6
ENDBRANCH   4   5
ENDBRANCH   3   4
ENDBRANCH   2   3
ENDBRANCH   1   2
BRANCH   1  75
ATOM     75  C   UNL A   1      39.911  22.569  26.665  1.00  0.00     0.188 C 
BRANCH  75  76
ATOM     76  C   UNL A   1      38.542  23.222  26.449  1.00  0.00     0.188 C 
BRANCH  76  77
ATOM     77  O   UNL A   1      37.641  22.382  25.757  1.00  0.00    -0.376 OA
BRANCH  77  78
ATOM     78  C   UNL A   1      36.565  23.025  25.089  1.00  0.00     0.202 C 
BRANCH  78  79
ATOM     79  C   UNL A   1      35.459  23.782  25.872  1.00  0.00     0.261 C 
BRANCH  79  80
ATOM     80  O   UNL A   1      34.621  22.997  26.740  1.00  0.00    -0.462 OA
BRANCH  80  81
ATOM     81  C   UNL A   1      33.314  22.853  26.403  1.00  0.00     0.329 C 
ATOM     82  O   UNL A   1      32.425  23.598  26.828  1.00  0.00    -0.250 OA
BRANCH  81  83
ATOM     83  C   UNL A   1      33.098  21.872  25.208  1.00  0.00     0.195 C 
BRANCH  83  84
ATOM     84  N   UNL A   1      33.186  22.233  23.769  1.00  0.00    -0.337 N 
ATOM     85  C   UNL A   1      32.784  23.140  22.855  1.00  0.00     0.278 C 
ATOM     86  H   UNL A   1      33.743  21.561  23.314  1.00  0.00     0.164 HD
ATOM     87  O   UNL A   1      33.118  22.885  21.685  1.00  0.00    -0.268 OA
BRANCH  85  88
ATOM     88  C   UNL A   1      32.109  24.488  23.135  1.00  0.00     0.272 C 
ATOM     89  C   UNL A   1      30.687  24.388  23.678  1.00  0.00     0.076 C 
ATOM     90  N   UNL A   1      33.074  25.247  23.928  1.00  0.00    -0.333 N 
ATOM     91  C   UNL A   1      30.207  25.721  24.271  1.00  0.00     0.016 C 
ATOM     92  C   UNL A   1      32.591  26.450  24.577  1.00  0.00     0.186 C 
ATOM     93  H   UNL A   1      33.837  25.516  23.308  1.00  0.00     0.347 HD
ATOM     94  H   UNL A   1      33.338  24.623  24.690  1.00  0.00     0.347 HD
ATOM     95  C   UNL A   1      31.246  26.203  25.282  1.00  0.00     0.048 C 
ATOM     96  C   UNL A   1      33.703  26.883  25.546  1.00  0.00     0.065 C 
ATOM     97  C   UNL A   1      30.844  27.401  26.133  1.00  0.00     0.010 C 
ATOM     98  C   UNL A   1      33.274  27.971  26.518  1.00  0.00     0.006 C 
ATOM     99  C   UNL A   1      31.937  27.647  27.179  1.00  0.00     0.001 C 
ENDBRANCH  85  88
ENDBRANCH  83  84
BRANCH  83 100
ATOM    100  C   UNL A   1      33.280  20.422  25.589  1.00  0.00     0.023 C 
ATOM    101  C   UNL A   1      32.588  19.254  24.947  1.00  0.00     0.007 C 
ATOM    102  C   UNL A   1      34.037  19.547  24.659  1.00  0.00     0.007 C 
ENDBRANCH  83 100
ENDBRANCH  81  83
ENDBRANCH  80  81
ENDBRANCH  79  80
ENDBRANCH  78  79
ENDBRANCH  77  78
ENDBRANCH  76  77
ENDBRANCH  75  76
ENDBRANCH   1  75
TORSDOF 23
ENDMDL
