MODEL 1
REMARK VINA RESULT:     -10.6      0.000      0.000
REMARK SMILES O=C(OCCOCCOCCOCCOC(=O)[C@@H]1[C@@H](C(=O)NCCCn2ccnc2)[C@@H]2C=C[C@H]1C2)c1ccc(-c2c3nc(c(-c4c(F)c(F)c(F)c(F)c4F)c4ccc([nH]4)c(-c4c(F)c(F)c(F)c(F)c4F)c4nc(c(-c5c(F)c(F)c(F)c(F)c5F)c5ccc2[nH]5)C=C4)C=C3)cc1
REMARK SMILES IDX 10 1 9 2 8 3 7 4 6 5 5 6 4 7 3 8 2 9 1 10 36 11 37 12 98 13
REMARK SMILES IDX 38 14 97 15 39 16 40 17 41 18 91 19 42 20 96 21 90 22 92 23
REMARK SMILES IDX 43 24 95 25 89 26 88 27 44 29 76 30 56 31 75 32 57 33 60 34
REMARK SMILES IDX 74 35 93 36 58 37 59 38 73 40 94 41 61 42 45 43 46 44 54 45
REMARK SMILES IDX 47 46 48 47 52 48 55 49 49 50 50 51 53 52 51 53 77 54 78 55
REMARK SMILES IDX 86 56 79 57 80 58 84 59 87 60 81 61 82 62 85 63 83 64 62 65
REMARK SMILES IDX 63 66 71 67 64 68 65 69 69 70 72 71 66 72 67 73 70 74 68 75
REMARK SMILES IDX 11 76 12 77 13 78 14 79 15 80 16 81 17 82 18 83 19 84 34 85
REMARK SMILES IDX 31 86 33 87 35 88 32 89 20 90 21 91 22 92 23 94 24 95 25 96
REMARK SMILES IDX 26 97 27 98 30 99 28 100 29 101
REMARK H PARENT 92 28 60 39 22 93
REMARK Flexibility Score: inf
ROOT
ATOM      1  C   UNL A   1      31.787  30.332  25.976  1.00  0.00     0.188 C 
ENDROOT
BRANCH   1   2
ATOM      2  O   UNL A   1      32.388  30.482  27.238  1.00  0.00    -0.377 OA
BRANCH   2   3
ATOM      3  C   UNL A   1      33.777  30.715  27.235  1.00  0.00     0.188 C 
BRANCH   3   4
ATOM      4  C   UNL A   1      34.345  31.648  28.317  1.00  0.00     0.188 C 
BRANCH   4   5
ATOM      5  O   UNL A   1      34.399  33.049  28.131  1.00  0.00    -0.376 OA
BRANCH   5   6
ATOM      6  C   UNL A   1      33.422  34.047  28.345  1.00  0.00     0.202 C 
BRANCH   6   7
ATOM      7  C   UNL A   1      33.509  35.285  29.253  1.00  0.00     0.261 C 
BRANCH   7   8
ATOM      8  O   UNL A   1      32.759  35.296  30.454  1.00  0.00    -0.460 OA
BRANCH   8   9
ATOM      9  C   UNL A   1      33.133  34.978  31.715  1.00  0.00     0.338 C 
ATOM     10  O   UNL A   1      32.448  35.348  32.646  1.00  0.00    -0.246 OA
BRANCH   9  11
ATOM     11  C   UNL A   1      34.425  34.312  32.020  1.00  0.00     0.060 A 
ATOM     12  C   UNL A   1      35.625  34.953  32.320  1.00  0.00     0.016 A 
ATOM     13  C   UNL A   1      34.397  32.906  31.930  1.00  0.00     0.016 A 
ATOM     14  C   UNL A   1      36.800  34.241  32.348  1.00  0.00     0.010 A 
ATOM     15  C   UNL A   1      35.570  32.179  31.970  1.00  0.00     0.010 A 
ATOM     16  C   UNL A   1      36.764  32.875  32.090  1.00  0.00    -0.014 A 
BRANCH  16  17
ATOM     17  C   UNL A   1      38.044  32.221  31.953  1.00  0.00     0.031 A 
ATOM     18  C   UNL A   1      38.818  32.149  33.213  1.00  0.00     0.074 A 
ATOM     19  C   UNL A   1      38.431  31.746  30.757  1.00  0.00     0.049 A 
ATOM     20  N   UNL A   1      39.982  32.654  33.457  1.00  0.00    -0.248 NA
ATOM     21  C   UNL A   1      38.149  31.575  34.392  1.00  0.00     0.031 C 
ATOM     22  C   UNL A   1      37.618  31.615  29.545  1.00  0.00     0.029 A 
ATOM     23  N   UNL A   1      39.610  31.178  30.394  1.00  0.00    -0.354 N 
ATOM     24  C   UNL A   1      40.283  32.274  34.762  1.00  0.00     0.074 A 
ATOM     25  C   UNL A   1      39.066  31.775  35.339  1.00  0.00     0.031 C 
ATOM     26  C   UNL A   1      38.240  30.783  28.683  1.00  0.00     0.029 A 
ATOM     27  C   UNL A   1      39.536  30.425  29.231  1.00  0.00     0.049 A 
ATOM     28  H   UNL A   1      40.442  31.289  30.911  1.00  0.00     0.167 HD
ATOM     29  C   UNL A   1      41.580  32.115  35.141  1.00  0.00     0.037 A 
ATOM     30  C   UNL A   1      40.435  29.500  28.818  1.00  0.00     0.037 A 
ATOM     31  C   UNL A   1      42.457  32.923  34.326  1.00  0.00     0.049 A 
ATOM     32  C   UNL A   1      41.705  29.755  29.549  1.00  0.00     0.074 A 
ATOM     33  C   UNL A   1      42.550  34.273  34.048  1.00  0.00     0.029 A 
ATOM     34  N   UNL A   1      43.211  32.298  33.364  1.00  0.00    -0.354 N 
ATOM     35  N   UNL A   1      42.463  30.795  29.346  1.00  0.00    -0.248 NA
ATOM     36  C   UNL A   1      41.900  29.082  30.825  1.00  0.00     0.031 C 
ATOM     37  C   UNL A   1      42.951  34.349  32.681  1.00  0.00     0.029 A 
ATOM     38  C   UNL A   1      43.136  33.046  32.219  1.00  0.00     0.049 A 
ATOM     39  H   UNL A   1      43.715  31.460  33.476  1.00  0.00     0.167 HD
ATOM     40  C   UNL A   1      42.895  31.168  30.610  1.00  0.00     0.074 A 
ATOM     41  C   UNL A   1      42.602  30.022  31.466  1.00  0.00     0.031 C 
ATOM     42  C   UNL A   1      43.173  32.473  30.896  1.00  0.00     0.037 A 
BRANCH  29  43
ATOM     43  C   UNL A   1      42.062  30.888  35.891  1.00  0.00     0.064 A 
ATOM     44  C   UNL A   1      43.027  31.057  36.903  1.00  0.00     0.173 A 
ATOM     45  C   UNL A   1      41.890  29.558  35.440  1.00  0.00     0.173 A 
ATOM     46  F   UNL A   1      43.274  32.273  37.414  1.00  0.00    -0.203 F 
ATOM     47  C   UNL A   1      43.845  30.007  37.327  1.00  0.00     0.198 A 
ATOM     48  C   UNL A   1      42.675  28.505  35.901  1.00  0.00     0.198 A 
ATOM     49  F   UNL A   1      41.040  29.227  34.463  1.00  0.00    -0.203 F 
ATOM     50  F   UNL A   1      44.854  30.254  38.173  1.00  0.00    -0.200 F 
ATOM     51  C   UNL A   1      43.681  28.736  36.811  1.00  0.00     0.200 A 
ATOM     52  F   UNL A   1      42.504  27.282  35.379  1.00  0.00    -0.200 F 
ATOM     53  F   UNL A   1      44.516  27.747  37.151  1.00  0.00    -0.200 F 
ENDBRANCH  29  43
BRANCH  30  54
ATOM     54  C   UNL A   1      40.166  28.232  28.099  1.00  0.00     0.064 A 
ATOM     55  C   UNL A   1      40.796  27.952  26.876  1.00  0.00     0.173 A 
ATOM     56  C   UNL A   1      39.496  27.154  28.714  1.00  0.00     0.173 A 
ATOM     57  F   UNL A   1      41.496  28.907  26.245  1.00  0.00    -0.203 F 
ATOM     58  C   UNL A   1      40.776  26.671  26.315  1.00  0.00     0.198 A 
ATOM     59  C   UNL A   1      39.464  25.880  28.148  1.00  0.00     0.198 A 
ATOM     60  F   UNL A   1      38.937  27.286  29.925  1.00  0.00    -0.203 F 
ATOM     61  F   UNL A   1      41.446  26.428  25.180  1.00  0.00    -0.200 F 
ATOM     62  C   UNL A   1      40.118  25.635  26.956  1.00  0.00     0.200 A 
ATOM     63  F   UNL A   1      38.851  24.881  28.797  1.00  0.00    -0.200 F 
ATOM     64  F   UNL A   1      40.147  24.394  26.449  1.00  0.00    -0.200 F 
ENDBRANCH  30  54
BRANCH  42  65
ATOM     65  C   UNL A   1      43.303  33.426  29.742  1.00  0.00     0.064 A 
ATOM     66  C   UNL A   1      42.248  34.211  29.243  1.00  0.00     0.173 A 
ATOM     67  C   UNL A   1      44.575  33.633  29.195  1.00  0.00     0.173 A 
ATOM     68  F   UNL A   1      41.026  34.154  29.788  1.00  0.00    -0.203 F 
ATOM     69  C   UNL A   1      42.452  35.114  28.202  1.00  0.00     0.198 A 
ATOM     70  C   UNL A   1      44.785  34.565  28.184  1.00  0.00     0.198 A 
ATOM     71  F   UNL A   1      45.631  32.956  29.675  1.00  0.00    -0.203 F 
ATOM     72  F   UNL A   1      41.426  35.834  27.726  1.00  0.00    -0.200 F 
ATOM     73  C   UNL A   1      43.722  35.293  27.677  1.00  0.00     0.200 A 
ATOM     74  F   UNL A   1      46.023  34.774  27.718  1.00  0.00    -0.200 F 
ATOM     75  F   UNL A   1      43.925  36.188  26.700  1.00  0.00    -0.200 F 
ENDBRANCH  42  65
ENDBRANCH  16  17
ENDBRANCH   9  11
ENDBRANCH   8   9
ENDBRANCH   7   8
ENDBRANCH   6   7
ENDBRANCH   5   6
ENDBRANCH   4   5
ENDBRANCH   3   4
ENDBRANCH   2   3
ENDBRANCH   1   2
BRANCH   1  76
ATOM     76  C   UNL A   1      32.503  29.362  25.023  1.00  0.00     0.188 C 
BRANCH  76  77
ATOM     77  O   UNL A   1      31.751  28.462  24.222  1.00  0.00    -0.376 OA
BRANCH  77  78
ATOM     78  C   UNL A   1      32.134  27.093  24.141  1.00  0.00     0.202 C 
BRANCH  78  79
ATOM     79  C   UNL A   1      33.628  26.713  24.182  1.00  0.00     0.261 C 
BRANCH  79  80
ATOM     80  O   UNL A   1      33.898  25.354  24.595  1.00  0.00    -0.463 OA
BRANCH  80  81
ATOM     81  C   UNL A   1      34.093  24.458  23.604  1.00  0.00     0.310 C 
ATOM     82  O   UNL A   1      34.113  24.769  22.416  1.00  0.00    -0.252 OA
BRANCH  81  83
ATOM     83  C   UNL A   1      34.580  23.090  24.086  1.00  0.00     0.119 C 
ATOM     84  C   UNL A   1      34.448  23.072  25.629  1.00  0.00     0.100 C 
ATOM     85  C   UNL A   1      36.009  22.497  23.899  1.00  0.00     0.027 C 
ATOM     86  C   UNL A   1      35.799  22.511  26.123  1.00  0.00     0.025 C 
ATOM     87  C   UNL A   1      37.028  23.471  24.404  1.00  0.00    -0.027 C 
ATOM     88  C   UNL A   1      36.117  21.477  25.059  1.00  0.00     0.017 C 
ATOM     89  C   UNL A   1      36.900  23.495  25.741  1.00  0.00    -0.027 C 
BRANCH  84  90
ATOM     90  C   UNL A   1      33.184  22.400  26.141  1.00  0.00     0.224 C 
ATOM     91  O   UNL A   1      32.880  22.529  27.333  1.00  0.00    -0.275 OA
ATOM     92  N   UNL A   1      32.324  21.649  25.411  1.00  0.00    -0.356 N 
ATOM     93  H   UNL A   1      31.513  21.423  25.923  1.00  0.00     0.163 HD
BRANCH  92  94
ATOM     94  C   UNL A   1      32.286  21.087  24.066  1.00  0.00     0.117 C 
BRANCH  94  95
ATOM     95  C   UNL A   1      32.903  19.691  24.037  1.00  0.00     0.043 C 
BRANCH  95  96
ATOM     96  C   UNL A   1      32.529  18.835  25.248  1.00  0.00     0.125 C 
BRANCH  96  97
ATOM     97  N   UNL A   1      33.079  17.497  25.162  1.00  0.00    -0.337 N 
ATOM     98  C   UNL A   1      32.581  16.369  25.751  1.00  0.00     0.107 A 
ATOM     99  C   UNL A   1      34.165  17.132  24.421  1.00  0.00     0.199 A 
ATOM    100  C   UNL A   1      33.352  15.343  25.254  1.00  0.00     0.130 A 
ATOM    101  N   UNL A   1      34.336  15.829  24.434  1.00  0.00    -0.245 NA
ENDBRANCH  96  97
ENDBRANCH  95  96
ENDBRANCH  94  95
ENDBRANCH  92  94
ENDBRANCH  84  90
ENDBRANCH  81  83
ENDBRANCH  80  81
ENDBRANCH  79  80
ENDBRANCH  78  79
ENDBRANCH  77  78
ENDBRANCH  76  77
ENDBRANCH   1  76
TORSDOF 25
ENDMDL
MODEL 2
REMARK VINA RESULT:     -10.5      2.056      3.446
REMARK SMILES O=C(OCCOCCOCCOCCOC(=O)[C@@H]1[C@@H](C(=O)NCCCn2ccnc2)[C@@H]2C=C[C@H]1C2)c1ccc(-c2c3nc(c(-c4c(F)c(F)c(F)c(F)c4F)c4ccc([nH]4)c(-c4c(F)c(F)c(F)c(F)c4F)c4nc(c(-c5c(F)c(F)c(F)c(F)c5F)c5ccc2[nH]5)C=C4)C=C3)cc1
REMARK SMILES IDX 10 1 9 2 8 3 7 4 6 5 5 6 4 7 3 8 2 9 1 10 36 11 37 12 98 13
REMARK SMILES IDX 38 14 97 15 39 16 40 17 41 18 91 19 42 20 96 21 90 22 92 23
REMARK SMILES IDX 43 24 95 25 89 26 88 27 44 29 76 30 56 31 75 32 57 33 60 34
REMARK SMILES IDX 74 35 93 36 58 37 59 38 73 40 94 41 61 42 45 43 46 44 54 45
REMARK SMILES IDX 47 46 48 47 52 48 55 49 49 50 50 51 53 52 51 53 77 54 78 55
REMARK SMILES IDX 86 56 79 57 80 58 84 59 87 60 81 61 82 62 85 63 83 64 62 65
REMARK SMILES IDX 63 66 71 67 64 68 65 69 69 70 72 71 66 72 67 73 70 74 68 75
REMARK SMILES IDX 11 76 12 77 13 78 14 79 15 80 16 81 17 82 18 83 19 84 34 85
REMARK SMILES IDX 31 86 33 87 35 88 32 89 20 90 21 91 22 92 23 94 24 95 25 96
REMARK SMILES IDX 26 97 27 98 30 99 28 100 29 101
REMARK H PARENT 92 28 60 39 22 93
REMARK Flexibility Score: inf
ROOT
ATOM      1  C   UNL A   1      35.392  31.060  27.746  1.00  0.00     0.188 C 
ENDROOT
BRANCH   1   2
ATOM      2  O   UNL A   1      34.221  31.821  27.591  1.00  0.00    -0.377 OA
BRANCH   2   3
ATOM      3  C   UNL A   1      34.067  32.904  28.479  1.00  0.00     0.188 C 
BRANCH   3   4
ATOM      4  C   UNL A   1      33.216  34.095  28.009  1.00  0.00     0.188 C 
BRANCH   4   5
ATOM      5  O   UNL A   1      32.529  34.922  28.929  1.00  0.00    -0.376 OA
BRANCH   5   6
ATOM      6  C   UNL A   1      32.899  36.151  29.518  1.00  0.00     0.202 C 
BRANCH   6   7
ATOM      7  C   UNL A   1      33.012  36.493  31.013  1.00  0.00     0.261 C 
BRANCH   7   8
ATOM      8  O   UNL A   1      34.031  35.870  31.775  1.00  0.00    -0.460 OA
BRANCH   8   9
ATOM      9  C   UNL A   1      34.055  34.650  32.361  1.00  0.00     0.338 C 
ATOM     10  O   UNL A   1      33.033  34.207  32.841  1.00  0.00    -0.246 OA
BRANCH   9  11
ATOM     11  C   UNL A   1      35.313  33.888  32.566  1.00  0.00     0.060 A 
ATOM     12  C   UNL A   1      36.583  34.435  32.729  1.00  0.00     0.016 A 
ATOM     13  C   UNL A   1      35.163  32.487  32.531  1.00  0.00     0.016 A 
ATOM     14  C   UNL A   1      37.694  33.628  32.672  1.00  0.00     0.010 A 
ATOM     15  C   UNL A   1      36.272  31.667  32.486  1.00  0.00     0.010 A 
ATOM     16  C   UNL A   1      37.524  32.264  32.468  1.00  0.00    -0.014 A 
BRANCH  16  17
ATOM     17  C   UNL A   1      38.728  31.502  32.234  1.00  0.00     0.031 A 
ATOM     18  C   UNL A   1      39.526  31.253  33.456  1.00  0.00     0.074 A 
ATOM     19  C   UNL A   1      39.033  31.090  30.991  1.00  0.00     0.049 A 
ATOM     20  N   UNL A   1      40.741  31.621  33.697  1.00  0.00    -0.248 NA
ATOM     21  C   UNL A   1      38.837  30.653  34.610  1.00  0.00     0.031 C 
ATOM     22  C   UNL A   1      38.176  31.137  29.803  1.00  0.00     0.029 A 
ATOM     23  N   UNL A   1      40.138  30.441  30.544  1.00  0.00    -0.354 N 
ATOM     24  C   UNL A   1      41.040  31.110  34.957  1.00  0.00     0.074 A 
ATOM     25  C   UNL A   1      39.795  30.686  35.537  1.00  0.00     0.031 C 
ATOM     26  C   UNL A   1      38.687  30.321  28.857  1.00  0.00     0.029 A 
ATOM     27  C   UNL A   1      39.956  29.796  29.329  1.00  0.00     0.049 A 
ATOM     28  H   UNL A   1      40.991  30.428  31.037  1.00  0.00     0.167 HD
ATOM     29  C   UNL A   1      42.325  30.795  35.275  1.00  0.00     0.037 A 
ATOM     30  C   UNL A   1      40.747  28.824  28.813  1.00  0.00     0.037 A 
ATOM     31  C   UNL A   1      43.254  31.577  34.494  1.00  0.00     0.049 A 
ATOM     32  C   UNL A   1      42.056  28.895  29.515  1.00  0.00     0.074 A 
ATOM     33  C   UNL A   1      43.474  32.931  34.319  1.00  0.00     0.029 A 
ATOM     34  N   UNL A   1      43.914  30.962  33.460  1.00  0.00    -0.354 N 
ATOM     35  N   UNL A   1      42.908  29.869  29.367  1.00  0.00    -0.248 NA
ATOM     36  C   UNL A   1      42.219  28.105  30.728  1.00  0.00     0.031 C 
ATOM     37  C   UNL A   1      43.841  33.077  32.948  1.00  0.00     0.029 A 
ATOM     38  C   UNL A   1      43.883  31.804  32.381  1.00  0.00     0.049 A 
ATOM     39  H   UNL A   1      44.336  30.073  33.488  1.00  0.00     0.167 HD
ATOM     40  C   UNL A   1      43.410  30.095  30.639  1.00  0.00     0.074 A 
ATOM     41  C   UNL A   1      43.029  28.917  31.414  1.00  0.00     0.031 C 
ATOM     42  C   UNL A   1      43.825  31.339  31.016  1.00  0.00     0.037 A 
BRANCH  29  43
ATOM     43  C   UNL A   1      42.703  29.470  35.909  1.00  0.00     0.064 A 
ATOM     44  C   UNL A   1      43.694  29.466  36.911  1.00  0.00     0.173 A 
ATOM     45  C   UNL A   1      42.403  28.205  35.353  1.00  0.00     0.173 A 
ATOM     46  F   UNL A   1      44.058  30.607  37.515  1.00  0.00    -0.203 F 
ATOM     47  C   UNL A   1      44.418  28.314  37.227  1.00  0.00     0.198 A 
ATOM     48  C   UNL A   1      43.095  27.049  35.707  1.00  0.00     0.198 A 
ATOM     49  F   UNL A   1      41.512  28.036  34.371  1.00  0.00    -0.203 F 
ATOM     50  F   UNL A   1      45.457  28.396  38.069  1.00  0.00    -0.200 F 
ATOM     51  C   UNL A   1      44.130  27.111  36.612  1.00  0.00     0.200 A 
ATOM     52  F   UNL A   1      42.805  25.896  35.089  1.00  0.00    -0.200 F 
ATOM     53  F   UNL A   1      44.877  26.026  36.850  1.00  0.00    -0.200 F 
ENDBRANCH  29  43
BRANCH  30  54
ATOM     54  C   UNL A   1      40.334  27.650  28.008  1.00  0.00     0.064 A 
ATOM     55  C   UNL A   1      40.952  27.367  26.780  1.00  0.00     0.173 A 
ATOM     56  C   UNL A   1      39.511  26.635  28.539  1.00  0.00     0.173 A 
ATOM     57  F   UNL A   1      41.788  28.258  26.226  1.00  0.00    -0.203 F 
ATOM     58  C   UNL A   1      40.780  26.138  26.136  1.00  0.00     0.198 A 
ATOM     59  C   UNL A   1      39.327  25.414  27.889  1.00  0.00     0.198 A 
ATOM     60  F   UNL A   1      38.944  26.764  29.746  1.00  0.00    -0.203 F 
ATOM     61  F   UNL A   1      41.441  25.880  24.999  1.00  0.00    -0.200 F 
ATOM     62  C   UNL A   1      39.974  25.160  26.695  1.00  0.00     0.200 A 
ATOM     63  F   UNL A   1      38.572  24.466  28.460  1.00  0.00    -0.200 F 
ATOM     64  F   UNL A   1      39.854  23.961  26.109  1.00  0.00    -0.200 F 
ENDBRANCH  30  54
BRANCH  42  65
ATOM     65  C   UNL A   1      44.017  32.365  29.936  1.00  0.00     0.064 A 
ATOM     66  C   UNL A   1      43.009  33.239  29.488  1.00  0.00     0.173 A 
ATOM     67  C   UNL A   1      45.304  32.545  29.415  1.00  0.00     0.173 A 
ATOM     68  F   UNL A   1      41.780  33.206  30.018  1.00  0.00    -0.203 F 
ATOM     69  C   UNL A   1      43.272  34.203  28.517  1.00  0.00     0.198 A 
ATOM     70  C   UNL A   1      45.573  33.535  28.476  1.00  0.00     0.198 A 
ATOM     71  F   UNL A   1      46.318  31.780  29.851  1.00  0.00    -0.203 F 
ATOM     72  F   UNL A   1      42.289  35.008  28.087  1.00  0.00    -0.200 F 
ATOM     73  C   UNL A   1      44.554  34.353  28.016  1.00  0.00     0.200 A 
ATOM     74  F   UNL A   1      46.826  33.713  28.035  1.00  0.00    -0.200 F 
ATOM     75  F   UNL A   1      44.815  35.305  27.108  1.00  0.00    -0.200 F 
ENDBRANCH  42  65
ENDBRANCH  16  17
ENDBRANCH   9  11
ENDBRANCH   8   9
ENDBRANCH   7   8
ENDBRANCH   6   7
ENDBRANCH   5   6
ENDBRANCH   4   5
ENDBRANCH   3   4
ENDBRANCH   2   3
ENDBRANCH   1   2
BRANCH   1  76
ATOM     76  C   UNL A   1      35.178  29.540  27.827  1.00  0.00     0.188 C 
BRANCH  76  77
ATOM     77  O   UNL A   1      33.886  28.989  27.615  1.00  0.00    -0.376 OA
BRANCH  77  78
ATOM     78  C   UNL A   1      33.547  28.446  26.343  1.00  0.00     0.202 C 
BRANCH  78  79
ATOM     79  C   UNL A   1      33.977  27.009  25.985  1.00  0.00     0.261 C 
BRANCH  79  80
ATOM     80  O   UNL A   1      32.895  26.055  25.895  1.00  0.00    -0.463 OA
BRANCH  80  81
ATOM     81  C   UNL A   1      33.249  24.752  25.886  1.00  0.00     0.310 C 
ATOM     82  O   UNL A   1      32.626  23.886  26.493  1.00  0.00    -0.252 OA
BRANCH  81  83
ATOM     83  C   UNL A   1      34.297  24.397  24.829  1.00  0.00     0.119 C 
ATOM     84  C   UNL A   1      33.792  23.135  24.086  1.00  0.00     0.100 C 
ATOM     85  C   UNL A   1      35.785  24.015  25.091  1.00  0.00     0.027 C 
ATOM     86  C   UNL A   1      35.019  22.198  24.042  1.00  0.00     0.025 C 
ATOM     87  C   UNL A   1      35.851  22.903  26.091  1.00  0.00    -0.027 C 
ATOM     88  C   UNL A   1      36.157  23.181  23.841  1.00  0.00     0.017 C 
ATOM     89  C   UNL A   1      35.380  21.808  25.472  1.00  0.00    -0.027 C 
BRANCH  84  90
ATOM     90  C   UNL A   1      33.088  23.425  22.770  1.00  0.00     0.224 C 
ATOM     91  O   UNL A   1      33.729  23.326  21.716  1.00  0.00    -0.275 OA
ATOM     92  N   UNL A   1      31.793  23.791  22.617  1.00  0.00    -0.356 N 
ATOM     93  H   UNL A   1      31.526  23.801  21.669  1.00  0.00     0.163 HD
BRANCH  92  94
ATOM     94  C   UNL A   1      30.690  24.175  23.491  1.00  0.00     0.117 C 
BRANCH  94  95
ATOM     95  C   UNL A   1      30.506  25.691  23.509  1.00  0.00     0.043 C 
BRANCH  95  96
ATOM     96  C   UNL A   1      30.993  26.378  22.232  1.00  0.00     0.125 C 
BRANCH  96  97
ATOM     97  N   UNL A   1      32.089  27.292  22.487  1.00  0.00    -0.337 N 
ATOM     98  C   UNL A   1      33.416  27.059  22.266  1.00  0.00     0.107 A 
ATOM     99  C   UNL A   1      31.962  28.574  22.939  1.00  0.00     0.199 A 
ATOM    100  C   UNL A   1      34.031  28.265  22.514  1.00  0.00     0.130 A 
ATOM    101  N   UNL A   1      33.119  29.196  22.938  1.00  0.00    -0.245 NA
ENDBRANCH  96  97
ENDBRANCH  95  96
ENDBRANCH  94  95
ENDBRANCH  92  94
ENDBRANCH  84  90
ENDBRANCH  81  83
ENDBRANCH  80  81
ENDBRANCH  79  80
ENDBRANCH  78  79
ENDBRANCH  77  78
ENDBRANCH  76  77
ENDBRANCH   1  76
TORSDOF 25
ENDMDL
MODEL 3
REMARK VINA RESULT:     -10.5      4.232      9.647
REMARK SMILES O=C(OCCOCCOCCOCCOC(=O)[C@@H]1[C@@H](C(=O)NCCCn2ccnc2)[C@@H]2C=C[C@H]1C2)c1ccc(-c2c3nc(c(-c4c(F)c(F)c(F)c(F)c4F)c4ccc([nH]4)c(-c4c(F)c(F)c(F)c(F)c4F)c4nc(c(-c5c(F)c(F)c(F)c(F)c5F)c5ccc2[nH]5)C=C4)C=C3)cc1
REMARK SMILES IDX 10 1 9 2 8 3 7 4 6 5 5 6 4 7 3 8 2 9 1 10 36 11 37 12 98 13
REMARK SMILES IDX 38 14 97 15 39 16 40 17 41 18 91 19 42 20 96 21 90 22 92 23
REMARK SMILES IDX 43 24 95 25 89 26 88 27 44 29 76 30 56 31 75 32 57 33 60 34
REMARK SMILES IDX 74 35 93 36 58 37 59 38 73 40 94 41 61 42 45 43 46 44 54 45
REMARK SMILES IDX 47 46 48 47 52 48 55 49 49 50 50 51 53 52 51 53 77 54 78 55
REMARK SMILES IDX 86 56 79 57 80 58 84 59 87 60 81 61 82 62 85 63 83 64 62 65
REMARK SMILES IDX 63 66 71 67 64 68 65 69 69 70 72 71 66 72 67 73 70 74 68 75
REMARK SMILES IDX 11 76 12 77 13 78 14 79 15 80 16 81 17 82 18 83 19 84 34 85
REMARK SMILES IDX 31 86 33 87 35 88 32 89 20 90 21 91 22 92 23 94 24 95 25 96
REMARK SMILES IDX 26 97 27 98 30 99 28 100 29 101
REMARK H PARENT 92 28 60 39 22 93
REMARK Flexibility Score: inf
ROOT
ATOM      1  C   UNL A   1      40.364  20.936  26.592  1.00  0.00     0.188 C 
ENDROOT
BRANCH   1   2
ATOM      2  O   UNL A   1      40.937  20.389  27.753  1.00  0.00    -0.377 OA
BRANCH   2   3
ATOM      3  C   UNL A   1      41.916  19.396  27.549  1.00  0.00     0.188 C 
BRANCH   3   4
ATOM      4  C   UNL A   1      41.952  18.704  26.176  1.00  0.00     0.188 C 
BRANCH   4   5
ATOM      5  O   UNL A   1      43.146  18.621  25.421  1.00  0.00    -0.376 OA
BRANCH   5   6
ATOM      6  C   UNL A   1      44.474  18.357  25.823  1.00  0.00     0.202 C 
BRANCH   6   7
ATOM      7  C   UNL A   1      45.780  18.850  25.177  1.00  0.00     0.261 C 
BRANCH   7   8
ATOM      8  O   UNL A   1      45.967  20.245  25.011  1.00  0.00    -0.460 OA
BRANCH   8   9
ATOM      9  C   UNL A   1      45.145  21.173  24.468  1.00  0.00     0.338 C 
ATOM     10  O   UNL A   1      44.483  20.878  23.495  1.00  0.00    -0.246 OA
BRANCH   9  11
ATOM     11  C   UNL A   1      45.122  22.585  24.928  1.00  0.00     0.060 A 
ATOM     12  C   UNL A   1      46.107  23.214  25.685  1.00  0.00     0.016 A 
ATOM     13  C   UNL A   1      43.952  23.293  24.590  1.00  0.00     0.016 A 
ATOM     14  C   UNL A   1      45.864  24.443  26.249  1.00  0.00     0.010 A 
ATOM     15  C   UNL A   1      43.703  24.534  25.141  1.00  0.00     0.010 A 
ATOM     16  C   UNL A   1      44.631  25.048  26.035  1.00  0.00    -0.014 A 
BRANCH  16  17
ATOM     17  C   UNL A   1      44.370  26.245  26.800  1.00  0.00     0.031 A 
ATOM     18  C   UNL A   1      45.327  27.344  26.540  1.00  0.00     0.074 A 
ATOM     19  C   UNL A   1      43.332  26.284  27.654  1.00  0.00     0.049 A 
ATOM     20  N   UNL A   1      46.120  27.920  27.382  1.00  0.00    -0.248 NA
ATOM     21  C   UNL A   1      45.536  27.747  25.140  1.00  0.00     0.031 C 
ATOM     22  C   UNL A   1      42.251  25.303  27.787  1.00  0.00     0.029 A 
ATOM     23  N   UNL A   1      42.960  27.265  28.517  1.00  0.00    -0.354 N 
ATOM     24  C   UNL A   1      46.777  28.908  26.655  1.00  0.00     0.074 A 
ATOM     25  C   UNL A   1      46.516  28.643  25.266  1.00  0.00     0.031 C 
ATOM     26  C   UNL A   1      41.232  25.859  28.477  1.00  0.00     0.029 A 
ATOM     27  C   UNL A   1      41.639  27.177  28.929  1.00  0.00     0.049 A 
ATOM     28  H   UNL A   1      43.573  27.974  28.820  1.00  0.00     0.167 HD
ATOM     29  C   UNL A   1      47.213  30.035  27.280  1.00  0.00     0.037 A 
ATOM     30  C   UNL A   1      40.913  28.167  29.504  1.00  0.00     0.037 A 
ATOM     31  C   UNL A   1      47.459  29.783  28.680  1.00  0.00     0.049 A 
ATOM     32  C   UNL A   1      41.872  29.173  30.033  1.00  0.00     0.074 A 
ATOM     33  C   UNL A   1      48.265  28.905  29.381  1.00  0.00     0.029 A 
ATOM     34  N   UNL A   1      46.553  30.258  29.596  1.00  0.00    -0.354 N 
ATOM     35  N   UNL A   1      42.659  28.961  31.050  1.00  0.00    -0.248 NA
ATOM     36  C   UNL A   1      42.276  30.256  29.149  1.00  0.00     0.031 C 
ATOM     37  C   UNL A   1      47.512  28.545  30.538  1.00  0.00     0.029 A 
ATOM     38  C   UNL A   1      46.319  29.265  30.510  1.00  0.00     0.049 A 
ATOM     39  H   UNL A   1      46.145  31.153  29.597  1.00  0.00     0.167 HD
ATOM     40  C   UNL A   1      43.858  29.562  30.697  1.00  0.00     0.074 A 
ATOM     41  C   UNL A   1      43.533  30.428  29.568  1.00  0.00     0.031 C 
ATOM     42  C   UNL A   1      45.046  29.075  31.162  1.00  0.00     0.037 A 
BRANCH  29  43
ATOM     43  C   UNL A   1      46.940  31.423  26.735  1.00  0.00     0.064 A 
ATOM     44  C   UNL A   1      47.989  32.364  26.743  1.00  0.00     0.173 A 
ATOM     45  C   UNL A   1      45.648  31.964  26.539  1.00  0.00     0.173 A 
ATOM     46  F   UNL A   1      49.259  31.969  26.915  1.00  0.00    -0.203 F 
ATOM     47  C   UNL A   1      47.747  33.740  26.698  1.00  0.00     0.198 A 
ATOM     48  C   UNL A   1      45.416  33.334  26.446  1.00  0.00     0.198 A 
ATOM     49  F   UNL A   1      44.540  31.216  26.538  1.00  0.00    -0.203 F 
ATOM     50  F   UNL A   1      48.763  34.596  26.870  1.00  0.00    -0.200 F 
ATOM     51  C   UNL A   1      46.460  34.223  26.568  1.00  0.00     0.200 A 
ATOM     52  F   UNL A   1      44.158  33.780  26.331  1.00  0.00    -0.200 F 
ATOM     53  F   UNL A   1      46.216  35.539  26.610  1.00  0.00    -0.200 F 
ENDBRANCH  29  43
BRANCH  30  54
ATOM     54  C   UNL A   1      39.469  28.453  29.327  1.00  0.00     0.064 A 
ATOM     55  C   UNL A   1      38.610  28.525  30.436  1.00  0.00     0.173 A 
ATOM     56  C   UNL A   1      38.946  28.920  28.104  1.00  0.00     0.173 A 
ATOM     57  F   UNL A   1      39.042  28.146  31.648  1.00  0.00    -0.203 F 
ATOM     58  C   UNL A   1      37.319  29.053  30.331  1.00  0.00     0.198 A 
ATOM     59  C   UNL A   1      37.654  29.433  27.997  1.00  0.00     0.198 A 
ATOM     60  F   UNL A   1      39.708  28.980  27.003  1.00  0.00    -0.203 F 
ATOM     61  F   UNL A   1      36.554  29.167  31.426  1.00  0.00    -0.200 F 
ATOM     62  C   UNL A   1      36.845  29.514  29.115  1.00  0.00     0.200 A 
ATOM     63  F   UNL A   1      37.223  29.906  26.820  1.00  0.00    -0.200 F 
ATOM     64  F   UNL A   1      35.631  30.073  29.026  1.00  0.00    -0.200 F 
ENDBRANCH  30  54
BRANCH  42  65
ATOM     65  C   UNL A   1      44.999  28.091  32.295  1.00  0.00     0.064 A 
ATOM     66  C   UNL A   1      44.977  28.451  33.654  1.00  0.00     0.173 A 
ATOM     67  C   UNL A   1      44.856  26.733  31.985  1.00  0.00     0.173 A 
ATOM     68  F   UNL A   1      44.996  29.737  34.029  1.00  0.00    -0.203 F 
ATOM     69  C   UNL A   1      44.881  27.485  34.654  1.00  0.00     0.198 A 
ATOM     70  C   UNL A   1      44.718  25.774  32.984  1.00  0.00     0.198 A 
ATOM     71  F   UNL A   1      44.808  26.337  30.703  1.00  0.00    -0.203 F 
ATOM     72  F   UNL A   1      44.887  27.851  35.945  1.00  0.00    -0.200 F 
ATOM     73  C   UNL A   1      44.746  26.148  34.317  1.00  0.00     0.200 A 
ATOM     74  F   UNL A   1      44.533  24.489  32.653  1.00  0.00    -0.200 F 
ATOM     75  F   UNL A   1      44.616  25.222  35.279  1.00  0.00    -0.200 F 
ENDBRANCH  42  65
ENDBRANCH  16  17
ENDBRANCH   9  11
ENDBRANCH   8   9
ENDBRANCH   7   8
ENDBRANCH   6   7
ENDBRANCH   5   6
ENDBRANCH   4   5
ENDBRANCH   3   4
ENDBRANCH   2   3
ENDBRANCH   1   2
BRANCH   1  76
ATOM     76  C   UNL A   1      39.581  22.241  26.803  1.00  0.00     0.188 C 
BRANCH  76  77
ATOM     77  O   UNL A   1      38.365  22.465  26.102  1.00  0.00    -0.376 OA
BRANCH  77  78
ATOM     78  C   UNL A   1      37.901  23.795  25.895  1.00  0.00     0.202 C 
BRANCH  78  79
ATOM     79  C   UNL A   1      36.661  24.044  25.012  1.00  0.00     0.261 C 
BRANCH  79  80
ATOM     80  O   UNL A   1      35.452  23.397  25.466  1.00  0.00    -0.463 OA
BRANCH  80  81
ATOM     81  C   UNL A   1      34.303  23.809  24.889  1.00  0.00     0.310 C 
ATOM     82  O   UNL A   1      33.943  23.436  23.776  1.00  0.00    -0.252 OA
BRANCH  81  83
ATOM     83  C   UNL A   1      33.349  24.531  25.843  1.00  0.00     0.119 C 
ATOM     84  C   UNL A   1      31.907  24.139  25.436  1.00  0.00     0.100 C 
ATOM     85  C   UNL A   1      33.203  26.073  26.015  1.00  0.00     0.027 C 
ATOM     86  C   UNL A   1      31.141  25.479  25.400  1.00  0.00     0.025 C 
ATOM     87  C   UNL A   1      32.972  26.709  24.680  1.00  0.00    -0.027 C 
ATOM     88  C   UNL A   1      31.763  26.228  26.562  1.00  0.00     0.017 C 
ATOM     89  C   UNL A   1      31.737  26.347  24.296  1.00  0.00    -0.027 C 
BRANCH  84  90
ATOM     90  C   UNL A   1      31.307  23.014  26.265  1.00  0.00     0.224 C 
ATOM     91  O   UNL A   1      30.719  23.296  27.316  1.00  0.00    -0.275 OA
ATOM     92  N   UNL A   1      31.347  21.692  25.971  1.00  0.00    -0.356 N 
ATOM     93  H   UNL A   1      30.785  21.165  26.585  1.00  0.00     0.163 HD
BRANCH  92  94
ATOM     94  C   UNL A   1      32.004  20.846  24.982  1.00  0.00     0.117 C 
BRANCH  94  95
ATOM     95  C   UNL A   1      33.255  20.192  25.564  1.00  0.00     0.043 C 
BRANCH  95  96
ATOM     96  C   UNL A   1      33.949  19.235  24.594  1.00  0.00     0.125 C 
BRANCH  96  97
ATOM     97  N   UNL A   1      33.696  17.846  24.922  1.00  0.00    -0.337 N 
ATOM     98  C   UNL A   1      32.707  17.364  25.730  1.00  0.00     0.107 A 
ATOM     99  C   UNL A   1      34.379  16.777  24.420  1.00  0.00     0.199 A 
ATOM    100  C   UNL A   1      32.784  15.996  25.604  1.00  0.00     0.130 A 
ATOM    101  N   UNL A   1      33.830  15.642  24.792  1.00  0.00    -0.245 NA
ENDBRANCH  96  97
ENDBRANCH  95  96
ENDBRANCH  94  95
ENDBRANCH  92  94
ENDBRANCH  84  90
ENDBRANCH  81  83
ENDBRANCH  80  81
ENDBRANCH  79  80
ENDBRANCH  78  79
ENDBRANCH  77  78
ENDBRANCH  76  77
ENDBRANCH   1  76
TORSDOF 25
ENDMDL
