MODEL 1
REMARK VINA RESULT:     -11.2      0.000      0.000
REMARK SMILES O=C1NC(=O)/C(=C/c2ccc(OCc3cn(-c4ccc(C(=O)OCCOCCOCCOCCOC(=O)c5ccc(-c6c7nc(c(-c8c(F)c(F)c(F)c(F)c8F)c8ccc([nH]8)c(-c8c(F)c(F)c(F)c(F)c8F)c8nc(c(-c9c(F)c(F)c(F)c(F)c9F)c9ccc6[nH]9)C=C8)C=C7)cc5)cc4)nn3)cc2)S1
REMARK SMILES IDX 27 1 26 2 25 3 24 4 23 5 21 6 22 7 20 8 17 9 18 10 102 11
REMARK SMILES IDX 19 12 101 13 16 14 14 15 15 16 104 17 103 18 13 19 12 20
REMARK SMILES IDX 11 21 8 22 9 23 106 24 10 25 105 26 7 27 1 28 2 29 3 30
REMARK SMILES IDX 107 31 4 32 6 34 5 35 28 36 29 37 30 38 31 39 32 40 33 41
REMARK SMILES IDX 34 42 35 43 36 44 37 45 38 46 39 47 100 48 40 49 99 50 41 51
REMARK SMILES IDX 42 52 43 53 93 54 44 55 98 56 92 57 94 58 45 59 97 60 91 61
REMARK SMILES IDX 90 62 46 64 78 65 58 66 77 67 59 68 62 69 76 70 95 71 60 72
REMARK SMILES IDX 61 73 75 75 96 76 63 77 47 78 48 79 56 80 49 81 50 82 54 83
REMARK SMILES IDX 57 84 51 85 52 86 55 87 53 88 79 89 80 90 88 91 81 92 82 93
REMARK SMILES IDX 86 94 89 95 83 96 84 97 87 98 85 99 64 100 65 101 73 102
REMARK SMILES IDX 66 103 67 104 71 105 74 106 68 107 69 108 72 109 70 110
REMARK H PARENT 3 33 94 63 62 74
REMARK Flexibility Score: inf
ROOT
ATOM      1  C   UNL A   1      35.764  22.808  25.381  1.00  0.00     0.188 C 
ENDROOT
BRANCH   1   2
ATOM      2  O   UNL A   1      35.183  23.946  24.760  1.00  0.00    -0.376 OA
BRANCH   2   3
ATOM      3  C   UNL A   1      34.156  24.599  25.485  1.00  0.00     0.202 C 
BRANCH   3   4
ATOM      4  C   UNL A   1      33.113  25.254  24.573  1.00  0.00     0.261 C 
BRANCH   4   5
ATOM      5  O   UNL A   1      33.569  26.449  23.918  1.00  0.00    -0.460 OA
BRANCH   5   6
ATOM      6  C   UNL A   1      32.618  27.357  23.611  1.00  0.00     0.338 C 
ATOM      7  O   UNL A   1      31.777  27.277  22.734  1.00  0.00    -0.246 OA
BRANCH   6   8
ATOM      8  C   UNL A   1      32.630  28.407  24.648  1.00  0.00     0.060 A 
ATOM      9  C   UNL A   1      32.666  30.495  26.488  1.00  0.00     0.066 A 
ATOM     10  C   UNL A   1      31.550  30.316  25.655  1.00  0.00     0.029 A 
ATOM     11  C   UNL A   1      33.721  29.571  26.462  1.00  0.00     0.029 A 
ATOM     12  C   UNL A   1      31.549  29.292  24.712  1.00  0.00     0.018 A 
ATOM     13  C   UNL A   1      33.692  28.513  25.552  1.00  0.00     0.018 A 
BRANCH   9  14
ATOM     14  N   UNL A   1      32.758  31.685  27.249  1.00  0.00    -0.220 N 
ATOM     15  C   UNL A   1      33.563  33.446  28.248  1.00  0.00     0.120 A 
ATOM     16  C   UNL A   1      33.791  32.098  28.061  1.00  0.00     0.144 A 
ATOM     17  N   UNL A   1      32.368  33.775  27.668  1.00  0.00    -0.131 NA
ATOM     18  N   UNL A   1      31.875  32.696  27.087  1.00  0.00    -0.062 NA
BRANCH  15  19
ATOM     19  C   UNL A   1      34.435  34.501  28.839  1.00  0.00     0.289 C 
BRANCH  19  20
ATOM     20  O   UNL A   1      34.154  34.818  30.208  1.00  0.00    -0.487 OA
BRANCH  20  21
ATOM     21  C   UNL A   1      34.848  34.148  31.177  1.00  0.00     0.119 A 
ATOM     22  C   UNL A   1      36.424  32.574  32.887  1.00  0.00    -0.024 A 
ATOM     23  C   UNL A   1      36.960  33.068  31.695  1.00  0.00     0.012 A 
ATOM     24  C   UNL A   1      35.127  32.940  33.256  1.00  0.00     0.012 A 
ATOM     25  C   UNL A   1      36.172  33.850  30.846  1.00  0.00     0.047 A 
ATOM     26  C   UNL A   1      34.349  33.735  32.411  1.00  0.00     0.047 A 
BRANCH  22  27
ATOM     27  C   UNL A   1      37.205  31.668  33.732  1.00  0.00     0.029 C 
ATOM     28  O   UNL A   1      39.113  33.664  37.943  1.00  0.00    -0.261 OA
ATOM     29  C   UNL A   1      38.757  32.980  37.001  1.00  0.00     0.290 C 
ATOM     30  N   UNL A   1      39.082  31.678  36.796  1.00  0.00    -0.282 N 
ATOM     31  S   UNL A   1      37.738  33.544  35.695  1.00  0.00    -0.022 SA
ATOM     32  C   UNL A   1      38.596  31.060  35.685  1.00  0.00     0.265 C 
ATOM     33  H   UNL A   1      39.654  31.194  37.435  1.00  0.00     0.174 HD
ATOM     34  C   UNL A   1      37.782  32.016  34.891  1.00  0.00     0.083 C 
ATOM     35  O   UNL A   1      38.809  29.894  35.387  1.00  0.00    -0.268 OA
ENDBRANCH  22  27
ENDBRANCH  20  21
ENDBRANCH  19  20
ENDBRANCH  15  19
ENDBRANCH   9  14
ENDBRANCH   6   8
ENDBRANCH   5   6
ENDBRANCH   4   5
ENDBRANCH   3   4
ENDBRANCH   2   3
ENDBRANCH   1   2
BRANCH   1  36
ATOM     36  C   UNL A   1      37.273  22.624  25.099  1.00  0.00     0.188 C 
BRANCH  36  37
ATOM     37  O   UNL A   1      38.240  22.726  26.137  1.00  0.00    -0.377 OA
BRANCH  37  38
ATOM     38  C   UNL A   1      39.430  21.953  26.081  1.00  0.00     0.188 C 
BRANCH  38  39
ATOM     39  C   UNL A   1      40.378  21.868  27.303  1.00  0.00     0.188 C 
BRANCH  39  40
ATOM     40  O   UNL A   1      40.651  20.553  27.773  1.00  0.00    -0.376 OA
BRANCH  40  41
ATOM     41  C   UNL A   1      41.033  19.574  26.820  1.00  0.00     0.202 C 
BRANCH  41  42
ATOM     42  C   UNL A   1      42.520  19.630  26.482  1.00  0.00     0.261 C 
BRANCH  42  43
ATOM     43  O   UNL A   1      42.821  20.594  25.482  1.00  0.00    -0.460 OA
BRANCH  43  44
ATOM     44  C   UNL A   1      44.090  20.579  25.039  1.00  0.00     0.338 C 
ATOM     45  O   UNL A   1      44.783  19.604  24.800  1.00  0.00    -0.246 OA
BRANCH  44  46
ATOM     46  C   UNL A   1      44.587  21.953  24.979  1.00  0.00     0.060 A 
ATOM     47  C   UNL A   1      45.599  22.264  25.888  1.00  0.00     0.016 A 
ATOM     48  C   UNL A   1      43.809  22.933  24.345  1.00  0.00     0.016 A 
ATOM     49  C   UNL A   1      45.615  23.532  26.406  1.00  0.00     0.010 A 
ATOM     50  C   UNL A   1      43.814  24.197  24.877  1.00  0.00     0.010 A 
ATOM     51  C   UNL A   1      44.634  24.431  25.978  1.00  0.00    -0.014 A 
BRANCH  51  52
ATOM     52  C   UNL A   1      44.431  25.603  26.796  1.00  0.00     0.031 A 
ATOM     53  C   UNL A   1      45.446  26.655  26.627  1.00  0.00     0.074 A 
ATOM     54  C   UNL A   1      43.359  25.710  27.601  1.00  0.00     0.049 A 
ATOM     55  N   UNL A   1      46.209  27.178  27.527  1.00  0.00    -0.248 NA
ATOM     56  C   UNL A   1      45.705  27.116  25.256  1.00  0.00     0.031 C 
ATOM     57  C   UNL A   1      42.163  24.861  27.629  1.00  0.00     0.029 A 
ATOM     58  N   UNL A   1      43.071  26.688  28.502  1.00  0.00    -0.354 N 
ATOM     59  C   UNL A   1      46.934  28.161  26.866  1.00  0.00     0.074 A 
ATOM     60  C   UNL A   1      46.688  27.990  25.459  1.00  0.00     0.031 C 
ATOM     61  C   UNL A   1      41.198  25.485  28.339  1.00  0.00     0.029 A 
ATOM     62  C   UNL A   1      41.746  26.708  28.902  1.00  0.00     0.049 A 
ATOM     63  H   UNL A   1      43.744  27.323  28.837  1.00  0.00     0.167 HD
ATOM     64  C   UNL A   1      47.494  29.193  27.546  1.00  0.00     0.037 A 
ATOM     65  C   UNL A   1      41.130  27.716  29.564  1.00  0.00     0.037 A 
ATOM     66  C   UNL A   1      47.729  28.857  28.926  1.00  0.00     0.049 A 
ATOM     67  C   UNL A   1      42.179  28.566  30.181  1.00  0.00     0.074 A 
ATOM     68  C   UNL A   1      48.467  27.880  29.568  1.00  0.00     0.029 A 
ATOM     69  N   UNL A   1      46.901  29.382  29.885  1.00  0.00    -0.354 N 
ATOM     70  N   UNL A   1      42.924  28.210  31.189  1.00  0.00    -0.248 NA
ATOM     71  C   UNL A   1      42.676  29.702  29.413  1.00  0.00     0.031 C 
ATOM     72  C   UNL A   1      47.736  27.565  30.749  1.00  0.00     0.029 A 
ATOM     73  C   UNL A   1      46.600  28.375  30.765  1.00  0.00     0.049 A 
ATOM     74  H   UNL A   1      46.582  30.313  29.934  1.00  0.00     0.167 HD
ATOM     75  C   UNL A   1      44.159  28.792  30.942  1.00  0.00     0.074 A 
ATOM     76  C   UNL A   1      43.911  29.790  29.910  1.00  0.00     0.031 C 
ATOM     77  C   UNL A   1      45.310  28.215  31.393  1.00  0.00     0.037 A 
BRANCH  64  78
ATOM     78  C   UNL A   1      47.478  30.609  27.029  1.00  0.00     0.064 A 
ATOM     79  C   UNL A   1      48.647  31.385  27.127  1.00  0.00     0.173 A 
ATOM     80  C   UNL A   1      46.296  31.320  26.717  1.00  0.00     0.173 A 
ATOM     81  F   UNL A   1      49.820  30.816  27.440  1.00  0.00    -0.203 F 
ATOM     82  C   UNL A   1      48.617  32.776  27.006  1.00  0.00     0.198 A 
ATOM     83  C   UNL A   1      46.282  32.700  26.539  1.00  0.00     0.198 A 
ATOM     84  F   UNL A   1      45.093  30.734  26.684  1.00  0.00    -0.203 F 
ATOM     85  F   UNL A   1      49.729  33.486  27.241  1.00  0.00    -0.200 F 
ATOM     86  C   UNL A   1      47.435  33.433  26.718  1.00  0.00     0.200 A 
ATOM     87  F   UNL A   1      45.122  33.318  26.275  1.00  0.00    -0.200 F 
ATOM     88  F   UNL A   1      47.393  34.770  26.664  1.00  0.00    -0.200 F 
ENDBRANCH  64  78
BRANCH  65  89
ATOM     89  C   UNL A   1      39.717  28.143  29.456  1.00  0.00     0.064 A 
ATOM     90  C   UNL A   1      38.895  28.214  30.590  1.00  0.00     0.173 A 
ATOM     91  C   UNL A   1      39.211  28.729  28.278  1.00  0.00     0.173 A 
ATOM     92  F   UNL A   1      39.323  27.727  31.765  1.00  0.00    -0.203 F 
ATOM     93  C   UNL A   1      37.648  28.843  30.552  1.00  0.00     0.198 A 
ATOM     94  C   UNL A   1      37.960  29.342  28.236  1.00  0.00     0.198 A 
ATOM     95  F   UNL A   1      39.957  28.803  27.167  1.00  0.00    -0.203 F 
ATOM     96  F   UNL A   1      36.917  28.946  31.671  1.00  0.00    -0.200 F 
ATOM     97  C   UNL A   1      37.183  29.411  29.377  1.00  0.00     0.200 A 
ATOM     98  F   UNL A   1      37.539  29.917  27.101  1.00  0.00    -0.200 F 
ATOM     99  F   UNL A   1      36.010  30.058  29.352  1.00  0.00    -0.200 F 
ENDBRANCH  65  89
BRANCH  77 100
ATOM    100  C   UNL A   1      45.185  27.133  32.425  1.00  0.00     0.064 A 
ATOM    101  C   UNL A   1      45.150  27.379  33.809  1.00  0.00     0.173 A 
ATOM    102  C   UNL A   1      44.968  25.817  31.996  1.00  0.00     0.173 A 
ATOM    103  F   UNL A   1      45.242  28.627  34.288  1.00  0.00    -0.203 F 
ATOM    104  C   UNL A   1      44.964  26.341  34.720  1.00  0.00     0.198 A 
ATOM    105  C   UNL A   1      44.745  24.789  32.906  1.00  0.00     0.198 A 
ATOM    106  F   UNL A   1      44.928  25.536  30.684  1.00  0.00    -0.203 F 
ATOM    107  F   UNL A   1      44.955  26.597  36.036  1.00  0.00    -0.200 F 
ATOM    108  C   UNL A   1      44.757  25.049  34.268  1.00  0.00     0.200 A 
ATOM    109  F   UNL A   1      44.495  23.549  32.465  1.00  0.00    -0.200 F 
ATOM    110  F   UNL A   1      44.542  24.056  35.143  1.00  0.00    -0.200 F 
ENDBRANCH  77 100
ENDBRANCH  51  52
ENDBRANCH  44  46
ENDBRANCH  43  44
ENDBRANCH  42  43
ENDBRANCH  41  42
ENDBRANCH  40  41
ENDBRANCH  39  40
ENDBRANCH  38  39
ENDBRANCH  37  38
ENDBRANCH  36  37
ENDBRANCH   1  36
TORSDOF 25
ENDMDL
MODEL 2
REMARK VINA RESULT:     -10.8      1.452      2.095
REMARK SMILES O=C1NC(=O)/C(=C/c2ccc(OCc3cn(-c4ccc(C(=O)OCCOCCOCCOCCOC(=O)c5ccc(-c6c7nc(c(-c8c(F)c(F)c(F)c(F)c8F)c8ccc([nH]8)c(-c8c(F)c(F)c(F)c(F)c8F)c8nc(c(-c9c(F)c(F)c(F)c(F)c9F)c9ccc6[nH]9)C=C8)C=C7)cc5)cc4)nn3)cc2)S1
REMARK SMILES IDX 27 1 26 2 25 3 24 4 23 5 21 6 22 7 20 8 17 9 18 10 102 11
REMARK SMILES IDX 19 12 101 13 16 14 14 15 15 16 104 17 103 18 13 19 12 20
REMARK SMILES IDX 11 21 8 22 9 23 106 24 10 25 105 26 7 27 1 28 2 29 3 30
REMARK SMILES IDX 107 31 4 32 6 34 5 35 28 36 29 37 30 38 31 39 32 40 33 41
REMARK SMILES IDX 34 42 35 43 36 44 37 45 38 46 39 47 100 48 40 49 99 50 41 51
REMARK SMILES IDX 42 52 43 53 93 54 44 55 98 56 92 57 94 58 45 59 97 60 91 61
REMARK SMILES IDX 90 62 46 64 78 65 58 66 77 67 59 68 62 69 76 70 95 71 60 72
REMARK SMILES IDX 61 73 75 75 96 76 63 77 47 78 48 79 56 80 49 81 50 82 54 83
REMARK SMILES IDX 57 84 51 85 52 86 55 87 53 88 79 89 80 90 88 91 81 92 82 93
REMARK SMILES IDX 86 94 89 95 83 96 84 97 87 98 85 99 64 100 65 101 73 102
REMARK SMILES IDX 66 103 67 104 71 105 74 106 68 107 69 108 72 109 70 110
REMARK H PARENT 3 33 94 63 62 74
REMARK Flexibility Score: inf
ROOT
ATOM      1  C   UNL A   1      35.045  21.390  25.759  1.00  0.00     0.188 C 
ENDROOT
BRANCH   1   2
ATOM      2  O   UNL A   1      34.278  22.584  25.808  1.00  0.00    -0.376 OA
BRANCH   2   3
ATOM      3  C   UNL A   1      33.076  22.589  25.057  1.00  0.00     0.202 C 
BRANCH   3   4
ATOM      4  C   UNL A   1      33.324  22.657  23.546  1.00  0.00     0.261 C 
BRANCH   4   5
ATOM      5  O   UNL A   1      33.963  23.866  23.107  1.00  0.00    -0.460 OA
BRANCH   5   6
ATOM      6  C   UNL A   1      33.145  24.835  22.643  1.00  0.00     0.338 C 
ATOM      7  O   UNL A   1      32.483  24.815  21.620  1.00  0.00    -0.246 OA
BRANCH   6   8
ATOM      8  C   UNL A   1      33.022  25.873  23.684  1.00  0.00     0.060 A 
ATOM      9  C   UNL A   1      32.793  27.941  25.533  1.00  0.00     0.066 A 
ATOM     10  C   UNL A   1      31.718  27.643  24.680  1.00  0.00     0.029 A 
ATOM     11  C   UNL A   1      33.945  27.142  25.521  1.00  0.00     0.029 A 
ATOM     12  C   UNL A   1      31.848  26.631  23.733  1.00  0.00     0.018 A 
ATOM     13  C   UNL A   1      34.050  26.092  24.607  1.00  0.00     0.018 A 
BRANCH   9  14
ATOM     14  N   UNL A   1      32.737  29.130  26.300  1.00  0.00    -0.220 N 
ATOM     15  C   UNL A   1      33.322  30.967  27.315  1.00  0.00     0.120 A 
ATOM     16  C   UNL A   1      33.708  29.656  27.124  1.00  0.00     0.144 A 
ATOM     17  N   UNL A   1      32.102  31.157  26.726  1.00  0.00    -0.131 NA
ATOM     18  N   UNL A   1      31.744  30.032  26.134  1.00  0.00    -0.062 NA
BRANCH  15  19
ATOM     19  C   UNL A   1      34.059  32.113  27.920  1.00  0.00     0.289 C 
BRANCH  19  20
ATOM     20  O   UNL A   1      33.815  32.317  29.317  1.00  0.00    -0.487 OA
BRANCH  20  21
ATOM     21  C   UNL A   1      34.819  32.860  30.071  1.00  0.00     0.119 A 
ATOM     22  C   UNL A   1      37.114  33.818  31.373  1.00  0.00    -0.024 A 
ATOM     23  C   UNL A   1      37.031  33.857  29.980  1.00  0.00     0.012 A 
ATOM     24  C   UNL A   1      36.013  33.375  32.111  1.00  0.00     0.012 A 
ATOM     25  C   UNL A   1      35.886  33.379  29.334  1.00  0.00     0.047 A 
ATOM     26  C   UNL A   1      34.867  32.912  31.462  1.00  0.00     0.047 A 
BRANCH  22  27
ATOM     27  C   UNL A   1      38.348  34.219  32.053  1.00  0.00     0.029 C 
ATOM     28  O   UNL A   1      41.810  30.614  32.665  1.00  0.00    -0.261 OA
ATOM     29  C   UNL A   1      41.133  31.626  32.629  1.00  0.00     0.290 C 
ATOM     30  N   UNL A   1      41.470  32.828  33.162  1.00  0.00    -0.282 N 
ATOM     31  S   UNL A   1      39.560  31.739  31.870  1.00  0.00    -0.022 SA
ATOM     32  C   UNL A   1      40.592  33.860  33.030  1.00  0.00     0.265 C 
ATOM     33  H   UNL A   1      42.327  32.950  33.632  1.00  0.00     0.174 HD
ATOM     34  C   UNL A   1      39.382  33.403  32.299  1.00  0.00     0.083 C 
ATOM     35  O   UNL A   1      40.775  34.990  33.458  1.00  0.00    -0.268 OA
ENDBRANCH  22  27
ENDBRANCH  20  21
ENDBRANCH  19  20
ENDBRANCH  15  19
ENDBRANCH   9  14
ENDBRANCH   6   8
ENDBRANCH   5   6
ENDBRANCH   4   5
ENDBRANCH   3   4
ENDBRANCH   2   3
ENDBRANCH   1   2
BRANCH   1  36
ATOM     36  C   UNL A   1      36.496  21.579  25.263  1.00  0.00     0.188 C 
BRANCH  36  37
ATOM     37  O   UNL A   1      37.534  21.995  26.143  1.00  0.00    -0.377 OA
BRANCH  37  38
ATOM     38  C   UNL A   1      38.892  21.877  25.748  1.00  0.00     0.188 C 
BRANCH  38  39
ATOM     39  C   UNL A   1      40.031  21.956  26.795  1.00  0.00     0.188 C 
BRANCH  39  40
ATOM     40  O   UNL A   1      40.420  20.713  27.368  1.00  0.00    -0.376 OA
BRANCH  40  41
ATOM     41  C   UNL A   1      40.855  19.685  26.492  1.00  0.00     0.202 C 
BRANCH  41  42
ATOM     42  C   UNL A   1      42.374  19.617  26.373  1.00  0.00     0.261 C 
BRANCH  42  43
ATOM     43  O   UNL A   1      42.860  20.214  25.179  1.00  0.00    -0.460 OA
BRANCH  43  44
ATOM     44  C   UNL A   1      44.199  20.256  25.065  1.00  0.00     0.338 C 
ATOM     45  O   UNL A   1      44.981  19.323  25.134  1.00  0.00    -0.246 OA
BRANCH  44  46
ATOM     46  C   UNL A   1      44.620  21.652  24.949  1.00  0.00     0.060 A 
ATOM     47  C   UNL A   1      45.706  22.018  25.746  1.00  0.00     0.016 A 
ATOM     48  C   UNL A   1      43.735  22.589  24.397  1.00  0.00     0.016 A 
ATOM     49  C   UNL A   1      45.715  23.290  26.256  1.00  0.00     0.010 A 
ATOM     50  C   UNL A   1      43.734  23.856  24.922  1.00  0.00     0.010 A 
ATOM     51  C   UNL A   1      44.653  24.138  25.930  1.00  0.00    -0.014 A 
BRANCH  51  52
ATOM     52  C   UNL A   1      44.480  25.306  26.760  1.00  0.00     0.031 A 
ATOM     53  C   UNL A   1      45.537  26.322  26.621  1.00  0.00     0.074 A 
ATOM     54  C   UNL A   1      43.401  25.442  27.551  1.00  0.00     0.049 A 
ATOM     55  N   UNL A   1      46.304  26.804  27.540  1.00  0.00    -0.248 NA
ATOM     56  C   UNL A   1      45.834  26.791  25.260  1.00  0.00     0.031 C 
ATOM     57  C   UNL A   1      42.174  24.637  27.549  1.00  0.00     0.029 A 
ATOM     58  N   UNL A   1      43.135  26.418  28.460  1.00  0.00    -0.354 N 
ATOM     59  C   UNL A   1      47.075  27.768  26.903  1.00  0.00     0.074 A 
ATOM     60  C   UNL A   1      46.845  27.625  25.490  1.00  0.00     0.031 C 
ATOM     61  C   UNL A   1      41.222  25.288  28.253  1.00  0.00     0.029 A 
ATOM     62  C   UNL A   1      41.806  26.482  28.840  1.00  0.00     0.049 A 
ATOM     63  H   UNL A   1      43.826  27.023  28.814  1.00  0.00     0.167 HD
ATOM     64  C   UNL A   1      47.662  28.769  27.606  1.00  0.00     0.037 A 
ATOM     65  C   UNL A   1      41.217  27.503  29.507  1.00  0.00     0.037 A 
ATOM     66  C   UNL A   1      47.863  28.407  28.984  1.00  0.00     0.049 A 
ATOM     67  C   UNL A   1      42.288  28.306  30.151  1.00  0.00     0.074 A 
ATOM     68  C   UNL A   1      48.555  27.395  29.624  1.00  0.00     0.029 A 
ATOM     69  N   UNL A   1      47.040  28.950  29.938  1.00  0.00    -0.354 N 
ATOM     70  N   UNL A   1      43.002  27.909  31.166  1.00  0.00    -0.248 NA
ATOM     71  C   UNL A   1      42.837  29.432  29.407  1.00  0.00     0.031 C 
ATOM     72  C   UNL A   1      47.793  27.092  30.790  1.00  0.00     0.029 A 
ATOM     73  C   UNL A   1      46.689  27.943  30.799  1.00  0.00     0.049 A 
ATOM     74  H   UNL A   1      46.755  29.890  29.995  1.00  0.00     0.167 HD
ATOM     75  C   UNL A   1      44.262  28.448  30.945  1.00  0.00     0.074 A 
ATOM     76  C   UNL A   1      44.068  29.467  29.923  1.00  0.00     0.031 C 
ATOM     77  C   UNL A   1      45.384  27.823  31.406  1.00  0.00     0.037 A 
BRANCH  64  78
ATOM     78  C   UNL A   1      47.706  30.191  27.108  1.00  0.00     0.064 A 
ATOM     79  C   UNL A   1      48.930  30.885  27.131  1.00  0.00     0.173 A 
ATOM     80  C   UNL A   1      46.557  30.986  26.891  1.00  0.00     0.173 A 
ATOM     81  F   UNL A   1      50.080  30.233  27.351  1.00  0.00    -0.203 F 
ATOM     82  C   UNL A   1      48.987  32.277  27.029  1.00  0.00     0.198 A 
ATOM     83  C   UNL A   1      46.625  32.366  26.730  1.00  0.00     0.198 A 
ATOM     84  F   UNL A   1      45.317  30.483  26.938  1.00  0.00    -0.203 F 
ATOM     85  F   UNL A   1      50.159  32.906  27.191  1.00  0.00    -0.200 F 
ATOM     86  C   UNL A   1      47.835  33.017  26.835  1.00  0.00     0.200 A 
ATOM     87  F   UNL A   1      45.494  33.066  26.558  1.00  0.00    -0.200 F 
ATOM     88  F   UNL A   1      47.882  34.354  26.799  1.00  0.00    -0.200 F 
ENDBRANCH  64  78
BRANCH  65  89
ATOM     89  C   UNL A   1      39.823  27.984  29.384  1.00  0.00     0.064 A 
ATOM     90  C   UNL A   1      38.980  28.049  30.502  1.00  0.00     0.173 A 
ATOM     91  C   UNL A   1      39.363  28.624  28.215  1.00  0.00     0.173 A 
ATOM     92  F   UNL A   1      39.365  27.511  31.669  1.00  0.00    -0.203 F 
ATOM     93  C   UNL A   1      37.756  28.724  30.459  1.00  0.00     0.198 A 
ATOM     94  C   UNL A   1      38.136  29.283  28.166  1.00  0.00     0.198 A 
ATOM     95  F   UNL A   1      40.136  28.706  27.122  1.00  0.00    -0.203 F 
ATOM     96  F   UNL A   1      37.005  28.817  31.565  1.00  0.00    -0.200 F 
ATOM     97  C   UNL A   1      37.337  29.344  29.292  1.00  0.00     0.200 A 
ATOM     98  F   UNL A   1      37.760  29.907  27.042  1.00  0.00    -0.200 F 
ATOM     99  F   UNL A   1      36.189  30.033  29.265  1.00  0.00    -0.200 F 
ENDBRANCH  65  89
BRANCH  77 100
ATOM    100  C   UNL A   1      45.202  26.733  32.421  1.00  0.00     0.064 A 
ATOM    101  C   UNL A   1      44.931  25.395  32.085  1.00  0.00     0.173 A 
ATOM    102  C   UNL A   1      45.432  27.027  33.772  1.00  0.00     0.173 A 
ATOM    103  F   UNL A   1      44.808  25.020  30.804  1.00  0.00    -0.203 F 
ATOM    104  C   UNL A   1      44.839  24.410  33.066  1.00  0.00     0.198 A 
ATOM    105  C   UNL A   1      45.375  26.035  34.745  1.00  0.00     0.198 A 
ATOM    106  F   UNL A   1      45.755  28.276  34.142  1.00  0.00    -0.203 F 
ATOM    107  F   UNL A   1      44.560  23.144  32.723  1.00  0.00    -0.200 F 
ATOM    108  C   UNL A   1      45.065  24.730  34.393  1.00  0.00     0.200 A 
ATOM    109  F   UNL A   1      45.645  26.337  36.023  1.00  0.00    -0.200 F 
ATOM    110  F   UNL A   1      45.012  23.775  35.334  1.00  0.00    -0.200 F 
ENDBRANCH  77 100
ENDBRANCH  51  52
ENDBRANCH  44  46
ENDBRANCH  43  44
ENDBRANCH  42  43
ENDBRANCH  41  42
ENDBRANCH  40  41
ENDBRANCH  39  40
ENDBRANCH  38  39
ENDBRANCH  37  38
ENDBRANCH  36  37
ENDBRANCH   1  36
TORSDOF 25
ENDMDL
MODEL 3
REMARK VINA RESULT:      -9.3      4.417     10.640
REMARK SMILES O=C1NC(=O)/C(=C/c2ccc(OCc3cn(-c4ccc(C(=O)OCCOCCOCCOCCOC(=O)c5ccc(-c6c7nc(c(-c8c(F)c(F)c(F)c(F)c8F)c8ccc([nH]8)c(-c8c(F)c(F)c(F)c(F)c8F)c8nc(c(-c9c(F)c(F)c(F)c(F)c9F)c9ccc6[nH]9)C=C8)C=C7)cc5)cc4)nn3)cc2)S1
REMARK SMILES IDX 27 1 26 2 25 3 24 4 23 5 21 6 22 7 20 8 17 9 18 10 102 11
REMARK SMILES IDX 19 12 101 13 16 14 14 15 15 16 104 17 103 18 13 19 12 20
REMARK SMILES IDX 11 21 8 22 9 23 106 24 10 25 105 26 7 27 1 28 2 29 3 30
REMARK SMILES IDX 107 31 4 32 6 34 5 35 28 36 29 37 30 38 31 39 32 40 33 41
REMARK SMILES IDX 34 42 35 43 36 44 37 45 38 46 39 47 100 48 40 49 99 50 41 51
REMARK SMILES IDX 42 52 43 53 93 54 44 55 98 56 92 57 94 58 45 59 97 60 91 61
REMARK SMILES IDX 90 62 46 64 78 65 58 66 77 67 59 68 62 69 76 70 95 71 60 72
REMARK SMILES IDX 61 73 75 75 96 76 63 77 47 78 48 79 56 80 49 81 50 82 54 83
REMARK SMILES IDX 57 84 51 85 52 86 55 87 53 88 79 89 80 90 88 91 81 92 82 93
REMARK SMILES IDX 86 94 89 95 83 96 84 97 87 98 85 99 64 100 65 101 73 102
REMARK SMILES IDX 66 103 67 104 71 105 74 106 68 107 69 108 72 109 70 110
REMARK H PARENT 3 33 94 63 62 74
REMARK Flexibility Score: inf
ROOT
ATOM      1  C   UNL A   1      42.570  27.308  26.368  1.00  0.00     0.188 C 
ENDROOT
BRANCH   1   2
ATOM      2  O   UNL A   1      43.633  26.669  25.676  1.00  0.00    -0.376 OA
BRANCH   2   3
ATOM      3  C   UNL A   1      44.130  25.475  26.254  1.00  0.00     0.202 C 
BRANCH   3   4
ATOM      4  C   UNL A   1      44.044  24.277  25.302  1.00  0.00     0.261 C 
BRANCH   4   5
ATOM      5  O   UNL A   1      43.601  23.060  25.923  1.00  0.00    -0.460 OA
BRANCH   5   6
ATOM      6  C   UNL A   1      42.971  23.194  27.111  1.00  0.00     0.338 C 
ATOM      7  O   UNL A   1      43.459  23.549  28.169  1.00  0.00    -0.246 OA
BRANCH   6   8
ATOM      8  C   UNL A   1      41.523  23.023  26.886  1.00  0.00     0.060 A 
ATOM      9  C   UNL A   1      38.821  22.690  26.307  1.00  0.00     0.066 A 
ATOM     10  C   UNL A   1      39.708  21.614  26.147  1.00  0.00     0.029 A 
ATOM     11  C   UNL A   1      39.273  23.903  26.845  1.00  0.00     0.029 A 
ATOM     12  C   UNL A   1      41.064  21.793  26.405  1.00  0.00     0.018 A 
ATOM     13  C   UNL A   1      40.625  24.062  27.154  1.00  0.00     0.018 A 
BRANCH   9  14
ATOM     14  N   UNL A   1      37.507  22.564  25.796  1.00  0.00    -0.220 N 
ATOM     15  C   UNL A   1      35.583  23.043  24.893  1.00  0.00     0.120 A 
ATOM     16  C   UNL A   1      36.486  23.489  25.835  1.00  0.00     0.144 A 
ATOM     17  N   UNL A   1      36.005  21.832  24.415  1.00  0.00    -0.131 NA
ATOM     18  N   UNL A   1      37.159  21.539  24.986  1.00  0.00    -0.062 NA
BRANCH  15  19
ATOM     19  C   UNL A   1      34.388  23.715  24.306  1.00  0.00     0.289 C 
BRANCH  19  20
ATOM     20  O   UNL A   1      33.357  24.041  25.247  1.00  0.00    -0.487 OA
BRANCH  20  21
ATOM     21  C   UNL A   1      32.314  24.811  24.813  1.00  0.00     0.119 A 
ATOM     22  C   UNL A   1      29.993  26.280  24.232  1.00  0.00    -0.024 A 
ATOM     23  C   UNL A   1      30.501  26.257  25.532  1.00  0.00     0.012 A 
ATOM     24  C   UNL A   1      30.697  25.634  23.212  1.00  0.00     0.012 A 
ATOM     25  C   UNL A   1      31.656  25.524  25.818  1.00  0.00     0.047 A 
ATOM     26  C   UNL A   1      31.859  24.915  23.500  1.00  0.00     0.047 A 
BRANCH  22  27
ATOM     27  C   UNL A   1      28.727  26.958  23.942  1.00  0.00     0.029 C 
ATOM     28  O   UNL A   1      29.057  31.221  21.282  1.00  0.00    -0.261 OA
ATOM     29  C   UNL A   1      28.741  30.233  21.921  1.00  0.00     0.290 C 
ATOM     30  N   UNL A   1      27.481  29.902  22.302  1.00  0.00    -0.282 N 
ATOM     31  S   UNL A   1      29.866  29.019  22.490  1.00  0.00    -0.022 SA
ATOM     32  C   UNL A   1      27.304  28.757  23.016  1.00  0.00     0.265 C 
ATOM     33  H   UNL A   1      26.716  30.476  22.068  1.00  0.00     0.174 HD
ATOM     34  C   UNL A   1      28.615  28.096  23.243  1.00  0.00     0.083 C 
ATOM     35  O   UNL A   1      26.225  28.343  23.414  1.00  0.00    -0.268 OA
ENDBRANCH  22  27
ENDBRANCH  20  21
ENDBRANCH  19  20
ENDBRANCH  15  19
ENDBRANCH   9  14
ENDBRANCH   6   8
ENDBRANCH   5   6
ENDBRANCH   4   5
ENDBRANCH   3   4
ENDBRANCH   2   3
ENDBRANCH   1   2
BRANCH   1  36
ATOM     36  C   UNL A   1      42.652  27.203  27.908  1.00  0.00     0.188 C 
BRANCH  36  37
ATOM     37  O   UNL A   1      41.734  27.892  28.749  1.00  0.00    -0.377 OA
BRANCH  37  38
ATOM     38  C   UNL A   1      40.473  27.314  29.051  1.00  0.00     0.188 C 
BRANCH  38  39
ATOM     39  C   UNL A   1      39.251  27.551  28.129  1.00  0.00     0.188 C 
BRANCH  39  40
ATOM     40  O   UNL A   1      38.238  28.394  28.664  1.00  0.00    -0.376 OA
BRANCH  40  41
ATOM     41  C   UNL A   1      38.027  29.653  28.047  1.00  0.00     0.202 C 
BRANCH  41  42
ATOM     42  C   UNL A   1      36.565  29.889  27.678  1.00  0.00     0.261 C 
BRANCH  42  43
ATOM     43  O   UNL A   1      35.738  30.097  28.814  1.00  0.00    -0.460 OA
BRANCH  43  44
ATOM     44  C   UNL A   1      35.258  31.346  28.950  1.00  0.00     0.338 C 
ATOM     45  O   UNL A   1      34.468  31.923  28.222  1.00  0.00    -0.246 OA
BRANCH  44  46
ATOM     46  C   UNL A   1      35.923  31.987  30.084  1.00  0.00     0.060 A 
ATOM     47  C   UNL A   1      36.866  32.960  29.753  1.00  0.00     0.016 A 
ATOM     48  C   UNL A   1      35.886  31.363  31.340  1.00  0.00     0.016 A 
ATOM     49  C   UNL A   1      37.968  33.073  30.560  1.00  0.00     0.010 A 
ATOM     50  C   UNL A   1      36.997  31.463  32.137  1.00  0.00     0.010 A 
ATOM     51  C   UNL A   1      38.064  32.224  31.666  1.00  0.00    -0.014 A 
BRANCH  51  52
ATOM     52  C   UNL A   1      39.370  32.089  32.265  1.00  0.00     0.031 A 
ATOM     53  C   UNL A   1      39.895  33.318  32.881  1.00  0.00     0.074 A 
ATOM     54  C   UNL A   1      40.006  30.904  32.282  1.00  0.00     0.049 A 
ATOM     55  N   UNL A   1      40.996  33.936  32.614  1.00  0.00    -0.248 NA
ATOM     56  C   UNL A   1      39.032  33.993  33.860  1.00  0.00     0.031 C 
ATOM     57  C   UNL A   1      39.460  29.582  31.956  1.00  0.00     0.029 A 
ATOM     58  N   UNL A   1      41.267  30.626  32.710  1.00  0.00    -0.354 N 
ATOM     59  C   UNL A   1      41.049  34.994  33.512  1.00  0.00     0.074 A 
ATOM     60  C   UNL A   1      39.765  35.063  34.156  1.00  0.00     0.031 C 
ATOM     61  C   UNL A   1      40.310  28.633  32.406  1.00  0.00     0.029 A 
ATOM     62  C   UNL A   1      41.497  29.281  32.939  1.00  0.00     0.049 A 
ATOM     63  H   UNL A   1      41.953  31.320  32.844  1.00  0.00     0.167 HD
ATOM     64  C   UNL A   1      42.229  35.584  33.828  1.00  0.00     0.037 A 
ATOM     65  C   UNL A   1      42.548  28.756  33.613  1.00  0.00     0.037 A 
ATOM     66  C   UNL A   1      43.211  35.401  32.792  1.00  0.00     0.049 A 
ATOM     67  C   UNL A   1      43.618  29.785  33.662  1.00  0.00     0.074 A 
ATOM     68  C   UNL A   1      43.272  35.733  31.451  1.00  0.00     0.029 A 
ATOM     69  N   UNL A   1      44.226  34.500  32.993  1.00  0.00    -0.354 N 
ATOM     70  N   UNL A   1      44.325  30.169  32.636  1.00  0.00    -0.248 NA
ATOM     71  C   UNL A   1      43.648  30.685  34.807  1.00  0.00     0.031 C 
ATOM     72  C   UNL A   1      44.017  34.688  30.833  1.00  0.00     0.029 A 
ATOM     73  C   UNL A   1      44.378  33.785  31.833  1.00  0.00     0.049 A 
ATOM     74  H   UNL A   1      44.751  34.388  33.819  1.00  0.00     0.167 HD
ATOM     75  C   UNL A   1      44.545  31.523  32.843  1.00  0.00     0.074 A 
ATOM     76  C   UNL A   1      44.215  31.754  34.243  1.00  0.00     0.031 C 
ATOM     77  C   UNL A   1      44.702  32.379  31.792  1.00  0.00     0.037 A 
BRANCH  64  78
ATOM     78  C   UNL A   1      42.577  35.999  35.235  1.00  0.00     0.064 A 
ATOM     79  C   UNL A   1      43.091  37.289  35.458  1.00  0.00     0.173 A 
ATOM     80  C   UNL A   1      42.703  35.095  36.315  1.00  0.00     0.173 A 
ATOM     81  F   UNL A   1      43.044  38.220  34.494  1.00  0.00    -0.203 F 
ATOM     82  C   UNL A   1      43.755  37.621  36.641  1.00  0.00     0.198 A 
ATOM     83  C   UNL A   1      43.313  35.448  37.515  1.00  0.00     0.198 A 
ATOM     84  F   UNL A   1      42.348  33.809  36.220  1.00  0.00    -0.203 F 
ATOM     85  F   UNL A   1      44.346  38.817  36.757  1.00  0.00    -0.200 F 
ATOM     86  C   UNL A   1      43.871  36.699  37.666  1.00  0.00     0.200 A 
ATOM     87  F   UNL A   1      43.428  34.535  38.489  1.00  0.00    -0.200 F 
ATOM     88  F   UNL A   1      44.561  36.995  38.774  1.00  0.00    -0.200 F 
ENDBRANCH  64  78
BRANCH  65  89
ATOM     89  C   UNL A   1      42.573  27.538  34.452  1.00  0.00     0.064 A 
ATOM     90  C   UNL A   1      41.851  27.473  35.653  1.00  0.00     0.173 A 
ATOM     91  C   UNL A   1      43.103  26.323  33.974  1.00  0.00     0.173 A 
ATOM     92  F   UNL A   1      41.269  28.575  36.150  1.00  0.00    -0.203 F 
ATOM     93  C   UNL A   1      41.661  26.265  36.329  1.00  0.00     0.198 A 
ATOM     94  C   UNL A   1      42.928  25.120  34.656  1.00  0.00     0.198 A 
ATOM     95  F   UNL A   1      43.723  26.258  32.786  1.00  0.00    -0.203 F 
ATOM     96  F   UNL A   1      40.913  26.232  37.441  1.00  0.00    -0.200 F 
ATOM     97  C   UNL A   1      42.195  25.088  35.827  1.00  0.00     0.200 A 
ATOM     98  F   UNL A   1      43.421  23.985  34.141  1.00  0.00    -0.200 F 
ATOM     99  F   UNL A   1      41.970  23.922  36.447  1.00  0.00    -0.200 F 
ENDBRANCH  65  89
BRANCH  77 100
ATOM    100  C   UNL A   1      44.954  31.777  30.441  1.00  0.00     0.064 A 
ATOM    101  C   UNL A   1      46.228  31.398  29.984  1.00  0.00     0.173 A 
ATOM    102  C   UNL A   1      43.855  31.460  29.631  1.00  0.00     0.173 A 
ATOM    103  F   UNL A   1      47.312  31.571  30.751  1.00  0.00    -0.203 F 
ATOM    104  C   UNL A   1      46.395  30.782  28.746  1.00  0.00     0.198 A 
ATOM    105  C   UNL A   1      44.021  30.810  28.412  1.00  0.00     0.198 A 
ATOM    106  F   UNL A   1      42.610  31.743  30.047  1.00  0.00    -0.203 F 
ATOM    107  F   UNL A   1      47.622  30.447  28.322  1.00  0.00    -0.200 F 
ATOM    108  C   UNL A   1      45.292  30.484  27.964  1.00  0.00     0.200 A 
ATOM    109  F   UNL A   1      42.948  30.478  27.681  1.00  0.00    -0.200 F 
ATOM    110  F   UNL A   1      45.449  29.858  26.788  1.00  0.00    -0.200 F 
ENDBRANCH  77 100
ENDBRANCH  51  52
ENDBRANCH  44  46
ENDBRANCH  43  44
ENDBRANCH  42  43
ENDBRANCH  41  42
ENDBRANCH  40  41
ENDBRANCH  39  40
ENDBRANCH  38  39
ENDBRANCH  37  38
ENDBRANCH  36  37
ENDBRANCH   1  36
TORSDOF 25
ENDMDL
