MODEL 1
REMARK VINA RESULT:      -9.7      0.000      0.000
REMARK SMILES COc1ccc(-c2ccc(/C=C3\SC(=S)N([C@H](Cc4ccccc4)C(=O)OCCOCCOCCOCCOC(=O)c4ccc(-c5c6nc(c(-c7c(F)c(F)c(F)c(F)c7F)c7ccc([nH]7)c(-c7c(F)c(F)c(F)c(F)c7F)c7nc(c(-c8c(F)c(F)c(F)c(F)c8F)c8ccc5[nH]8)C=C7)C=C6)cc4)C3=O)o2)cc1
REMARK SMILES IDX 32 1 31 2 30 3 29 4 28 5 27 6 25 7 26 8 17 9 16 10 11 11
REMARK SMILES IDX 12 12 13 13 105 14 14 15 106 16 15 17 10 18 7 19 8 20 107 21
REMARK SMILES IDX 9 22 6 23 3 24 4 25 109 26 5 27 108 28 2 29 1 30 18 31 19 32
REMARK SMILES IDX 20 33 24 34 21 35 23 36 22 37 33 38 34 39 35 40 36 41 37 42
REMARK SMILES IDX 38 43 39 44 40 45 41 46 42 47 43 48 104 49 44 50 103 51
REMARK SMILES IDX 45 52 46 53 47 54 97 55 48 56 102 57 96 58 98 59 49 60
REMARK SMILES IDX 101 61 95 62 94 63 50 65 82 66 62 67 81 68 63 69 66 70 80 71
REMARK SMILES IDX 99 72 64 73 65 74 79 76 100 77 67 78 51 79 52 80 60 81 53 82
REMARK SMILES IDX 54 83 58 84 61 85 55 86 56 87 59 88 57 89 83 90 84 91 92 92
REMARK SMILES IDX 85 93 86 94 90 95 93 96 87 97 88 98 91 99 89 100 68 101
REMARK SMILES IDX 69 102 77 103 70 104 71 105 75 106 78 107 72 108 73 109
REMARK SMILES IDX 76 110 74 111
REMARK H PARENT 98 64 66 75
REMARK Flexibility Score: inf
ROOT
ATOM      1  C   UNL A   1      40.373  21.635  26.886  1.00  0.00     0.188 C 
ENDROOT
BRANCH   1   2
ATOM      2  C   UNL A   1      39.206  22.310  26.142  1.00  0.00     0.188 C 
BRANCH   2   3
ATOM      3  O   UNL A   1      38.340  21.573  25.297  1.00  0.00    -0.376 OA
BRANCH   3   4
ATOM      4  C   UNL A   1      36.942  21.461  25.482  1.00  0.00     0.202 C 
BRANCH   4   5
ATOM      5  C   UNL A   1      35.973  22.631  25.295  1.00  0.00     0.261 C 
BRANCH   5   6
ATOM      6  O   UNL A   1      35.253  23.009  26.480  1.00  0.00    -0.462 OA
BRANCH   6   7
ATOM      7  C   UNL A   1      34.016  22.494  26.617  1.00  0.00     0.329 C 
ATOM      8  O   UNL A   1      33.483  22.396  27.720  1.00  0.00    -0.250 OA
BRANCH   7   9
ATOM      9  C   UNL A   1      33.284  22.072  25.310  1.00  0.00     0.206 C 
BRANCH   9  10
ATOM     10  N   UNL A   1      32.748  23.352  24.796  1.00  0.00    -0.278 N 
ATOM     11  C   UNL A   1      32.039  26.476  26.181  1.00  0.00     0.068 C 
ATOM     12  C   UNL A   1      32.281  25.568  25.238  1.00  0.00     0.084 C 
ATOM     13  S   UNL A   1      32.695  25.631  23.585  1.00  0.00    -0.054 SA
ATOM     14  C   UNL A   1      32.033  24.182  25.606  1.00  0.00     0.267 C 
ATOM     15  C   UNL A   1      32.930  23.868  23.528  1.00  0.00     0.149 C 
ATOM     16  O   UNL A   1      31.090  23.883  26.322  1.00  0.00    -0.268 OA
ATOM     17  S   UNL A   1      33.282  23.050  22.118  1.00  0.00    -0.052 S 
BRANCH  11  18
ATOM     18  C   UNL A   1      31.787  27.820  25.871  1.00  0.00     0.128 A 
ATOM     19  C   UNL A   1      31.002  29.579  24.826  1.00  0.00     0.134 A 
ATOM     20  C   UNL A   1      32.058  30.032  25.581  1.00  0.00     0.051 A 
ATOM     21  O   UNL A   1      30.824  28.245  24.997  1.00  0.00    -0.457 OA
ATOM     22  C   UNL A   1      32.553  28.910  26.259  1.00  0.00     0.051 A 
BRANCH  19  23
ATOM     23  C   UNL A   1      30.141  30.228  23.869  1.00  0.00     0.017 A 
ATOM     24  C   UNL A   1      28.317  31.429  22.128  1.00  0.00     0.118 A 
ATOM     25  C   UNL A   1      28.994  30.268  21.745  1.00  0.00     0.047 A 
ATOM     26  C   UNL A   1      28.553  31.990  23.383  1.00  0.00     0.047 A 
ATOM     27  C   UNL A   1      29.921  29.676  22.605  1.00  0.00     0.016 A 
ATOM     28  C   UNL A   1      29.464  31.390  24.249  1.00  0.00     0.016 A 
BRANCH  24  29
ATOM     29  O   UNL A   1      27.406  31.909  21.230  1.00  0.00    -0.497 OA
ATOM     30  C   UNL A   1      27.952  32.248  19.960  1.00  0.00     0.278 C 
ENDBRANCH  24  29
ENDBRANCH  19  23
ENDBRANCH  11  18
ENDBRANCH   9  10
BRANCH   9  31
ATOM     31  C   UNL A   1      32.279  20.877  25.261  1.00  0.00     0.073 C 
BRANCH  31  32
ATOM     32  C   UNL A   1      32.651  19.437  24.921  1.00  0.00    -0.045 A 
ATOM     33  C   UNL A   1      32.845  19.122  23.557  1.00  0.00     0.004 A 
ATOM     34  C   UNL A   1      32.735  18.388  25.841  1.00  0.00     0.004 A 
ATOM     35  C   UNL A   1      33.000  17.802  23.126  1.00  0.00     0.000 A 
ATOM     36  C   UNL A   1      32.913  17.066  25.411  1.00  0.00     0.000 A 
ATOM     37  C   UNL A   1      33.020  16.770  24.054  1.00  0.00     0.000 A 
ENDBRANCH  31  32
ENDBRANCH   9  31
ENDBRANCH   7   9
ENDBRANCH   6   7
ENDBRANCH   5   6
ENDBRANCH   4   5
ENDBRANCH   3   4
ENDBRANCH   2   3
ENDBRANCH   1   2
BRANCH   1  38
ATOM     38  O   UNL A   1      41.612  22.248  27.139  1.00  0.00    -0.377 OA
BRANCH  38  39
ATOM     39  C   UNL A   1      42.101  23.081  26.112  1.00  0.00     0.188 C 
BRANCH  39  40
ATOM     40  C   UNL A   1      42.029  24.541  26.555  1.00  0.00     0.188 C 
BRANCH  40  41
ATOM     41  O   UNL A   1      43.326  25.120  26.690  1.00  0.00    -0.376 OA
BRANCH  41  42
ATOM     42  C   UNL A   1      44.002  25.488  25.487  1.00  0.00     0.202 C 
BRANCH  42  43
ATOM     43  C   UNL A   1      44.386  26.965  25.242  1.00  0.00     0.261 C 
BRANCH  43  44
ATOM     44  O   UNL A   1      45.783  27.248  25.027  1.00  0.00    -0.460 OA
BRANCH  44  45
ATOM     45  C   UNL A   1      46.651  26.940  26.003  1.00  0.00     0.338 C 
ATOM     46  O   UNL A   1      47.679  26.282  25.904  1.00  0.00    -0.246 OA
BRANCH  45  47
ATOM     47  C   UNL A   1      46.279  27.693  27.218  1.00  0.00     0.060 A 
ATOM     48  C   UNL A   1      45.941  26.972  28.370  1.00  0.00     0.016 A 
ATOM     49  C   UNL A   1      46.253  29.091  27.225  1.00  0.00     0.016 A 
ATOM     50  C   UNL A   1      45.517  27.643  29.515  1.00  0.00     0.010 A 
ATOM     51  C   UNL A   1      45.806  29.764  28.367  1.00  0.00     0.010 A 
ATOM     52  C   UNL A   1      45.390  29.039  29.498  1.00  0.00    -0.014 A 
BRANCH  52  53
ATOM     53  C   UNL A   1      44.585  29.690  30.558  1.00  0.00     0.031 A 
ATOM     54  C   UNL A   1      45.284  30.084  31.830  1.00  0.00     0.074 A 
ATOM     55  C   UNL A   1      43.288  29.995  30.377  1.00  0.00     0.049 A 
ATOM     56  N   UNL A   1      44.826  30.725  32.874  1.00  0.00    -0.248 NA
ATOM     57  C   UNL A   1      46.703  29.704  31.934  1.00  0.00     0.031 C 
ATOM     58  C   UNL A   1      42.512  29.709  29.175  1.00  0.00     0.029 A 
ATOM     59  N   UNL A   1      42.402  30.630  31.212  1.00  0.00    -0.354 N 
ATOM     60  C   UNL A   1      45.899  30.835  33.748  1.00  0.00     0.074 A 
ATOM     61  C   UNL A   1      47.018  30.153  33.137  1.00  0.00     0.031 C 
ATOM     62  C   UNL A   1      41.262  30.178  29.344  1.00  0.00     0.029 A 
ATOM     63  C   UNL A   1      41.147  30.776  30.674  1.00  0.00     0.049 A 
ATOM     64  H   UNL A   1      42.643  30.949  32.111  1.00  0.00     0.167 HD
ATOM     65  C   UNL A   1      45.956  31.464  34.946  1.00  0.00     0.037 A 
ATOM     66  C   UNL A   1      40.038  31.331  31.201  1.00  0.00     0.037 A 
ATOM     67  C   UNL A   1      44.838  32.123  35.565  1.00  0.00     0.049 A 
ATOM     68  C   UNL A   1      40.097  31.933  32.583  1.00  0.00     0.074 A 
ATOM     69  C   UNL A   1      44.787  32.785  36.778  1.00  0.00     0.029 A 
ATOM     70  N   UNL A   1      43.563  32.184  35.020  1.00  0.00    -0.354 N 
ATOM     71  N   UNL A   1      41.123  32.063  33.390  1.00  0.00    -0.248 NA
ATOM     72  C   UNL A   1      38.839  32.468  33.124  1.00  0.00     0.031 C 
ATOM     73  C   UNL A   1      43.469  33.203  36.991  1.00  0.00     0.029 A 
ATOM     74  C   UNL A   1      42.711  32.850  35.885  1.00  0.00     0.049 A 
ATOM     75  H   UNL A   1      43.303  31.811  34.147  1.00  0.00     0.167 HD
ATOM     76  C   UNL A   1      40.644  32.724  34.515  1.00  0.00     0.074 A 
ATOM     77  C   UNL A   1      39.236  32.974  34.284  1.00  0.00     0.031 C 
ATOM     78  C   UNL A   1      41.312  33.096  35.636  1.00  0.00     0.037 A 
BRANCH  65  79
ATOM     79  C   UNL A   1      47.270  31.430  35.669  1.00  0.00     0.064 A 
ATOM     80  C   UNL A   1      47.577  30.419  36.595  1.00  0.00     0.173 A 
ATOM     81  C   UNL A   1      48.229  32.431  35.452  1.00  0.00     0.173 A 
ATOM     82  F   UNL A   1      46.685  29.450  36.855  1.00  0.00    -0.203 F 
ATOM     83  C   UNL A   1      48.773  30.436  37.306  1.00  0.00     0.198 A 
ATOM     84  C   UNL A   1      49.439  32.425  36.140  1.00  0.00     0.198 A 
ATOM     85  F   UNL A   1      47.988  33.419  34.577  1.00  0.00    -0.203 F 
ATOM     86  F   UNL A   1      49.014  29.499  38.233  1.00  0.00    -0.200 F 
ATOM     87  C   UNL A   1      49.706  31.436  37.074  1.00  0.00     0.200 A 
ATOM     88  F   UNL A   1      50.343  33.387  35.909  1.00  0.00    -0.200 F 
ATOM     89  F   UNL A   1      50.855  31.455  37.763  1.00  0.00    -0.200 F 
ENDBRANCH  65  79
BRANCH  66  90
ATOM     90  C   UNL A   1      38.780  31.366  30.413  1.00  0.00     0.064 A 
ATOM     91  C   UNL A   1      37.907  30.269  30.400  1.00  0.00     0.173 A 
ATOM     92  C   UNL A   1      38.425  32.489  29.652  1.00  0.00     0.173 A 
ATOM     93  F   UNL A   1      38.215  29.161  31.090  1.00  0.00    -0.203 F 
ATOM     94  C   UNL A   1      36.734  30.290  29.649  1.00  0.00     0.198 A 
ATOM     95  C   UNL A   1      37.240  32.520  28.922  1.00  0.00     0.198 A 
ATOM     96  F   UNL A   1      39.228  33.563  29.626  1.00  0.00    -0.203 F 
ATOM     97  F   UNL A   1      35.935  29.214  29.625  1.00  0.00    -0.200 F 
ATOM     98  C   UNL A   1      36.397  31.418  28.915  1.00  0.00     0.200 A 
ATOM     99  F   UNL A   1      36.913  33.616  28.222  1.00  0.00    -0.200 F 
ATOM    100  F   UNL A   1      35.265  31.441  28.199  1.00  0.00    -0.200 F 
ENDBRANCH  66  90
BRANCH  78 101
ATOM    101  C   UNL A   1      40.542  33.849  36.683  1.00  0.00     0.064 A 
ATOM    102  C   UNL A   1      39.661  33.202  37.561  1.00  0.00     0.173 A 
ATOM    103  C   UNL A   1      40.729  35.231  36.842  1.00  0.00     0.173 A 
ATOM    104  F   UNL A   1      39.438  31.884  37.444  1.00  0.00    -0.203 F 
ATOM    105  C   UNL A   1      38.975  33.914  38.542  1.00  0.00     0.198 A 
ATOM    106  C   UNL A   1      40.065  35.935  37.843  1.00  0.00     0.198 A 
ATOM    107  F   UNL A   1      41.568  35.898  36.034  1.00  0.00    -0.203 F 
ATOM    108  F   UNL A   1      38.103  33.283  39.341  1.00  0.00    -0.200 F 
ATOM    109  C   UNL A   1      39.185  35.278  38.688  1.00  0.00     0.200 A 
ATOM    110  F   UNL A   1      40.280  37.250  37.991  1.00  0.00    -0.200 F 
ATOM    111  F   UNL A   1      38.531  35.960  39.639  1.00  0.00    -0.200 F 
ENDBRANCH  78 101
ENDBRANCH  52  53
ENDBRANCH  45  47
ENDBRANCH  44  45
ENDBRANCH  43  44
ENDBRANCH  42  43
ENDBRANCH  41  42
ENDBRANCH  40  41
ENDBRANCH  39  40
ENDBRANCH  38  39
ENDBRANCH   1  38
TORSDOF 26
ENDMDL
MODEL 2
REMARK VINA RESULT:      -9.4      4.280      7.992
REMARK SMILES COc1ccc(-c2ccc(/C=C3\SC(=S)N([C@H](Cc4ccccc4)C(=O)OCCOCCOCCOCCOC(=O)c4ccc(-c5c6nc(c(-c7c(F)c(F)c(F)c(F)c7F)c7ccc([nH]7)c(-c7c(F)c(F)c(F)c(F)c7F)c7nc(c(-c8c(F)c(F)c(F)c(F)c8F)c8ccc5[nH]8)C=C7)C=C6)cc4)C3=O)o2)cc1
REMARK SMILES IDX 32 1 31 2 30 3 29 4 28 5 27 6 25 7 26 8 17 9 16 10 11 11
REMARK SMILES IDX 12 12 13 13 105 14 14 15 106 16 15 17 10 18 7 19 8 20 107 21
REMARK SMILES IDX 9 22 6 23 3 24 4 25 109 26 5 27 108 28 2 29 1 30 18 31 19 32
REMARK SMILES IDX 20 33 24 34 21 35 23 36 22 37 33 38 34 39 35 40 36 41 37 42
REMARK SMILES IDX 38 43 39 44 40 45 41 46 42 47 43 48 104 49 44 50 103 51
REMARK SMILES IDX 45 52 46 53 47 54 97 55 48 56 102 57 96 58 98 59 49 60
REMARK SMILES IDX 101 61 95 62 94 63 50 65 82 66 62 67 81 68 63 69 66 70 80 71
REMARK SMILES IDX 99 72 64 73 65 74 79 76 100 77 67 78 51 79 52 80 60 81 53 82
REMARK SMILES IDX 54 83 58 84 61 85 55 86 56 87 59 88 57 89 83 90 84 91 92 92
REMARK SMILES IDX 85 93 86 94 90 95 93 96 87 97 88 98 91 99 89 100 68 101
REMARK SMILES IDX 69 102 77 103 70 104 71 105 75 106 78 107 72 108 73 109
REMARK SMILES IDX 76 110 74 111
REMARK H PARENT 98 64 66 75
REMARK Flexibility Score: inf
ROOT
ATOM      1  C   UNL A   1      40.419  21.956  27.087  1.00  0.00     0.188 C 
ENDROOT
BRANCH   1   2
ATOM      2  C   UNL A   1      39.307  22.059  26.028  1.00  0.00     0.188 C 
BRANCH   2   3
ATOM      3  O   UNL A   1      38.592  20.917  25.590  1.00  0.00    -0.376 OA
BRANCH   3   4
ATOM      4  C   UNL A   1      37.254  20.935  25.131  1.00  0.00     0.202 C 
BRANCH   4   5
ATOM      5  C   UNL A   1      36.600  22.164  24.493  1.00  0.00     0.261 C 
BRANCH   5   6
ATOM      6  O   UNL A   1      35.769  22.929  25.380  1.00  0.00    -0.462 OA
BRANCH   6   7
ATOM      7  C   UNL A   1      34.575  22.391  25.694  1.00  0.00     0.329 C 
ATOM      8  O   UNL A   1      34.230  22.234  26.862  1.00  0.00    -0.250 OA
BRANCH   7   9
ATOM      9  C   UNL A   1      33.640  22.021  24.505  1.00  0.00     0.206 C 
BRANCH   9  10
ATOM     10  N   UNL A   1      32.984  23.306  24.180  1.00  0.00    -0.278 N 
ATOM     11  C   UNL A   1      32.193  26.205  25.955  1.00  0.00     0.068 C 
ATOM     12  C   UNL A   1      32.414  25.423  24.901  1.00  0.00     0.084 C 
ATOM     13  S   UNL A   1      32.688  25.692  23.239  1.00  0.00    -0.054 SA
ATOM     14  C   UNL A   1      32.286  23.991  25.129  1.00  0.00     0.267 C 
ATOM     15  C   UNL A   1      33.028  23.967  22.967  1.00  0.00     0.149 C 
ATOM     16  O   UNL A   1      31.426  23.550  25.874  1.00  0.00    -0.268 OA
ATOM     17  S   UNL A   1      33.315  23.332  21.452  1.00  0.00    -0.052 S 
BRANCH  11  18
ATOM     18  C   UNL A   1      31.833  27.553  25.818  1.00  0.00     0.128 A 
ATOM     19  C   UNL A   1      31.014  29.384  24.936  1.00  0.00     0.134 A 
ATOM     20  C   UNL A   1      31.875  29.797  25.925  1.00  0.00     0.051 A 
ATOM     21  O   UNL A   1      30.974  28.030  24.865  1.00  0.00    -0.457 OA
ATOM     22  C   UNL A   1      32.390  28.626  26.498  1.00  0.00     0.051 A 
BRANCH  19  23
ATOM     23  C   UNL A   1      30.242  30.105  23.955  1.00  0.00     0.017 A 
ATOM     24  C   UNL A   1      28.918  31.574  21.983  1.00  0.00     0.118 A 
ATOM     25  C   UNL A   1      28.827  31.956  23.323  1.00  0.00     0.047 A 
ATOM     26  C   UNL A   1      29.672  30.456  21.628  1.00  0.00     0.047 A 
ATOM     27  C   UNL A   1      29.471  31.213  24.314  1.00  0.00     0.016 A 
ATOM     28  C   UNL A   1      30.330  29.723  22.613  1.00  0.00     0.016 A 
BRANCH  24  29
ATOM     29  O   UNL A   1      28.281  32.388  21.088  1.00  0.00    -0.497 OA
ATOM     30  C   UNL A   1      27.688  31.705  19.989  1.00  0.00     0.278 C 
ENDBRANCH  24  29
ENDBRANCH  19  23
ENDBRANCH  11  18
ENDBRANCH   9  10
BRANCH   9  31
ATOM     31  C   UNL A   1      32.679  20.790  24.547  1.00  0.00     0.073 C 
BRANCH  31  32
ATOM     32  C   UNL A   1      33.081  19.357  24.210  1.00  0.00    -0.045 A 
ATOM     33  C   UNL A   1      34.340  18.910  24.673  1.00  0.00     0.004 A 
ATOM     34  C   UNL A   1      32.341  18.480  23.413  1.00  0.00     0.004 A 
ATOM     35  C   UNL A   1      34.879  17.689  24.261  1.00  0.00     0.000 A 
ATOM     36  C   UNL A   1      32.873  17.245  23.017  1.00  0.00     0.000 A 
ATOM     37  C   UNL A   1      34.150  16.861  23.418  1.00  0.00     0.000 A 
ENDBRANCH  31  32
ENDBRANCH   9  31
ENDBRANCH   7   9
ENDBRANCH   6   7
ENDBRANCH   5   6
ENDBRANCH   4   5
ENDBRANCH   3   4
ENDBRANCH   2   3
ENDBRANCH   1   2
BRANCH   1  38
ATOM     38  O   UNL A   1      41.245  23.025  27.476  1.00  0.00    -0.377 OA
BRANCH  38  39
ATOM     39  C   UNL A   1      41.446  24.026  26.504  1.00  0.00     0.188 C 
BRANCH  39  40
ATOM     40  C   UNL A   1      41.183  25.400  27.117  1.00  0.00     0.188 C 
BRANCH  40  41
ATOM     41  O   UNL A   1      42.397  26.092  27.409  1.00  0.00    -0.376 OA
BRANCH  41  42
ATOM     42  C   UNL A   1      43.438  26.018  26.435  1.00  0.00     0.202 C 
BRANCH  42  43
ATOM     43  C   UNL A   1      44.884  26.399  26.826  1.00  0.00     0.261 C 
BRANCH  43  44
ATOM     44  O   UNL A   1      45.813  25.314  27.025  1.00  0.00    -0.460 OA
BRANCH  44  45
ATOM     45  C   UNL A   1      45.514  24.384  27.945  1.00  0.00     0.338 C 
ATOM     46  O   UNL A   1      45.437  23.173  27.781  1.00  0.00    -0.246 OA
BRANCH  45  47
ATOM     47  C   UNL A   1      45.479  25.031  29.272  1.00  0.00     0.060 A 
ATOM     48  C   UNL A   1      46.578  25.806  29.664  1.00  0.00     0.016 A 
ATOM     49  C   UNL A   1      44.385  24.874  30.128  1.00  0.00     0.016 A 
ATOM     50  C   UNL A   1      46.615  26.375  30.934  1.00  0.00     0.010 A 
ATOM     51  C   UNL A   1      44.431  25.427  31.412  1.00  0.00     0.010 A 
ATOM     52  C   UNL A   1      45.568  26.138  31.835  1.00  0.00    -0.014 A 
BRANCH  52  53
ATOM     53  C   UNL A   1      45.795  26.409  33.275  1.00  0.00     0.031 A 
ATOM     54  C   UNL A   1      45.325  27.729  33.823  1.00  0.00     0.074 A 
ATOM     55  C   UNL A   1      46.334  25.490  34.094  1.00  0.00     0.049 A 
ATOM     56  N   UNL A   1      45.340  28.178  35.052  1.00  0.00    -0.248 NA
ATOM     57  C   UNL A   1      44.750  28.669  32.847  1.00  0.00     0.031 C 
ATOM     58  C   UNL A   1      46.786  24.161  33.693  1.00  0.00     0.029 A 
ATOM     59  N   UNL A   1      46.578  25.540  35.444  1.00  0.00    -0.354 N 
ATOM     60  C   UNL A   1      44.769  29.443  34.996  1.00  0.00     0.074 A 
ATOM     61  C   UNL A   1      44.462  29.711  33.609  1.00  0.00     0.031 C 
ATOM     62  C   UNL A   1      47.244  23.513  34.779  1.00  0.00     0.029 A 
ATOM     63  C   UNL A   1      47.137  24.390  35.945  1.00  0.00     0.049 A 
ATOM     64  H   UNL A   1      46.372  26.325  35.999  1.00  0.00     0.167 HD
ATOM     65  C   UNL A   1      44.505  30.299  36.010  1.00  0.00     0.037 A 
ATOM     66  C   UNL A   1      47.517  24.089  37.202  1.00  0.00     0.037 A 
ATOM     67  C   UNL A   1      44.831  30.043  37.387  1.00  0.00     0.049 A 
ATOM     68  C   UNL A   1      47.310  25.102  38.301  1.00  0.00     0.074 A 
ATOM     69  C   UNL A   1      44.612  30.846  38.492  1.00  0.00     0.029 A 
ATOM     70  N   UNL A   1      45.466  28.897  37.843  1.00  0.00    -0.354 N 
ATOM     71  N   UNL A   1      46.740  26.282  38.247  1.00  0.00    -0.248 NA
ATOM     72  C   UNL A   1      47.800  24.735  39.638  1.00  0.00     0.031 C 
ATOM     73  C   UNL A   1      45.160  30.208  39.609  1.00  0.00     0.029 A 
ATOM     74  C   UNL A   1      45.671  28.983  39.210  1.00  0.00     0.049 A 
ATOM     75  H   UNL A   1      45.729  28.135  37.280  1.00  0.00     0.167 HD
ATOM     76  C   UNL A   1      46.769  26.782  39.544  1.00  0.00     0.074 A 
ATOM     77  C   UNL A   1      47.409  25.774  40.364  1.00  0.00     0.031 C 
ATOM     78  C   UNL A   1      46.304  27.966  40.014  1.00  0.00     0.037 A 
BRANCH  65  79
ATOM     79  C   UNL A   1      43.862  31.606  35.647  1.00  0.00     0.064 A 
ATOM     80  C   UNL A   1      44.626  32.739  35.324  1.00  0.00     0.173 A 
ATOM     81  C   UNL A   1      42.466  31.734  35.641  1.00  0.00     0.173 A 
ATOM     82  F   UNL A   1      45.967  32.674  35.335  1.00  0.00    -0.203 F 
ATOM     83  C   UNL A   1      44.017  33.961  35.051  1.00  0.00     0.198 A 
ATOM     84  C   UNL A   1      41.859  32.949  35.334  1.00  0.00     0.198 A 
ATOM     85  F   UNL A   1      41.688  30.683  35.940  1.00  0.00    -0.203 F 
ATOM     86  F   UNL A   1      44.768  35.044  34.812  1.00  0.00    -0.200 F 
ATOM     87  C   UNL A   1      42.634  34.064  35.052  1.00  0.00     0.200 A 
ATOM     88  F   UNL A   1      40.523  33.046  35.326  1.00  0.00    -0.200 F 
ATOM     89  F   UNL A   1      42.049  35.242  34.795  1.00  0.00    -0.200 F 
ENDBRANCH  65  79
BRANCH  66  90
ATOM     90  C   UNL A   1      48.111  22.761  37.499  1.00  0.00     0.064 A 
ATOM     91  C   UNL A   1      49.497  22.560  37.432  1.00  0.00     0.173 A 
ATOM     92  C   UNL A   1      47.310  21.663  37.848  1.00  0.00     0.173 A 
ATOM     93  F   UNL A   1      50.303  23.571  37.077  1.00  0.00    -0.203 F 
ATOM     94  C   UNL A   1      50.058  21.312  37.693  1.00  0.00     0.198 A 
ATOM     95  C   UNL A   1      47.874  20.422  38.134  1.00  0.00     0.198 A 
ATOM     96  F   UNL A   1      45.979  21.801  37.922  1.00  0.00    -0.203 F 
ATOM     97  F   UNL A   1      51.383  21.138  37.586  1.00  0.00    -0.200 F 
ATOM     98  C   UNL A   1      49.247  20.245  38.050  1.00  0.00     0.200 A 
ATOM     99  F   UNL A   1      47.087  19.397  38.489  1.00  0.00    -0.200 F 
ATOM    100  F   UNL A   1      49.787  19.046  38.309  1.00  0.00    -0.200 F 
ENDBRANCH  66  90
BRANCH  78 101
ATOM    101  C   UNL A   1      46.430  28.224  41.488  1.00  0.00     0.064 A 
ATOM    102  C   UNL A   1      47.554  28.859  42.034  1.00  0.00     0.173 A 
ATOM    103  C   UNL A   1      45.386  27.875  42.359  1.00  0.00     0.173 A 
ATOM    104  F   UNL A   1      48.585  29.202  41.246  1.00  0.00    -0.203 F 
ATOM    105  C   UNL A   1      47.641  29.112  43.401  1.00  0.00     0.198 A 
ATOM    106  C   UNL A   1      45.462  28.157  43.720  1.00  0.00     0.198 A 
ATOM    107  F   UNL A   1      44.283  27.273  41.887  1.00  0.00    -0.203 F 
ATOM    108  F   UNL A   1      48.745  29.679  43.907  1.00  0.00    -0.200 F 
ATOM    109  C   UNL A   1      46.592  28.769  44.241  1.00  0.00     0.200 A 
ATOM    110  F   UNL A   1      44.441  27.838  44.528  1.00  0.00    -0.200 F 
ATOM    111  F   UNL A   1      46.673  29.022  45.555  1.00  0.00    -0.200 F 
ENDBRANCH  78 101
ENDBRANCH  52  53
ENDBRANCH  45  47
ENDBRANCH  44  45
ENDBRANCH  43  44
ENDBRANCH  42  43
ENDBRANCH  41  42
ENDBRANCH  40  41
ENDBRANCH  39  40
ENDBRANCH  38  39
ENDBRANCH   1  38
TORSDOF 26
ENDMDL
MODEL 3
REMARK VINA RESULT:      -9.2      4.173      8.758
REMARK SMILES COc1ccc(-c2ccc(/C=C3\SC(=S)N([C@H](Cc4ccccc4)C(=O)OCCOCCOCCOCCOC(=O)c4ccc(-c5c6nc(c(-c7c(F)c(F)c(F)c(F)c7F)c7ccc([nH]7)c(-c7c(F)c(F)c(F)c(F)c7F)c7nc(c(-c8c(F)c(F)c(F)c(F)c8F)c8ccc5[nH]8)C=C7)C=C6)cc4)C3=O)o2)cc1
REMARK SMILES IDX 32 1 31 2 30 3 29 4 28 5 27 6 25 7 26 8 17 9 16 10 11 11
REMARK SMILES IDX 12 12 13 13 105 14 14 15 106 16 15 17 10 18 7 19 8 20 107 21
REMARK SMILES IDX 9 22 6 23 3 24 4 25 109 26 5 27 108 28 2 29 1 30 18 31 19 32
REMARK SMILES IDX 20 33 24 34 21 35 23 36 22 37 33 38 34 39 35 40 36 41 37 42
REMARK SMILES IDX 38 43 39 44 40 45 41 46 42 47 43 48 104 49 44 50 103 51
REMARK SMILES IDX 45 52 46 53 47 54 97 55 48 56 102 57 96 58 98 59 49 60
REMARK SMILES IDX 101 61 95 62 94 63 50 65 82 66 62 67 81 68 63 69 66 70 80 71
REMARK SMILES IDX 99 72 64 73 65 74 79 76 100 77 67 78 51 79 52 80 60 81 53 82
REMARK SMILES IDX 54 83 58 84 61 85 55 86 56 87 59 88 57 89 83 90 84 91 92 92
REMARK SMILES IDX 85 93 86 94 90 95 93 96 87 97 88 98 91 99 89 100 68 101
REMARK SMILES IDX 69 102 77 103 70 104 71 105 75 106 78 107 72 108 73 109
REMARK SMILES IDX 76 110 74 111
REMARK H PARENT 98 64 66 75
REMARK Flexibility Score: inf
ROOT
ATOM      1  C   UNL A   1      49.009  28.210  27.419  1.00  0.00     0.188 C 
ENDROOT
BRANCH   1   2
ATOM      2  C   UNL A   1      49.905  26.980  27.652  1.00  0.00     0.188 C 
BRANCH   2   3
ATOM      3  O   UNL A   1      49.643  25.740  27.017  1.00  0.00    -0.376 OA
BRANCH   3   4
ATOM      4  C   UNL A   1      48.372  25.331  26.548  1.00  0.00     0.202 C 
BRANCH   4   5
ATOM      5  C   UNL A   1      47.233  24.899  27.474  1.00  0.00     0.261 C 
BRANCH   5   6
ATOM      6  O   UNL A   1      46.095  25.776  27.474  1.00  0.00    -0.462 OA
BRANCH   6   7
ATOM      7  C   UNL A   1      44.891  25.193  27.639  1.00  0.00     0.329 C 
ATOM      8  O   UNL A   1      43.867  25.705  27.195  1.00  0.00    -0.250 OA
BRANCH   7   9
ATOM      9  C   UNL A   1      44.872  23.825  28.380  1.00  0.00     0.206 C 
BRANCH   9  10
ATOM     10  N   UNL A   1      43.929  23.018  27.573  1.00  0.00    -0.278 N 
ATOM     11  C   UNL A   1      40.461  22.893  27.204  1.00  0.00     0.068 C 
ATOM     12  C   UNL A   1      41.743  22.689  26.912  1.00  0.00     0.084 C 
ATOM     13  S   UNL A   1      42.597  22.211  25.514  1.00  0.00    -0.054 SA
ATOM     14  C   UNL A   1      42.673  22.753  28.029  1.00  0.00     0.267 C 
ATOM     15  C   UNL A   1      44.160  22.503  26.312  1.00  0.00     0.149 C 
ATOM     16  O   UNL A   1      42.363  22.320  29.127  1.00  0.00    -0.268 OA
ATOM     17  S   UNL A   1      45.621  22.154  25.587  1.00  0.00    -0.052 S 
BRANCH  11  18
ATOM     18  C   UNL A   1      39.427  22.430  26.378  1.00  0.00     0.128 A 
ATOM     19  C   UNL A   1      37.513  22.374  25.313  1.00  0.00     0.134 A 
ATOM     20  C   UNL A   1      37.960  21.075  25.349  1.00  0.00     0.051 A 
ATOM     21  O   UNL A   1      38.394  23.205  25.926  1.00  0.00    -0.457 OA
ATOM     22  C   UNL A   1      39.190  21.111  26.020  1.00  0.00     0.051 A 
BRANCH  19  23
ATOM     23  C   UNL A   1      36.293  22.971  24.829  1.00  0.00     0.017 A 
ATOM     24  C   UNL A   1      33.829  23.995  24.006  1.00  0.00     0.118 A 
ATOM     25  C   UNL A   1      34.619  23.264  23.115  1.00  0.00     0.047 A 
ATOM     26  C   UNL A   1      34.271  24.214  25.311  1.00  0.00     0.047 A 
ATOM     27  C   UNL A   1      35.860  22.768  23.518  1.00  0.00     0.016 A 
ATOM     28  C   UNL A   1      35.501  23.704  25.719  1.00  0.00     0.016 A 
BRANCH  24  29
ATOM     29  O   UNL A   1      32.617  24.406  23.526  1.00  0.00    -0.497 OA
ATOM     30  C   UNL A   1      32.689  25.206  22.351  1.00  0.00     0.278 C 
ENDBRANCH  24  29
ENDBRANCH  19  23
ENDBRANCH  11  18
ENDBRANCH   9  10
BRANCH   9  31
ATOM     31  C   UNL A   1      44.670  23.711  29.925  1.00  0.00     0.073 C 
BRANCH  31  32
ATOM     32  C   UNL A   1      44.644  24.891  30.891  1.00  0.00    -0.045 A 
ATOM     33  C   UNL A   1      45.791  25.102  31.690  1.00  0.00     0.004 A 
ATOM     34  C   UNL A   1      43.547  25.730  31.107  1.00  0.00     0.004 A 
ATOM     35  C   UNL A   1      45.796  26.032  32.732  1.00  0.00     0.000 A 
ATOM     36  C   UNL A   1      43.560  26.679  32.139  1.00  0.00     0.000 A 
ATOM     37  C   UNL A   1      44.672  26.812  32.967  1.00  0.00     0.000 A 
ENDBRANCH  31  32
ENDBRANCH   9  31
ENDBRANCH   7   9
ENDBRANCH   6   7
ENDBRANCH   5   6
ENDBRANCH   4   5
ENDBRANCH   3   4
ENDBRANCH   2   3
ENDBRANCH   1   2
BRANCH   1  38
ATOM     38  O   UNL A   1      48.772  29.210  28.377  1.00  0.00    -0.377 OA
BRANCH  38  39
ATOM     39  C   UNL A   1      49.049  30.529  27.964  1.00  0.00     0.188 C 
BRANCH  39  40
ATOM     40  C   UNL A   1      50.443  30.592  27.343  1.00  0.00     0.188 C 
BRANCH  40  41
ATOM     41  O   UNL A   1      51.439  30.929  28.308  1.00  0.00    -0.376 OA
BRANCH  41  42
ATOM     42  C   UNL A   1      52.283  29.872  28.767  1.00  0.00     0.202 C 
BRANCH  42  43
ATOM     43  C   UNL A   1      51.922  29.107  30.060  1.00  0.00     0.261 C 
BRANCH  43  44
ATOM     44  O   UNL A   1      51.277  29.862  31.106  1.00  0.00    -0.460 OA
BRANCH  44  45
ATOM     45  C   UNL A   1      50.622  29.187  32.064  1.00  0.00     0.338 C 
ATOM     46  O   UNL A   1      51.075  28.329  32.811  1.00  0.00    -0.246 OA
BRANCH  45  47
ATOM     47  C   UNL A   1      49.281  29.783  32.225  1.00  0.00     0.060 A 
ATOM     48  C   UNL A   1      48.358  29.132  33.054  1.00  0.00     0.016 A 
ATOM     49  C   UNL A   1      48.928  30.964  31.565  1.00  0.00     0.016 A 
ATOM     50  C   UNL A   1      47.061  29.623  33.177  1.00  0.00     0.010 A 
ATOM     51  C   UNL A   1      47.618  31.446  31.671  1.00  0.00     0.010 A 
ATOM     52  C   UNL A   1      46.669  30.748  32.439  1.00  0.00    -0.014 A 
BRANCH  52  53
ATOM     53  C   UNL A   1      45.221  31.020  32.275  1.00  0.00     0.031 A 
ATOM     54  C   UNL A   1      44.603  32.082  33.143  1.00  0.00     0.074 A 
ATOM     55  C   UNL A   1      44.484  30.400  31.338  1.00  0.00     0.049 A 
ATOM     56  N   UNL A   1      43.383  32.556  33.147  1.00  0.00    -0.248 NA
ATOM     57  C   UNL A   1      45.491  32.701  34.141  1.00  0.00     0.031 C 
ATOM     58  C   UNL A   1      44.976  29.388  30.407  1.00  0.00     0.029 A 
ATOM     59  N   UNL A   1      43.160  30.549  31.009  1.00  0.00    -0.354 N 
ATOM     60  C   UNL A   1      43.363  33.531  34.134  1.00  0.00     0.074 A 
ATOM     61  C   UNL A   1      44.674  33.551  34.742  1.00  0.00     0.031 C 
ATOM     62  C   UNL A   1      43.967  29.013  29.602  1.00  0.00     0.029 A 
ATOM     63  C   UNL A   1      42.755  29.742  29.975  1.00  0.00     0.049 A 
ATOM     64  H   UNL A   1      42.557  31.175  31.471  1.00  0.00     0.167 HD
ATOM     65  C   UNL A   1      42.348  34.354  34.493  1.00  0.00     0.037 A 
ATOM     66  C   UNL A   1      41.542  29.612  29.401  1.00  0.00     0.037 A 
ATOM     67  C   UNL A   1      41.037  34.320  33.905  1.00  0.00     0.049 A 
ATOM     68  C   UNL A   1      40.397  30.465  29.888  1.00  0.00     0.074 A 
ATOM     69  C   UNL A   1      39.937  35.105  34.198  1.00  0.00     0.029 A 
ATOM     70  N   UNL A   1      40.646  33.435  32.910  1.00  0.00    -0.354 N 
ATOM     71  N   UNL A   1      40.393  31.408  30.800  1.00  0.00    -0.248 NA
ATOM     72  C   UNL A   1      39.088  30.233  29.262  1.00  0.00     0.031 C 
ATOM     73  C   UNL A   1      38.865  34.661  33.417  1.00  0.00     0.029 A 
ATOM     74  C   UNL A   1      39.312  33.637  32.597  1.00  0.00     0.049 A 
ATOM     75  H   UNL A   1      41.230  32.766  32.488  1.00  0.00     0.167 HD
ATOM     76  C   UNL A   1      39.095  31.906  30.830  1.00  0.00     0.074 A 
ATOM     77  C   UNL A   1      38.341  31.163  29.842  1.00  0.00     0.031 C 
ATOM     78  C   UNL A   1      38.577  32.893  31.604  1.00  0.00     0.037 A 
BRANCH  65  79
ATOM     79  C   UNL A   1      42.624  35.331  35.598  1.00  0.00     0.064 A 
ATOM     80  C   UNL A   1      42.268  35.058  36.929  1.00  0.00     0.173 A 
ATOM     81  C   UNL A   1      43.233  36.564  35.323  1.00  0.00     0.173 A 
ATOM     82  F   UNL A   1      41.664  33.900  37.242  1.00  0.00    -0.203 F 
ATOM     83  C   UNL A   1      42.472  36.000  37.934  1.00  0.00     0.198 A 
ATOM     84  C   UNL A   1      43.466  37.490  36.336  1.00  0.00     0.198 A 
ATOM     85  F   UNL A   1      43.595  36.875  34.069  1.00  0.00    -0.203 F 
ATOM     86  F   UNL A   1      42.062  35.744  39.183  1.00  0.00    -0.200 F 
ATOM     87  C   UNL A   1      43.075  37.213  37.637  1.00  0.00     0.200 A 
ATOM     88  F   UNL A   1      44.057  38.658  36.050  1.00  0.00    -0.200 F 
ATOM     89  F   UNL A   1      43.265  38.122  38.604  1.00  0.00    -0.200 F 
ENDBRANCH  65  79
BRANCH  66  90
ATOM     90  C   UNL A   1      41.349  28.653  28.284  1.00  0.00     0.064 A 
ATOM     91  C   UNL A   1      41.904  28.898  27.020  1.00  0.00     0.173 A 
ATOM     92  C   UNL A   1      40.602  27.477  28.451  1.00  0.00     0.173 A 
ATOM     93  F   UNL A   1      42.603  30.021  26.802  1.00  0.00    -0.203 F 
ATOM     94  C   UNL A   1      41.711  28.009  25.963  1.00  0.00     0.198 A 
ATOM     95  C   UNL A   1      40.432  26.577  27.402  1.00  0.00     0.198 A 
ATOM     96  F   UNL A   1      40.047  27.198  29.639  1.00  0.00    -0.203 F 
ATOM     97  F   UNL A   1      42.222  28.286  24.756  1.00  0.00    -0.200 F 
ATOM     98  C   UNL A   1      40.982  26.846  26.157  1.00  0.00     0.200 A 
ATOM     99  F   UNL A   1      39.735  25.449  27.596  1.00  0.00    -0.200 F 
ATOM    100  F   UNL A   1      40.803  25.988  25.144  1.00  0.00    -0.200 F 
ENDBRANCH  66  90
BRANCH  78 101
ATOM    101  C   UNL A   1      37.136  33.258  31.387  1.00  0.00     0.064 A 
ATOM    102  C   UNL A   1      36.151  32.979  32.345  1.00  0.00     0.173 A 
ATOM    103  C   UNL A   1      36.747  33.941  30.225  1.00  0.00     0.173 A 
ATOM    104  F   UNL A   1      36.469  32.317  33.468  1.00  0.00    -0.203 F 
ATOM    105  C   UNL A   1      34.824  33.349  32.137  1.00  0.00     0.198 A 
ATOM    106  C   UNL A   1      35.425  34.336  30.033  1.00  0.00     0.198 A 
ATOM    107  F   UNL A   1      37.651  34.240  29.280  1.00  0.00    -0.203 F 
ATOM    108  F   UNL A   1      33.891  33.033  33.045  1.00  0.00    -0.200 F 
ATOM    109  C   UNL A   1      34.465  34.034  30.985  1.00  0.00     0.200 A 
ATOM    110  F   UNL A   1      35.083  35.011  28.927  1.00  0.00    -0.200 F 
ATOM    111  F   UNL A   1      33.189  34.398  30.790  1.00  0.00    -0.200 F 
ENDBRANCH  78 101
ENDBRANCH  52  53
ENDBRANCH  45  47
ENDBRANCH  44  45
ENDBRANCH  43  44
ENDBRANCH  42  43
ENDBRANCH  41  42
ENDBRANCH  40  41
ENDBRANCH  39  40
ENDBRANCH  38  39
ENDBRANCH   1  38
TORSDOF 26
ENDMDL
