MODEL 1
REMARK VINA RESULT:     -13.7      0.000      0.000
REMARK SMILES Cc1ccc(C(=O)NC2(CC(=O)OCCOCCOCCOCCOC(=O)c3ccc(-c4c5nc(c(-c6c(F)c(F)c(F)c(F)c6F)c6ccc([nH]6)c(-c6c(F)c(F)c(F)c(F)c6F)c6nc(c(-c7c(F)c(F)c(F)c(F)c7F)c7ccc4[nH]7)C=C6)C=C5)cc3)CCC2)cc1
REMARK SMILES IDX 18 1 17 2 16 3 15 4 14 5 13 6 11 7 12 8 10 9 9 10 91 11
REMARK SMILES IDX 93 12 92 13 8 14 6 15 7 16 5 18 1 19 2 20 3 21 95 22 4 23
REMARK SMILES IDX 94 24 19 25 20 26 21 27 22 28 23 29 24 30 25 31 26 32 27 33
REMARK SMILES IDX 28 34 29 35 90 36 30 37 89 38 31 39 32 40 33 41 83 42 34 43
REMARK SMILES IDX 88 44 82 45 84 46 35 47 87 48 81 49 80 50 36 52 68 53 48 54
REMARK SMILES IDX 67 55 49 56 52 57 66 58 85 59 50 60 51 61 65 63 86 64 53 65
REMARK SMILES IDX 37 66 38 67 46 68 39 69 40 70 44 71 47 72 41 73 42 74 45 75
REMARK SMILES IDX 43 76 69 77 70 78 78 79 71 80 72 81 76 82 79 83 73 84 74 85
REMARK SMILES IDX 77 86 75 87 54 88 55 89 63 90 56 91 57 92 61 93 64 94 58 95
REMARK SMILES IDX 59 96 62 97 60 98
REMARK H PARENT 8 17 84 51 52 62
REMARK Flexibility Score: inf
ROOT
ATOM      1  C   UNL A   1      32.918  36.094  30.806  1.00  0.00     0.188 C 
ENDROOT
BRANCH   1   2
ATOM      2  C   UNL A   1      33.281  36.332  29.154  1.00  0.00     0.188 C 
BRANCH   2   3
ATOM      3  O   UNL A   1      34.250  35.453  28.010  1.00  0.00    -0.376 OA
BRANCH   3   4
ATOM      4  C   UNL A   1      34.980  33.831  27.900  1.00  0.00     0.202 C 
BRANCH   4   5
ATOM      5  C   UNL A   1      34.176  32.040  27.950  1.00  0.00     0.261 C 
BRANCH   5   6
ATOM      6  O   UNL A   1      32.873  30.537  27.346  1.00  0.00    -0.463 OA
BRANCH   6   7
ATOM      7  C   UNL A   1      32.712  28.829  27.174  1.00  0.00     0.308 C 
ATOM      8  O   UNL A   1      31.754  28.219  27.686  1.00  0.00    -0.252 OA
BRANCH   7   9
ATOM      9  C   UNL A   1      33.355  27.872  25.981  1.00  0.00     0.151 C 
BRANCH   9  10
ATOM     10  C   UNL A   1      32.645  27.713  24.582  1.00  0.00     0.051 C 
ATOM     11  C   UNL A   1      33.579  27.345  23.343  1.00  0.00     0.029 C 
ATOM     12  C   UNL A   1      32.243  28.935  23.636  1.00  0.00     0.029 C 
ATOM     13  C   UNL A   1      33.601  28.834  22.971  1.00  0.00     0.005 C 
BRANCH  10  14
ATOM     14  N   UNL A   1      31.509  26.826  24.599  1.00  0.00    -0.346 N 
ATOM     15  C   UNL A   1      31.439  25.496  24.751  1.00  0.00     0.251 C 
ATOM     16  O   UNL A   1      30.304  25.034  24.684  1.00  0.00    -0.269 OA
ATOM     17  H   UNL A   1      30.639  27.271  24.479  1.00  0.00     0.164 HD
BRANCH  15  18
ATOM     18  C   UNL A   1      32.643  24.629  24.892  1.00  0.00     0.039 A 
ATOM     19  C   UNL A   1      37.111  22.076  24.205  1.00  0.00     0.044 C 
ATOM     20  C   UNL A   1      35.907  22.930  24.400  1.00  0.00    -0.051 A 
ATOM     21  C   UNL A   1      34.722  23.156  23.142  1.00  0.00     0.004 A 
ATOM     22  C   UNL A   1      35.409  23.438  25.968  1.00  0.00     0.004 A 
ATOM     23  C   UNL A   1      33.214  24.188  23.374  1.00  0.00     0.014 A 
ATOM     24  C   UNL A   1      33.816  24.352  26.181  1.00  0.00     0.014 A 
ENDBRANCH  15  18
ENDBRANCH  10  14
ENDBRANCH   9  10
ENDBRANCH   7   9
ENDBRANCH   6   7
ENDBRANCH   5   6
ENDBRANCH   4   5
ENDBRANCH   3   4
ENDBRANCH   2   3
ENDBRANCH   1   2
BRANCH   1  25
ATOM     25  O   UNL A   1      33.065  37.191  31.741  1.00  0.00    -0.377 OA
BRANCH  25  26
ATOM     26  C   UNL A   1      33.833  36.960  32.934  1.00  0.00     0.188 C 
BRANCH  26  27
ATOM     27  C   UNL A   1      34.029  35.490  33.187  1.00  0.00     0.188 C 
BRANCH  27  28
ATOM     28  O   UNL A   1      35.362  35.475  33.634  1.00  0.00    -0.376 OA
BRANCH  28  29
ATOM     29  C   UNL A   1      35.763  34.293  34.283  1.00  0.00     0.202 C 
BRANCH  29  30
ATOM     30  C   UNL A   1      34.894  33.224  33.644  1.00  0.00     0.261 C 
BRANCH  30  31
ATOM     31  O   UNL A   1      35.791  32.203  33.102  1.00  0.00    -0.460 OA
BRANCH  31  32
ATOM     32  C   UNL A   1      35.974  32.269  31.744  1.00  0.00     0.338 C 
ATOM     33  O   UNL A   1      35.667  33.231  31.053  1.00  0.00    -0.246 OA
BRANCH  32  34
ATOM     34  C   UNL A   1      36.303  30.927  31.150  1.00  0.00     0.060 A 
ATOM     35  C   UNL A   1      36.977  29.971  31.892  1.00  0.00     0.016 A 
ATOM     36  C   UNL A   1      36.112  30.591  29.829  1.00  0.00     0.016 A 
ATOM     37  C   UNL A   1      37.764  28.985  31.229  1.00  0.00     0.010 A 
ATOM     38  C   UNL A   1      36.884  29.536  29.249  1.00  0.00     0.010 A 
ATOM     39  C   UNL A   1      38.059  28.991  29.852  1.00  0.00    -0.014 A 
BRANCH  39  40
ATOM     40  C   UNL A   1      39.750  28.683  29.183  1.00  0.00     0.031 A 
ATOM     41  C   UNL A   1      40.410  27.038  28.207  1.00  0.00     0.074 A 
ATOM     42  C   UNL A   1      40.426  29.852  29.769  1.00  0.00     0.049 A 
ATOM     43  N   UNL A   1      40.711  25.754  28.780  1.00  0.00    -0.248 NA
ATOM     44  C   UNL A   1      40.376  26.413  26.755  1.00  0.00     0.031 C 
ATOM     45  C   UNL A   1      41.411  30.850  29.266  1.00  0.00     0.029 A 
ATOM     46  N   UNL A   1      40.517  30.258  31.253  1.00  0.00    -0.354 N 
ATOM     47  C   UNL A   1      41.350  24.692  28.044  1.00  0.00     0.074 A 
ATOM     48  C   UNL A   1      40.801  25.104  26.757  1.00  0.00     0.031 C 
ATOM     49  C   UNL A   1      41.962  31.594  30.275  1.00  0.00     0.029 A 
ATOM     50  C   UNL A   1      41.713  31.020  31.617  1.00  0.00     0.049 A 
ATOM     51  H   UNL A   1      39.821  30.023  31.908  1.00  0.00     0.167 HD
ATOM     52  C   UNL A   1      42.507  23.769  28.360  1.00  0.00     0.037 A 
ATOM     53  C   UNL A   1      42.782  30.820  32.602  1.00  0.00     0.037 A 
ATOM     54  C   UNL A   1      43.915  24.058  29.324  1.00  0.00     0.049 A 
ATOM     55  C   UNL A   1      43.980  29.499  33.066  1.00  0.00     0.074 A 
ATOM     56  C   UNL A   1      45.251  24.375  28.988  1.00  0.00     0.029 A 
ATOM     57  N   UNL A   1      44.166  24.119  30.796  1.00  0.00    -0.354 N 
ATOM     58  N   UNL A   1      44.678  28.581  32.339  1.00  0.00    -0.248 NA
ATOM     59  C   UNL A   1      44.138  29.113  34.475  1.00  0.00     0.031 C 
ATOM     60  C   UNL A   1      46.028  24.911  30.143  1.00  0.00     0.029 A 
ATOM     61  C   UNL A   1      45.156  25.185  31.207  1.00  0.00     0.049 A 
ATOM     62  H   UNL A   1      43.726  23.518  31.440  1.00  0.00     0.167 HD
ATOM     63  C   UNL A   1      45.000  27.337  33.064  1.00  0.00     0.074 A 
ATOM     64  C   UNL A   1      44.691  27.874  34.426  1.00  0.00     0.031 C 
ATOM     65  C   UNL A   1      45.277  25.916  32.677  1.00  0.00     0.037 A 
BRANCH  52  66
ATOM     66  C   UNL A   1      42.613  22.580  27.395  1.00  0.00     0.064 A 
ATOM     67  C   UNL A   1      41.844  21.403  27.479  1.00  0.00     0.173 A 
ATOM     68  C   UNL A   1      43.490  22.635  26.291  1.00  0.00     0.173 A 
ATOM     69  F   UNL A   1      40.844  21.258  28.348  1.00  0.00    -0.203 F 
ATOM     70  C   UNL A   1      42.058  20.306  26.642  1.00  0.00     0.198 A 
ATOM     71  C   UNL A   1      43.712  21.532  25.458  1.00  0.00     0.198 A 
ATOM     72  F   UNL A   1      44.144  23.769  25.995  1.00  0.00    -0.203 F 
ATOM     73  F   UNL A   1      41.323  19.196  26.806  1.00  0.00    -0.200 F 
ATOM     74  C   UNL A   1      43.019  20.354  25.657  1.00  0.00     0.200 A 
ATOM     75  F   UNL A   1      44.609  21.613  24.465  1.00  0.00    -0.200 F 
ATOM     76  F   UNL A   1      43.259  19.280  24.892  1.00  0.00    -0.200 F 
ENDBRANCH  52  66
BRANCH  53  77
ATOM     77  C   UNL A   1      42.186  31.693  33.718  1.00  0.00     0.064 A 
ATOM     78  C   UNL A   1      42.306  33.071  33.417  1.00  0.00     0.173 A 
ATOM     79  C   UNL A   1      40.955  31.262  34.260  1.00  0.00     0.173 A 
ATOM     80  F   UNL A   1      43.459  33.529  32.905  1.00  0.00    -0.203 F 
ATOM     81  C   UNL A   1      41.159  33.858  33.269  1.00  0.00     0.198 A 
ATOM     82  C   UNL A   1      39.815  32.064  34.133  1.00  0.00     0.198 A 
ATOM     83  F   UNL A   1      40.797  29.982  34.626  1.00  0.00    -0.203 F 
ATOM     84  F   UNL A   1      41.247  35.043  32.649  1.00  0.00    -0.200 F 
ATOM     85  C   UNL A   1      39.911  33.330  33.570  1.00  0.00     0.200 A 
ATOM     86  F   UNL A   1      38.603  31.542  34.375  1.00  0.00    -0.200 F 
ATOM     87  F   UNL A   1      38.800  33.993  33.215  1.00  0.00    -0.200 F 
ENDBRANCH  53  77
BRANCH  65  88
ATOM     88  C   UNL A   1      45.600  24.833  33.787  1.00  0.00     0.064 A 
ATOM     89  C   UNL A   1      44.779  23.758  34.151  1.00  0.00     0.173 A 
ATOM     90  C   UNL A   1      46.806  24.861  34.537  1.00  0.00     0.173 A 
ATOM     91  F   UNL A   1      43.456  23.794  33.947  1.00  0.00    -0.203 F 
ATOM     92  C   UNL A   1      45.266  22.639  34.848  1.00  0.00     0.198 A 
ATOM     93  C   UNL A   1      47.292  23.771  35.259  1.00  0.00     0.198 A 
ATOM     94  F   UNL A   1      47.540  25.969  34.685  1.00  0.00    -0.203 F 
ATOM     95  F   UNL A   1      44.472  21.577  35.036  1.00  0.00    -0.200 F 
ATOM     96  C   UNL A   1      46.550  22.623  35.350  1.00  0.00     0.200 A 
ATOM     97  F   UNL A   1      48.486  23.857  35.865  1.00  0.00    -0.200 F 
ATOM     98  F   UNL A   1      47.034  21.547  35.983  1.00  0.00    -0.200 F 
ENDBRANCH  65  88
ENDBRANCH  39  40
ENDBRANCH  32  34
ENDBRANCH  31  32
ENDBRANCH  30  31
ENDBRANCH  29  30
ENDBRANCH  28  29
ENDBRANCH  27  28
ENDBRANCH  26  27
ENDBRANCH  25  26
ENDBRANCH   1  25
TORSDOF 23
ENDMDL
MODEL 2
REMARK VINA RESULT:     -12.8      1.680      3.584
REMARK SMILES Cc1ccc(C(=O)NC2(CC(=O)OCCOCCOCCOCCOC(=O)c3ccc(-c4c5nc(c(-c6c(F)c(F)c(F)c(F)c6F)c6ccc([nH]6)c(-c6c(F)c(F)c(F)c(F)c6F)c6nc(c(-c7c(F)c(F)c(F)c(F)c7F)c7ccc4[nH]7)C=C6)C=C5)cc3)CCC2)cc1
REMARK SMILES IDX 18 1 17 2 16 3 15 4 14 5 13 6 11 7 12 8 10 9 9 10 91 11
REMARK SMILES IDX 93 12 92 13 8 14 6 15 7 16 5 18 1 19 2 20 3 21 95 22 4 23
REMARK SMILES IDX 94 24 19 25 20 26 21 27 22 28 23 29 24 30 25 31 26 32 27 33
REMARK SMILES IDX 28 34 29 35 90 36 30 37 89 38 31 39 32 40 33 41 83 42 34 43
REMARK SMILES IDX 88 44 82 45 84 46 35 47 87 48 81 49 80 50 36 52 68 53 48 54
REMARK SMILES IDX 67 55 49 56 52 57 66 58 85 59 50 60 51 61 65 63 86 64 53 65
REMARK SMILES IDX 37 66 38 67 46 68 39 69 40 70 44 71 47 72 41 73 42 74 45 75
REMARK SMILES IDX 43 76 69 77 70 78 78 79 71 80 72 81 76 82 79 83 73 84 74 85
REMARK SMILES IDX 77 86 75 87 54 88 55 89 63 90 56 91 57 92 61 93 64 94 58 95
REMARK SMILES IDX 59 96 62 97 60 98
REMARK H PARENT 8 17 84 51 52 62
REMARK Flexibility Score: inf
ROOT
ATOM      1  C   UNL A   1      33.307  32.940  27.675  1.00  0.00     0.188 C 
ENDROOT
BRANCH   1   2
ATOM      2  C   UNL A   1      33.383  31.242  27.501  1.00  0.00     0.188 C 
BRANCH   2   3
ATOM      3  O   UNL A   1      33.207  30.177  26.139  1.00  0.00    -0.376 OA
BRANCH   3   4
ATOM      4  C   UNL A   1      33.361  28.429  25.828  1.00  0.00     0.202 C 
BRANCH   4   5
ATOM      5  C   UNL A   1      32.459  26.882  26.634  1.00  0.00     0.261 C 
BRANCH   5   6
ATOM      6  O   UNL A   1      31.119  25.294  26.687  1.00  0.00    -0.463 OA
BRANCH   6   7
ATOM      7  C   UNL A   1      31.001  23.586  26.891  1.00  0.00     0.308 C 
ATOM      8  O   UNL A   1      30.057  23.078  27.525  1.00  0.00    -0.252 OA
BRANCH   7   9
ATOM      9  C   UNL A   1      31.673  22.409  25.933  1.00  0.00     0.151 C 
BRANCH   9  10
ATOM     10  C   UNL A   1      33.146  22.537  25.383  1.00  0.00     0.051 C 
ATOM     11  C   UNL A   1      34.256  21.644  26.098  1.00  0.00     0.029 C 
ATOM     12  C   UNL A   1      34.151  23.714  25.776  1.00  0.00     0.029 C 
ATOM     13  C   UNL A   1      34.644  22.870  26.935  1.00  0.00     0.005 C 
BRANCH  10  14
ATOM     14  N   UNL A   1      33.254  22.374  23.955  1.00  0.00    -0.346 N 
ATOM     15  C   UNL A   1      32.866  23.172  22.951  1.00  0.00     0.251 C 
ATOM     16  O   UNL A   1      33.078  22.720  21.829  1.00  0.00    -0.269 OA
ATOM     17  H   UNL A   1      33.686  21.537  23.670  1.00  0.00     0.164 HD
BRANCH  15  18
ATOM     18  C   UNL A   1      32.146  24.459  23.165  1.00  0.00     0.039 A 
ATOM     19  C   UNL A   1      30.311  29.306  22.864  1.00  0.00     0.044 C 
ATOM     20  C   UNL A   1      30.773  27.892  22.823  1.00  0.00    -0.051 A 
ATOM     21  C   UNL A   1      32.442  27.474  22.551  1.00  0.00     0.004 A 
ATOM     22  C   UNL A   1      29.787  26.606  23.407  1.00  0.00     0.004 A 
ATOM     23  C   UNL A   1      33.037  25.730  22.523  1.00  0.00     0.014 A 
ATOM     24  C   UNL A   1      30.466  24.888  23.496  1.00  0.00     0.014 A 
ENDBRANCH  15  18
ENDBRANCH  10  14
ENDBRANCH   9  10
ENDBRANCH   7   9
ENDBRANCH   6   7
ENDBRANCH   5   6
ENDBRANCH   4   5
ENDBRANCH   3   4
ENDBRANCH   2   3
ENDBRANCH   1   2
BRANCH   1  25
ATOM     25  O   UNL A   1      34.513  33.688  27.967  1.00  0.00    -0.377 OA
BRANCH  25  26
ATOM     26  C   UNL A   1      34.951  33.747  29.336  1.00  0.00     0.188 C 
BRANCH  26  27
ATOM     27  C   UNL A   1      34.005  34.553  30.183  1.00  0.00     0.188 C 
BRANCH  27  28
ATOM     28  O   UNL A   1      33.996  33.792  31.365  1.00  0.00    -0.376 OA
BRANCH  28  29
ATOM     29  C   UNL A   1      34.562  32.508  31.255  1.00  0.00     0.202 C 
BRANCH  29  30
ATOM     30  C   UNL A   1      35.331  32.346  32.555  1.00  0.00     0.261 C 
BRANCH  30  31
ATOM     31  O   UNL A   1      36.669  31.863  32.210  1.00  0.00    -0.460 OA
BRANCH  31  32
ATOM     32  C   UNL A   1      36.755  30.506  32.028  1.00  0.00     0.338 C 
ATOM     33  O   UNL A   1      36.695  29.684  32.932  1.00  0.00    -0.246 OA
BRANCH  32  34
ATOM     34  C   UNL A   1      37.240  30.148  30.650  1.00  0.00     0.060 A 
ATOM     35  C   UNL A   1      37.550  28.836  30.328  1.00  0.00     0.016 A 
ATOM     36  C   UNL A   1      37.554  31.062  29.670  1.00  0.00     0.016 A 
ATOM     37  C   UNL A   1      38.496  28.564  29.298  1.00  0.00     0.010 A 
ATOM     38  C   UNL A   1      38.452  30.695  28.621  1.00  0.00     0.010 A 
ATOM     39  C   UNL A   1      39.291  29.539  28.666  1.00  0.00    -0.014 A 
BRANCH  39  40
ATOM     40  C   UNL A   1      41.099  29.324  28.365  1.00  0.00     0.031 A 
ATOM     41  C   UNL A   1      42.014  27.819  27.371  1.00  0.00     0.074 A 
ATOM     42  C   UNL A   1      41.588  30.413  29.228  1.00  0.00     0.049 A 
ATOM     43  N   UNL A   1      42.219  26.473  27.837  1.00  0.00    -0.248 NA
ATOM     44  C   UNL A   1      42.327  27.381  25.884  1.00  0.00     0.031 C 
ATOM     45  C   UNL A   1      42.628  31.470  29.086  1.00  0.00     0.029 A 
ATOM     46  N   UNL A   1      41.330  30.629  30.731  1.00  0.00    -0.354 N 
ATOM     47  C   UNL A   1      43.042  25.515  27.140  1.00  0.00     0.074 A 
ATOM     48  C   UNL A   1      42.783  26.084  25.823  1.00  0.00     0.031 C 
ATOM     49  C   UNL A   1      42.914  32.084  30.277  1.00  0.00     0.029 A 
ATOM     50  C   UNL A   1      42.389  31.343  31.448  1.00  0.00     0.049 A 
ATOM     51  H   UNL A   1      40.513  30.311  31.177  1.00  0.00     0.167 HD
ATOM     52  C   UNL A   1      44.128  24.565  27.597  1.00  0.00     0.037 A 
ATOM     53  C   UNL A   1      43.215  31.025  32.617  1.00  0.00     0.037 A 
ATOM     54  C   UNL A   1      45.273  24.735  28.882  1.00  0.00     0.049 A 
ATOM     55  C   UNL A   1      44.320  29.661  33.176  1.00  0.00     0.074 A 
ATOM     56  C   UNL A   1      46.639  25.097  28.899  1.00  0.00     0.029 A 
ATOM     57  N   UNL A   1      45.185  24.611  30.369  1.00  0.00    -0.354 N 
ATOM     58  N   UNL A   1      45.193  28.845  32.520  1.00  0.00    -0.248 NA
ATOM     59  C   UNL A   1      44.170  29.101  34.526  1.00  0.00     0.031 C 
ATOM     60  C   UNL A   1      47.119  25.486  30.257  1.00  0.00     0.029 A 
ATOM     61  C   UNL A   1      46.022  25.620  31.121  1.00  0.00     0.049 A 
ATOM     62  H   UNL A   1      44.631  23.932  30.818  1.00  0.00     0.167 HD
ATOM     63  C   UNL A   1      45.383  27.520  33.142  1.00  0.00     0.074 A 
ATOM     64  C   UNL A   1      44.760  27.881  34.454  1.00  0.00     0.031 C 
ATOM     65  C   UNL A   1      45.787  26.160  32.658  1.00  0.00     0.037 A 
BRANCH  52  66
ATOM     66  C   UNL A   1      44.486  23.507  26.543  1.00  0.00     0.064 A 
ATOM     67  C   UNL A   1      45.530  23.626  25.604  1.00  0.00     0.173 A 
ATOM     68  C   UNL A   1      43.789  22.281  26.497  1.00  0.00     0.173 A 
ATOM     69  F   UNL A   1      46.402  24.634  25.623  1.00  0.00    -0.203 F 
ATOM     70  C   UNL A   1      45.743  22.684  24.596  1.00  0.00     0.198 A 
ATOM     71  C   UNL A   1      43.995  21.341  25.482  1.00  0.00     0.198 A 
ATOM     72  F   UNL A   1      42.895  21.970  27.450  1.00  0.00    -0.203 F 
ATOM     73  F   UNL A   1      46.725  22.881  23.704  1.00  0.00    -0.200 F 
ATOM     74  C   UNL A   1      44.950  21.561  24.508  1.00  0.00     0.200 A 
ATOM     75  F   UNL A   1      43.256  20.224  25.443  1.00  0.00    -0.200 F 
ATOM     76  F   UNL A   1      45.123  20.688  23.507  1.00  0.00    -0.200 F 
ENDBRANCH  52  66
BRANCH  53  77
ATOM     77  C   UNL A   1      42.356  31.748  33.667  1.00  0.00     0.064 A 
ATOM     78  C   UNL A   1      42.782  33.086  33.852  1.00  0.00     0.173 A 
ATOM     79  C   UNL A   1      40.962  31.525  33.597  1.00  0.00     0.173 A 
ATOM     80  F   UNL A   1      44.096  33.347  33.929  1.00  0.00    -0.203 F 
ATOM     81  C   UNL A   1      41.914  34.144  33.561  1.00  0.00     0.198 A 
ATOM     82  C   UNL A   1      40.095  32.592  33.332  1.00  0.00     0.198 A 
ATOM     83  F   UNL A   1      40.490  30.275  33.485  1.00  0.00    -0.203 F 
ATOM     84  F   UNL A   1      42.411  35.377  33.393  1.00  0.00    -0.200 F 
ATOM     85  C   UNL A   1      40.588  33.887  33.242  1.00  0.00     0.200 A 
ATOM     86  F   UNL A   1      38.826  32.344  32.974  1.00  0.00    -0.200 F 
ATOM     87  F   UNL A   1      39.818  34.864  32.743  1.00  0.00    -0.200 F 
ENDBRANCH  53  77
BRANCH  65  88
ATOM     88  C   UNL A   1      45.887  24.948  33.671  1.00  0.00     0.064 A 
ATOM     89  C   UNL A   1      47.039  24.539  34.354  1.00  0.00     0.173 A 
ATOM     90  C   UNL A   1      44.763  24.140  33.991  1.00  0.00     0.173 A 
ATOM     91  F   UNL A   1      48.262  24.815  33.881  1.00  0.00    -0.203 F 
ATOM     92  C   UNL A   1      46.990  23.726  35.499  1.00  0.00     0.198 A 
ATOM     93  C   UNL A   1      44.704  23.304  35.107  1.00  0.00     0.198 A 
ATOM     94  F   UNL A   1      43.690  24.047  33.198  1.00  0.00    -0.203 F 
ATOM     95  F   UNL A   1      48.110  23.491  36.196  1.00  0.00    -0.200 F 
ATOM     96  C   UNL A   1      45.804  23.157  35.911  1.00  0.00     0.200 A 
ATOM     97  F   UNL A   1      43.569  22.645  35.382  1.00  0.00    -0.200 F 
ATOM     98  F   UNL A   1      45.740  22.410  37.021  1.00  0.00    -0.200 F 
ENDBRANCH  65  88
ENDBRANCH  39  40
ENDBRANCH  32  34
ENDBRANCH  31  32
ENDBRANCH  30  31
ENDBRANCH  29  30
ENDBRANCH  28  29
ENDBRANCH  27  28
ENDBRANCH  26  27
ENDBRANCH  25  26
ENDBRANCH   1  25
TORSDOF 23
ENDMDL
MODEL 3
REMARK VINA RESULT:     -12.3      1.253      2.017
REMARK SMILES Cc1ccc(C(=O)NC2(CC(=O)OCCOCCOCCOCCOC(=O)c3ccc(-c4c5nc(c(-c6c(F)c(F)c(F)c(F)c6F)c6ccc([nH]6)c(-c6c(F)c(F)c(F)c(F)c6F)c6nc(c(-c7c(F)c(F)c(F)c(F)c7F)c7ccc4[nH]7)C=C6)C=C5)cc3)CCC2)cc1
REMARK SMILES IDX 18 1 17 2 16 3 15 4 14 5 13 6 11 7 12 8 10 9 9 10 91 11
REMARK SMILES IDX 93 12 92 13 8 14 6 15 7 16 5 18 1 19 2 20 3 21 95 22 4 23
REMARK SMILES IDX 94 24 19 25 20 26 21 27 22 28 23 29 24 30 25 31 26 32 27 33
REMARK SMILES IDX 28 34 29 35 90 36 30 37 89 38 31 39 32 40 33 41 83 42 34 43
REMARK SMILES IDX 88 44 82 45 84 46 35 47 87 48 81 49 80 50 36 52 68 53 48 54
REMARK SMILES IDX 67 55 49 56 52 57 66 58 85 59 50 60 51 61 65 63 86 64 53 65
REMARK SMILES IDX 37 66 38 67 46 68 39 69 40 70 44 71 47 72 41 73 42 74 45 75
REMARK SMILES IDX 43 76 69 77 70 78 78 79 71 80 72 81 76 82 79 83 73 84 74 85
REMARK SMILES IDX 77 86 75 87 54 88 55 89 63 90 56 91 57 92 61 93 64 94 58 95
REMARK SMILES IDX 59 96 62 97 60 98
REMARK H PARENT 8 17 84 51 52 62
REMARK Flexibility Score: inf
ROOT
ATOM      1  C   UNL A   1      32.845  35.809  30.858  1.00  0.00     0.188 C 
ENDROOT
BRANCH   1   2
ATOM      2  C   UNL A   1      32.968  35.754  29.156  1.00  0.00     0.188 C 
BRANCH   2   3
ATOM      3  O   UNL A   1      33.965  34.842  28.063  1.00  0.00    -0.376 OA
BRANCH   3   4
ATOM      4  C   UNL A   1      34.748  33.241  28.047  1.00  0.00     0.202 C 
BRANCH   4   5
ATOM      5  C   UNL A   1      34.040  31.454  27.649  1.00  0.00     0.261 C 
BRANCH   5   6
ATOM      6  O   UNL A   1      32.574  30.077  27.124  1.00  0.00    -0.463 OA
BRANCH   6   7
ATOM      7  C   UNL A   1      32.198  28.395  27.097  1.00  0.00     0.308 C 
ATOM      8  O   UNL A   1      31.415  27.897  27.928  1.00  0.00    -0.252 OA
BRANCH   7   9
ATOM      9  C   UNL A   1      32.305  27.360  25.804  1.00  0.00     0.151 C 
BRANCH   9  10
ATOM     10  C   UNL A   1      31.023  26.668  25.197  1.00  0.00     0.051 C 
ATOM     11  C   UNL A   1      31.160  26.076  23.723  1.00  0.00     0.029 C 
ATOM     12  C   UNL A   1      29.806  27.459  24.532  1.00  0.00     0.029 C 
ATOM     13  C   UNL A   1      30.508  27.361  23.192  1.00  0.00     0.005 C 
BRANCH  10  14
ATOM     14  N   UNL A   1      30.435  25.670  26.055  1.00  0.00    -0.346 N 
ATOM     15  C   UNL A   1      30.918  24.501  26.497  1.00  0.00     0.251 C 
ATOM     16  O   UNL A   1      30.140  23.860  27.199  1.00  0.00    -0.269 OA
ATOM     17  H   UNL A   1      29.527  25.884  26.371  1.00  0.00     0.164 HD
BRANCH  15  18
ATOM     18  C   UNL A   1      32.249  23.965  26.095  1.00  0.00     0.039 A 
ATOM     19  C   UNL A   1      36.511  21.082  25.405  1.00  0.00     0.044 C 
ATOM     20  C   UNL A   1      35.217  21.807  25.532  1.00  0.00    -0.051 A 
ATOM     21  C   UNL A   1      34.380  21.942  27.054  1.00  0.00     0.004 A 
ATOM     22  C   UNL A   1      34.654  22.864  24.296  1.00  0.00     0.004 A 
ATOM     23  C   UNL A   1      32.790  22.855  27.235  1.00  0.00     0.014 A 
ATOM     24  C   UNL A   1      33.128  23.874  24.566  1.00  0.00     0.014 A 
ENDBRANCH  15  18
ENDBRANCH  10  14
ENDBRANCH   9  10
ENDBRANCH   7   9
ENDBRANCH   6   7
ENDBRANCH   5   6
ENDBRANCH   4   5
ENDBRANCH   3   4
ENDBRANCH   2   3
ENDBRANCH   1   2
BRANCH   1  25
ATOM     25  O   UNL A   1      33.020  37.068  31.553  1.00  0.00    -0.377 OA
BRANCH  25  26
ATOM     26  C   UNL A   1      33.859  37.080  32.720  1.00  0.00     0.188 C 
BRANCH  26  27
ATOM     27  C   UNL A   1      34.185  35.686  33.181  1.00  0.00     0.188 C 
BRANCH  27  28
ATOM     28  O   UNL A   1      35.585  35.686  33.055  1.00  0.00    -0.376 OA
BRANCH  28  29
ATOM     29  C   UNL A   1      36.244  34.623  33.699  1.00  0.00     0.202 C 
BRANCH  29  30
ATOM     30  C   UNL A   1      35.186  33.536  33.765  1.00  0.00     0.261 C 
BRANCH  30  31
ATOM     31  O   UNL A   1      35.792  32.310  33.245  1.00  0.00    -0.460 OA
BRANCH  31  32
ATOM     32  C   UNL A   1      35.637  32.126  31.895  1.00  0.00     0.338 C 
ATOM     33  O   UNL A   1      34.955  32.842  31.175  1.00  0.00    -0.246 OA
BRANCH  32  34
ATOM     34  C   UNL A   1      36.138  30.781  31.444  1.00  0.00     0.060 A 
ATOM     35  C   UNL A   1      37.014  30.051  32.233  1.00  0.00     0.016 A 
ATOM     36  C   UNL A   1      35.910  30.240  30.199  1.00  0.00     0.016 A 
ATOM     37  C   UNL A   1      37.902  29.117  31.627  1.00  0.00     0.010 A 
ATOM     38  C   UNL A   1      36.801  29.247  29.686  1.00  0.00     0.010 A 
ATOM     39  C   UNL A   1      38.090  28.977  30.239  1.00  0.00    -0.014 A 
BRANCH  39  40
ATOM     40  C   UNL A   1      39.756  28.843  29.458  1.00  0.00     0.031 A 
ATOM     41  C   UNL A   1      40.485  27.307  28.361  1.00  0.00     0.074 A 
ATOM     42  C   UNL A   1      40.371  30.036  30.063  1.00  0.00     0.049 A 
ATOM     43  N   UNL A   1      40.923  26.027  28.848  1.00  0.00    -0.248 NA
ATOM     44  C   UNL A   1      40.411  26.750  26.883  1.00  0.00     0.031 C 
ATOM     45  C   UNL A   1      41.238  31.135  29.555  1.00  0.00     0.029 A 
ATOM     46  N   UNL A   1      40.521  30.379  31.557  1.00  0.00    -0.354 N 
ATOM     47  C   UNL A   1      41.598  25.058  28.022  1.00  0.00     0.074 A 
ATOM     48  C   UNL A   1      40.939  25.482  26.793  1.00  0.00     0.031 C 
ATOM     49  C   UNL A   1      41.789  31.876  30.568  1.00  0.00     0.029 A 
ATOM     50  C   UNL A   1      41.672  31.220  31.891  1.00  0.00     0.049 A 
ATOM     51  H   UNL A   1      39.888  30.056  32.239  1.00  0.00     0.167 HD
ATOM     52  C   UNL A   1      42.844  24.222  28.222  1.00  0.00     0.037 A 
ATOM     53  C   UNL A   1      42.812  31.065  32.799  1.00  0.00     0.037 A 
ATOM     54  C   UNL A   1      44.281  24.582  29.116  1.00  0.00     0.049 A 
ATOM     55  C   UNL A   1      44.140  29.828  33.124  1.00  0.00     0.074 A 
ATOM     56  C   UNL A   1      45.564  25.025  28.719  1.00  0.00     0.029 A 
ATOM     57  N   UNL A   1      44.618  24.595  30.572  1.00  0.00    -0.354 N 
ATOM     58  N   UNL A   1      44.863  29.007  32.312  1.00  0.00    -0.248 NA
ATOM     59  C   UNL A   1      44.416  29.391  34.499  1.00  0.00     0.031 C 
ATOM     60  C   UNL A   1      46.365  25.570  29.854  1.00  0.00     0.029 A 
ATOM     61  C   UNL A   1      45.542  25.720  30.979  1.00  0.00     0.049 A 
ATOM     62  H   UNL A   1      44.269  23.930  31.208  1.00  0.00     0.167 HD
ATOM     63  C   UNL A   1      45.329  27.762  32.951  1.00  0.00     0.074 A 
ATOM     64  C   UNL A   1      45.063  28.207  34.355  1.00  0.00     0.031 C 
ATOM     65  C   UNL A   1      45.695  26.389  32.476  1.00  0.00     0.037 A 
BRANCH  52  66
ATOM     66  C   UNL A   1      42.986  23.092  27.192  1.00  0.00     0.064 A 
ATOM     67  C   UNL A   1      42.370  21.829  27.292  1.00  0.00     0.173 A 
ATOM     68  C   UNL A   1      43.731  23.294  26.011  1.00  0.00     0.173 A 
ATOM     69  F   UNL A   1      41.489  21.532  28.247  1.00  0.00    -0.203 F 
ATOM     70  C   UNL A   1      42.621  20.798  26.384  1.00  0.00     0.198 A 
ATOM     71  C   UNL A   1      43.990  22.259  25.106  1.00  0.00     0.198 A 
ATOM     72  F   UNL A   1      44.216  24.509  25.711  1.00  0.00    -0.203 F 
ATOM     73  F   UNL A   1      42.039  19.603  26.563  1.00  0.00    -0.200 F 
ATOM     74  C   UNL A   1      43.462  20.999  25.313  1.00  0.00     0.200 A 
ATOM     75  F   UNL A   1      44.764  22.485  24.035  1.00  0.00    -0.200 F 
ATOM     76  F   UNL A   1      43.743  19.993  24.474  1.00  0.00    -0.200 F 
ENDBRANCH  52  66
BRANCH  53  77
ATOM     77  C   UNL A   1      42.219  31.832  33.993  1.00  0.00     0.064 A 
ATOM     78  C   UNL A   1      41.754  30.949  34.996  1.00  0.00     0.173 A 
ATOM     79  C   UNL A   1      42.939  32.969  34.425  1.00  0.00     0.173 A 
ATOM     80  F   UNL A   1      41.062  29.857  34.635  1.00  0.00    -0.203 F 
ATOM     81  C   UNL A   1      42.326  30.976  36.273  1.00  0.00     0.198 A 
ATOM     82  C   UNL A   1      43.487  33.003  35.712  1.00  0.00     0.198 A 
ATOM     83  F   UNL A   1      43.353  33.878  33.530  1.00  0.00    -0.203 F 
ATOM     84  F   UNL A   1      42.148  29.934  37.097  1.00  0.00    -0.200 F 
ATOM     85  C   UNL A   1      43.237  31.969  36.605  1.00  0.00     0.200 A 
ATOM     86  F   UNL A   1      44.405  33.931  36.021  1.00  0.00    -0.200 F 
ATOM     87  F   UNL A   1      43.955  31.869  37.733  1.00  0.00    -0.200 F 
ENDBRANCH  53  77
BRANCH  65  88
ATOM     88  C   UNL A   1      46.173  25.286  33.507  1.00  0.00     0.064 A 
ATOM     89  C   UNL A   1      45.406  24.213  33.979  1.00  0.00     0.173 A 
ATOM     90  C   UNL A   1      47.481  25.291  34.062  1.00  0.00     0.173 A 
ATOM     91  F   UNL A   1      44.067  24.265  33.983  1.00  0.00    -0.203 F 
ATOM     92  C   UNL A   1      45.981  23.080  34.577  1.00  0.00     0.198 A 
ATOM     93  C   UNL A   1      48.060  24.185  34.685  1.00  0.00     0.198 A 
ATOM     94  F   UNL A   1      48.242  26.389  34.109  1.00  0.00    -0.203 F 
ATOM     95  F   UNL A   1      45.212  22.022  34.872  1.00  0.00    -0.200 F 
ATOM     96  C   UNL A   1      47.327  23.043  34.874  1.00  0.00     0.200 A 
ATOM     97  F   UNL A   1      49.334  24.250  35.100  1.00  0.00    -0.200 F 
ATOM     98  F   UNL A   1      47.890  21.953  35.410  1.00  0.00    -0.200 F 
ENDBRANCH  65  88
ENDBRANCH  39  40
ENDBRANCH  32  34
ENDBRANCH  31  32
ENDBRANCH  30  31
ENDBRANCH  29  30
ENDBRANCH  28  29
ENDBRANCH  27  28
ENDBRANCH  26  27
ENDBRANCH  25  26
ENDBRANCH   1  25
TORSDOF 23
ENDMDL
