MODEL 1
REMARK VINA RESULT:      -9.8      0.000      0.000
REMARK SMILES CC1(C)[C@H](C(=O)N(Cc2ccccc2)Cc2ccccc2)CC[C@@]1(C)C(=O)OCCOCCOCCOCCOC(=O)c1ccc(-c2c3nc(c(-c4c(F)c(F)c(F)c(F)c4F)c4ccc([nH]4)c(-c4c(F)c(F)c(F)c(F)c4F)c4nc(c(-c5c(F)c(F)c(F)c(F)c5F)c5ccc2[nH]5)C=C4)C=C3)cc1
REMARK SMILES IDX 33 1 32 2 31 3 30 4 29 5 28 6 26 7 27 8 24 9 1 10 2 11 3 12
REMARK SMILES IDX 4 13 22 14 23 15 25 16 5 17 6 18 7 19 8 20 9 21 10 22 14 23
REMARK SMILES IDX 11 24 13 25 12 26 15 27 16 28 17 29 21 30 18 31 20 32 19 33
REMARK SMILES IDX 34 34 35 35 36 36 37 37 38 38 39 39 40 40 41 41 42 42 43 43
REMARK SMILES IDX 44 44 105 45 45 46 104 47 46 48 47 49 48 50 98 51 49 52
REMARK SMILES IDX 103 53 97 54 99 55 50 56 102 57 96 58 95 59 51 61 83 62
REMARK SMILES IDX 63 63 82 64 64 65 67 66 81 67 100 68 65 69 66 70 80 72
REMARK SMILES IDX 101 73 68 74 52 75 53 76 61 77 54 78 55 79 59 80 62 81 56 82
REMARK SMILES IDX 57 83 60 84 58 85 84 86 85 87 93 88 86 89 87 90 91 91 94 92
REMARK SMILES IDX 88 93 89 94 92 95 90 96 69 97 70 98 78 99 71 100 72 101
REMARK SMILES IDX 76 102 79 103 73 104 74 105 77 106 75 107
REMARK H PARENT 99 60 67 71
REMARK Flexibility Score: inf
ROOT
ATOM      1  C   UNL A   1      33.258  29.491  25.646  1.00  0.00     0.188 C 
ENDROOT
BRANCH   1   2
ATOM      2  C   UNL A   1      31.872  30.149  25.376  1.00  0.00     0.188 C 
BRANCH   2   3
ATOM      3  O   UNL A   1      30.917  29.284  24.771  1.00  0.00    -0.376 OA
BRANCH   3   4
ATOM      4  C   UNL A   1      30.328  29.704  23.548  1.00  0.00     0.202 C 
BRANCH   4   5
ATOM      5  C   UNL A   1      30.822  28.987  22.280  1.00  0.00     0.261 C 
BRANCH   5   6
ATOM      6  O   UNL A   1      32.007  28.190  22.475  1.00  0.00    -0.463 OA
BRANCH   6   7
ATOM      7  C   UNL A   1      31.879  26.865  22.216  1.00  0.00     0.312 C 
ATOM      8  O   UNL A   1      31.512  26.474  21.120  1.00  0.00    -0.252 OA
BRANCH   7   9
ATOM      9  C   UNL A   1      32.202  25.984  23.455  1.00  0.00     0.071 C 
ATOM     10  C   UNL A   1      33.042  24.249  21.547  1.00  0.00     0.013 C 
ATOM     11  C   UNL A   1      32.710  24.517  23.038  1.00  0.00    -0.008 C 
ATOM     12  C   UNL A   1      31.604  23.541  23.372  1.00  0.00     0.013 C 
ATOM     13  C   UNL A   1      34.073  24.349  23.788  1.00  0.00     0.085 C 
ATOM     14  C   UNL A   1      33.999  25.239  25.006  1.00  0.00     0.015 C 
ATOM     15  C   UNL A   1      33.336  26.470  24.404  1.00  0.00     0.020 C 
ATOM     16  C   UNL A   1      30.912  26.052  24.325  1.00  0.00     0.024 C 
BRANCH  13  17
ATOM     17  C   UNL A   1      34.875  23.033  23.881  1.00  0.00     0.226 C 
ATOM     18  O   UNL A   1      35.703  22.844  22.976  1.00  0.00    -0.275 OA
ATOM     19  N   UNL A   1      34.746  22.099  24.898  1.00  0.00    -0.334 N 
BRANCH  19  20
ATOM     20  C   UNL A   1      34.347  22.440  26.268  1.00  0.00     0.155 C 
BRANCH  20  21
ATOM     21  C   UNL A   1      32.867  22.615  26.536  1.00  0.00    -0.029 A 
ATOM     22  C   UNL A   1      31.909  21.725  26.045  1.00  0.00     0.005 A 
ATOM     23  C   UNL A   1      32.404  23.787  27.147  1.00  0.00     0.005 A 
ATOM     24  C   UNL A   1      30.543  21.982  26.112  1.00  0.00     0.000 A 
ATOM     25  C   UNL A   1      31.031  24.056  27.221  1.00  0.00     0.000 A 
ATOM     26  C   UNL A   1      30.102  23.157  26.698  1.00  0.00     0.000 A 
ENDBRANCH  20  21
ENDBRANCH  19  20
BRANCH  19  27
ATOM     27  C   UNL A   1      35.492  20.826  24.742  1.00  0.00     0.155 C 
BRANCH  27  28
ATOM     28  C   UNL A   1      34.634  19.605  24.445  1.00  0.00    -0.029 A 
ATOM     29  C   UNL A   1      35.168  18.311  24.542  1.00  0.00     0.005 A 
ATOM     30  C   UNL A   1      33.298  19.724  24.040  1.00  0.00     0.005 A 
ATOM     31  C   UNL A   1      34.424  17.196  24.143  1.00  0.00     0.000 A 
ATOM     32  C   UNL A   1      32.581  18.626  23.566  1.00  0.00     0.000 A 
ATOM     33  C   UNL A   1      33.148  17.360  23.610  1.00  0.00     0.000 A 
ENDBRANCH  27  28
ENDBRANCH  19  27
ENDBRANCH  13  17
ENDBRANCH   7   9
ENDBRANCH   6   7
ENDBRANCH   5   6
ENDBRANCH   4   5
ENDBRANCH   3   4
ENDBRANCH   2   3
ENDBRANCH   1   2
BRANCH   1  34
ATOM     34  O   UNL A   1      33.970  29.821  26.822  1.00  0.00    -0.377 OA
BRANCH  34  35
ATOM     35  C   UNL A   1      33.598  31.041  27.409  1.00  0.00     0.188 C 
BRANCH  35  36
ATOM     36  C   UNL A   1      34.780  31.782  28.057  1.00  0.00     0.188 C 
BRANCH  36  37
ATOM     37  O   UNL A   1      35.217  33.057  27.601  1.00  0.00    -0.376 OA
BRANCH  37  38
ATOM     38  C   UNL A   1      34.813  34.283  28.194  1.00  0.00     0.202 C 
BRANCH  38  39
ATOM     39  C   UNL A   1      34.722  34.514  29.710  1.00  0.00     0.261 C 
BRANCH  39  40
ATOM     40  O   UNL A   1      35.778  33.970  30.502  1.00  0.00    -0.460 OA
BRANCH  40  41
ATOM     41  C   UNL A   1      35.389  33.139  31.491  1.00  0.00     0.338 C 
ATOM     42  O   UNL A   1      34.254  32.767  31.746  1.00  0.00    -0.246 OA
BRANCH  41  43
ATOM     43  C   UNL A   1      36.589  32.557  32.117  1.00  0.00     0.060 A 
ATOM     44  C   UNL A   1      36.410  31.498  33.023  1.00  0.00     0.016 A 
ATOM     45  C   UNL A   1      37.869  33.018  31.805  1.00  0.00     0.016 A 
ATOM     46  C   UNL A   1      37.509  30.894  33.619  1.00  0.00     0.010 A 
ATOM     47  C   UNL A   1      38.969  32.462  32.460  1.00  0.00     0.010 A 
ATOM     48  C   UNL A   1      38.783  31.423  33.391  1.00  0.00    -0.014 A 
BRANCH  48  49
ATOM     49  C   UNL A   1      39.849  31.108  34.363  1.00  0.00     0.031 A 
ATOM     50  C   UNL A   1      40.071  32.097  35.473  1.00  0.00     0.074 A 
ATOM     51  C   UNL A   1      40.556  29.969  34.297  1.00  0.00     0.049 A 
ATOM     52  N   UNL A   1      40.972  32.100  36.419  1.00  0.00    -0.248 NA
ATOM     53  C   UNL A   1      39.144  33.242  35.520  1.00  0.00     0.031 C 
ATOM     54  C   UNL A   1      40.367  28.908  33.311  1.00  0.00     0.029 A 
ATOM     55  N   UNL A   1      41.587  29.523  35.084  1.00  0.00    -0.354 N 
ATOM     56  C   UNL A   1      40.722  33.244  37.164  1.00  0.00     0.074 A 
ATOM     57  C   UNL A   1      39.605  33.926  36.553  1.00  0.00     0.031 C 
ATOM     58  C   UNL A   1      41.275  27.941  33.538  1.00  0.00     0.029 A 
ATOM     59  C   UNL A   1      42.126  28.335  34.659  1.00  0.00     0.049 A 
ATOM     60  H   UNL A   1      41.910  30.010  35.877  1.00  0.00     0.167 HD
ATOM     61  C   UNL A   1      41.369  33.685  38.267  1.00  0.00     0.037 A 
ATOM     62  C   UNL A   1      43.207  27.671  35.113  1.00  0.00     0.037 A 
ATOM     63  C   UNL A   1      42.488  33.007  38.858  1.00  0.00     0.049 A 
ATOM     64  C   UNL A   1      43.976  28.238  36.282  1.00  0.00     0.074 A 
ATOM     65  C   UNL A   1      43.227  33.369  39.968  1.00  0.00     0.029 A 
ATOM     66  N   UNL A   1      43.033  31.825  38.378  1.00  0.00    -0.354 N 
ATOM     67  N   UNL A   1      43.739  29.318  36.989  1.00  0.00    -0.248 NA
ATOM     68  C   UNL A   1      45.164  27.491  36.720  1.00  0.00     0.031 C 
ATOM     69  C   UNL A   1      44.257  32.438  40.125  1.00  0.00     0.029 A 
ATOM     70  C   UNL A   1      44.116  31.457  39.155  1.00  0.00     0.049 A 
ATOM     71  H   UNL A   1      42.699  31.324  37.598  1.00  0.00     0.167 HD
ATOM     72  C   UNL A   1      44.718  29.357  37.974  1.00  0.00     0.074 A 
ATOM     73  C   UNL A   1      45.548  28.187  37.780  1.00  0.00     0.031 C 
ATOM     74  C   UNL A   1      44.913  30.273  38.955  1.00  0.00     0.037 A 
BRANCH  61  75
ATOM     75  C   UNL A   1      40.908  34.977  38.870  1.00  0.00     0.064 A 
ATOM     76  C   UNL A   1      39.784  35.044  39.707  1.00  0.00     0.173 A 
ATOM     77  C   UNL A   1      41.616  36.164  38.626  1.00  0.00     0.173 A 
ATOM     78  F   UNL A   1      39.058  33.942  39.953  1.00  0.00    -0.203 F 
ATOM     79  C   UNL A   1      39.377  36.254  40.263  1.00  0.00     0.198 A 
ATOM     80  C   UNL A   1      41.225  37.364  39.208  1.00  0.00     0.198 A 
ATOM     81  F   UNL A   1      42.694  36.155  37.827  1.00  0.00    -0.203 F 
ATOM     82  F   UNL A   1      38.273  36.303  41.022  1.00  0.00    -0.200 F 
ATOM     83  C   UNL A   1      40.103  37.411  40.022  1.00  0.00     0.200 A 
ATOM     84  F   UNL A   1      41.935  38.479  38.983  1.00  0.00    -0.200 F 
ATOM     85  F   UNL A   1      39.717  38.572  40.568  1.00  0.00    -0.200 F 
ENDBRANCH  61  75
BRANCH  62  86
ATOM     86  C   UNL A   1      43.652  26.416  34.450  1.00  0.00     0.064 A 
ATOM     87  C   UNL A   1      44.470  26.445  33.312  1.00  0.00     0.173 A 
ATOM     88  C   UNL A   1      43.228  25.160  34.913  1.00  0.00     0.173 A 
ATOM     89  F   UNL A   1      44.882  27.621  32.814  1.00  0.00    -0.203 F 
ATOM     90  C   UNL A   1      44.822  25.272  32.645  1.00  0.00     0.198 A 
ATOM     91  C   UNL A   1      43.608  23.987  34.265  1.00  0.00     0.198 A 
ATOM     92  F   UNL A   1      42.441  25.072  35.994  1.00  0.00    -0.203 F 
ATOM     93  F   UNL A   1      45.553  25.336  31.525  1.00  0.00    -0.200 F 
ATOM     94  C   UNL A   1      44.394  24.045  33.125  1.00  0.00     0.200 A 
ATOM     95  F   UNL A   1      43.202  22.800  34.740  1.00  0.00    -0.200 F 
ATOM     96  F   UNL A   1      44.729  22.918  32.482  1.00  0.00    -0.200 F 
ENDBRANCH  62  86
BRANCH  74  97
ATOM     97  C   UNL A   1      46.022  30.019  39.935  1.00  0.00     0.064 A 
ATOM     98  C   UNL A   1      47.293  30.590  39.783  1.00  0.00     0.173 A 
ATOM     99  C   UNL A   1      45.787  29.238  41.078  1.00  0.00     0.173 A 
ATOM    100  F   UNL A   1      47.575  31.336  38.703  1.00  0.00    -0.203 F 
ATOM    101  C   UNL A   1      48.296  30.365  40.723  1.00  0.00     0.198 A 
ATOM    102  C   UNL A   1      46.778  29.046  42.034  1.00  0.00     0.198 A 
ATOM    103  F   UNL A   1      44.584  28.679  41.278  1.00  0.00    -0.203 F 
ATOM    104  F   UNL A   1      49.518  30.880  40.532  1.00  0.00    -0.200 F 
ATOM    105  C   UNL A   1      48.035  29.602  41.852  1.00  0.00     0.200 A 
ATOM    106  F   UNL A   1      46.517  28.325  43.134  1.00  0.00    -0.200 F 
ATOM    107  F   UNL A   1      48.997  29.399  42.763  1.00  0.00    -0.200 F 
ENDBRANCH  74  97
ENDBRANCH  48  49
ENDBRANCH  41  43
ENDBRANCH  40  41
ENDBRANCH  39  40
ENDBRANCH  38  39
ENDBRANCH  37  38
ENDBRANCH  36  37
ENDBRANCH  35  36
ENDBRANCH  34  35
ENDBRANCH   1  34
TORSDOF 25
ENDMDL
MODEL 2
REMARK VINA RESULT:      -9.8      6.062      9.927
REMARK SMILES CC1(C)[C@H](C(=O)N(Cc2ccccc2)Cc2ccccc2)CC[C@@]1(C)C(=O)OCCOCCOCCOCCOC(=O)c1ccc(-c2c3nc(c(-c4c(F)c(F)c(F)c(F)c4F)c4ccc([nH]4)c(-c4c(F)c(F)c(F)c(F)c4F)c4nc(c(-c5c(F)c(F)c(F)c(F)c5F)c5ccc2[nH]5)C=C4)C=C3)cc1
REMARK SMILES IDX 33 1 32 2 31 3 30 4 29 5 28 6 26 7 27 8 24 9 1 10 2 11 3 12
REMARK SMILES IDX 4 13 22 14 23 15 25 16 5 17 6 18 7 19 8 20 9 21 10 22 14 23
REMARK SMILES IDX 11 24 13 25 12 26 15 27 16 28 17 29 21 30 18 31 20 32 19 33
REMARK SMILES IDX 34 34 35 35 36 36 37 37 38 38 39 39 40 40 41 41 42 42 43 43
REMARK SMILES IDX 44 44 105 45 45 46 104 47 46 48 47 49 48 50 98 51 49 52
REMARK SMILES IDX 103 53 97 54 99 55 50 56 102 57 96 58 95 59 51 61 83 62
REMARK SMILES IDX 63 63 82 64 64 65 67 66 81 67 100 68 65 69 66 70 80 72
REMARK SMILES IDX 101 73 68 74 52 75 53 76 61 77 54 78 55 79 59 80 62 81 56 82
REMARK SMILES IDX 57 83 60 84 58 85 84 86 85 87 93 88 86 89 87 90 91 91 94 92
REMARK SMILES IDX 88 93 89 94 92 95 90 96 69 97 70 98 78 99 71 100 72 101
REMARK SMILES IDX 76 102 79 103 73 104 74 105 77 106 75 107
REMARK H PARENT 99 60 67 71
REMARK Flexibility Score: inf
ROOT
ATOM      1  C   UNL A   1      36.456  31.296  32.743  1.00  0.00     0.188 C 
ENDROOT
BRANCH   1   2
ATOM      2  C   UNL A   1      37.765  30.783  33.416  1.00  0.00     0.188 C 
BRANCH   2   3
ATOM      3  O   UNL A   1      37.842  29.369  33.552  1.00  0.00    -0.376 OA
BRANCH   3   4
ATOM      4  C   UNL A   1      38.335  28.624  32.447  1.00  0.00     0.202 C 
BRANCH   4   5
ATOM      5  C   UNL A   1      39.840  28.313  32.461  1.00  0.00     0.261 C 
BRANCH   5   6
ATOM      6  O   UNL A   1      40.332  27.708  31.248  1.00  0.00    -0.463 OA
BRANCH   6   7
ATOM      7  C   UNL A   1      40.413  28.526  30.169  1.00  0.00     0.312 C 
ATOM      8  O   UNL A   1      40.788  29.681  30.286  1.00  0.00    -0.252 OA
BRANCH   7   9
ATOM      9  C   UNL A   1      39.943  27.832  28.861  1.00  0.00     0.071 C 
ATOM     10  C   UNL A   1      42.502  28.326  28.110  1.00  0.00     0.013 C 
ATOM     11  C   UNL A   1      41.074  27.863  27.720  1.00  0.00    -0.008 C 
ATOM     12  C   UNL A   1      40.623  28.844  26.660  1.00  0.00     0.013 C 
ATOM     13  C   UNL A   1      41.240  26.366  27.294  1.00  0.00     0.085 C 
ATOM     14  C   UNL A   1      39.921  25.692  27.590  1.00  0.00     0.015 C 
ATOM     15  C   UNL A   1      39.593  26.317  28.939  1.00  0.00     0.020 C 
ATOM     16  C   UNL A   1      38.591  28.526  28.519  1.00  0.00     0.024 C 
BRANCH  13  17
ATOM     17  C   UNL A   1      42.066  25.877  26.085  1.00  0.00     0.226 C 
ATOM     18  O   UNL A   1      41.526  26.013  24.976  1.00  0.00    -0.275 OA
ATOM     19  N   UNL A   1      43.343  25.340  26.165  1.00  0.00    -0.334 N 
BRANCH  19  20
ATOM     20  C   UNL A   1      44.307  25.693  27.213  1.00  0.00     0.155 C 
BRANCH  20  21
ATOM     21  C   UNL A   1      44.284  24.868  28.482  1.00  0.00    -0.029 A 
ATOM     22  C   UNL A   1      43.584  23.663  28.578  1.00  0.00     0.005 A 
ATOM     23  C   UNL A   1      44.831  25.389  29.661  1.00  0.00     0.005 A 
ATOM     24  C   UNL A   1      43.389  23.003  29.787  1.00  0.00     0.000 A 
ATOM     25  C   UNL A   1      44.642  24.733  30.885  1.00  0.00     0.000 A 
ATOM     26  C   UNL A   1      43.917  23.544  30.948  1.00  0.00     0.000 A 
ENDBRANCH  20  21
ENDBRANCH  19  20
BRANCH  19  27
ATOM     27  C   UNL A   1      43.921  24.789  24.915  1.00  0.00     0.155 C 
BRANCH  27  28
ATOM     28  C   UNL A   1      44.449  23.365  25.018  1.00  0.00    -0.029 A 
ATOM     29  C   UNL A   1      45.773  23.064  24.666  1.00  0.00     0.005 A 
ATOM     30  C   UNL A   1      43.634  22.306  25.437  1.00  0.00     0.005 A 
ATOM     31  C   UNL A   1      46.222  21.740  24.632  1.00  0.00     0.000 A 
ATOM     32  C   UNL A   1      44.052  20.980  25.329  1.00  0.00     0.000 A 
ATOM     33  C   UNL A   1      45.346  20.695  24.918  1.00  0.00     0.000 A 
ENDBRANCH  27  28
ENDBRANCH  19  27
ENDBRANCH  13  17
ENDBRANCH   7   9
ENDBRANCH   6   7
ENDBRANCH   5   6
ENDBRANCH   4   5
ENDBRANCH   3   4
ENDBRANCH   2   3
ENDBRANCH   1   2
BRANCH   1  34
ATOM     34  O   UNL A   1      35.834  32.468  33.231  1.00  0.00    -0.377 OA
BRANCH  34  35
ATOM     35  C   UNL A   1      35.794  33.533  32.316  1.00  0.00     0.188 C 
BRANCH  35  36
ATOM     36  C   UNL A   1      34.393  34.155  32.179  1.00  0.00     0.188 C 
BRANCH  36  37
ATOM     37  O   UNL A   1      33.642  34.074  30.973  1.00  0.00    -0.376 OA
BRANCH  37  38
ATOM     38  C   UNL A   1      34.054  34.668  29.751  1.00  0.00     0.202 C 
BRANCH  38  39
ATOM     39  C   UNL A   1      33.982  33.963  28.388  1.00  0.00     0.261 C 
BRANCH  39  40
ATOM     40  O   UNL A   1      35.219  33.512  27.837  1.00  0.00    -0.460 OA
BRANCH  40  41
ATOM     41  C   UNL A   1      35.799  32.482  28.486  1.00  0.00     0.338 C 
ATOM     42  O   UNL A   1      35.418  31.322  28.533  1.00  0.00    -0.246 OA
BRANCH  41  43
ATOM     43  C   UNL A   1      37.116  32.919  28.983  1.00  0.00     0.060 A 
ATOM     44  C   UNL A   1      37.984  31.940  29.494  1.00  0.00     0.016 A 
ATOM     45  C   UNL A   1      37.508  34.258  28.926  1.00  0.00     0.016 A 
ATOM     46  C   UNL A   1      39.248  32.293  29.947  1.00  0.00     0.010 A 
ATOM     47  C   UNL A   1      38.748  34.625  29.450  1.00  0.00     0.010 A 
ATOM     48  C   UNL A   1      39.602  33.645  29.991  1.00  0.00    -0.014 A 
BRANCH  48  49
ATOM     49  C   UNL A   1      40.704  34.044  30.889  1.00  0.00     0.031 A 
ATOM     50  C   UNL A   1      42.052  34.254  30.258  1.00  0.00     0.074 A 
ATOM     51  C   UNL A   1      40.509  34.262  32.199  1.00  0.00     0.049 A 
ATOM     52  N   UNL A   1      43.197  34.544  30.816  1.00  0.00    -0.248 NA
ATOM     53  C   UNL A   1      42.113  34.118  28.792  1.00  0.00     0.031 C 
ATOM     54  C   UNL A   1      39.229  34.164  32.895  1.00  0.00     0.029 A 
ATOM     55  N   UNL A   1      41.404  34.606  33.179  1.00  0.00    -0.354 N 
ATOM     56  C   UNL A   1      44.108  34.618  29.772  1.00  0.00     0.074 A 
ATOM     57  C   UNL A   1      43.397  34.320  28.551  1.00  0.00     0.031 C 
ATOM     58  C   UNL A   1      39.427  34.420  34.201  1.00  0.00     0.029 A 
ATOM     59  C   UNL A   1      40.850  34.661  34.432  1.00  0.00     0.049 A 
ATOM     60  H   UNL A   1      42.354  34.796  33.000  1.00  0.00     0.167 HD
ATOM     61  C   UNL A   1      45.427  34.913  29.829  1.00  0.00     0.037 A 
ATOM     62  C   UNL A   1      41.444  34.850  35.627  1.00  0.00     0.037 A 
ATOM     63  C   UNL A   1      46.129  35.194  31.050  1.00  0.00     0.049 A 
ATOM     64  C   UNL A   1      42.936  35.076  35.674  1.00  0.00     0.074 A 
ATOM     65  C   UNL A   1      47.466  35.493  31.227  1.00  0.00     0.029 A 
ATOM     66  N   UNL A   1      45.543  35.201  32.308  1.00  0.00    -0.354 N 
ATOM     67  N   UNL A   1      43.798  35.148  34.688  1.00  0.00    -0.248 NA
ATOM     68  C   UNL A   1      43.539  35.247  37.004  1.00  0.00     0.031 C 
ATOM     69  C   UNL A   1      47.703  35.624  32.598  1.00  0.00     0.029 A 
ATOM     70  C   UNL A   1      46.498  35.477  33.270  1.00  0.00     0.049 A 
ATOM     71  H   UNL A   1      44.589  35.035  32.489  1.00  0.00     0.167 HD
ATOM     72  C   UNL A   1      45.031  35.414  35.272  1.00  0.00     0.074 A 
ATOM     73  C   UNL A   1      44.804  35.499  36.699  1.00  0.00     0.031 C 
ATOM     74  C   UNL A   1      46.242  35.579  34.683  1.00  0.00     0.037 A 
BRANCH  61  75
ATOM     75  C   UNL A   1      46.196  34.902  28.542  1.00  0.00     0.064 A 
ATOM     76  C   UNL A   1      46.835  33.745  28.071  1.00  0.00     0.173 A 
ATOM     77  C   UNL A   1      46.275  36.062  27.757  1.00  0.00     0.173 A 
ATOM     78  F   UNL A   1      46.811  32.616  28.796  1.00  0.00    -0.203 F 
ATOM     79  C   UNL A   1      47.539  33.756  26.870  1.00  0.00     0.198 A 
ATOM     80  C   UNL A   1      46.952  36.060  26.542  1.00  0.00     0.198 A 
ATOM     81  F   UNL A   1      45.687  37.196  28.165  1.00  0.00    -0.203 F 
ATOM     82  F   UNL A   1      48.180  32.652  26.461  1.00  0.00    -0.200 F 
ATOM     83  C   UNL A   1      47.588  34.909  26.101  1.00  0.00     0.200 A 
ATOM     84  F   UNL A   1      46.988  37.173  25.795  1.00  0.00    -0.200 F 
ATOM     85  F   UNL A   1      48.254  34.914  24.939  1.00  0.00    -0.200 F 
ENDBRANCH  61  75
BRANCH  62  86
ATOM     86  C   UNL A   1      40.644  34.807  36.880  1.00  0.00     0.064 A 
ATOM     87  C   UNL A   1      40.249  33.588  37.448  1.00  0.00     0.173 A 
ATOM     88  C   UNL A   1      40.215  35.985  37.510  1.00  0.00     0.173 A 
ATOM     89  F   UNL A   1      40.611  32.432  36.872  1.00  0.00    -0.203 F 
ATOM     90  C   UNL A   1      39.433  33.548  38.579  1.00  0.00     0.198 A 
ATOM     91  C   UNL A   1      39.427  35.945  38.659  1.00  0.00     0.198 A 
ATOM     92  F   UNL A   1      40.559  37.180  37.008  1.00  0.00    -0.203 F 
ATOM     93  F   UNL A   1      39.020  32.369  39.063  1.00  0.00    -0.200 F 
ATOM     94  C   UNL A   1      39.027  34.727  39.185  1.00  0.00     0.200 A 
ATOM     95  F   UNL A   1      39.047  37.087  39.249  1.00  0.00    -0.200 F 
ATOM     96  F   UNL A   1      38.239  34.689  40.268  1.00  0.00    -0.200 F 
ENDBRANCH  62  86
BRANCH  74  97
ATOM     97  C   UNL A   1      47.404  35.933  35.568  1.00  0.00     0.064 A 
ATOM     98  C   UNL A   1      48.276  34.958  36.073  1.00  0.00     0.173 A 
ATOM     99  C   UNL A   1      47.680  37.277  35.862  1.00  0.00     0.173 A 
ATOM    100  F   UNL A   1      48.051  33.658  35.831  1.00  0.00    -0.203 F 
ATOM    101  C   UNL A   1      49.365  35.315  36.865  1.00  0.00     0.198 A 
ATOM    102  C   UNL A   1      48.790  37.633  36.621  1.00  0.00     0.198 A 
ATOM    103  F   UNL A   1      46.884  38.250  35.392  1.00  0.00    -0.203 F 
ATOM    104  F   UNL A   1      50.157  34.364  37.379  1.00  0.00    -0.200 F 
ATOM    105  C   UNL A   1      49.627  36.652  37.129  1.00  0.00     0.200 A 
ATOM    106  F   UNL A   1      49.052  38.926  36.858  1.00  0.00    -0.200 F 
ATOM    107  F   UNL A   1      50.684  36.994  37.879  1.00  0.00    -0.200 F 
ENDBRANCH  74  97
ENDBRANCH  48  49
ENDBRANCH  41  43
ENDBRANCH  40  41
ENDBRANCH  39  40
ENDBRANCH  38  39
ENDBRANCH  37  38
ENDBRANCH  36  37
ENDBRANCH  35  36
ENDBRANCH  34  35
ENDBRANCH   1  34
TORSDOF 25
ENDMDL
MODEL 3
REMARK VINA RESULT:      -9.7      6.160     12.040
REMARK SMILES CC1(C)[C@H](C(=O)N(Cc2ccccc2)Cc2ccccc2)CC[C@@]1(C)C(=O)OCCOCCOCCOCCOC(=O)c1ccc(-c2c3nc(c(-c4c(F)c(F)c(F)c(F)c4F)c4ccc([nH]4)c(-c4c(F)c(F)c(F)c(F)c4F)c4nc(c(-c5c(F)c(F)c(F)c(F)c5F)c5ccc2[nH]5)C=C4)C=C3)cc1
REMARK SMILES IDX 33 1 32 2 31 3 30 4 29 5 28 6 26 7 27 8 24 9 1 10 2 11 3 12
REMARK SMILES IDX 4 13 22 14 23 15 25 16 5 17 6 18 7 19 8 20 9 21 10 22 14 23
REMARK SMILES IDX 11 24 13 25 12 26 15 27 16 28 17 29 21 30 18 31 20 32 19 33
REMARK SMILES IDX 34 34 35 35 36 36 37 37 38 38 39 39 40 40 41 41 42 42 43 43
REMARK SMILES IDX 44 44 105 45 45 46 104 47 46 48 47 49 48 50 98 51 49 52
REMARK SMILES IDX 103 53 97 54 99 55 50 56 102 57 96 58 95 59 51 61 83 62
REMARK SMILES IDX 63 63 82 64 64 65 67 66 81 67 100 68 65 69 66 70 80 72
REMARK SMILES IDX 101 73 68 74 52 75 53 76 61 77 54 78 55 79 59 80 62 81 56 82
REMARK SMILES IDX 57 83 60 84 58 85 84 86 85 87 93 88 86 89 87 90 91 91 94 92
REMARK SMILES IDX 88 93 89 94 92 95 90 96 69 97 70 98 78 99 71 100 72 101
REMARK SMILES IDX 76 102 79 103 73 104 74 105 77 106 75 107
REMARK H PARENT 99 60 67 71
REMARK Flexibility Score: inf
ROOT
ATOM      1  C   UNL A   1      39.155  31.846  34.570  1.00  0.00     0.188 C 
ENDROOT
BRANCH   1   2
ATOM      2  C   UNL A   1      40.392  30.899  34.608  1.00  0.00     0.188 C 
BRANCH   2   3
ATOM      3  O   UNL A   1      40.179  29.628  34.007  1.00  0.00    -0.376 OA
BRANCH   3   4
ATOM      4  C   UNL A   1      40.984  28.543  34.452  1.00  0.00     0.202 C 
BRANCH   4   5
ATOM      5  C   UNL A   1      42.355  28.398  33.772  1.00  0.00     0.261 C 
BRANCH   5   6
ATOM      6  O   UNL A   1      43.066  27.195  34.125  1.00  0.00    -0.463 OA
BRANCH   6   7
ATOM      7  C   UNL A   1      43.601  27.168  35.372  1.00  0.00     0.312 C 
ATOM      8  O   UNL A   1      43.852  28.202  35.968  1.00  0.00    -0.252 OA
BRANCH   7   9
ATOM      9  C   UNL A   1      43.870  25.721  35.870  1.00  0.00     0.071 C 
ATOM     10  C   UNL A   1      46.401  26.314  35.095  1.00  0.00     0.013 C 
ATOM     11  C   UNL A   1      45.379  25.252  35.578  1.00  0.00    -0.008 C 
ATOM     12  C   UNL A   1      45.330  24.226  34.466  1.00  0.00     0.013 C 
ATOM     13  C   UNL A   1      45.918  24.782  36.971  1.00  0.00     0.085 C 
ATOM     14  C   UNL A   1      44.711  24.347  37.767  1.00  0.00     0.015 C 
ATOM     15  C   UNL A   1      43.728  25.450  37.396  1.00  0.00     0.020 C 
ATOM     16  C   UNL A   1      42.739  24.870  35.217  1.00  0.00     0.024 C 
BRANCH  13  17
ATOM     17  C   UNL A   1      47.258  24.050  37.199  1.00  0.00     0.226 C 
ATOM     18  O   UNL A   1      48.125  24.697  37.809  1.00  0.00    -0.275 OA
ATOM     19  N   UNL A   1      47.526  22.749  36.801  1.00  0.00    -0.334 N 
BRANCH  19  20
ATOM     20  C   UNL A   1      46.499  21.708  36.683  1.00  0.00     0.155 C 
BRANCH  20  21
ATOM     21  C   UNL A   1      46.331  20.765  37.856  1.00  0.00    -0.029 A 
ATOM     22  C   UNL A   1      46.339  21.210  39.180  1.00  0.00     0.005 A 
ATOM     23  C   UNL A   1      46.336  19.381  37.642  1.00  0.00     0.005 A 
ATOM     24  C   UNL A   1      46.388  20.338  40.263  1.00  0.00     0.000 A 
ATOM     25  C   UNL A   1      46.384  18.494  38.725  1.00  0.00     0.000 A 
ATOM     26  C   UNL A   1      46.417  18.973  40.034  1.00  0.00     0.000 A 
ENDBRANCH  20  21
ENDBRANCH  19  20
BRANCH  19  27
ATOM     27  C   UNL A   1      48.918  22.265  36.975  1.00  0.00     0.155 C 
BRANCH  27  28
ATOM     28  C   UNL A   1      49.560  21.676  35.727  1.00  0.00    -0.029 A 
ATOM     29  C   UNL A   1      49.818  20.301  35.634  1.00  0.00     0.005 A 
ATOM     30  C   UNL A   1      49.938  22.479  34.644  1.00  0.00     0.005 A 
ATOM     31  C   UNL A   1      50.526  19.775  34.549  1.00  0.00     0.000 A 
ATOM     32  C   UNL A   1      50.712  21.975  33.599  1.00  0.00     0.000 A 
ATOM     33  C   UNL A   1      51.014  20.621  33.555  1.00  0.00     0.000 A 
ENDBRANCH  27  28
ENDBRANCH  19  27
ENDBRANCH  13  17
ENDBRANCH   7   9
ENDBRANCH   6   7
ENDBRANCH   5   6
ENDBRANCH   4   5
ENDBRANCH   3   4
ENDBRANCH   2   3
ENDBRANCH   1   2
BRANCH   1  34
ATOM     34  O   UNL A   1      39.151  32.955  33.692  1.00  0.00    -0.377 OA
BRANCH  34  35
ATOM     35  C   UNL A   1      38.064  32.994  32.804  1.00  0.00     0.188 C 
BRANCH  35  36
ATOM     36  C   UNL A   1      37.575  34.424  32.516  1.00  0.00     0.188 C 
BRANCH  36  37
ATOM     37  O   UNL A   1      36.204  34.723  32.280  1.00  0.00    -0.376 OA
BRANCH  37  38
ATOM     38  C   UNL A   1      35.230  33.740  31.962  1.00  0.00     0.202 C 
BRANCH  38  39
ATOM     39  C   UNL A   1      34.989  33.198  30.545  1.00  0.00     0.261 C 
BRANCH  39  40
ATOM     40  O   UNL A   1      34.861  31.782  30.417  1.00  0.00    -0.460 OA
BRANCH  40  41
ATOM     41  C   UNL A   1      35.037  31.296  29.171  1.00  0.00     0.338 C 
ATOM     42  O   UNL A   1      34.385  31.557  28.171  1.00  0.00    -0.246 OA
BRANCH  41  43
ATOM     43  C   UNL A   1      36.299  30.536  29.135  1.00  0.00     0.060 A 
ATOM     44  C   UNL A   1      36.668  29.819  30.286  1.00  0.00     0.016 A 
ATOM     45  C   UNL A   1      37.095  30.501  27.989  1.00  0.00     0.016 A 
ATOM     46  C   UNL A   1      37.832  29.063  30.295  1.00  0.00     0.010 A 
ATOM     47  C   UNL A   1      38.302  29.802  28.023  1.00  0.00     0.010 A 
ATOM     48  C   UNL A   1      38.685  29.112  29.188  1.00  0.00    -0.014 A 
BRANCH  48  49
ATOM     49  C   UNL A   1      40.094  28.718  29.381  1.00  0.00     0.031 A 
ATOM     50  C   UNL A   1      40.975  29.686  30.120  1.00  0.00     0.074 A 
ATOM     51  C   UNL A   1      40.564  27.531  28.965  1.00  0.00     0.049 A 
ATOM     52  N   UNL A   1      42.255  29.623  30.374  1.00  0.00    -0.248 NA
ATOM     53  C   UNL A   1      40.316  30.895  30.648  1.00  0.00     0.031 C 
ATOM     54  C   UNL A   1      39.777  26.490  28.310  1.00  0.00     0.029 A 
ATOM     55  N   UNL A   1      41.831  27.011  29.032  1.00  0.00    -0.354 N 
ATOM     56  C   UNL A   1      42.550  30.780  31.081  1.00  0.00     0.074 A 
ATOM     57  C   UNL A   1      41.329  31.542  31.198  1.00  0.00     0.031 C 
ATOM     58  C   UNL A   1      40.590  25.459  28.011  1.00  0.00     0.029 A 
ATOM     59  C   UNL A   1      41.954  25.789  28.421  1.00  0.00     0.049 A 
ATOM     60  H   UNL A   1      42.581  27.472  29.474  1.00  0.00     0.167 HD
ATOM     61  C   UNL A   1      43.740  31.171  31.592  1.00  0.00     0.037 A 
ATOM     62  C   UNL A   1      43.056  25.048  28.196  1.00  0.00     0.037 A 
ATOM     63  C   UNL A   1      44.952  30.412  31.458  1.00  0.00     0.049 A 
ATOM     64  C   UNL A   1      44.391  25.555  28.686  1.00  0.00     0.074 A 
ATOM     65  C   UNL A   1      46.216  30.718  31.924  1.00  0.00     0.029 A 
ATOM     66  N   UNL A   1      45.048  29.196  30.798  1.00  0.00    -0.354 N 
ATOM     67  N   UNL A   1      44.671  26.648  29.357  1.00  0.00    -0.248 NA
ATOM     68  C   UNL A   1      45.567  24.724  28.389  1.00  0.00     0.031 C 
ATOM     69  C   UNL A   1      47.090  29.715  31.496  1.00  0.00     0.029 A 
ATOM     70  C   UNL A   1      46.357  28.749  30.824  1.00  0.00     0.049 A 
ATOM     71  H   UNL A   1      44.296  28.721  30.374  1.00  0.00     0.167 HD
ATOM     72  C   UNL A   1      46.039  26.614  29.597  1.00  0.00     0.074 A 
ATOM     73  C   UNL A   1      46.533  25.388  29.006  1.00  0.00     0.031 C 
ATOM     74  C   UNL A   1      46.819  27.512  30.249  1.00  0.00     0.037 A 
BRANCH  61  75
ATOM     75  C   UNL A   1      43.790  32.491  32.300  1.00  0.00     0.064 A 
ATOM     76  C   UNL A   1      43.903  33.702  31.601  1.00  0.00     0.173 A 
ATOM     77  C   UNL A   1      43.700  32.546  33.699  1.00  0.00     0.173 A 
ATOM     78  F   UNL A   1      44.017  33.703  30.264  1.00  0.00    -0.203 F 
ATOM     79  C   UNL A   1      43.941  34.918  32.278  1.00  0.00     0.198 A 
ATOM     80  C   UNL A   1      43.706  33.764  34.370  1.00  0.00     0.198 A 
ATOM     81  F   UNL A   1      43.597  31.416  34.415  1.00  0.00    -0.203 F 
ATOM     82  F   UNL A   1      44.096  36.060  31.594  1.00  0.00    -0.200 F 
ATOM     83  C   UNL A   1      43.832  34.949  33.661  1.00  0.00     0.200 A 
ATOM     84  F   UNL A   1      43.589  33.792  35.705  1.00  0.00    -0.200 F 
ATOM     85  F   UNL A   1      43.856  36.121  34.310  1.00  0.00    -0.200 F 
ENDBRANCH  61  75
BRANCH  62  86
ATOM     86  C   UNL A   1      42.961  23.765  27.448  1.00  0.00     0.064 A 
ATOM     87  C   UNL A   1      43.274  23.695  26.083  1.00  0.00     0.173 A 
ATOM     88  C   UNL A   1      42.508  22.592  28.072  1.00  0.00     0.173 A 
ATOM     89  F   UNL A   1      43.688  24.793  25.434  1.00  0.00    -0.203 F 
ATOM     90  C   UNL A   1      43.109  22.511  25.365  1.00  0.00     0.198 A 
ATOM     91  C   UNL A   1      42.376  21.402  27.360  1.00  0.00     0.198 A 
ATOM     92  F   UNL A   1      42.190  22.602  29.374  1.00  0.00    -0.203 F 
ATOM     93  F   UNL A   1      43.356  22.490  24.049  1.00  0.00    -0.200 F 
ATOM     94  C   UNL A   1      42.665  21.365  26.005  1.00  0.00     0.200 A 
ATOM     95  F   UNL A   1      41.958  20.292  27.987  1.00  0.00    -0.200 F 
ATOM     96  F   UNL A   1      42.502  20.229  25.314  1.00  0.00    -0.200 F 
ENDBRANCH  62  86
BRANCH  74  97
ATOM     97  C   UNL A   1      48.273  27.176  30.421  1.00  0.00     0.064 A 
ATOM     98  C   UNL A   1      48.727  26.349  31.459  1.00  0.00     0.173 A 
ATOM     99  C   UNL A   1      49.217  27.641  29.493  1.00  0.00     0.173 A 
ATOM    100  F   UNL A   1      47.867  25.886  32.379  1.00  0.00    -0.203 F 
ATOM    101  C   UNL A   1      50.076  26.026  31.578  1.00  0.00     0.198 A 
ATOM    102  C   UNL A   1      50.558  27.286  29.592  1.00  0.00     0.198 A 
ATOM    103  F   UNL A   1      48.834  28.425  28.474  1.00  0.00    -0.203 F 
ATOM    104  F   UNL A   1      50.495  25.275  32.605  1.00  0.00    -0.200 F 
ATOM    105  C   UNL A   1      50.988  26.486  30.639  1.00  0.00     0.200 A 
ATOM    106  F   UNL A   1      51.434  27.715  28.673  1.00  0.00    -0.200 F 
ATOM    107  F   UNL A   1      52.285  26.162  30.747  1.00  0.00    -0.200 F 
ENDBRANCH  74  97
ENDBRANCH  48  49
ENDBRANCH  41  43
ENDBRANCH  40  41
ENDBRANCH  39  40
ENDBRANCH  38  39
ENDBRANCH  37  38
ENDBRANCH  36  37
ENDBRANCH  35  36
ENDBRANCH  34  35
ENDBRANCH   1  34
TORSDOF 25
ENDMDL
