MODEL 1
REMARK VINA RESULT:     -10.9      0.000      0.000
REMARK SMILES Cc1ccc(S(=O)(=O)N[C@@H](Cc2cccc(F)c2)C(=O)OCCOCCOCCOCCOC(=O)c2ccc(-c3c4nc(c(-c5c(F)c(F)c(F)c(F)c5F)c5ccc([nH]5)c(-c5c(F)c(F)c(F)c(F)c5F)c5nc(c(-c6c(F)c(F)c(F)c(F)c6F)c6ccc3[nH]6)C=C5)C=C4)cc2)cc1
REMARK SMILES IDX 26 1 25 2 24 3 23 4 22 5 21 6 19 7 20 8 10 9 9 10 6 12 7 13
REMARK SMILES IDX 8 14 5 15 1 16 2 17 3 18 100 19 4 20 99 21 11 22 12 23 13 24
REMARK SMILES IDX 18 25 14 26 16 27 15 28 17 29 27 30 28 31 29 32 30 33 31 34
REMARK SMILES IDX 32 35 33 36 34 37 35 38 36 39 37 40 98 41 38 42 97 43 39 44
REMARK SMILES IDX 40 45 41 46 91 47 42 48 96 49 90 50 92 51 43 52 95 53 89 54
REMARK SMILES IDX 88 55 44 57 76 58 56 59 75 60 57 61 60 62 74 63 93 64 58 65
REMARK SMILES IDX 59 66 73 68 94 69 61 70 45 71 46 72 54 73 47 74 48 75 52 76
REMARK SMILES IDX 55 77 49 78 50 79 53 80 51 81 77 82 78 83 86 84 79 85 80 86
REMARK SMILES IDX 84 87 87 88 81 89 82 90 85 91 83 92 62 93 63 94 71 95 64 96
REMARK SMILES IDX 65 97 69 98 72 99 66 100 67 101 70 102 68 103
REMARK H PARENT 9 11 92 56 60 67
REMARK Flexibility Score: inf
ROOT
ATOM      1  C   UNL A   1      32.151  27.445  24.821  1.00  0.00     0.188 C 
ENDROOT
BRANCH   1   2
ATOM      2  C   UNL A   1      32.302  26.492  23.616  1.00  0.00     0.188 C 
BRANCH   2   3
ATOM      3  O   UNL A   1      31.199  25.734  23.173  1.00  0.00    -0.376 OA
BRANCH   3   4
ATOM      4  C   UNL A   1      30.622  24.922  24.192  1.00  0.00     0.202 C 
BRANCH   4   5
ATOM      5  C   UNL A   1      31.174  23.495  24.353  1.00  0.00     0.261 C 
BRANCH   5   6
ATOM      6  O   UNL A   1      30.816  22.928  25.643  1.00  0.00    -0.462 OA
BRANCH   6   7
ATOM      7  C   UNL A   1      31.860  22.619  26.474  1.00  0.00     0.324 C 
ATOM      8  O   UNL A   1      31.907  22.940  27.656  1.00  0.00    -0.250 OA
BRANCH   7   9
ATOM      9  C   UNL A   1      32.942  21.780  25.775  1.00  0.00     0.184 C 
BRANCH   9  10
ATOM     10  N   UNL A   1      34.320  22.309  25.972  1.00  0.00    -0.197 NA
ATOM     11  H   UNL A   1      34.265  22.995  26.726  1.00  0.00     0.142 HD
BRANCH  10  12
ATOM     12  S   UNL A   1      35.132  23.053  24.695  1.00  0.00     0.241 S 
ATOM     13  O   UNL A   1      34.741  24.456  24.715  1.00  0.00    -0.207 OA
ATOM     14  O   UNL A   1      34.967  22.236  23.529  1.00  0.00    -0.207 OA
BRANCH  12  15
ATOM     15  C   UNL A   1      36.848  22.979  25.191  1.00  0.00     0.082 A 
ATOM     16  C   UNL A   1      40.469  22.182  27.357  1.00  0.00     0.044 C 
ATOM     17  C   UNL A   1      39.242  22.486  26.552  1.00  0.00    -0.051 A 
ATOM     18  C   UNL A   1      38.619  23.743  26.623  1.00  0.00     0.005 A 
ATOM     19  C   UNL A   1      38.709  21.513  25.715  1.00  0.00     0.005 A 
ATOM     20  C   UNL A   1      37.411  23.988  25.959  1.00  0.00     0.022 A 
ATOM     21  C   UNL A   1      37.540  21.785  25.021  1.00  0.00     0.022 A 
ENDBRANCH  12  15
ENDBRANCH  10  12
ENDBRANCH   9  10
BRANCH   9  22
ATOM     22  C   UNL A   1      32.906  20.238  25.898  1.00  0.00     0.067 C 
BRANCH  22  23
ATOM     23  C   UNL A   1      33.275  19.304  24.782  1.00  0.00    -0.043 A 
ATOM     24  C   UNL A   1      34.321  18.370  24.958  1.00  0.00     0.004 A 
ATOM     25  C   UNL A   1      32.576  19.248  23.606  1.00  0.00     0.043 A 
ATOM     26  C   UNL A   1      34.603  17.373  24.008  1.00  0.00     0.003 A 
ATOM     27  C   UNL A   1      32.779  18.165  22.777  1.00  0.00     0.123 A 
ATOM     28  C   UNL A   1      33.789  17.246  22.909  1.00  0.00     0.039 A 
ATOM     29  F   UNL A   1      31.840  17.930  21.888  1.00  0.00    -0.207 F 
ENDBRANCH  22  23
ENDBRANCH   9  22
ENDBRANCH   7   9
ENDBRANCH   6   7
ENDBRANCH   5   6
ENDBRANCH   4   5
ENDBRANCH   3   4
ENDBRANCH   2   3
ENDBRANCH   1   2
BRANCH   1  30
ATOM     30  O   UNL A   1      31.370  28.632  24.673  1.00  0.00    -0.377 OA
BRANCH  30  31
ATOM     31  C   UNL A   1      31.720  29.546  25.714  1.00  0.00     0.188 C 
BRANCH  31  32
ATOM     32  C   UNL A   1      32.325  28.848  26.925  1.00  0.00     0.188 C 
BRANCH  32  33
ATOM     33  O   UNL A   1      33.507  29.471  27.411  1.00  0.00    -0.376 OA
BRANCH  33  34
ATOM     34  C   UNL A   1      33.462  30.882  27.587  1.00  0.00     0.202 C 
BRANCH  34  35
ATOM     35  C   UNL A   1      34.843  31.551  27.606  1.00  0.00     0.261 C 
BRANCH  35  36
ATOM     36  O   UNL A   1      34.679  32.987  27.646  1.00  0.00    -0.460 OA
BRANCH  36  37
ATOM     37  C   UNL A   1      34.356  33.520  28.860  1.00  0.00     0.338 C 
ATOM     38  O   UNL A   1      33.303  34.081  29.121  1.00  0.00    -0.246 OA
BRANCH  37  39
ATOM     39  C   UNL A   1      35.588  33.640  29.713  1.00  0.00     0.060 A 
ATOM     40  C   UNL A   1      36.814  34.015  29.126  1.00  0.00     0.016 A 
ATOM     41  C   UNL A   1      35.604  32.946  30.916  1.00  0.00     0.016 A 
ATOM     42  C   UNL A   1      38.036  33.520  29.638  1.00  0.00     0.010 A 
ATOM     43  C   UNL A   1      36.791  32.363  31.325  1.00  0.00     0.010 A 
ATOM     44  C   UNL A   1      38.025  32.608  30.692  1.00  0.00    -0.014 A 
BRANCH  44  45
ATOM     45  C   UNL A   1      39.163  31.775  31.175  1.00  0.00     0.031 A 
ATOM     46  C   UNL A   1      39.423  30.465  30.497  1.00  0.00     0.074 A 
ATOM     47  C   UNL A   1      40.173  32.339  31.891  1.00  0.00     0.049 A 
ATOM     48  N   UNL A   1      40.504  29.776  30.614  1.00  0.00    -0.248 NA
ATOM     49  C   UNL A   1      38.514  29.869  29.525  1.00  0.00     0.031 C 
ATOM     50  C   UNL A   1      41.597  31.947  31.926  1.00  0.00     0.029 A 
ATOM     51  N   UNL A   1      40.181  33.517  32.650  1.00  0.00    -0.354 N 
ATOM     52  C   UNL A   1      40.561  28.823  29.620  1.00  0.00     0.074 A 
ATOM     53  C   UNL A   1      39.302  28.963  28.933  1.00  0.00     0.031 C 
ATOM     54  C   UNL A   1      42.273  32.756  32.749  1.00  0.00     0.029 A 
ATOM     55  C   UNL A   1      41.301  33.452  33.513  1.00  0.00     0.049 A 
ATOM     56  H   UNL A   1      39.528  34.253  32.594  1.00  0.00     0.167 HD
ATOM     57  C   UNL A   1      41.719  28.105  29.487  1.00  0.00     0.037 A 
ATOM     58  C   UNL A   1      41.152  33.225  34.847  1.00  0.00     0.037 A 
ATOM     59  C   UNL A   1      42.566  28.247  30.693  1.00  0.00     0.049 A 
ATOM     60  C   UNL A   1      41.470  31.759  35.232  1.00  0.00     0.074 A 
ATOM     61  C   UNL A   1      43.893  28.540  30.937  1.00  0.00     0.029 A 
ATOM     62  N   UNL A   1      41.961  28.232  31.971  1.00  0.00    -0.354 N 
ATOM     63  N   UNL A   1      41.475  30.720  34.413  1.00  0.00    -0.248 NA
ATOM     64  C   UNL A   1      41.901  31.377  36.573  1.00  0.00     0.031 C 
ATOM     65  C   UNL A   1      44.107  28.453  32.326  1.00  0.00     0.029 A 
ATOM     66  C   UNL A   1      42.873  28.487  32.968  1.00  0.00     0.049 A 
ATOM     67  H   UNL A   1      41.005  28.060  32.128  1.00  0.00     0.167 HD
ATOM     68  C   UNL A   1      42.045  29.618  35.035  1.00  0.00     0.074 A 
ATOM     69  C   UNL A   1      42.147  30.060  36.426  1.00  0.00     0.031 C 
ATOM     70  C   UNL A   1      42.559  28.488  34.410  1.00  0.00     0.037 A 
BRANCH  57  71
ATOM     71  C   UNL A   1      42.161  27.312  28.238  1.00  0.00     0.064 A 
ATOM     72  C   UNL A   1      42.187  27.890  26.940  1.00  0.00     0.173 A 
ATOM     73  C   UNL A   1      42.565  25.961  28.235  1.00  0.00     0.173 A 
ATOM     74  F   UNL A   1      41.865  29.163  26.714  1.00  0.00    -0.203 F 
ATOM     75  C   UNL A   1      42.544  27.196  25.775  1.00  0.00     0.198 A 
ATOM     76  C   UNL A   1      42.906  25.255  27.065  1.00  0.00     0.198 A 
ATOM     77  F   UNL A   1      42.702  25.267  29.366  1.00  0.00    -0.203 F 
ATOM     78  F   UNL A   1      42.536  27.834  24.594  1.00  0.00    -0.200 F 
ATOM     79  C   UNL A   1      42.899  25.873  25.835  1.00  0.00     0.200 A 
ATOM     80  F   UNL A   1      43.256  23.964  27.150  1.00  0.00    -0.200 F 
ATOM     81  F   UNL A   1      43.246  25.208  24.725  1.00  0.00    -0.200 F 
ENDBRANCH  57  71
BRANCH  58  82
ATOM     82  C   UNL A   1      40.194  34.262  35.365  1.00  0.00     0.064 A 
ATOM     83  C   UNL A   1      38.975  33.724  35.873  1.00  0.00     0.173 A 
ATOM     84  C   UNL A   1      40.713  35.375  36.037  1.00  0.00     0.173 A 
ATOM     85  F   UNL A   1      38.395  32.681  35.252  1.00  0.00    -0.203 F 
ATOM     86  C   UNL A   1      38.511  34.059  37.148  1.00  0.00     0.198 A 
ATOM     87  C   UNL A   1      40.215  35.734  37.298  1.00  0.00     0.198 A 
ATOM     88  F   UNL A   1      41.822  35.972  35.582  1.00  0.00    -0.203 F 
ATOM     89  F   UNL A   1      37.528  33.346  37.719  1.00  0.00    -0.200 F 
ATOM     90  C   UNL A   1      39.174  35.025  37.883  1.00  0.00     0.200 A 
ATOM     91  F   UNL A   1      40.837  36.685  38.011  1.00  0.00    -0.200 F 
ATOM     92  F   UNL A   1      38.858  35.220  39.172  1.00  0.00    -0.200 F 
ENDBRANCH  58  82
BRANCH  70  93
ATOM     93  C   UNL A   1      43.114  27.254  35.093  1.00  0.00     0.064 A 
ATOM     94  C   UNL A   1      44.409  27.107  35.595  1.00  0.00     0.173 A 
ATOM     95  C   UNL A   1      42.323  26.072  35.083  1.00  0.00     0.173 A 
ATOM     96  F   UNL A   1      45.330  28.067  35.450  1.00  0.00    -0.203 F 
ATOM     97  C   UNL A   1      44.827  25.913  36.192  1.00  0.00     0.198 A 
ATOM     98  C   UNL A   1      42.786  24.855  35.568  1.00  0.00     0.198 A 
ATOM     99  F   UNL A   1      41.080  26.065  34.574  1.00  0.00    -0.203 F 
ATOM    100  F   UNL A   1      46.037  25.850  36.764  1.00  0.00    -0.200 F 
ATOM    101  C   UNL A   1      44.021  24.788  36.171  1.00  0.00     0.200 A 
ATOM    102  F   UNL A   1      42.030  23.755  35.444  1.00  0.00    -0.200 F 
ATOM    103  F   UNL A   1      44.444  23.638  36.712  1.00  0.00    -0.200 F 
ENDBRANCH  70  93
ENDBRANCH  44  45
ENDBRANCH  37  39
ENDBRANCH  36  37
ENDBRANCH  35  36
ENDBRANCH  34  35
ENDBRANCH  33  34
ENDBRANCH  32  33
ENDBRANCH  31  32
ENDBRANCH  30  31
ENDBRANCH   1  30
TORSDOF 25
ENDMDL
MODEL 2
REMARK VINA RESULT:     -10.2      2.014      7.422
REMARK SMILES Cc1ccc(S(=O)(=O)N[C@@H](Cc2cccc(F)c2)C(=O)OCCOCCOCCOCCOC(=O)c2ccc(-c3c4nc(c(-c5c(F)c(F)c(F)c(F)c5F)c5ccc([nH]5)c(-c5c(F)c(F)c(F)c(F)c5F)c5nc(c(-c6c(F)c(F)c(F)c(F)c6F)c6ccc3[nH]6)C=C5)C=C4)cc2)cc1
REMARK SMILES IDX 26 1 25 2 24 3 23 4 22 5 21 6 19 7 20 8 10 9 9 10 6 12 7 13
REMARK SMILES IDX 8 14 5 15 1 16 2 17 3 18 100 19 4 20 99 21 11 22 12 23 13 24
REMARK SMILES IDX 18 25 14 26 16 27 15 28 17 29 27 30 28 31 29 32 30 33 31 34
REMARK SMILES IDX 32 35 33 36 34 37 35 38 36 39 37 40 98 41 38 42 97 43 39 44
REMARK SMILES IDX 40 45 41 46 91 47 42 48 96 49 90 50 92 51 43 52 95 53 89 54
REMARK SMILES IDX 88 55 44 57 76 58 56 59 75 60 57 61 60 62 74 63 93 64 58 65
REMARK SMILES IDX 59 66 73 68 94 69 61 70 45 71 46 72 54 73 47 74 48 75 52 76
REMARK SMILES IDX 55 77 49 78 50 79 53 80 51 81 77 82 78 83 86 84 79 85 80 86
REMARK SMILES IDX 84 87 87 88 81 89 82 90 85 91 83 92 62 93 63 94 71 95 64 96
REMARK SMILES IDX 65 97 69 98 72 99 66 100 67 101 70 102 68 103
REMARK H PARENT 9 11 92 56 60 67
REMARK Flexibility Score: inf
ROOT
ATOM      1  C   UNL A   1      33.618  25.830  23.436  1.00  0.00     0.188 C 
ENDROOT
BRANCH   1   2
ATOM      2  C   UNL A   1      32.725  25.245  22.321  1.00  0.00     0.188 C 
BRANCH   2   3
ATOM      3  O   UNL A   1      31.322  25.318  22.429  1.00  0.00    -0.376 OA
BRANCH   3   4
ATOM      4  C   UNL A   1      30.803  24.631  23.564  1.00  0.00     0.202 C 
BRANCH   4   5
ATOM      5  C   UNL A   1      31.282  23.187  23.794  1.00  0.00     0.261 C 
BRANCH   5   6
ATOM      6  O   UNL A   1      31.031  22.753  25.158  1.00  0.00    -0.462 OA
BRANCH   6   7
ATOM      7  C   UNL A   1      32.086  22.855  26.026  1.00  0.00     0.324 C 
ATOM      8  O   UNL A   1      32.058  23.519  27.055  1.00  0.00    -0.250 OA
BRANCH   7   9
ATOM      9  C   UNL A   1      33.290  22.003  25.593  1.00  0.00     0.184 C 
BRANCH   9  10
ATOM     10  N   UNL A   1      34.602  22.611  25.950  1.00  0.00    -0.197 NA
ATOM     11  H   UNL A   1      34.406  23.552  26.289  1.00  0.00     0.142 HD
BRANCH  10  12
ATOM     12  S   UNL A   1      35.813  22.754  24.785  1.00  0.00     0.241 S 
ATOM     13  O   UNL A   1      36.310  24.121  24.869  1.00  0.00    -0.207 OA
ATOM     14  O   UNL A   1      35.317  22.201  23.559  1.00  0.00    -0.207 OA
BRANCH  12  15
ATOM     15  C   UNL A   1      37.110  21.686  25.396  1.00  0.00     0.082 A 
ATOM     16  C   UNL A   1      40.819  19.571  25.849  1.00  0.00     0.044 C 
ATOM     17  C   UNL A   1      39.505  20.284  25.749  1.00  0.00    -0.051 A 
ATOM     18  C   UNL A   1      38.377  19.655  25.198  1.00  0.00     0.005 A 
ATOM     19  C   UNL A   1      39.392  21.589  26.213  1.00  0.00     0.005 A 
ATOM     20  C   UNL A   1      37.182  20.357  25.001  1.00  0.00     0.022 A 
ATOM     21  C   UNL A   1      38.188  22.259  26.061  1.00  0.00     0.022 A 
ENDBRANCH  12  15
ENDBRANCH  10  12
ENDBRANCH   9  10
BRANCH   9  22
ATOM     22  C   UNL A   1      33.279  20.480  25.863  1.00  0.00     0.067 C 
BRANCH  22  23
ATOM     23  C   UNL A   1      33.049  19.446  24.799  1.00  0.00    -0.043 A 
ATOM     24  C   UNL A   1      32.362  19.793  23.613  1.00  0.00     0.004 A 
ATOM     25  C   UNL A   1      33.557  18.177  24.881  1.00  0.00     0.043 A 
ATOM     26  C   UNL A   1      32.256  18.910  22.524  1.00  0.00     0.003 A 
ATOM     27  C   UNL A   1      33.569  17.404  23.740  1.00  0.00     0.123 A 
ATOM     28  C   UNL A   1      32.906  17.701  22.576  1.00  0.00     0.039 A 
ATOM     29  F   UNL A   1      34.398  16.385  23.737  1.00  0.00    -0.207 F 
ENDBRANCH  22  23
ENDBRANCH   9  22
ENDBRANCH   7   9
ENDBRANCH   6   7
ENDBRANCH   5   6
ENDBRANCH   4   5
ENDBRANCH   3   4
ENDBRANCH   2   3
ENDBRANCH   1   2
BRANCH   1  30
ATOM     30  O   UNL A   1      33.747  27.247  23.549  1.00  0.00    -0.377 OA
BRANCH  30  31
ATOM     31  C   UNL A   1      32.752  27.730  24.454  1.00  0.00     0.188 C 
BRANCH  31  32
ATOM     32  C   UNL A   1      32.873  27.109  25.840  1.00  0.00     0.188 C 
BRANCH  32  33
ATOM     33  O   UNL A   1      33.049  28.064  26.879  1.00  0.00    -0.376 OA
BRANCH  33  34
ATOM     34  C   UNL A   1      33.647  29.303  26.517  1.00  0.00     0.202 C 
BRANCH  34  35
ATOM     35  C   UNL A   1      33.018  30.522  27.205  1.00  0.00     0.261 C 
BRANCH  35  36
ATOM     36  O   UNL A   1      34.023  31.198  27.994  1.00  0.00    -0.460 OA
BRANCH  36  37
ATOM     37  C   UNL A   1      33.799  32.520  28.247  1.00  0.00     0.338 C 
ATOM     38  O   UNL A   1      33.023  33.230  27.628  1.00  0.00    -0.246 OA
BRANCH  37  39
ATOM     39  C   UNL A   1      34.880  33.063  29.141  1.00  0.00     0.060 A 
ATOM     40  C   UNL A   1      36.172  33.286  28.623  1.00  0.00     0.016 A 
ATOM     41  C   UNL A   1      34.726  32.888  30.510  1.00  0.00     0.016 A 
ATOM     42  C   UNL A   1      37.311  33.132  29.446  1.00  0.00     0.010 A 
ATOM     43  C   UNL A   1      35.849  32.610  31.269  1.00  0.00     0.010 A 
ATOM     44  C   UNL A   1      37.160  32.697  30.762  1.00  0.00    -0.014 A 
BRANCH  44  45
ATOM     45  C   UNL A   1      38.230  32.214  31.680  1.00  0.00     0.031 A 
ATOM     46  C   UNL A   1      38.730  33.144  32.742  1.00  0.00     0.074 A 
ATOM     47  C   UNL A   1      38.448  30.881  31.840  1.00  0.00     0.049 A 
ATOM     48  N   UNL A   1      39.438  32.791  33.758  1.00  0.00    -0.248 NA
ATOM     49  C   UNL A   1      38.370  34.556  32.808  1.00  0.00     0.031 C 
ATOM     50  C   UNL A   1      38.931  30.172  33.043  1.00  0.00     0.029 A 
ATOM     51  N   UNL A   1      38.132  29.815  30.986  1.00  0.00    -0.354 N 
ATOM     52  C   UNL A   1      39.439  33.798  34.700  1.00  0.00     0.074 A 
ATOM     53  C   UNL A   1      38.708  34.866  34.066  1.00  0.00     0.031 C 
ATOM     54  C   UNL A   1      39.007  28.859  32.799  1.00  0.00     0.029 A 
ATOM     55  C   UNL A   1      38.914  28.707  31.392  1.00  0.00     0.049 A 
ATOM     56  H   UNL A   1      37.487  29.834  30.242  1.00  0.00     0.167 HD
ATOM     57  C   UNL A   1      40.005  33.535  35.917  1.00  0.00     0.037 A 
ATOM     58  C   UNL A   1      39.978  28.285  30.654  1.00  0.00     0.037 A 
ATOM     59  C   UNL A   1      40.841  32.314  35.855  1.00  0.00     0.049 A 
ATOM     60  C   UNL A   1      41.329  28.751  31.251  1.00  0.00     0.074 A 
ATOM     61  C   UNL A   1      40.967  31.165  36.610  1.00  0.00     0.029 A 
ATOM     62  N   UNL A   1      41.658  32.090  34.722  1.00  0.00    -0.354 N 
ATOM     63  N   UNL A   1      41.505  29.755  32.092  1.00  0.00    -0.248 NA
ATOM     64  C   UNL A   1      42.580  28.040  31.005  1.00  0.00     0.031 C 
ATOM     65  C   UNL A   1      42.014  30.400  36.061  1.00  0.00     0.029 A 
ATOM     66  C   UNL A   1      42.278  30.865  34.777  1.00  0.00     0.049 A 
ATOM     67  H   UNL A   1      41.768  32.733  33.985  1.00  0.00     0.167 HD
ATOM     68  C   UNL A   1      42.792  29.729  32.612  1.00  0.00     0.074 A 
ATOM     69  C   UNL A   1      43.449  28.725  31.775  1.00  0.00     0.031 C 
ATOM     70  C   UNL A   1      43.232  30.363  33.768  1.00  0.00     0.037 A 
BRANCH  57  71
ATOM     71  C   UNL A   1      39.765  34.323  37.224  1.00  0.00     0.064 A 
ATOM     72  C   UNL A   1      40.273  35.634  37.425  1.00  0.00     0.173 A 
ATOM     73  C   UNL A   1      39.048  33.845  38.340  1.00  0.00     0.173 A 
ATOM     74  F   UNL A   1      40.962  36.289  36.491  1.00  0.00    -0.203 F 
ATOM     75  C   UNL A   1      40.112  36.369  38.608  1.00  0.00     0.198 A 
ATOM     76  C   UNL A   1      38.900  34.572  39.537  1.00  0.00     0.198 A 
ATOM     77  F   UNL A   1      38.410  32.673  38.316  1.00  0.00    -0.203 F 
ATOM     78  F   UNL A   1      40.633  37.603  38.699  1.00  0.00    -0.200 F 
ATOM     79  C   UNL A   1      39.429  35.836  39.671  1.00  0.00     0.200 A 
ATOM     80  F   UNL A   1      38.223  34.032  40.560  1.00  0.00    -0.200 F 
ATOM     81  F   UNL A   1      39.269  36.537  40.801  1.00  0.00    -0.200 F 
ENDBRANCH  57  71
BRANCH  58  82
ATOM     82  C   UNL A   1      39.475  28.044  29.257  1.00  0.00     0.064 A 
ATOM     83  C   UNL A   1      39.994  28.954  28.288  1.00  0.00     0.173 A 
ATOM     84  C   UNL A   1      39.284  26.724  28.834  1.00  0.00     0.173 A 
ATOM     85  F   UNL A   1      40.163  30.248  28.611  1.00  0.00    -0.203 F 
ATOM     86  C   UNL A   1      40.592  28.495  27.112  1.00  0.00     0.198 A 
ATOM     87  C   UNL A   1      39.851  26.278  27.631  1.00  0.00     0.198 A 
ATOM     88  F   UNL A   1      38.743  25.827  29.669  1.00  0.00    -0.203 F 
ATOM     89  F   UNL A   1      41.316  29.330  26.352  1.00  0.00    -0.200 F 
ATOM     90  C   UNL A   1      40.571  27.144  26.818  1.00  0.00     0.200 A 
ATOM     91  F   UNL A   1      39.817  24.973  27.324  1.00  0.00    -0.200 F 
ATOM     92  F   UNL A   1      41.301  26.668  25.797  1.00  0.00    -0.200 F 
ENDBRANCH  58  82
BRANCH  70  93
ATOM     93  C   UNL A   1      44.652  30.393  34.295  1.00  0.00     0.064 A 
ATOM     94  C   UNL A   1      45.316  29.339  34.927  1.00  0.00     0.173 A 
ATOM     95  C   UNL A   1      45.332  31.643  34.312  1.00  0.00     0.173 A 
ATOM     96  F   UNL A   1      44.700  28.180  35.189  1.00  0.00    -0.203 F 
ATOM     97  C   UNL A   1      46.626  29.480  35.396  1.00  0.00     0.198 A 
ATOM     98  C   UNL A   1      46.587  31.808  34.888  1.00  0.00     0.198 A 
ATOM     99  F   UNL A   1      44.778  32.749  33.790  1.00  0.00    -0.203 F 
ATOM    100  F   UNL A   1      47.268  28.413  35.891  1.00  0.00    -0.200 F 
ATOM    101  C   UNL A   1      47.256  30.712  35.384  1.00  0.00     0.200 A 
ATOM    102  F   UNL A   1      47.134  33.028  34.959  1.00  0.00    -0.200 F 
ATOM    103  F   UNL A   1      48.498  30.846  35.868  1.00  0.00    -0.200 F 
ENDBRANCH  70  93
ENDBRANCH  44  45
ENDBRANCH  37  39
ENDBRANCH  36  37
ENDBRANCH  35  36
ENDBRANCH  34  35
ENDBRANCH  33  34
ENDBRANCH  32  33
ENDBRANCH  31  32
ENDBRANCH  30  31
ENDBRANCH   1  30
TORSDOF 25
ENDMDL
MODEL 3
REMARK VINA RESULT:      -9.4      5.964     12.584
REMARK SMILES Cc1ccc(S(=O)(=O)N[C@@H](Cc2cccc(F)c2)C(=O)OCCOCCOCCOCCOC(=O)c2ccc(-c3c4nc(c(-c5c(F)c(F)c(F)c(F)c5F)c5ccc([nH]5)c(-c5c(F)c(F)c(F)c(F)c5F)c5nc(c(-c6c(F)c(F)c(F)c(F)c6F)c6ccc3[nH]6)C=C5)C=C4)cc2)cc1
REMARK SMILES IDX 26 1 25 2 24 3 23 4 22 5 21 6 19 7 20 8 10 9 9 10 6 12 7 13
REMARK SMILES IDX 8 14 5 15 1 16 2 17 3 18 100 19 4 20 99 21 11 22 12 23 13 24
REMARK SMILES IDX 18 25 14 26 16 27 15 28 17 29 27 30 28 31 29 32 30 33 31 34
REMARK SMILES IDX 32 35 33 36 34 37 35 38 36 39 37 40 98 41 38 42 97 43 39 44
REMARK SMILES IDX 40 45 41 46 91 47 42 48 96 49 90 50 92 51 43 52 95 53 89 54
REMARK SMILES IDX 88 55 44 57 76 58 56 59 75 60 57 61 60 62 74 63 93 64 58 65
REMARK SMILES IDX 59 66 73 68 94 69 61 70 45 71 46 72 54 73 47 74 48 75 52 76
REMARK SMILES IDX 55 77 49 78 50 79 53 80 51 81 77 82 78 83 86 84 79 85 80 86
REMARK SMILES IDX 84 87 87 88 81 89 82 90 85 91 83 92 62 93 63 94 71 95 64 96
REMARK SMILES IDX 65 97 69 98 72 99 66 100 67 101 70 102 68 103
REMARK H PARENT 9 11 92 56 60 67
REMARK Flexibility Score: inf
ROOT
ATOM      1  C   UNL A   1      48.398  25.416  33.508  1.00  0.00     0.188 C 
ENDROOT
BRANCH   1   2
ATOM      2  C   UNL A   1      47.776  26.508  32.612  1.00  0.00     0.188 C 
BRANCH   2   3
ATOM      3  O   UNL A   1      48.604  27.327  31.819  1.00  0.00    -0.376 OA
BRANCH   3   4
ATOM      4  C   UNL A   1      47.896  28.043  30.811  1.00  0.00     0.202 C 
BRANCH   4   5
ATOM      5  C   UNL A   1      46.376  27.817  30.722  1.00  0.00     0.261 C 
BRANCH   5   6
ATOM      6  O   UNL A   1      46.030  26.957  29.601  1.00  0.00    -0.462 OA
BRANCH   6   7
ATOM      7  C   UNL A   1      45.341  27.552  28.577  1.00  0.00     0.324 C 
ATOM      8  O   UNL A   1      44.672  28.570  28.709  1.00  0.00    -0.250 OA
BRANCH   7   9
ATOM      9  C   UNL A   1      45.542  26.832  27.235  1.00  0.00     0.184 C 
BRANCH   9  10
ATOM     10  N   UNL A   1      46.597  27.449  26.385  1.00  0.00    -0.197 NA
ATOM     11  H   UNL A   1      47.131  28.074  26.989  1.00  0.00     0.142 HD
BRANCH  10  12
ATOM     12  S   UNL A   1      46.170  28.340  25.018  1.00  0.00     0.241 S 
ATOM     13  O   UNL A   1      46.376  29.742  25.355  1.00  0.00    -0.207 OA
ATOM     14  O   UNL A   1      44.909  27.851  24.546  1.00  0.00    -0.207 OA
BRANCH  12  15
ATOM     15  C   UNL A   1      47.424  27.898  23.822  1.00  0.00     0.082 A 
ATOM     16  C   UNL A   1      49.485  26.155  20.483  1.00  0.00     0.044 C 
ATOM     17  C   UNL A   1      48.820  26.799  21.661  1.00  0.00    -0.051 A 
ATOM     18  C   UNL A   1      48.973  26.279  22.957  1.00  0.00     0.005 A 
ATOM     19  C   UNL A   1      48.041  27.936  21.476  1.00  0.00     0.005 A 
ATOM     20  C   UNL A   1      48.261  26.812  24.038  1.00  0.00     0.022 A 
ATOM     21  C   UNL A   1      47.382  28.488  22.564  1.00  0.00     0.022 A 
ENDBRANCH  12  15
ENDBRANCH  10  12
ENDBRANCH   9  10
BRANCH   9  22
ATOM     22  C   UNL A   1      45.623  25.288  27.205  1.00  0.00     0.067 C 
BRANCH  22  23
ATOM     23  C   UNL A   1      45.254  24.455  26.011  1.00  0.00    -0.043 A 
ATOM     24  C   UNL A   1      46.263  23.964  25.152  1.00  0.00     0.004 A 
ATOM     25  C   UNL A   1      43.966  24.065  25.755  1.00  0.00     0.043 A 
ATOM     26  C   UNL A   1      45.986  23.056  24.115  1.00  0.00     0.003 A 
ATOM     27  C   UNL A   1      43.761  23.058  24.835  1.00  0.00     0.123 A 
ATOM     28  C   UNL A   1      44.710  22.565  23.977  1.00  0.00     0.039 A 
ATOM     29  F   UNL A   1      42.604  22.440  24.900  1.00  0.00    -0.207 F 
ENDBRANCH  22  23
ENDBRANCH   9  22
ENDBRANCH   7   9
ENDBRANCH   6   7
ENDBRANCH   5   6
ENDBRANCH   4   5
ENDBRANCH   3   4
ENDBRANCH   2   3
ENDBRANCH   1   2
BRANCH   1  30
ATOM     30  O   UNL A   1      47.574  24.346  33.972  1.00  0.00    -0.377 OA
BRANCH  30  31
ATOM     31  C   UNL A   1      48.223  23.708  35.073  1.00  0.00     0.188 C 
BRANCH  31  32
ATOM     32  C   UNL A   1      47.690  22.305  35.332  1.00  0.00     0.188 C 
BRANCH  32  33
ATOM     33  O   UNL A   1      46.308  22.272  35.663  1.00  0.00    -0.376 OA
BRANCH  33  34
ATOM     34  C   UNL A   1      45.977  22.331  37.045  1.00  0.00     0.202 C 
BRANCH  34  35
ATOM     35  C   UNL A   1      45.322  23.651  37.473  1.00  0.00     0.261 C 
BRANCH  35  36
ATOM     36  O   UNL A   1      44.336  24.036  36.490  1.00  0.00    -0.460 OA
BRANCH  36  37
ATOM     37  C   UNL A   1      43.773  25.269  36.655  1.00  0.00     0.338 C 
ATOM     38  O   UNL A   1      43.434  25.747  37.726  1.00  0.00    -0.246 OA
BRANCH  37  39
ATOM     39  C   UNL A   1      43.305  25.802  35.329  1.00  0.00     0.060 A 
ATOM     40  C   UNL A   1      44.151  26.636  34.569  1.00  0.00     0.016 A 
ATOM     41  C   UNL A   1      41.935  25.858  35.109  1.00  0.00     0.016 A 
ATOM     42  C   UNL A   1      43.609  27.652  33.749  1.00  0.00     0.010 A 
ATOM     43  C   UNL A   1      41.422  26.937  34.411  1.00  0.00     0.010 A 
ATOM     44  C   UNL A   1      42.233  27.872  33.737  1.00  0.00    -0.014 A 
BRANCH  44  45
ATOM     45  C   UNL A   1      41.512  29.047  33.172  1.00  0.00     0.031 A 
ATOM     46  C   UNL A   1      40.970  30.072  34.120  1.00  0.00     0.074 A 
ATOM     47  C   UNL A   1      41.698  29.409  31.874  1.00  0.00     0.049 A 
ATOM     48  N   UNL A   1      40.573  31.250  33.785  1.00  0.00    -0.248 NA
ATOM     49  C   UNL A   1      40.936  29.890  35.567  1.00  0.00     0.031 C 
ATOM     50  C   UNL A   1      41.643  30.763  31.286  1.00  0.00     0.029 A 
ATOM     51  N   UNL A   1      42.139  28.641  30.787  1.00  0.00    -0.354 N 
ATOM     52  C   UNL A   1      40.460  32.043  34.907  1.00  0.00     0.074 A 
ATOM     53  C   UNL A   1      40.750  31.145  35.996  1.00  0.00     0.031 C 
ATOM     54  C   UNL A   1      41.888  30.700  29.973  1.00  0.00     0.029 A 
ATOM     55  C   UNL A   1      41.773  29.334  29.609  1.00  0.00     0.049 A 
ATOM     56  H   UNL A   1      42.616  27.781  30.835  1.00  0.00     0.167 HD
ATOM     57  C   UNL A   1      40.208  33.376  34.726  1.00  0.00     0.037 A 
ATOM     58  C   UNL A   1      40.754  28.895  28.820  1.00  0.00     0.037 A 
ATOM     59  C   UNL A   1      39.739  33.639  33.347  1.00  0.00     0.049 A 
ATOM     60  C   UNL A   1      39.452  29.705  29.037  1.00  0.00     0.074 A 
ATOM     61  C   UNL A   1      40.065  34.536  32.349  1.00  0.00     0.029 A 
ATOM     62  N   UNL A   1      38.831  32.741  32.739  1.00  0.00    -0.354 N 
ATOM     63  N   UNL A   1      39.156  30.438  30.097  1.00  0.00    -0.248 NA
ATOM     64  C   UNL A   1      38.420  29.818  28.011  1.00  0.00     0.031 C 
ATOM     65  C   UNL A   1      39.188  34.318  31.269  1.00  0.00     0.029 A 
ATOM     66  C   UNL A   1      38.589  33.073  31.428  1.00  0.00     0.049 A 
ATOM     67  H   UNL A   1      38.423  31.973  33.200  1.00  0.00     0.167 HD
ATOM     68  C   UNL A   1      38.036  31.220  29.847  1.00  0.00     0.074 A 
ATOM     69  C   UNL A   1      37.544  30.667  28.585  1.00  0.00     0.031 C 
ATOM     70  C   UNL A   1      37.648  32.358  30.543  1.00  0.00     0.037 A 
BRANCH  57  71
ATOM     71  C   UNL A   1      40.447  34.497  35.761  1.00  0.00     0.064 A 
ATOM     72  C   UNL A   1      41.611  35.312  35.745  1.00  0.00     0.173 A 
ATOM     73  C   UNL A   1      39.574  34.825  36.819  1.00  0.00     0.173 A 
ATOM     74  F   UNL A   1      42.560  35.190  34.818  1.00  0.00    -0.203 F 
ATOM     75  C   UNL A   1      41.886  36.313  36.687  1.00  0.00     0.198 A 
ATOM     76  C   UNL A   1      39.855  35.816  37.778  1.00  0.00     0.198 A 
ATOM     77  F   UNL A   1      38.382  34.241  36.952  1.00  0.00    -0.203 F 
ATOM     78  F   UNL A   1      43.017  37.029  36.584  1.00  0.00    -0.200 F 
ATOM     79  C   UNL A   1      41.009  36.564  37.711  1.00  0.00     0.200 A 
ATOM     80  F   UNL A   1      38.979  36.048  38.767  1.00  0.00    -0.200 F 
ATOM     81  F   UNL A   1      41.265  37.523  38.610  1.00  0.00    -0.200 F 
ENDBRANCH  57  71
BRANCH  58  82
ATOM     82  C   UNL A   1      41.053  27.463  28.473  1.00  0.00     0.064 A 
ATOM     83  C   UNL A   1      40.111  26.529  29.000  1.00  0.00     0.173 A 
ATOM     84  C   UNL A   1      41.573  27.176  27.206  1.00  0.00     0.173 A 
ATOM     85  F   UNL A   1      39.602  26.717  30.230  1.00  0.00    -0.203 F 
ATOM     86  C   UNL A   1      39.491  25.585  28.178  1.00  0.00     0.198 A 
ATOM     87  C   UNL A   1      40.973  26.197  26.401  1.00  0.00     0.198 A 
ATOM     88  F   UNL A   1      42.507  27.974  26.672  1.00  0.00    -0.203 F 
ATOM     89  F   UNL A   1      38.418  24.907  28.616  1.00  0.00    -0.200 F 
ATOM     90  C   UNL A   1      39.886  25.465  26.858  1.00  0.00     0.200 A 
ATOM     91  F   UNL A   1      41.363  26.056  25.125  1.00  0.00    -0.200 F 
ATOM     92  F   UNL A   1      39.175  24.702  26.013  1.00  0.00    -0.200 F 
ENDBRANCH  58  82
BRANCH  70  93
ATOM     93  C   UNL A   1      36.387  33.167  30.316  1.00  0.00     0.064 A 
ATOM     94  C   UNL A   1      35.349  33.346  31.234  1.00  0.00     0.173 A 
ATOM     95  C   UNL A   1      36.135  33.656  29.004  1.00  0.00     0.173 A 
ATOM     96  F   UNL A   1      35.355  32.735  32.425  1.00  0.00    -0.203 F 
ATOM     97  C   UNL A   1      34.215  34.099  30.914  1.00  0.00     0.198 A 
ATOM     98  C   UNL A   1      34.953  34.300  28.657  1.00  0.00     0.198 A 
ATOM     99  F   UNL A   1      37.027  33.496  28.013  1.00  0.00    -0.203 F 
ATOM    100  F   UNL A   1      33.298  34.344  31.859  1.00  0.00    -0.200 F 
ATOM    101  C   UNL A   1      34.014  34.567  29.627  1.00  0.00     0.200 A 
ATOM    102  F   UNL A   1      34.733  34.652  27.383  1.00  0.00    -0.200 F 
ATOM    103  F   UNL A   1      32.907  35.256  29.319  1.00  0.00    -0.200 F 
ENDBRANCH  70  93
ENDBRANCH  44  45
ENDBRANCH  37  39
ENDBRANCH  36  37
ENDBRANCH  35  36
ENDBRANCH  34  35
ENDBRANCH  33  34
ENDBRANCH  32  33
ENDBRANCH  31  32
ENDBRANCH  30  31
ENDBRANCH   1  30
TORSDOF 25
ENDMDL
