MODEL 1
REMARK VINA RESULT:     -10.8      0.000      0.000
REMARK SMILES CSc1ccc(/C=C2\C(C)=C(CC(=O)OCCOCCOCCOCCOC(=O)c3ccc(-c4c5nc(c(-c6c(F)c(F)c(F)c(F)c6F)c6ccc([nH]6)c(-c6c(F)c(F)c(F)c(F)c6F)c6nc(c(-c7c(F)c(F)c(F)c(F)c7F)c7ccc4[nH]7)C=C6)C=C5)cc3)c3cc(F)ccc32)cc1
REMARK SMILES IDX 20 1 19 2 18 3 17 4 16 5 15 6 13 7 14 8 12 9 11 10 7 11 8 12
REMARK SMILES IDX 9 13 99 14 10 15 93 16 98 17 94 18 97 19 95 20 96 21 6 22
REMARK SMILES IDX 3 23 4 24 101 25 5 26 100 27 2 28 1 29 21 30 22 31 23 32
REMARK SMILES IDX 24 33 25 34 26 35 27 36 28 37 29 38 30 39 31 40 92 41 32 42
REMARK SMILES IDX 91 43 33 44 34 45 35 46 85 47 36 48 90 49 84 50 86 51 37 52
REMARK SMILES IDX 89 53 83 54 82 55 38 57 70 58 50 59 69 60 51 61 54 62 68 63
REMARK SMILES IDX 87 64 52 65 53 66 67 68 88 69 55 70 39 71 40 72 48 73 41 74
REMARK SMILES IDX 42 75 46 76 49 77 43 78 44 79 47 80 45 81 71 82 72 83 80 84
REMARK SMILES IDX 73 85 74 86 78 87 81 88 75 89 76 90 79 91 77 92 56 93 57 94
REMARK SMILES IDX 65 95 58 96 59 97 63 98 66 99 60 100 61 101 64 102 62 103
REMARK H PARENT 86 56 54 67
REMARK Flexibility Score: inf
ROOT
ATOM      1  C   UNL A   1      34.319  28.857  25.646  1.00  0.00     0.188 C 
ENDROOT
BRANCH   1   2
ATOM      2  C   UNL A   1      33.748  28.200  24.390  1.00  0.00     0.188 C 
BRANCH   2   3
ATOM      3  O   UNL A   1      32.990  29.053  23.542  1.00  0.00    -0.376 OA
BRANCH   3   4
ATOM      4  C   UNL A   1      31.741  28.568  23.050  1.00  0.00     0.202 C 
BRANCH   4   5
ATOM      5  C   UNL A   1      31.459  27.066  23.199  1.00  0.00     0.261 C 
BRANCH   5   6
ATOM      6  O   UNL A   1      31.451  26.370  21.928  1.00  0.00    -0.463 OA
BRANCH   6   7
ATOM      7  C   UNL A   1      32.575  25.678  21.622  1.00  0.00     0.310 C 
ATOM      8  O   UNL A   1      32.970  25.487  20.472  1.00  0.00    -0.252 OA
BRANCH   7   9
ATOM      9  C   UNL A   1      33.312  25.052  22.799  1.00  0.00     0.159 C 
BRANCH   9  10
ATOM     10  C   UNL A   1      32.997  23.646  23.326  1.00  0.00    -0.025 C 
ATOM     11  C   UNL A   1      35.767  23.502  25.422  1.00  0.00     0.017 C 
ATOM     12  C   UNL A   1      34.525  23.354  24.938  1.00  0.00    -0.014 C 
ATOM     13  C   UNL A   1      34.038  22.817  23.638  1.00  0.00    -0.039 C 
ATOM     14  C   UNL A   1      33.290  23.673  25.683  1.00  0.00    -0.010 A 
ATOM     15  C   UNL A   1      33.769  21.306  23.734  1.00  0.00     0.045 C 
ATOM     16  C   UNL A   1      32.312  23.690  24.671  1.00  0.00    -0.011 A 
ATOM     17  C   UNL A   1      32.988  23.327  26.996  1.00  0.00     0.012 A 
ATOM     18  C   UNL A   1      31.023  23.276  24.960  1.00  0.00     0.048 A 
ATOM     19  C   UNL A   1      31.682  22.914  27.277  1.00  0.00     0.040 A 
ATOM     20  C   UNL A   1      30.726  22.870  26.258  1.00  0.00     0.123 A 
ATOM     21  F   UNL A   1      29.534  22.307  26.503  1.00  0.00    -0.207 F 
BRANCH  11  22
ATOM     22  C   UNL A   1      37.001  22.791  25.014  1.00  0.00    -0.025 A 
ATOM     23  C   UNL A   1      39.168  21.225  25.831  1.00  0.00     0.007 A 
ATOM     24  C   UNL A   1      38.054  20.629  25.249  1.00  0.00     0.015 A 
ATOM     25  C   UNL A   1      39.297  22.614  25.751  1.00  0.00     0.015 A 
ATOM     26  C   UNL A   1      37.006  21.417  24.785  1.00  0.00     0.009 A 
ATOM     27  C   UNL A   1      38.217  23.401  25.338  1.00  0.00     0.009 A 
BRANCH  23  28
ATOM     28  S   UNL A   1      40.385  20.279  26.728  1.00  0.00    -0.130 SA
ATOM     29  C   UNL A   1      41.208  21.590  27.695  1.00  0.00     0.091 C 
ENDBRANCH  23  28
ENDBRANCH  11  22
ENDBRANCH   9  10
ENDBRANCH   7   9
ENDBRANCH   6   7
ENDBRANCH   5   6
ENDBRANCH   4   5
ENDBRANCH   3   4
ENDBRANCH   2   3
ENDBRANCH   1   2
BRANCH   1  30
ATOM     30  O   UNL A   1      33.872  28.239  26.842  1.00  0.00    -0.377 OA
BRANCH  30  31
ATOM     31  C   UNL A   1      32.747  28.744  27.557  1.00  0.00     0.188 C 
BRANCH  31  32
ATOM     32  C   UNL A   1      31.781  29.690  26.838  1.00  0.00     0.188 C 
BRANCH  32  33
ATOM     33  O   UNL A   1      32.090  31.086  26.847  1.00  0.00    -0.376 OA
BRANCH  33  34
ATOM     34  C   UNL A   1      33.188  31.537  27.633  1.00  0.00     0.202 C 
BRANCH  34  35
ATOM     35  C   UNL A   1      33.512  33.026  27.533  1.00  0.00     0.261 C 
BRANCH  35  36
ATOM     36  O   UNL A   1      32.514  33.834  28.176  1.00  0.00    -0.460 OA
BRANCH  36  37
ATOM     37  C   UNL A   1      32.999  34.937  28.785  1.00  0.00     0.338 C 
ATOM     38  O   UNL A   1      32.528  36.068  28.771  1.00  0.00    -0.246 OA
BRANCH  37  39
ATOM     39  C   UNL A   1      34.144  34.574  29.630  1.00  0.00     0.060 A 
ATOM     40  C   UNL A   1      35.420  34.683  29.066  1.00  0.00     0.016 A 
ATOM     41  C   UNL A   1      33.967  34.049  30.914  1.00  0.00     0.016 A 
ATOM     42  C   UNL A   1      36.525  34.213  29.761  1.00  0.00     0.010 A 
ATOM     43  C   UNL A   1      35.077  33.561  31.606  1.00  0.00     0.010 A 
ATOM     44  C   UNL A   1      36.349  33.602  31.009  1.00  0.00    -0.014 A 
BRANCH  44  45
ATOM     45  C   UNL A   1      37.468  32.815  31.569  1.00  0.00     0.031 A 
ATOM     46  C   UNL A   1      37.958  33.161  32.946  1.00  0.00     0.074 A 
ATOM     47  C   UNL A   1      37.972  31.770  30.894  1.00  0.00     0.049 A 
ATOM     48  N   UNL A   1      38.906  32.609  33.658  1.00  0.00    -0.248 NA
ATOM     49  C   UNL A   1      37.280  34.285  33.616  1.00  0.00     0.031 C 
ATOM     50  C   UNL A   1      37.517  31.317  29.582  1.00  0.00     0.029 A 
ATOM     51  N   UNL A   1      38.973  30.897  31.228  1.00  0.00    -0.354 N 
ATOM     52  C   UNL A   1      38.935  33.314  34.854  1.00  0.00     0.074 A 
ATOM     53  C   UNL A   1      37.941  34.359  34.760  1.00  0.00     0.031 C 
ATOM     54  C   UNL A   1      38.236  30.241  29.221  1.00  0.00     0.029 A 
ATOM     55  C   UNL A   1      39.221  29.956  30.261  1.00  0.00     0.049 A 
ATOM     56  H   UNL A   1      39.465  30.940  32.079  1.00  0.00     0.167 HD
ATOM     57  C   UNL A   1      39.717  33.097  35.938  1.00  0.00     0.037 A 
ATOM     58  C   UNL A   1      40.154  28.984  30.226  1.00  0.00     0.037 A 
ATOM     59  C   UNL A   1      40.711  32.060  36.008  1.00  0.00     0.049 A 
ATOM     60  C   UNL A   1      41.081  28.828  31.404  1.00  0.00     0.074 A 
ATOM     61  C   UNL A   1      41.572  31.753  37.045  1.00  0.00     0.029 A 
ATOM     62  N   UNL A   1      40.983  31.163  34.982  1.00  0.00    -0.354 N 
ATOM     63  N   UNL A   1      41.102  29.491  32.537  1.00  0.00    -0.248 NA
ATOM     64  C   UNL A   1      42.112  27.788  31.299  1.00  0.00     0.031 C 
ATOM     65  C   UNL A   1      42.402  30.706  36.626  1.00  0.00     0.029 A 
ATOM     66  C   UNL A   1      42.018  30.320  35.352  1.00  0.00     0.049 A 
ATOM     67  H   UNL A   1      40.510  31.132  34.120  1.00  0.00     0.167 HD
ATOM     68  C   UNL A   1      42.124  28.930  33.291  1.00  0.00     0.074 A 
ATOM     69  C   UNL A   1      42.690  27.863  32.489  1.00  0.00     0.031 C 
ATOM     70  C   UNL A   1      42.556  29.262  34.534  1.00  0.00     0.037 A 
BRANCH  57  71
ATOM     71  C   UNL A   1      39.549  34.026  37.107  1.00  0.00     0.064 A 
ATOM     72  C   UNL A   1      40.199  35.270  37.165  1.00  0.00     0.173 A 
ATOM     73  C   UNL A   1      38.734  33.665  38.189  1.00  0.00     0.173 A 
ATOM     74  F   UNL A   1      41.006  35.657  36.166  1.00  0.00    -0.203 F 
ATOM     75  C   UNL A   1      40.068  36.097  38.279  1.00  0.00     0.198 A 
ATOM     76  C   UNL A   1      38.579  34.510  39.286  1.00  0.00     0.198 A 
ATOM     77  F   UNL A   1      38.089  32.488  38.188  1.00  0.00    -0.203 F 
ATOM     78  F   UNL A   1      40.749  37.250  38.339  1.00  0.00    -0.200 F 
ATOM     79  C   UNL A   1      39.255  35.719  39.335  1.00  0.00     0.200 A 
ATOM     80  F   UNL A   1      37.783  34.146  40.302  1.00  0.00    -0.200 F 
ATOM     81  F   UNL A   1      39.131  36.514  40.407  1.00  0.00    -0.200 F 
ENDBRANCH  57  71
BRANCH  58  82
ATOM     82  C   UNL A   1      40.255  28.091  29.042  1.00  0.00     0.064 A 
ATOM     83  C   UNL A   1      39.611  26.847  29.018  1.00  0.00     0.173 A 
ATOM     84  C   UNL A   1      41.002  28.459  27.914  1.00  0.00     0.173 A 
ATOM     85  F   UNL A   1      38.903  26.438  30.081  1.00  0.00    -0.203 F 
ATOM     86  C   UNL A   1      39.722  26.000  27.917  1.00  0.00     0.198 A 
ATOM     87  C   UNL A   1      41.089  27.624  26.802  1.00  0.00     0.198 A 
ATOM     88  F   UNL A   1      41.639  29.639  27.885  1.00  0.00    -0.203 F 
ATOM     89  F   UNL A   1      39.131  24.796  27.937  1.00  0.00    -0.200 F 
ATOM     90  C   UNL A   1      40.455  26.391  26.807  1.00  0.00     0.200 A 
ATOM     91  F   UNL A   1      41.787  28.014  25.726  1.00  0.00    -0.200 F 
ATOM     92  F   UNL A   1      40.557  25.579  25.746  1.00  0.00    -0.200 F 
ENDBRANCH  58  82
BRANCH  70  93
ATOM     93  C   UNL A   1      43.667  28.435  35.116  1.00  0.00     0.064 A 
ATOM     94  C   UNL A   1      43.414  27.256  35.830  1.00  0.00     0.173 A 
ATOM     95  C   UNL A   1      45.005  28.811  34.919  1.00  0.00     0.173 A 
ATOM     96  F   UNL A   1      42.152  26.861  36.057  1.00  0.00    -0.203 F 
ATOM     97  C   UNL A   1      44.459  26.499  36.352  1.00  0.00     0.198 A 
ATOM     98  C   UNL A   1      46.047  28.033  35.413  1.00  0.00     0.198 A 
ATOM     99  F   UNL A   1      45.301  29.926  34.234  1.00  0.00    -0.203 F 
ATOM    100  F   UNL A   1      44.192  25.404  37.078  1.00  0.00    -0.200 F 
ATOM    101  C   UNL A   1      45.774  26.883  36.137  1.00  0.00     0.200 A 
ATOM    102  F   UNL A   1      47.318  28.398  35.189  1.00  0.00    -0.200 F 
ATOM    103  F   UNL A   1      46.778  26.148  36.634  1.00  0.00    -0.200 F 
ENDBRANCH  70  93
ENDBRANCH  44  45
ENDBRANCH  37  39
ENDBRANCH  36  37
ENDBRANCH  35  36
ENDBRANCH  34  35
ENDBRANCH  33  34
ENDBRANCH  32  33
ENDBRANCH  31  32
ENDBRANCH  30  31
ENDBRANCH   1  30
TORSDOF 23
ENDMDL
MODEL 2
REMARK VINA RESULT:     -10.2      3.483      6.029
REMARK SMILES CSc1ccc(/C=C2\C(C)=C(CC(=O)OCCOCCOCCOCCOC(=O)c3ccc(-c4c5nc(c(-c6c(F)c(F)c(F)c(F)c6F)c6ccc([nH]6)c(-c6c(F)c(F)c(F)c(F)c6F)c6nc(c(-c7c(F)c(F)c(F)c(F)c7F)c7ccc4[nH]7)C=C6)C=C5)cc3)c3cc(F)ccc32)cc1
REMARK SMILES IDX 20 1 19 2 18 3 17 4 16 5 15 6 13 7 14 8 12 9 11 10 7 11 8 12
REMARK SMILES IDX 9 13 99 14 10 15 93 16 98 17 94 18 97 19 95 20 96 21 6 22
REMARK SMILES IDX 3 23 4 24 101 25 5 26 100 27 2 28 1 29 21 30 22 31 23 32
REMARK SMILES IDX 24 33 25 34 26 35 27 36 28 37 29 38 30 39 31 40 92 41 32 42
REMARK SMILES IDX 91 43 33 44 34 45 35 46 85 47 36 48 90 49 84 50 86 51 37 52
REMARK SMILES IDX 89 53 83 54 82 55 38 57 70 58 50 59 69 60 51 61 54 62 68 63
REMARK SMILES IDX 87 64 52 65 53 66 67 68 88 69 55 70 39 71 40 72 48 73 41 74
REMARK SMILES IDX 42 75 46 76 49 77 43 78 44 79 47 80 45 81 71 82 72 83 80 84
REMARK SMILES IDX 73 85 74 86 78 87 81 88 75 89 76 90 79 91 77 92 56 93 57 94
REMARK SMILES IDX 65 95 58 96 59 97 63 98 66 99 60 100 61 101 64 102 62 103
REMARK H PARENT 86 56 54 67
REMARK Flexibility Score: inf
ROOT
ATOM      1  C   UNL A   1      35.727  33.956  28.806  1.00  0.00     0.188 C 
ENDROOT
BRANCH   1   2
ATOM      2  C   UNL A   1      36.941  33.036  28.684  1.00  0.00     0.188 C 
BRANCH   2   3
ATOM      3  O   UNL A   1      37.069  32.050  29.700  1.00  0.00    -0.376 OA
BRANCH   3   4
ATOM      4  C   UNL A   1      36.409  30.799  29.503  1.00  0.00     0.202 C 
BRANCH   4   5
ATOM      5  C   UNL A   1      36.114  30.376  28.056  1.00  0.00     0.261 C 
BRANCH   5   6
ATOM      6  O   UNL A   1      35.226  29.233  27.978  1.00  0.00    -0.463 OA
BRANCH   6   7
ATOM      7  C   UNL A   1      34.085  29.414  27.269  1.00  0.00     0.310 C 
ATOM      8  O   UNL A   1      33.604  30.519  27.019  1.00  0.00    -0.252 OA
BRANCH   7   9
ATOM      9  C   UNL A   1      33.354  28.146  26.852  1.00  0.00     0.159 C 
BRANCH   9  10
ATOM     10  C   UNL A   1      33.161  27.740  25.384  1.00  0.00    -0.025 C 
ATOM     11  C   UNL A   1      32.047  24.530  26.122  1.00  0.00     0.017 C 
ATOM     12  C   UNL A   1      32.184  25.730  25.538  1.00  0.00    -0.014 C 
ATOM     13  C   UNL A   1      33.390  26.440  25.031  1.00  0.00    -0.039 C 
ATOM     14  C   UNL A   1      31.066  26.636  25.208  1.00  0.00    -0.010 A 
ATOM     15  C   UNL A   1      33.636  26.116  23.548  1.00  0.00     0.045 C 
ATOM     16  C   UNL A   1      31.719  27.857  24.954  1.00  0.00    -0.011 A 
ATOM     17  C   UNL A   1      29.865  26.299  24.590  1.00  0.00     0.012 A 
ATOM     18  C   UNL A   1      31.203  28.723  24.005  1.00  0.00     0.048 A 
ATOM     19  C   UNL A   1      29.353  27.182  23.636  1.00  0.00     0.040 A 
ATOM     20  C   UNL A   1      30.035  28.366  23.338  1.00  0.00     0.123 A 
ATOM     21  F   UNL A   1      29.628  29.113  22.301  1.00  0.00    -0.207 F 
BRANCH  11  22
ATOM     22  C   UNL A   1      32.961  23.367  26.054  1.00  0.00    -0.025 A 
ATOM     23  C   UNL A   1      35.379  22.354  25.084  1.00  0.00     0.007 A 
ATOM     24  C   UNL A   1      35.291  22.824  26.390  1.00  0.00     0.015 A 
ATOM     25  C   UNL A   1      34.196  22.149  24.370  1.00  0.00     0.015 A 
ATOM     26  C   UNL A   1      34.071  23.266  26.891  1.00  0.00     0.009 A 
ATOM     27  C   UNL A   1      32.983  22.650  24.854  1.00  0.00     0.009 A 
BRANCH  23  28
ATOM     28  S   UNL A   1      36.949  22.079  24.282  1.00  0.00    -0.130 SA
ATOM     29  C   UNL A   1      38.091  22.166  25.702  1.00  0.00     0.091 C 
ENDBRANCH  23  28
ENDBRANCH  11  22
ENDBRANCH   9  10
ENDBRANCH   7   9
ENDBRANCH   6   7
ENDBRANCH   5   6
ENDBRANCH   4   5
ENDBRANCH   3   4
ENDBRANCH   2   3
ENDBRANCH   1   2
BRANCH   1  30
ATOM     30  O   UNL A   1      34.653  33.563  27.966  1.00  0.00    -0.377 OA
BRANCH  30  31
ATOM     31  C   UNL A   1      33.371  34.180  28.071  1.00  0.00     0.188 C 
BRANCH  31  32
ATOM     32  C   UNL A   1      33.199  35.363  29.028  1.00  0.00     0.188 C 
BRANCH  32  33
ATOM     33  O   UNL A   1      32.570  35.112  30.287  1.00  0.00    -0.376 OA
BRANCH  33  34
ATOM     34  C   UNL A   1      32.758  36.049  31.343  1.00  0.00     0.202 C 
BRANCH  34  35
ATOM     35  C   UNL A   1      33.650  35.587  32.493  1.00  0.00     0.261 C 
BRANCH  35  36
ATOM     36  O   UNL A   1      34.898  35.057  32.020  1.00  0.00    -0.460 OA
BRANCH  36  37
ATOM     37  C   UNL A   1      35.189  33.823  32.483  1.00  0.00     0.338 C 
ATOM     38  O   UNL A   1      34.744  32.751  32.090  1.00  0.00    -0.246 OA
BRANCH  37  39
ATOM     39  C   UNL A   1      36.267  33.907  33.477  1.00  0.00     0.060 A 
ATOM     40  C   UNL A   1      37.526  34.325  33.028  1.00  0.00     0.016 A 
ATOM     41  C   UNL A   1      36.077  33.494  34.799  1.00  0.00     0.016 A 
ATOM     42  C   UNL A   1      38.616  34.280  33.885  1.00  0.00     0.010 A 
ATOM     43  C   UNL A   1      37.177  33.433  35.656  1.00  0.00     0.010 A 
ATOM     44  C   UNL A   1      38.454  33.782  35.184  1.00  0.00    -0.014 A 
BRANCH  44  45
ATOM     45  C   UNL A   1      39.663  33.425  35.954  1.00  0.00     0.031 A 
ATOM     46  C   UNL A   1      40.149  34.390  36.998  1.00  0.00     0.074 A 
ATOM     47  C   UNL A   1      40.258  32.235  35.777  1.00  0.00     0.049 A 
ATOM     48  N   UNL A   1      41.169  34.295  37.811  1.00  0.00    -0.248 NA
ATOM     49  C   UNL A   1      39.374  35.633  37.147  1.00  0.00     0.031 C 
ATOM     50  C   UNL A   1      39.819  31.206  34.837  1.00  0.00     0.029 A 
ATOM     51  N   UNL A   1      41.354  31.689  36.392  1.00  0.00    -0.354 N 
ATOM     52  C   UNL A   1      41.155  35.460  38.567  1.00  0.00     0.074 A 
ATOM     53  C   UNL A   1      40.053  36.266  38.091  1.00  0.00     0.031 C 
ATOM     54  C   UNL A   1      40.639  30.147  34.940  1.00  0.00     0.029 A 
ATOM     55  C   UNL A   1      41.675  30.439  35.926  1.00  0.00     0.049 A 
ATOM     56  H   UNL A   1      41.861  32.149  37.099  1.00  0.00     0.167 HD
ATOM     57  C   UNL A   1      41.983  35.817  39.577  1.00  0.00     0.037 A 
ATOM     58  C   UNL A   1      42.704  29.636  36.259  1.00  0.00     0.037 A 
ATOM     59  C   UNL A   1      43.082  35.007  40.028  1.00  0.00     0.049 A 
ATOM     60  C   UNL A   1      43.673  30.101  37.316  1.00  0.00     0.074 A 
ATOM     61  C   UNL A   1      43.998  35.269  41.032  1.00  0.00     0.029 A 
ATOM     62  N   UNL A   1      43.421  33.773  39.489  1.00  0.00    -0.354 N 
ATOM     63  N   UNL A   1      43.653  31.199  38.034  1.00  0.00    -0.248 NA
ATOM     64  C   UNL A   1      44.805  29.214  37.610  1.00  0.00     0.031 C 
ATOM     65  C   UNL A   1      44.922  34.219  41.061  1.00  0.00     0.029 A 
ATOM     66  C   UNL A   1      44.548  33.273  40.120  1.00  0.00     0.049 A 
ATOM     67  H   UNL A   1      42.932  33.320  38.765  1.00  0.00     0.167 HD
ATOM     68  C   UNL A   1      44.747  31.122  38.885  1.00  0.00     0.074 A 
ATOM     69  C   UNL A   1      45.403  29.861  38.600  1.00  0.00     0.031 C 
ATOM     70  C   UNL A   1      45.174  32.009  39.819  1.00  0.00     0.037 A 
BRANCH  57  71
ATOM     71  C   UNL A   1      41.747  37.153  40.223  1.00  0.00     0.064 A 
ATOM     72  C   UNL A   1      42.304  38.335  39.707  1.00  0.00     0.173 A 
ATOM     73  C   UNL A   1      40.961  37.254  41.380  1.00  0.00     0.173 A 
ATOM     74  F   UNL A   1      43.080  38.294  38.613  1.00  0.00    -0.203 F 
ATOM     75  C   UNL A   1      42.113  39.558  40.347  1.00  0.00     0.198 A 
ATOM     76  C   UNL A   1      40.745  38.484  41.998  1.00  0.00     0.198 A 
ATOM     77  F   UNL A   1      40.405  36.158  41.918  1.00  0.00    -0.203 F 
ATOM     78  F   UNL A   1      42.708  40.661  39.871  1.00  0.00    -0.200 F 
ATOM     79  C   UNL A   1      41.331  39.632  41.488  1.00  0.00     0.200 A 
ATOM     80  F   UNL A   1      39.980  38.554  43.096  1.00  0.00    -0.200 F 
ATOM     81  F   UNL A   1      41.149  40.808  42.104  1.00  0.00    -0.200 F 
ENDBRANCH  57  71
BRANCH  58  82
ATOM     82  C   UNL A   1      42.869  28.320  35.589  1.00  0.00     0.064 A 
ATOM     83  C   UNL A   1      42.129  27.202  35.999  1.00  0.00     0.173 A 
ATOM     84  C   UNL A   1      43.772  28.149  34.529  1.00  0.00     0.173 A 
ATOM     85  F   UNL A   1      41.269  27.306  37.022  1.00  0.00    -0.203 F 
ATOM     86  C   UNL A   1      42.298  25.962  35.385  1.00  0.00     0.198 A 
ATOM     87  C   UNL A   1      43.919  26.917  33.897  1.00  0.00     0.198 A 
ATOM     88  F   UNL A   1      44.505  29.187  34.098  1.00  0.00    -0.203 F 
ATOM     89  F   UNL A   1      41.610  24.900  35.825  1.00  0.00    -0.200 F 
ATOM     90  C   UNL A   1      43.187  25.821  34.330  1.00  0.00     0.200 A 
ATOM     91  F   UNL A   1      44.769  26.790  32.869  1.00  0.00    -0.200 F 
ATOM     92  F   UNL A   1      43.344  24.631  33.736  1.00  0.00    -0.200 F 
ENDBRANCH  58  82
BRANCH  70  93
ATOM     93  C   UNL A   1      46.381  31.626  40.627  1.00  0.00     0.064 A 
ATOM     94  C   UNL A   1      46.280  30.815  41.765  1.00  0.00     0.173 A 
ATOM     95  C   UNL A   1      47.660  32.047  40.230  1.00  0.00     0.173 A 
ATOM     96  F   UNL A   1      45.079  30.398  42.194  1.00  0.00    -0.203 F 
ATOM     97  C   UNL A   1      47.413  30.462  42.494  1.00  0.00     0.198 A 
ATOM     98  C   UNL A   1      48.793  31.664  40.941  1.00  0.00     0.198 A 
ATOM     99  F   UNL A   1      47.812  32.817  39.142  1.00  0.00    -0.203 F 
ATOM    100  F   UNL A   1      47.288  29.729  43.610  1.00  0.00    -0.200 F 
ATOM    101  C   UNL A   1      48.668  30.880  42.077  1.00  0.00     0.200 A 
ATOM    102  F   UNL A   1      50.006  32.055  40.526  1.00  0.00    -0.200 F 
ATOM    103  F   UNL A   1      49.758  30.533  42.776  1.00  0.00    -0.200 F 
ENDBRANCH  70  93
ENDBRANCH  44  45
ENDBRANCH  37  39
ENDBRANCH  36  37
ENDBRANCH  35  36
ENDBRANCH  34  35
ENDBRANCH  33  34
ENDBRANCH  32  33
ENDBRANCH  31  32
ENDBRANCH  30  31
ENDBRANCH   1  30
TORSDOF 23
ENDMDL
MODEL 3
REMARK VINA RESULT:     -10.0      4.520      8.096
REMARK SMILES CSc1ccc(/C=C2\C(C)=C(CC(=O)OCCOCCOCCOCCOC(=O)c3ccc(-c4c5nc(c(-c6c(F)c(F)c(F)c(F)c6F)c6ccc([nH]6)c(-c6c(F)c(F)c(F)c(F)c6F)c6nc(c(-c7c(F)c(F)c(F)c(F)c7F)c7ccc4[nH]7)C=C6)C=C5)cc3)c3cc(F)ccc32)cc1
REMARK SMILES IDX 20 1 19 2 18 3 17 4 16 5 15 6 13 7 14 8 12 9 11 10 7 11 8 12
REMARK SMILES IDX 9 13 99 14 10 15 93 16 98 17 94 18 97 19 95 20 96 21 6 22
REMARK SMILES IDX 3 23 4 24 101 25 5 26 100 27 2 28 1 29 21 30 22 31 23 32
REMARK SMILES IDX 24 33 25 34 26 35 27 36 28 37 29 38 30 39 31 40 92 41 32 42
REMARK SMILES IDX 91 43 33 44 34 45 35 46 85 47 36 48 90 49 84 50 86 51 37 52
REMARK SMILES IDX 89 53 83 54 82 55 38 57 70 58 50 59 69 60 51 61 54 62 68 63
REMARK SMILES IDX 87 64 52 65 53 66 67 68 88 69 55 70 39 71 40 72 48 73 41 74
REMARK SMILES IDX 42 75 46 76 49 77 43 78 44 79 47 80 45 81 71 82 72 83 80 84
REMARK SMILES IDX 73 85 74 86 78 87 81 88 75 89 76 90 79 91 77 92 56 93 57 94
REMARK SMILES IDX 65 95 58 96 59 97 63 98 66 99 60 100 61 101 64 102 62 103
REMARK H PARENT 86 56 54 67
REMARK Flexibility Score: inf
ROOT
ATOM      1  C   UNL A   1      36.065  33.068  29.702  1.00  0.00     0.188 C 
ENDROOT
BRANCH   1   2
ATOM      2  C   UNL A   1      37.146  32.852  28.645  1.00  0.00     0.188 C 
BRANCH   2   3
ATOM      3  O   UNL A   1      37.926  31.673  28.796  1.00  0.00    -0.376 OA
BRANCH   3   4
ATOM      4  C   UNL A   1      37.259  30.414  28.711  1.00  0.00     0.202 C 
BRANCH   4   5
ATOM      5  C   UNL A   1      36.238  30.232  27.578  1.00  0.00     0.261 C 
BRANCH   5   6
ATOM      6  O   UNL A   1      35.229  29.240  27.889  1.00  0.00    -0.463 OA
BRANCH   6   7
ATOM      7  C   UNL A   1      34.067  29.337  27.197  1.00  0.00     0.310 C 
ATOM      8  O   UNL A   1      33.531  30.407  26.908  1.00  0.00    -0.252 OA
BRANCH   7   9
ATOM      9  C   UNL A   1      33.385  28.020  26.853  1.00  0.00     0.159 C 
BRANCH   9  10
ATOM     10  C   UNL A   1      33.184  27.538  25.410  1.00  0.00    -0.025 C 
ATOM     11  C   UNL A   1      31.917  24.432  26.323  1.00  0.00     0.017 C 
ATOM     12  C   UNL A   1      32.114  25.587  25.672  1.00  0.00    -0.014 C 
ATOM     13  C   UNL A   1      33.356  26.210  25.136  1.00  0.00    -0.039 C 
ATOM     14  C   UNL A   1      31.041  26.523  25.278  1.00  0.00    -0.010 A 
ATOM     15  C   UNL A   1      33.596  25.788  23.677  1.00  0.00     0.045 C 
ATOM     16  C   UNL A   1      31.752  27.696  24.960  1.00  0.00    -0.011 A 
ATOM     17  C   UNL A   1      29.831  26.205  24.670  1.00  0.00     0.012 A 
ATOM     18  C   UNL A   1      31.284  28.527  23.956  1.00  0.00     0.048 A 
ATOM     19  C   UNL A   1      29.367  27.054  23.660  1.00  0.00     0.040 A 
ATOM     20  C   UNL A   1      30.105  28.185  23.300  1.00  0.00     0.123 A 
ATOM     21  F   UNL A   1      29.740  28.887  22.217  1.00  0.00    -0.207 F 
BRANCH  11  22
ATOM     22  C   UNL A   1      32.776  23.225  26.333  1.00  0.00    -0.025 A 
ATOM     23  C   UNL A   1      35.107  22.015  25.374  1.00  0.00     0.007 A 
ATOM     24  C   UNL A   1      35.093  22.608  26.632  1.00  0.00     0.015 A 
ATOM     25  C   UNL A   1      33.887  21.799  24.727  1.00  0.00     0.015 A 
ATOM     26  C   UNL A   1      33.915  23.151  27.133  1.00  0.00     0.009 A 
ATOM     27  C   UNL A   1      32.718  22.400  25.206  1.00  0.00     0.009 A 
BRANCH  23  28
ATOM     28  S   UNL A   1      36.628  21.593  24.544  1.00  0.00    -0.130 SA
ATOM     29  C   UNL A   1      36.648  22.823  23.197  1.00  0.00     0.091 C 
ENDBRANCH  23  28
ENDBRANCH  11  22
ENDBRANCH   9  10
ENDBRANCH   7   9
ENDBRANCH   6   7
ENDBRANCH   5   6
ENDBRANCH   4   5
ENDBRANCH   3   4
ENDBRANCH   2   3
ENDBRANCH   1   2
BRANCH   1  30
ATOM     30  O   UNL A   1      34.848  33.552  29.154  1.00  0.00    -0.377 OA
BRANCH  30  31
ATOM     31  C   UNL A   1      33.929  34.301  29.947  1.00  0.00     0.188 C 
BRANCH  31  32
ATOM     32  C   UNL A   1      34.214  34.472  31.441  1.00  0.00     0.188 C 
BRANCH  32  33
ATOM     33  O   UNL A   1      33.956  33.357  32.299  1.00  0.00    -0.376 OA
BRANCH  33  34
ATOM     34  C   UNL A   1      34.355  33.439  33.663  1.00  0.00     0.202 C 
BRANCH  34  35
ATOM     35  C   UNL A   1      35.790  33.901  33.910  1.00  0.00     0.261 C 
BRANCH  35  36
ATOM     36  O   UNL A   1      36.737  32.845  33.686  1.00  0.00    -0.460 OA
BRANCH  36  37
ATOM     37  C   UNL A   1      37.323  32.377  34.808  1.00  0.00     0.338 C 
ATOM     38  O   UNL A   1      36.957  32.535  35.967  1.00  0.00    -0.246 OA
BRANCH  37  39
ATOM     39  C   UNL A   1      38.436  31.487  34.452  1.00  0.00     0.060 A 
ATOM     40  C   UNL A   1      39.640  31.651  35.148  1.00  0.00     0.016 A 
ATOM     41  C   UNL A   1      38.336  30.579  33.395  1.00  0.00     0.016 A 
ATOM     42  C   UNL A   1      40.768  30.946  34.754  1.00  0.00     0.010 A 
ATOM     43  C   UNL A   1      39.475  29.882  32.988  1.00  0.00     0.010 A 
ATOM     44  C   UNL A   1      40.701  30.102  33.639  1.00  0.00    -0.014 A 
BRANCH  44  45
ATOM     45  C   UNL A   1      41.966  29.634  33.037  1.00  0.00     0.031 A 
ATOM     46  C   UNL A   1      42.574  30.457  31.936  1.00  0.00     0.074 A 
ATOM     47  C   UNL A   1      42.593  28.549  33.519  1.00  0.00     0.049 A 
ATOM     48  N   UNL A   1      43.681  30.268  31.266  1.00  0.00    -0.248 NA
ATOM     49  C   UNL A   1      41.829  31.664  31.538  1.00  0.00     0.031 C 
ATOM     50  C   UNL A   1      42.116  27.727  34.628  1.00  0.00     0.029 A 
ATOM     51  N   UNL A   1      43.771  27.962  33.141  1.00  0.00    -0.354 N 
ATOM     52  C   UNL A   1      43.765  31.329  30.374  1.00  0.00     0.074 A 
ATOM     53  C   UNL A   1      42.581  32.137  30.557  1.00  0.00     0.031 C 
ATOM     54  C   UNL A   1      42.999  26.738  34.846  1.00  0.00     0.029 A 
ATOM     55  C   UNL A   1      44.081  26.842  33.870  1.00  0.00     0.049 A 
ATOM     56  H   UNL A   1      44.339  28.310  32.417  1.00  0.00     0.167 HD
ATOM     57  C   UNL A   1      44.752  31.608  29.490  1.00  0.00     0.037 A 
ATOM     58  C   UNL A   1      45.120  25.994  33.743  1.00  0.00     0.037 A 
ATOM     59  C   UNL A   1      45.918  30.784  29.314  1.00  0.00     0.049 A 
ATOM     60  C   UNL A   1      46.154  26.270  32.682  1.00  0.00     0.074 A 
ATOM     61  C   UNL A   1      46.977  30.956  28.441  1.00  0.00     0.029 A 
ATOM     62  N   UNL A   1      46.169  29.617  30.024  1.00  0.00    -0.354 N 
ATOM     63  N   UNL A   1      46.236  27.278  31.845  1.00  0.00    -0.248 NA
ATOM     64  C   UNL A   1      47.241  25.292  32.550  1.00  0.00     0.031 C 
ATOM     65  C   UNL A   1      47.840  29.864  28.585  1.00  0.00     0.029 A 
ATOM     66  C   UNL A   1      47.353  29.043  29.590  1.00  0.00     0.049 A 
ATOM     67  H   UNL A   1      45.591  29.251  30.732  1.00  0.00     0.167 HD
ATOM     68  C   UNL A   1      47.396  27.074  31.110  1.00  0.00     0.074 A 
ATOM     69  C   UNL A   1      47.991  25.850  31.610  1.00  0.00     0.031 C 
ATOM     70  C   UNL A   1      47.924  27.827  30.113  1.00  0.00     0.037 A 
BRANCH  57  71
ATOM     71  C   UNL A   1      44.583  32.827  28.629  1.00  0.00     0.064 A 
ATOM     72  C   UNL A   1      44.866  34.118  29.106  1.00  0.00     0.173 A 
ATOM     73  C   UNL A   1      44.122  32.706  27.310  1.00  0.00     0.173 A 
ATOM     74  F   UNL A   1      45.292  34.293  30.366  1.00  0.00    -0.203 F 
ATOM     75  C   UNL A   1      44.658  35.240  28.308  1.00  0.00     0.198 A 
ATOM     76  C   UNL A   1      43.947  33.828  26.504  1.00  0.00     0.198 A 
ATOM     77  F   UNL A   1      43.835  31.498  26.801  1.00  0.00    -0.203 F 
ATOM     78  F   UNL A   1      44.875  36.465  28.807  1.00  0.00    -0.200 F 
ATOM     79  C   UNL A   1      44.204  35.094  27.007  1.00  0.00     0.200 A 
ATOM     80  F   UNL A   1      43.517  33.684  25.242  1.00  0.00    -0.200 F 
ATOM     81  F   UNL A   1      44.001  36.174  26.240  1.00  0.00    -0.200 F 
ENDBRANCH  57  71
BRANCH  58  82
ATOM     82  C   UNL A   1      45.231  24.814  34.639  1.00  0.00     0.064 A 
ATOM     83  C   UNL A   1      44.745  23.559  34.247  1.00  0.00     0.173 A 
ATOM     84  C   UNL A   1      45.820  24.915  35.909  1.00  0.00     0.173 A 
ATOM     85  F   UNL A   1      44.152  23.414  33.052  1.00  0.00    -0.203 F 
ATOM     86  C   UNL A   1      44.829  22.456  35.095  1.00  0.00     0.198 A 
ATOM     87  C   UNL A   1      45.930  23.805  36.744  1.00  0.00     0.198 A 
ATOM     88  F   UNL A   1      46.302  26.092  36.334  1.00  0.00    -0.203 F 
ATOM     89  F   UNL A   1      44.316  21.278  34.711  1.00  0.00    -0.200 F 
ATOM     90  C   UNL A   1      45.428  22.577  36.339  1.00  0.00     0.200 A 
ATOM     91  F   UNL A   1      46.523  23.925  37.940  1.00  0.00    -0.200 F 
ATOM     92  F   UNL A   1      45.515  21.516  37.151  1.00  0.00    -0.200 F 
ENDBRANCH  58  82
BRANCH  70  93
ATOM     93  C   UNL A   1      49.231  27.370  29.529  1.00  0.00     0.064 A 
ATOM     94  C   UNL A   1      49.284  26.498  28.432  1.00  0.00     0.173 A 
ATOM     95  C   UNL A   1      50.444  27.845  30.052  1.00  0.00     0.173 A 
ATOM     96  F   UNL A   1      48.153  26.005  27.905  1.00  0.00    -0.203 F 
ATOM     97  C   UNL A   1      50.506  26.095  27.899  1.00  0.00     0.198 A 
ATOM     98  C   UNL A   1      51.661  27.467  29.493  1.00  0.00     0.198 A 
ATOM     99  F   UNL A   1      50.447  28.689  31.095  1.00  0.00    -0.203 F 
ATOM    100  F   UNL A   1      50.534  25.220  26.885  1.00  0.00    -0.200 F 
ATOM    101  C   UNL A   1      51.692  26.586  28.424  1.00  0.00     0.200 A 
ATOM    102  F   UNL A   1      52.805  27.956  29.992  1.00  0.00    -0.200 F 
ATOM    103  F   UNL A   1      52.865  26.203  27.904  1.00  0.00    -0.200 F 
ENDBRANCH  70  93
ENDBRANCH  44  45
ENDBRANCH  37  39
ENDBRANCH  36  37
ENDBRANCH  35  36
ENDBRANCH  34  35
ENDBRANCH  33  34
ENDBRANCH  32  33
ENDBRANCH  31  32
ENDBRANCH  30  31
ENDBRANCH   1  30
TORSDOF 23
ENDMDL
