MODEL 1
REMARK VINA RESULT:     -10.7      0.000      0.000
REMARK SMILES COc1ncccc1C[C@H](C(=O)OCCOCCOCCOCCOC(=O)c1ccc(-c2c3nc(c(-c4c(F)c(F)c(F)c(F)c4F)c4ccc([nH]4)c(-c4c(F)c(F)c(F)c(F)c4F)c4nc(c(-c5c(F)c(F)c(F)c(F)c5F)c5ccc2[nH]5)C=C4)C=C3)cc1)c1ccc(F)cc1
REMARK SMILES IDX 18 1 17 2 16 3 15 4 14 5 13 6 11 7 12 8 10 9 9 10 8 11 3 12
REMARK SMILES IDX 4 13 5 14 7 15 6 16 2 17 1 18 91 19 92 20 97 21 93 22 96 23
REMARK SMILES IDX 94 24 95 25 19 26 20 27 21 28 22 29 23 30 24 31 25 32 26 33
REMARK SMILES IDX 27 34 28 35 29 36 90 37 30 38 89 39 31 40 32 41 33 42 83 43
REMARK SMILES IDX 34 44 88 45 82 46 84 47 35 48 87 49 81 50 80 51 36 53 68 54
REMARK SMILES IDX 48 55 67 56 49 57 52 58 66 59 85 60 50 61 51 62 65 64 86 65
REMARK SMILES IDX 53 66 37 67 38 68 46 69 39 70 40 71 44 72 47 73 41 74 42 75
REMARK SMILES IDX 45 76 43 77 69 78 70 79 78 80 71 81 72 82 76 83 79 84 73 85
REMARK SMILES IDX 74 86 77 87 75 88 54 89 55 90 63 91 56 92 57 93 61 94 64 95
REMARK SMILES IDX 58 96 59 97 62 98 60 99
REMARK H PARENT 84 52 52 63
REMARK Flexibility Score: inf
ROOT
ATOM      1  C   UNL A   1      32.212  21.826  23.424  1.00  0.00     0.188 C 
ENDROOT
BRANCH   1   2
ATOM      2  C   UNL A   1      33.413  22.668  22.949  1.00  0.00     0.188 C 
BRANCH   2   3
ATOM      3  O   UNL A   1      33.348  23.407  21.734  1.00  0.00    -0.376 OA
BRANCH   3   4
ATOM      4  C   UNL A   1      33.375  24.819  21.782  1.00  0.00     0.202 C 
BRANCH   4   5
ATOM      5  C   UNL A   1      32.202  25.570  21.127  1.00  0.00     0.261 C 
BRANCH   5   6
ATOM      6  O   UNL A   1      31.415  26.468  21.944  1.00  0.00    -0.463 OA
BRANCH   6   7
ATOM      7  C   UNL A   1      30.751  25.940  23.013  1.00  0.00     0.313 C 
ATOM      8  O   UNL A   1      30.363  24.777  23.064  1.00  0.00    -0.252 OA
BRANCH   7   9
ATOM      9  C   UNL A   1      30.482  26.956  24.152  1.00  0.00     0.134 C 
BRANCH   9  10
ATOM     10  C   UNL A   1      31.749  27.150  25.068  1.00  0.00     0.061 C 
BRANCH  10  11
ATOM     11  C   UNL A   1      32.626  26.001  25.534  1.00  0.00     0.015 A 
ATOM     12  C   UNL A   1      32.165  24.858  26.190  1.00  0.00     0.216 A 
ATOM     13  N   UNL A   1      32.938  23.794  26.512  1.00  0.00    -0.222 NA
ATOM     14  C   UNL A   1      34.242  23.862  26.180  1.00  0.00     0.115 A 
ATOM     15  C   UNL A   1      34.007  26.052  25.277  1.00  0.00     0.011 A 
ATOM     16  C   UNL A   1      34.824  24.970  25.593  1.00  0.00     0.021 A 
BRANCH  12  17
ATOM     17  O   UNL A   1      30.910  24.860  26.727  1.00  0.00    -0.481 OA
ATOM     18  C   UNL A   1      30.284  23.585  26.693  1.00  0.00     0.280 C 
ENDBRANCH  12  17
ENDBRANCH  10  11
ENDBRANCH   9  10
BRANCH   9  19
ATOM     19  C   UNL A   1      29.605  28.147  23.749  1.00  0.00    -0.033 A 
ATOM     20  C   UNL A   1      28.267  27.984  23.352  1.00  0.00     0.007 A 
ATOM     21  C   UNL A   1      30.136  29.450  23.675  1.00  0.00     0.007 A 
ATOM     22  C   UNL A   1      27.441  29.078  23.092  1.00  0.00     0.039 A 
ATOM     23  C   UNL A   1      29.325  30.546  23.368  1.00  0.00     0.039 A 
ATOM     24  C   UNL A   1      27.975  30.353  23.117  1.00  0.00     0.123 A 
ATOM     25  F   UNL A   1      27.186  31.406  22.872  1.00  0.00    -0.207 F 
ENDBRANCH   9  19
ENDBRANCH   7   9
ENDBRANCH   6   7
ENDBRANCH   5   6
ENDBRANCH   4   5
ENDBRANCH   3   4
ENDBRANCH   2   3
ENDBRANCH   1   2
BRANCH   1  26
ATOM     26  O   UNL A   1      32.483  20.946  24.503  1.00  0.00    -0.377 OA
BRANCH  26  27
ATOM     27  C   UNL A   1      32.931  19.661  24.116  1.00  0.00     0.188 C 
BRANCH  27  28
ATOM     28  C   UNL A   1      34.324  19.325  24.660  1.00  0.00     0.188 C 
BRANCH  28  29
ATOM     29  O   UNL A   1      34.887  20.422  25.360  1.00  0.00    -0.376 OA
BRANCH  29  30
ATOM     30  C   UNL A   1      36.026  21.101  24.871  1.00  0.00     0.202 C 
BRANCH  30  31
ATOM     31  C   UNL A   1      37.446  20.568  25.120  1.00  0.00     0.261 C 
BRANCH  31  32
ATOM     32  O   UNL A   1      38.508  21.517  25.243  1.00  0.00    -0.460 OA
BRANCH  32  33
ATOM     33  C   UNL A   1      39.482  21.266  26.139  1.00  0.00     0.338 C 
ATOM     34  O   UNL A   1      40.049  20.205  26.337  1.00  0.00    -0.246 OA
BRANCH  33  35
ATOM     35  C   UNL A   1      39.892  22.568  26.711  1.00  0.00     0.060 A 
ATOM     36  C   UNL A   1      39.178  23.719  26.352  1.00  0.00     0.016 A 
ATOM     37  C   UNL A   1      40.950  22.649  27.622  1.00  0.00     0.016 A 
ATOM     38  C   UNL A   1      39.534  24.958  26.884  1.00  0.00     0.010 A 
ATOM     39  C   UNL A   1      41.328  23.895  28.128  1.00  0.00     0.010 A 
ATOM     40  C   UNL A   1      40.642  25.057  27.735  1.00  0.00    -0.014 A 
BRANCH  40  41
ATOM     41  C   UNL A   1      41.216  26.393  28.024  1.00  0.00     0.031 A 
ATOM     42  C   UNL A   1      42.631  26.656  27.589  1.00  0.00     0.074 A 
ATOM     43  C   UNL A   1      40.497  27.356  28.623  1.00  0.00     0.049 A 
ATOM     44  N   UNL A   1      43.371  27.721  27.757  1.00  0.00    -0.248 NA
ATOM     45  C   UNL A   1      43.302  25.563  26.864  1.00  0.00     0.031 C 
ATOM     46  C   UNL A   1      39.104  27.234  29.044  1.00  0.00     0.029 A 
ATOM     47  N   UNL A   1      40.852  28.630  28.989  1.00  0.00    -0.354 N 
ATOM     48  C   UNL A   1      44.592  27.426  27.163  1.00  0.00     0.074 A 
ATOM     49  C   UNL A   1      44.506  26.073  26.659  1.00  0.00     0.031 C 
ATOM     50  C   UNL A   1      38.725  28.385  29.627  1.00  0.00     0.029 A 
ATOM     51  C   UNL A   1      39.858  29.309  29.650  1.00  0.00     0.049 A 
ATOM     52  H   UNL A   1      41.734  29.021  28.795  1.00  0.00     0.167 HD
ATOM     53  C   UNL A   1      45.683  28.217  27.040  1.00  0.00     0.037 A 
ATOM     54  C   UNL A   1      39.878  30.527  30.228  1.00  0.00     0.037 A 
ATOM     55  C   UNL A   1      45.766  29.557  27.554  1.00  0.00     0.049 A 
ATOM     56  C   UNL A   1      41.139  31.355  30.158  1.00  0.00     0.074 A 
ATOM     57  C   UNL A   1      46.824  30.445  27.479  1.00  0.00     0.029 A 
ATOM     58  N   UNL A   1      44.752  30.198  28.250  1.00  0.00    -0.354 N 
ATOM     59  N   UNL A   1      42.280  31.083  29.573  1.00  0.00    -0.248 NA
ATOM     60  C   UNL A   1      41.109  32.665  30.825  1.00  0.00     0.031 C 
ATOM     61  C   UNL A   1      46.472  31.601  28.183  1.00  0.00     0.029 A 
ATOM     62  C   UNL A   1      45.171  31.461  28.636  1.00  0.00     0.049 A 
ATOM     63  H   UNL A   1      43.867  29.813  28.442  1.00  0.00     0.167 HD
ATOM     64  C   UNL A   1      43.090  32.195  29.772  1.00  0.00     0.074 A 
ATOM     65  C   UNL A   1      42.303  33.153  30.519  1.00  0.00     0.031 C 
ATOM     66  C   UNL A   1      44.368  32.407  29.371  1.00  0.00     0.037 A 
BRANCH  53  67
ATOM     67  C   UNL A   1      46.885  27.637  26.354  1.00  0.00     0.064 A 
ATOM     68  C   UNL A   1      47.883  26.952  27.064  1.00  0.00     0.173 A 
ATOM     69  C   UNL A   1      47.028  27.748  24.963  1.00  0.00     0.173 A 
ATOM     70  F   UNL A   1      47.804  26.833  28.398  1.00  0.00    -0.203 F 
ATOM     71  C   UNL A   1      48.991  26.420  26.408  1.00  0.00     0.198 A 
ATOM     72  C   UNL A   1      48.120  27.187  24.307  1.00  0.00     0.198 A 
ATOM     73  F   UNL A   1      46.104  28.394  24.237  1.00  0.00    -0.203 F 
ATOM     74  F   UNL A   1      49.956  25.813  27.112  1.00  0.00    -0.200 F 
ATOM     75  C   UNL A   1      49.104  26.530  25.031  1.00  0.00     0.200 A 
ATOM     76  F   UNL A   1      48.222  27.284  22.974  1.00  0.00    -0.200 F 
ATOM     77  F   UNL A   1      50.166  26.011  24.400  1.00  0.00    -0.200 F 
ENDBRANCH  53  67
BRANCH  54  78
ATOM     78  C   UNL A   1      38.679  31.034  30.947  1.00  0.00     0.064 A 
ATOM     79  C   UNL A   1      37.638  31.675  30.260  1.00  0.00     0.173 A 
ATOM     80  C   UNL A   1      38.566  30.922  32.341  1.00  0.00     0.173 A 
ATOM     81  F   UNL A   1      37.711  31.833  28.931  1.00  0.00    -0.203 F 
ATOM     82  C   UNL A   1      36.543  32.206  30.942  1.00  0.00     0.198 A 
ATOM     83  C   UNL A   1      37.456  31.423  33.018  1.00  0.00     0.198 A 
ATOM     84  F   UNL A   1      39.535  30.323  33.048  1.00  0.00    -0.203 F 
ATOM     85  F   UNL A   1      35.592  32.864  30.268  1.00  0.00    -0.200 F 
ATOM     86  C   UNL A   1      36.451  32.074  32.320  1.00  0.00     0.200 A 
ATOM     87  F   UNL A   1      37.364  31.284  34.348  1.00  0.00    -0.200 F 
ATOM     88  F   UNL A   1      35.399  32.585  32.974  1.00  0.00    -0.200 F 
ENDBRANCH  54  78
BRANCH  66  89
ATOM     89  C   UNL A   1      44.984  33.741  29.687  1.00  0.00     0.064 A 
ATOM     90  C   UNL A   1      44.738  34.877  28.900  1.00  0.00     0.173 A 
ATOM     91  C   UNL A   1      45.795  33.895  30.823  1.00  0.00     0.173 A 
ATOM     92  F   UNL A   1      43.980  34.783  27.798  1.00  0.00    -0.203 F 
ATOM     93  C   UNL A   1      45.303  36.108  29.224  1.00  0.00     0.198 A 
ATOM     94  C   UNL A   1      46.329  35.134  31.163  1.00  0.00     0.198 A 
ATOM     95  F   UNL A   1      46.054  32.845  31.617  1.00  0.00    -0.203 F 
ATOM     96  F   UNL A   1      45.097  37.167  28.428  1.00  0.00    -0.200 F 
ATOM     97  C   UNL A   1      46.091  36.238  30.358  1.00  0.00     0.200 A 
ATOM     98  F   UNL A   1      47.074  35.261  32.270  1.00  0.00    -0.200 F 
ATOM     99  F   UNL A   1      46.626  37.425  30.672  1.00  0.00    -0.200 F 
ENDBRANCH  66  89
ENDBRANCH  40  41
ENDBRANCH  33  35
ENDBRANCH  32  33
ENDBRANCH  31  32
ENDBRANCH  30  31
ENDBRANCH  29  30
ENDBRANCH  28  29
ENDBRANCH  27  28
ENDBRANCH  26  27
ENDBRANCH   1  26
TORSDOF 24
ENDMDL
MODEL 2
REMARK VINA RESULT:     -10.4      1.326      7.202
REMARK SMILES COc1ncccc1C[C@H](C(=O)OCCOCCOCCOCCOC(=O)c1ccc(-c2c3nc(c(-c4c(F)c(F)c(F)c(F)c4F)c4ccc([nH]4)c(-c4c(F)c(F)c(F)c(F)c4F)c4nc(c(-c5c(F)c(F)c(F)c(F)c5F)c5ccc2[nH]5)C=C4)C=C3)cc1)c1ccc(F)cc1
REMARK SMILES IDX 18 1 17 2 16 3 15 4 14 5 13 6 11 7 12 8 10 9 9 10 8 11 3 12
REMARK SMILES IDX 4 13 5 14 7 15 6 16 2 17 1 18 91 19 92 20 97 21 93 22 96 23
REMARK SMILES IDX 94 24 95 25 19 26 20 27 21 28 22 29 23 30 24 31 25 32 26 33
REMARK SMILES IDX 27 34 28 35 29 36 90 37 30 38 89 39 31 40 32 41 33 42 83 43
REMARK SMILES IDX 34 44 88 45 82 46 84 47 35 48 87 49 81 50 80 51 36 53 68 54
REMARK SMILES IDX 48 55 67 56 49 57 52 58 66 59 85 60 50 61 51 62 65 64 86 65
REMARK SMILES IDX 53 66 37 67 38 68 46 69 39 70 40 71 44 72 47 73 41 74 42 75
REMARK SMILES IDX 45 76 43 77 69 78 70 79 78 80 71 81 72 82 76 83 79 84 73 85
REMARK SMILES IDX 74 86 77 87 75 88 54 89 55 90 63 91 56 92 57 93 61 94 64 95
REMARK SMILES IDX 58 96 59 97 62 98 60 99
REMARK H PARENT 84 52 52 63
REMARK Flexibility Score: inf
ROOT
ATOM      1  C   UNL A   1      31.901  23.011  23.598  1.00  0.00     0.188 C 
ENDROOT
BRANCH   1   2
ATOM      2  C   UNL A   1      33.129  23.843  23.184  1.00  0.00     0.188 C 
BRANCH   2   3
ATOM      3  O   UNL A   1      33.239  24.373  21.868  1.00  0.00    -0.376 OA
BRANCH   3   4
ATOM      4  C   UNL A   1      32.791  25.689  21.613  1.00  0.00     0.202 C 
BRANCH   4   5
ATOM      5  C   UNL A   1      31.271  25.933  21.628  1.00  0.00     0.261 C 
BRANCH   5   6
ATOM      6  O   UNL A   1      30.790  27.267  21.916  1.00  0.00    -0.463 OA
BRANCH   6   7
ATOM      7  C   UNL A   1      30.339  27.524  23.177  1.00  0.00     0.313 C 
ATOM      8  O   UNL A   1      29.686  26.725  23.840  1.00  0.00    -0.252 OA
BRANCH   7   9
ATOM      9  C   UNL A   1      30.685  28.944  23.693  1.00  0.00     0.134 C 
BRANCH   9  10
ATOM     10  C   UNL A   1      32.231  29.108  23.949  1.00  0.00     0.061 C 
BRANCH  10  11
ATOM     11  C   UNL A   1      32.832  29.313  25.328  1.00  0.00     0.015 A 
ATOM     12  C   UNL A   1      33.779  28.474  25.920  1.00  0.00     0.216 A 
ATOM     13  N   UNL A   1      34.385  28.717  27.106  1.00  0.00    -0.222 NA
ATOM     14  C   UNL A   1      34.030  29.844  27.754  1.00  0.00     0.115 A 
ATOM     15  C   UNL A   1      32.445  30.434  26.081  1.00  0.00     0.011 A 
ATOM     16  C   UNL A   1      33.054  30.711  27.301  1.00  0.00     0.021 A 
BRANCH  12  17
ATOM     17  O   UNL A   1      33.989  27.232  25.394  1.00  0.00    -0.481 OA
ATOM     18  C   UNL A   1      33.138  26.238  25.946  1.00  0.00     0.280 C 
ENDBRANCH  12  17
ENDBRANCH  10  11
ENDBRANCH   9  10
BRANCH   9  19
ATOM     19  C   UNL A   1      29.863  30.071  23.057  1.00  0.00    -0.033 A 
ATOM     20  C   UNL A   1      29.595  30.108  21.678  1.00  0.00     0.007 A 
ATOM     21  C   UNL A   1      29.418  31.168  23.821  1.00  0.00     0.007 A 
ATOM     22  C   UNL A   1      28.757  31.074  21.120  1.00  0.00     0.039 A 
ATOM     23  C   UNL A   1      28.617  32.165  23.257  1.00  0.00     0.039 A 
ATOM     24  C   UNL A   1      28.262  32.088  21.920  1.00  0.00     0.123 A 
ATOM     25  F   UNL A   1      27.455  33.014  21.390  1.00  0.00    -0.207 F 
ENDBRANCH   9  19
ENDBRANCH   7   9
ENDBRANCH   6   7
ENDBRANCH   5   6
ENDBRANCH   4   5
ENDBRANCH   3   4
ENDBRANCH   2   3
ENDBRANCH   1   2
BRANCH   1  26
ATOM     26  O   UNL A   1      32.110  22.131  24.692  1.00  0.00    -0.377 OA
BRANCH  26  27
ATOM     27  C   UNL A   1      32.389  20.794  24.327  1.00  0.00     0.188 C 
BRANCH  27  28
ATOM     28  C   UNL A   1      33.654  20.242  24.996  1.00  0.00     0.188 C 
BRANCH  28  29
ATOM     29  O   UNL A   1      34.464  21.286  25.513  1.00  0.00    -0.376 OA
BRANCH  29  30
ATOM     30  C   UNL A   1      35.684  21.644  24.897  1.00  0.00     0.202 C 
BRANCH  30  31
ATOM     31  C   UNL A   1      36.983  20.872  25.182  1.00  0.00     0.261 C 
BRANCH  31  32
ATOM     32  O   UNL A   1      38.211  21.604  25.192  1.00  0.00    -0.460 OA
BRANCH  32  33
ATOM     33  C   UNL A   1      39.135  21.281  26.117  1.00  0.00     0.338 C 
ATOM     34  O   UNL A   1      39.566  20.170  26.373  1.00  0.00    -0.246 OA
BRANCH  33  35
ATOM     35  C   UNL A   1      39.692  22.549  26.637  1.00  0.00     0.060 A 
ATOM     36  C   UNL A   1      39.183  23.761  26.152  1.00  0.00     0.016 A 
ATOM     37  C   UNL A   1      40.684  22.544  27.622  1.00  0.00     0.016 A 
ATOM     38  C   UNL A   1      39.679  24.971  26.633  1.00  0.00     0.010 A 
ATOM     39  C   UNL A   1      41.207  23.757  28.079  1.00  0.00     0.010 A 
ATOM     40  C   UNL A   1      40.728  24.974  27.561  1.00  0.00    -0.014 A 
BRANCH  40  41
ATOM     41  C   UNL A   1      41.472  26.231  27.811  1.00  0.00     0.031 A 
ATOM     42  C   UNL A   1      40.758  27.336  28.538  1.00  0.00     0.074 A 
ATOM     43  C   UNL A   1      42.753  26.380  27.435  1.00  0.00     0.049 A 
ATOM     44  N   UNL A   1      41.171  28.539  28.842  1.00  0.00    -0.248 NA
ATOM     45  C   UNL A   1      39.385  27.040  28.982  1.00  0.00     0.031 C 
ATOM     46  C   UNL A   1      43.563  25.363  26.769  1.00  0.00     0.029 A 
ATOM     47  N   UNL A   1      43.594  27.458  27.555  1.00  0.00    -0.354 N 
ATOM     48  C   UNL A   1      40.112  29.142  29.508  1.00  0.00     0.074 A 
ATOM     49  C   UNL A   1      39.026  28.187  29.537  1.00  0.00     0.031 C 
ATOM     50  C   UNL A   1      44.783  25.873  26.524  1.00  0.00     0.029 A 
ATOM     51  C   UNL A   1      44.827  27.260  26.986  1.00  0.00     0.049 A 
ATOM     52  H   UNL A   1      43.337  28.294  28.008  1.00  0.00     0.167 HD
ATOM     53  C   UNL A   1      40.054  30.378  30.056  1.00  0.00     0.037 A 
ATOM     54  C   UNL A   1      45.858  28.115  26.834  1.00  0.00     0.037 A 
ATOM     55  C   UNL A   1      41.133  31.327  30.014  1.00  0.00     0.049 A 
ATOM     56  C   UNL A   1      45.736  29.520  27.373  1.00  0.00     0.074 A 
ATOM     57  C   UNL A   1      41.178  32.605  30.542  1.00  0.00     0.029 A 
ATOM     58  N   UNL A   1      42.354  31.104  29.396  1.00  0.00    -0.354 N 
ATOM     59  N   UNL A   1      44.743  30.076  28.025  1.00  0.00    -0.248 NA
ATOM     60  C   UNL A   1      46.883  30.414  27.159  1.00  0.00     0.031 C 
ATOM     61  C   UNL A   1      42.406  33.177  30.192  1.00  0.00     0.029 A 
ATOM     62  C   UNL A   1      43.151  32.232  29.505  1.00  0.00     0.049 A 
ATOM     63  H   UNL A   1      42.617  30.269  28.946  1.00  0.00     0.167 HD
ATOM     64  C   UNL A   1      45.156  31.368  28.327  1.00  0.00     0.074 A 
ATOM     65  C   UNL A   1      46.498  31.509  27.799  1.00  0.00     0.031 C 
ATOM     66  C   UNL A   1      44.490  32.351  28.983  1.00  0.00     0.037 A 
BRANCH  53  67
ATOM     67  C   UNL A   1      38.768  30.783  30.716  1.00  0.00     0.064 A 
ATOM     68  C   UNL A   1      38.596  30.714  32.106  1.00  0.00     0.173 A 
ATOM     69  C   UNL A   1      37.701  31.271  29.947  1.00  0.00     0.173 A 
ATOM     70  F   UNL A   1      39.579  30.238  32.886  1.00  0.00    -0.203 F 
ATOM     71  C   UNL A   1      37.395  31.096  32.700  1.00  0.00     0.198 A 
ATOM     72  C   UNL A   1      36.514  31.682  30.545  1.00  0.00     0.198 A 
ATOM     73  F   UNL A   1      37.812  31.356  28.613  1.00  0.00    -0.203 F 
ATOM     74  F   UNL A   1      37.236  30.974  34.025  1.00  0.00    -0.200 F 
ATOM     75  C   UNL A   1      36.359  31.587  31.920  1.00  0.00     0.200 A 
ATOM     76  F   UNL A   1      35.518  32.168  29.791  1.00  0.00    -0.200 F 
ATOM     77  F   UNL A   1      35.207  31.962  32.492  1.00  0.00    -0.200 F 
ENDBRANCH  53  67
BRANCH  54  78
ATOM     78  C   UNL A   1      47.090  27.683  26.121  1.00  0.00     0.064 A 
ATOM     79  C   UNL A   1      47.176  27.730  24.723  1.00  0.00     0.173 A 
ATOM     80  C   UNL A   1      48.195  27.176  26.824  1.00  0.00     0.173 A 
ATOM     81  F   UNL A   1      46.137  28.178  24.004  1.00  0.00    -0.203 F 
ATOM     82  C   UNL A   1      48.307  27.265  24.053  1.00  0.00     0.198 A 
ATOM     83  C   UNL A   1      49.338  26.743  26.155  1.00  0.00     0.198 A 
ATOM     84  F   UNL A   1      48.165  27.103  28.162  1.00  0.00    -0.203 F 
ATOM     85  F   UNL A   1      48.338  27.269  22.714  1.00  0.00    -0.200 F 
ATOM     86  C   UNL A   1      49.389  26.778  24.770  1.00  0.00     0.200 A 
ATOM     87  F   UNL A   1      50.387  26.283  26.852  1.00  0.00    -0.200 F 
ATOM     88  F   UNL A   1      50.476  26.331  24.125  1.00  0.00    -0.200 F 
ENDBRANCH  54  78
BRANCH  66  89
ATOM     89  C   UNL A   1      45.212  33.648  29.213  1.00  0.00     0.064 A 
ATOM     90  C   UNL A   1      45.993  33.870  30.358  1.00  0.00     0.173 A 
ATOM     91  C   UNL A   1      45.160  34.667  28.249  1.00  0.00     0.173 A 
ATOM     92  F   UNL A   1      46.068  32.934  31.315  1.00  0.00    -0.203 F 
ATOM     93  C   UNL A   1      46.670  35.073  30.540  1.00  0.00     0.198 A 
ATOM     94  C   UNL A   1      45.866  35.855  28.418  1.00  0.00     0.198 A 
ATOM     95  F   UNL A   1      44.437  34.504  27.130  1.00  0.00    -0.203 F 
ATOM     96  F   UNL A   1      47.367  35.283  31.666  1.00  0.00    -0.200 F 
ATOM     97  C   UNL A   1      46.613  36.060  29.568  1.00  0.00     0.200 A 
ATOM     98  F   UNL A   1      45.825  36.799  27.468  1.00  0.00    -0.200 F 
ATOM     99  F   UNL A   1      47.273  37.214  29.742  1.00  0.00    -0.200 F 
ENDBRANCH  66  89
ENDBRANCH  40  41
ENDBRANCH  33  35
ENDBRANCH  32  33
ENDBRANCH  31  32
ENDBRANCH  30  31
ENDBRANCH  29  30
ENDBRANCH  28  29
ENDBRANCH  27  28
ENDBRANCH  26  27
ENDBRANCH   1  26
TORSDOF 24
ENDMDL
MODEL 3
REMARK VINA RESULT:     -10.3      1.902      7.867
REMARK SMILES COc1ncccc1C[C@H](C(=O)OCCOCCOCCOCCOC(=O)c1ccc(-c2c3nc(c(-c4c(F)c(F)c(F)c(F)c4F)c4ccc([nH]4)c(-c4c(F)c(F)c(F)c(F)c4F)c4nc(c(-c5c(F)c(F)c(F)c(F)c5F)c5ccc2[nH]5)C=C4)C=C3)cc1)c1ccc(F)cc1
REMARK SMILES IDX 18 1 17 2 16 3 15 4 14 5 13 6 11 7 12 8 10 9 9 10 8 11 3 12
REMARK SMILES IDX 4 13 5 14 7 15 6 16 2 17 1 18 91 19 92 20 97 21 93 22 96 23
REMARK SMILES IDX 94 24 95 25 19 26 20 27 21 28 22 29 23 30 24 31 25 32 26 33
REMARK SMILES IDX 27 34 28 35 29 36 90 37 30 38 89 39 31 40 32 41 33 42 83 43
REMARK SMILES IDX 34 44 88 45 82 46 84 47 35 48 87 49 81 50 80 51 36 53 68 54
REMARK SMILES IDX 48 55 67 56 49 57 52 58 66 59 85 60 50 61 51 62 65 64 86 65
REMARK SMILES IDX 53 66 37 67 38 68 46 69 39 70 40 71 44 72 47 73 41 74 42 75
REMARK SMILES IDX 45 76 43 77 69 78 70 79 78 80 71 81 72 82 76 83 79 84 73 85
REMARK SMILES IDX 74 86 77 87 75 88 54 89 55 90 63 91 56 92 57 93 61 94 64 95
REMARK SMILES IDX 58 96 59 97 62 98 60 99
REMARK H PARENT 84 52 52 63
REMARK Flexibility Score: inf
ROOT
ATOM      1  C   UNL A   1      33.052  24.536  24.270  1.00  0.00     0.188 C 
ENDROOT
BRANCH   1   2
ATOM      2  C   UNL A   1      33.957  25.173  23.197  1.00  0.00     0.188 C 
BRANCH   2   3
ATOM      3  O   UNL A   1      33.667  25.013  21.813  1.00  0.00    -0.376 OA
BRANCH   3   4
ATOM      4  C   UNL A   1      32.693  25.841  21.211  1.00  0.00     0.202 C 
BRANCH   4   5
ATOM      5  C   UNL A   1      31.393  26.090  21.996  1.00  0.00     0.261 C 
BRANCH   5   6
ATOM      6  O   UNL A   1      30.793  27.405  21.937  1.00  0.00    -0.463 OA
BRANCH   6   7
ATOM      7  C   UNL A   1      30.113  27.844  23.035  1.00  0.00     0.313 C 
ATOM      8  O   UNL A   1      29.186  27.227  23.551  1.00  0.00    -0.252 OA
BRANCH   7   9
ATOM      9  C   UNL A   1      30.581  29.227  23.554  1.00  0.00     0.134 C 
BRANCH   9  10
ATOM     10  C   UNL A   1      29.375  30.231  23.702  1.00  0.00     0.061 C 
BRANCH  10  11
ATOM     11  C   UNL A   1      28.775  30.992  22.533  1.00  0.00     0.015 A 
ATOM     12  C   UNL A   1      28.648  32.381  22.463  1.00  0.00     0.216 A 
ATOM     13  N   UNL A   1      28.205  33.058  21.378  1.00  0.00    -0.222 NA
ATOM     14  C   UNL A   1      27.856  32.326  20.301  1.00  0.00     0.115 A 
ATOM     15  C   UNL A   1      28.327  30.274  21.411  1.00  0.00     0.011 A 
ATOM     16  C   UNL A   1      27.872  30.945  20.279  1.00  0.00     0.021 A 
BRANCH  12  17
ATOM     17  O   UNL A   1      28.785  33.119  23.603  1.00  0.00    -0.481 OA
ATOM     18  C   UNL A   1      29.842  34.066  23.534  1.00  0.00     0.280 C 
ENDBRANCH  12  17
ENDBRANCH  10  11
ENDBRANCH   9  10
BRANCH   9  19
ATOM     19  C   UNL A   1      31.696  29.169  24.605  1.00  0.00    -0.033 A 
ATOM     20  C   UNL A   1      31.588  29.830  25.840  1.00  0.00     0.007 A 
ATOM     21  C   UNL A   1      32.918  28.523  24.334  1.00  0.00     0.007 A 
ATOM     22  C   UNL A   1      32.555  29.687  26.835  1.00  0.00     0.039 A 
ATOM     23  C   UNL A   1      33.912  28.417  25.311  1.00  0.00     0.039 A 
ATOM     24  C   UNL A   1      33.705  28.967  26.566  1.00  0.00     0.123 A 
ATOM     25  F   UNL A   1      34.633  28.823  27.519  1.00  0.00    -0.207 F 
ENDBRANCH   9  19
ENDBRANCH   7   9
ENDBRANCH   6   7
ENDBRANCH   5   6
ENDBRANCH   4   5
ENDBRANCH   3   4
ENDBRANCH   2   3
ENDBRANCH   1   2
BRANCH   1  26
ATOM     26  O   UNL A   1      33.557  23.345  24.854  1.00  0.00    -0.377 OA
BRANCH  26  27
ATOM     27  C   UNL A   1      33.533  22.217  24.002  1.00  0.00     0.188 C 
BRANCH  27  28
ATOM     28  C   UNL A   1      33.590  20.888  24.765  1.00  0.00     0.188 C 
BRANCH  28  29
ATOM     29  O   UNL A   1      34.265  21.031  26.005  1.00  0.00    -0.376 OA
BRANCH  29  30
ATOM     30  C   UNL A   1      35.589  21.519  26.069  1.00  0.00     0.202 C 
BRANCH  30  31
ATOM     31  C   UNL A   1      36.716  20.898  25.228  1.00  0.00     0.261 C 
BRANCH  31  32
ATOM     32  O   UNL A   1      37.945  21.620  25.113  1.00  0.00    -0.460 OA
BRANCH  32  33
ATOM     33  C   UNL A   1      38.978  21.240  25.888  1.00  0.00     0.338 C 
ATOM     34  O   UNL A   1      39.451  20.121  25.993  1.00  0.00    -0.246 OA
BRANCH  33  35
ATOM     35  C   UNL A   1      39.579  22.472  26.446  1.00  0.00     0.060 A 
ATOM     36  C   UNL A   1      39.040  23.712  26.081  1.00  0.00     0.016 A 
ATOM     37  C   UNL A   1      40.644  22.403  27.349  1.00  0.00     0.016 A 
ATOM     38  C   UNL A   1      39.577  24.889  26.600  1.00  0.00     0.010 A 
ATOM     39  C   UNL A   1      41.205  23.584  27.842  1.00  0.00     0.010 A 
ATOM     40  C   UNL A   1      40.694  24.832  27.444  1.00  0.00    -0.014 A 
BRANCH  40  41
ATOM     41  C   UNL A   1      41.460  26.070  27.717  1.00  0.00     0.031 A 
ATOM     42  C   UNL A   1      40.757  27.185  28.439  1.00  0.00     0.074 A 
ATOM     43  C   UNL A   1      42.751  26.193  27.365  1.00  0.00     0.049 A 
ATOM     44  N   UNL A   1      41.191  28.376  28.760  1.00  0.00    -0.248 NA
ATOM     45  C   UNL A   1      39.370  26.916  28.856  1.00  0.00     0.031 C 
ATOM     46  C   UNL A   1      43.551  25.164  26.707  1.00  0.00     0.029 A 
ATOM     47  N   UNL A   1      43.613  27.252  27.510  1.00  0.00    -0.354 N 
ATOM     48  C   UNL A   1      40.133  28.997  29.412  1.00  0.00     0.074 A 
ATOM     49  C   UNL A   1      39.026  28.066  29.413  1.00  0.00     0.031 C 
ATOM     50  C   UNL A   1      44.786  25.648  26.488  1.00  0.00     0.029 A 
ATOM     51  C   UNL A   1      44.852  27.031  26.961  1.00  0.00     0.049 A 
ATOM     52  H   UNL A   1      43.367  28.089  27.965  1.00  0.00     0.167 HD
ATOM     53  C   UNL A   1      40.092  30.230  29.968  1.00  0.00     0.037 A 
ATOM     54  C   UNL A   1      45.904  27.864  26.835  1.00  0.00     0.037 A 
ATOM     55  C   UNL A   1      41.192  31.156  29.954  1.00  0.00     0.049 A 
ATOM     56  C   UNL A   1      45.803  29.267  27.383  1.00  0.00     0.074 A 
ATOM     57  C   UNL A   1      41.256  32.428  30.493  1.00  0.00     0.029 A 
ATOM     58  N   UNL A   1      42.420  30.911  29.356  1.00  0.00    -0.354 N 
ATOM     59  N   UNL A   1      44.811  29.840  28.021  1.00  0.00    -0.248 NA
ATOM     60  C   UNL A   1      46.973  30.138  27.198  1.00  0.00     0.031 C 
ATOM     61  C   UNL A   1      42.502  32.975  30.169  1.00  0.00     0.029 A 
ATOM     62  C   UNL A   1      43.239  32.020  29.489  1.00  0.00     0.049 A 
ATOM     63  H   UNL A   1      42.672  30.073  28.905  1.00  0.00     0.167 HD
ATOM     64  C   UNL A   1      45.246  31.121  28.341  1.00  0.00     0.074 A 
ATOM     65  C   UNL A   1      46.600  31.236  27.839  1.00  0.00     0.031 C 
ATOM     66  C   UNL A   1      44.589  32.113  28.993  1.00  0.00     0.037 A 
BRANCH  53  67
ATOM     67  C   UNL A   1      38.804  30.659  30.607  1.00  0.00     0.064 A 
ATOM     68  C   UNL A   1      38.619  30.621  31.998  1.00  0.00     0.173 A 
ATOM     69  C   UNL A   1      37.747  31.136  29.818  1.00  0.00     0.173 A 
ATOM     70  F   UNL A   1      39.592  30.155  32.796  1.00  0.00    -0.203 F 
ATOM     71  C   UNL A   1      37.415  31.024  32.572  1.00  0.00     0.198 A 
ATOM     72  C   UNL A   1      36.557  31.569  30.397  1.00  0.00     0.198 A 
ATOM     73  F   UNL A   1      37.870  31.192  28.484  1.00  0.00    -0.203 F 
ATOM     74  F   UNL A   1      37.244  30.933  33.898  1.00  0.00    -0.200 F 
ATOM     75  C   UNL A   1      36.390  31.505  31.772  1.00  0.00     0.200 A 
ATOM     76  F   UNL A   1      35.572  32.045  29.624  1.00  0.00    -0.200 F 
ATOM     77  F   UNL A   1      35.236  31.900  32.326  1.00  0.00    -0.200 F 
ENDBRANCH  53  67
BRANCH  54  78
ATOM     78  C   UNL A   1      47.139  27.410  26.142  1.00  0.00     0.064 A 
ATOM     79  C   UNL A   1      48.177  26.781  26.844  1.00  0.00     0.173 A 
ATOM     80  C   UNL A   1      47.324  27.631  24.769  1.00  0.00     0.173 A 
ATOM     81  F   UNL A   1      48.061  26.572  28.164  1.00  0.00    -0.203 F 
ATOM     82  C   UNL A   1      49.360  26.412  26.206  1.00  0.00     0.198 A 
ATOM     83  C   UNL A   1      48.494  27.232  24.124  1.00  0.00     0.198 A 
ATOM     84  F   UNL A   1      46.367  28.234  24.049  1.00  0.00    -0.203 F 
ATOM     85  F   UNL A   1      50.358  25.865  26.913  1.00  0.00    -0.200 F 
ATOM     86  C   UNL A   1      49.515  26.632  24.846  1.00  0.00     0.200 A 
ATOM     87  F   UNL A   1      48.636  27.437  22.808  1.00  0.00    -0.200 F 
ATOM     88  F   UNL A   1      50.654  26.279  24.233  1.00  0.00    -0.200 F 
ENDBRANCH  54  78
BRANCH  66  89
ATOM     89  C   UNL A   1      45.336  33.392  29.246  1.00  0.00     0.064 A 
ATOM     90  C   UNL A   1      46.126  33.575  30.391  1.00  0.00     0.173 A 
ATOM     91  C   UNL A   1      45.296  34.432  28.304  1.00  0.00     0.173 A 
ATOM     92  F   UNL A   1      46.189  32.618  31.328  1.00  0.00    -0.203 F 
ATOM     93  C   UNL A   1      46.824  34.763  30.595  1.00  0.00     0.198 A 
ATOM     94  C   UNL A   1      46.025  35.603  28.494  1.00  0.00     0.198 A 
ATOM     95  F   UNL A   1      44.566  34.305  27.186  1.00  0.00    -0.203 F 
ATOM     96  F   UNL A   1      47.531  34.937  31.722  1.00  0.00    -0.200 F 
ATOM     97  C   UNL A   1      46.780  35.771  29.644  1.00  0.00     0.200 A 
ATOM     98  F   UNL A   1      45.995  36.568  27.564  1.00  0.00    -0.200 F 
ATOM     99  F   UNL A   1      47.462  36.909  29.839  1.00  0.00    -0.200 F 
ENDBRANCH  66  89
ENDBRANCH  40  41
ENDBRANCH  33  35
ENDBRANCH  32  33
ENDBRANCH  31  32
ENDBRANCH  30  31
ENDBRANCH  29  30
ENDBRANCH  28  29
ENDBRANCH  27  28
ENDBRANCH  26  27
ENDBRANCH   1  26
TORSDOF 24
ENDMDL
