MODEL 1
REMARK VINA RESULT:      -8.7      0.000      0.000
REMARK SMILES CC[N@@H+](C)CCNC(=O)N1CCC(CC(=O)OCCOCCOCCOCCOC(=O)c2ccc(-c3c4nc(c(-c5c(F)c(F)c(F)c(F)c5F)c5ccc([nH]5)c(-c5c(F)c(F)c(F)c(F)c5F)c5nc(c(-c6c(F)c(F)c(F)c(F)c6F)c6ccc3[nH]6)C=C5)C=C4)cc2)CC1
REMARK SMILES IDX 21 1 20 2 19 3 18 4 17 5 15 6 16 7 14 8 13 9 7 10 8 11 9 13
REMARK SMILES IDX 10 14 11 15 96 16 12 17 95 18 6 19 5 20 3 21 4 22 2 24 1 25
REMARK SMILES IDX 22 26 23 27 24 28 25 29 26 30 27 31 28 32 29 33 30 34 31 35
REMARK SMILES IDX 32 36 33 37 94 38 34 39 93 40 35 41 36 42 37 43 87 44 38 45
REMARK SMILES IDX 92 46 86 47 88 48 39 49 91 50 85 51 84 52 40 54 72 55 52 56
REMARK SMILES IDX 71 57 53 58 56 59 70 60 89 61 54 62 55 63 69 65 90 66 57 67
REMARK SMILES IDX 41 68 42 69 50 70 43 71 44 72 48 73 51 74 45 75 46 76 49 77
REMARK SMILES IDX 47 78 73 79 74 80 82 81 75 82 76 83 80 84 83 85 77 86 78 87
REMARK SMILES IDX 81 88 79 89 58 90 59 91 67 92 60 93 61 94 65 95 68 96 62 97
REMARK SMILES IDX 63 98 66 99 64 100
REMARK H PARENT 7 12 3 23 88 53 56 64
REMARK Flexibility Score: inf
ROOT
ATOM      1  C   UNL A   1      33.845  30.224  27.069  1.00  0.00     0.188 C 
ENDROOT
BRANCH   1   2
ATOM      2  O   UNL A   1      32.607  30.631  26.532  1.00  0.00    -0.376 OA
BRANCH   2   3
ATOM      3  C   UNL A   1      31.745  29.702  25.893  1.00  0.00     0.202 C 
BRANCH   3   4
ATOM      4  C   UNL A   1      31.424  29.673  24.387  1.00  0.00     0.261 C 
BRANCH   4   5
ATOM      5  O   UNL A   1      30.043  29.614  24.001  1.00  0.00    -0.463 OA
BRANCH   5   6
ATOM      6  C   UNL A   1      29.737  28.685  23.066  1.00  0.00     0.306 C 
ATOM      7  O   UNL A   1      29.753  28.892  21.856  1.00  0.00    -0.252 OA
BRANCH   6   8
ATOM      8  C   UNL A   1      29.403  27.310  23.603  1.00  0.00     0.126 C 
BRANCH   8   9
ATOM      9  C   UNL A   1      30.473  26.373  24.169  1.00  0.00     0.003 C 
ATOM     10  N   UNL A   1      31.021  21.733  25.941  1.00  0.00    -0.332 N 
ATOM     11  C   UNL A   1      30.921  23.021  26.355  1.00  0.00     0.317 C 
ATOM     12  H   UNL A   1      30.275  21.143  26.193  1.00  0.00     0.165 HD
ATOM     13  O   UNL A   1      30.382  23.243  27.438  1.00  0.00    -0.249 OA
ATOM     14  N   UNL A   1      31.417  24.011  25.549  1.00  0.00    -0.325 N 
ATOM     15  C   UNL A   1      31.659  25.333  26.120  1.00  0.00     0.121 C 
ATOM     16  C   UNL A   1      31.302  23.977  24.095  1.00  0.00     0.121 C 
ATOM     17  C   UNL A   1      30.568  26.326  25.700  1.00  0.00     0.026 C 
ATOM     18  C   UNL A   1      30.227  24.952  23.623  1.00  0.00     0.026 C 
BRANCH  10  19
ATOM     19  C   UNL A   1      32.090  21.113  25.174  1.00  0.00     0.179 C 
BRANCH  19  20
ATOM     20  C   UNL A   1      33.444  21.060  25.915  1.00  0.00     0.283 C 
BRANCH  20  21
ATOM     21  N   UNL A   1      34.540  21.949  25.495  1.00  0.00    -0.336 N 
ATOM     22  C   UNL A   1      34.519  22.217  24.059  1.00  0.00     0.332 C 
ATOM     23  H   UNL A   1      34.329  22.808  26.003  1.00  0.00     0.347 HD
BRANCH  21  24
ATOM     24  C   UNL A   1      35.890  21.593  25.943  1.00  0.00     0.258 C 
ATOM     25  C   UNL A   1      36.666  20.675  25.006  1.00  0.00     0.071 C 
ENDBRANCH  21  24
ENDBRANCH  20  21
ENDBRANCH  19  20
ENDBRANCH  10  19
ENDBRANCH   8   9
ENDBRANCH   6   8
ENDBRANCH   5   6
ENDBRANCH   4   5
ENDBRANCH   3   4
ENDBRANCH   2   3
ENDBRANCH   1   2
BRANCH   1  26
ATOM     26  C   UNL A   1      34.832  31.312  27.508  1.00  0.00     0.188 C 
BRANCH  26  27
ATOM     27  O   UNL A   1      36.075  30.889  28.038  1.00  0.00    -0.377 OA
BRANCH  27  28
ATOM     28  C   UNL A   1      36.130  29.760  28.906  1.00  0.00     0.188 C 
BRANCH  28  29
ATOM     29  C   UNL A   1      37.125  29.691  30.082  1.00  0.00     0.188 C 
BRANCH  29  30
ATOM     30  O   UNL A   1      36.538  29.562  31.365  1.00  0.00    -0.376 OA
BRANCH  30  31
ATOM     31  C   UNL A   1      36.243  30.741  32.099  1.00  0.00     0.202 C 
BRANCH  31  32
ATOM     32  C   UNL A   1      35.401  31.812  31.389  1.00  0.00     0.261 C 
BRANCH  32  33
ATOM     33  O   UNL A   1      34.699  32.726  32.250  1.00  0.00    -0.460 OA
BRANCH  33  34
ATOM     34  C   UNL A   1      35.135  33.997  32.296  1.00  0.00     0.338 C 
ATOM     35  O   UNL A   1      34.660  34.970  31.723  1.00  0.00    -0.246 OA
BRANCH  34  36
ATOM     36  C   UNL A   1      36.205  34.088  33.302  1.00  0.00     0.060 A 
ATOM     37  C   UNL A   1      37.470  34.533  32.900  1.00  0.00     0.016 A 
ATOM     38  C   UNL A   1      35.979  33.672  34.616  1.00  0.00     0.016 A 
ATOM     39  C   UNL A   1      38.538  34.488  33.792  1.00  0.00     0.010 A 
ATOM     40  C   UNL A   1      37.055  33.611  35.506  1.00  0.00     0.010 A 
ATOM     41  C   UNL A   1      38.347  33.964  35.078  1.00  0.00    -0.014 A 
BRANCH  41  42
ATOM     42  C   UNL A   1      39.532  33.531  35.859  1.00  0.00     0.031 A 
ATOM     43  C   UNL A   1      40.048  34.460  36.927  1.00  0.00     0.074 A 
ATOM     44  C   UNL A   1      40.100  32.326  35.676  1.00  0.00     0.049 A 
ATOM     45  N   UNL A   1      41.080  34.331  37.721  1.00  0.00    -0.248 NA
ATOM     46  C   UNL A   1      39.291  35.709  37.128  1.00  0.00     0.031 C 
ATOM     47  C   UNL A   1      39.660  31.319  34.714  1.00  0.00     0.029 A 
ATOM     48  N   UNL A   1      41.180  31.751  36.299  1.00  0.00    -0.354 N 
ATOM     49  C   UNL A   1      41.093  35.475  38.509  1.00  0.00     0.074 A 
ATOM     50  C   UNL A   1      39.994  36.307  38.075  1.00  0.00     0.031 C 
ATOM     51  C   UNL A   1      40.474  30.251  34.800  1.00  0.00     0.029 A 
ATOM     52  C   UNL A   1      41.509  30.515  35.799  1.00  0.00     0.049 A 
ATOM     53  H   UNL A   1      41.673  32.184  37.032  1.00  0.00     0.167 HD
ATOM     54  C   UNL A   1      41.936  35.796  39.519  1.00  0.00     0.037 A 
ATOM     55  C   UNL A   1      42.542  29.705  36.103  1.00  0.00     0.037 A 
ATOM     56  C   UNL A   1      43.031  34.970  39.950  1.00  0.00     0.049 A 
ATOM     57  C   UNL A   1      43.517  30.127  37.179  1.00  0.00     0.074 A 
ATOM     58  C   UNL A   1      43.959  35.216  40.945  1.00  0.00     0.029 A 
ATOM     59  N   UNL A   1      43.343  33.734  39.405  1.00  0.00    -0.354 N 
ATOM     60  N   UNL A   1      43.520  31.207  37.923  1.00  0.00    -0.248 NA
ATOM     61  C   UNL A   1      44.627  29.207  37.464  1.00  0.00     0.031 C 
ATOM     62  C   UNL A   1      44.860  34.147  40.975  1.00  0.00     0.029 A 
ATOM     63  C   UNL A   1      44.454  33.207  40.041  1.00  0.00     0.049 A 
ATOM     64  H   UNL A   1      42.848  33.295  38.676  1.00  0.00     0.167 HD
ATOM     65  C   UNL A   1      44.598  31.071  38.791  1.00  0.00     0.074 A 
ATOM     66  C   UNL A   1      45.218  29.800  38.490  1.00  0.00     0.031 C 
ATOM     67  C   UNL A   1      45.036  31.922  39.752  1.00  0.00     0.037 A 
BRANCH  54  68
ATOM     68  C   UNL A   1      41.712  37.102  40.224  1.00  0.00     0.064 A 
ATOM     69  C   UNL A   1      40.957  37.181  41.404  1.00  0.00     0.173 A 
ATOM     70  C   UNL A   1      42.300  38.281  39.741  1.00  0.00     0.173 A 
ATOM     71  F   UNL A   1      40.358  36.086  41.896  1.00  0.00    -0.203 F 
ATOM     72  C   UNL A   1      40.788  38.394  42.067  1.00  0.00     0.198 A 
ATOM     73  C   UNL A   1      42.154  39.486  40.423  1.00  0.00     0.198 A 
ATOM     74  F   UNL A   1      43.031  38.261  38.616  1.00  0.00    -0.203 F 
ATOM     75  F   UNL A   1      40.031  38.452  43.171  1.00  0.00    -0.200 F 
ATOM     76  C   UNL A   1      41.395  39.542  41.582  1.00  0.00     0.200 A 
ATOM     77  F   UNL A   1      42.752  40.593  39.960  1.00  0.00    -0.200 F 
ATOM     78  F   UNL A   1      41.245  40.706  42.230  1.00  0.00    -0.200 F 
ENDBRANCH  54  68
BRANCH  55  79
ATOM     79  C   UNL A   1      42.740  28.422  35.376  1.00  0.00     0.064 A 
ATOM     80  C   UNL A   1      42.211  27.218  35.864  1.00  0.00     0.173 A 
ATOM     81  C   UNL A   1      43.524  28.361  34.214  1.00  0.00     0.173 A 
ATOM     82  F   UNL A   1      41.474  27.216  36.986  1.00  0.00    -0.203 F 
ATOM     83  C   UNL A   1      42.496  26.001  35.247  1.00  0.00     0.198 A 
ATOM     84  C   UNL A   1      43.778  27.149  33.577  1.00  0.00     0.198 A 
ATOM     85  F   UNL A   1      44.056  29.480  33.703  1.00  0.00    -0.203 F 
ATOM     86  F   UNL A   1      42.043  24.859  35.782  1.00  0.00    -0.200 F 
ATOM     87  C   UNL A   1      43.278  25.967  34.103  1.00  0.00     0.200 A 
ATOM     88  F   UNL A   1      44.524  27.122  32.465  1.00  0.00    -0.200 F 
ATOM     89  F   UNL A   1      43.563  24.796  33.517  1.00  0.00    -0.200 F 
ENDBRANCH  55  79
BRANCH  67  90
ATOM     90  C   UNL A   1      46.189  31.471  40.605  1.00  0.00     0.064 A 
ATOM     91  C   UNL A   1      47.520  31.762  40.275  1.00  0.00     0.173 A 
ATOM     92  C   UNL A   1      45.949  30.763  41.793  1.00  0.00     0.173 A 
ATOM     93  F   UNL A   1      47.806  32.428  39.145  1.00  0.00    -0.203 F 
ATOM     94  C   UNL A   1      48.569  31.324  41.079  1.00  0.00     0.198 A 
ATOM     95  C   UNL A   1      46.997  30.361  42.616  1.00  0.00     0.198 A 
ATOM     96  F   UNL A   1      44.693  30.471  42.166  1.00  0.00    -0.203 F 
ATOM     97  F   UNL A   1      49.836  31.558  40.710  1.00  0.00    -0.200 F 
ATOM     98  C   UNL A   1      48.308  30.630  42.251  1.00  0.00     0.200 A 
ATOM     99  F   UNL A   1      46.740  29.707  43.757  1.00  0.00    -0.200 F 
ATOM    100  F   UNL A   1      49.318  30.214  43.026  1.00  0.00    -0.200 F 
ENDBRANCH  67  90
ENDBRANCH  41  42
ENDBRANCH  34  36
ENDBRANCH  33  34
ENDBRANCH  32  33
ENDBRANCH  31  32
ENDBRANCH  30  31
ENDBRANCH  29  30
ENDBRANCH  28  29
ENDBRANCH  27  28
ENDBRANCH  26  27
ENDBRANCH   1  26
TORSDOF 25
ENDMDL
MODEL 2
REMARK VINA RESULT:      -8.7      6.171     11.823
REMARK SMILES CC[N@@H+](C)CCNC(=O)N1CCC(CC(=O)OCCOCCOCCOCCOC(=O)c2ccc(-c3c4nc(c(-c5c(F)c(F)c(F)c(F)c5F)c5ccc([nH]5)c(-c5c(F)c(F)c(F)c(F)c5F)c5nc(c(-c6c(F)c(F)c(F)c(F)c6F)c6ccc3[nH]6)C=C5)C=C4)cc2)CC1
REMARK SMILES IDX 21 1 20 2 19 3 18 4 17 5 15 6 16 7 14 8 13 9 7 10 8 11 9 13
REMARK SMILES IDX 10 14 11 15 96 16 12 17 95 18 6 19 5 20 3 21 4 22 2 24 1 25
REMARK SMILES IDX 22 26 23 27 24 28 25 29 26 30 27 31 28 32 29 33 30 34 31 35
REMARK SMILES IDX 32 36 33 37 94 38 34 39 93 40 35 41 36 42 37 43 87 44 38 45
REMARK SMILES IDX 92 46 86 47 88 48 39 49 91 50 85 51 84 52 40 54 72 55 52 56
REMARK SMILES IDX 71 57 53 58 56 59 70 60 89 61 54 62 55 63 69 65 90 66 57 67
REMARK SMILES IDX 41 68 42 69 50 70 43 71 44 72 48 73 51 74 45 75 46 76 49 77
REMARK SMILES IDX 47 78 73 79 74 80 82 81 75 82 76 83 80 84 83 85 77 86 78 87
REMARK SMILES IDX 81 88 79 89 58 90 59 91 67 92 60 93 61 94 65 95 68 96 62 97
REMARK SMILES IDX 63 98 66 99 64 100
REMARK H PARENT 7 12 3 23 88 53 56 64
REMARK Flexibility Score: inf
ROOT
ATOM      1  C   UNL A   1      41.035  21.552  27.984  1.00  0.00     0.188 C 
ENDROOT
BRANCH   1   2
ATOM      2  O   UNL A   1      40.314  22.741  27.758  1.00  0.00    -0.376 OA
BRANCH   2   3
ATOM      3  C   UNL A   1      40.958  24.005  27.784  1.00  0.00     0.202 C 
BRANCH   3   4
ATOM      4  C   UNL A   1      40.308  25.346  27.395  1.00  0.00     0.261 C 
BRANCH   4   5
ATOM      5  O   UNL A   1      41.137  26.517  27.411  1.00  0.00    -0.463 OA
BRANCH   5   6
ATOM      6  C   UNL A   1      40.855  27.419  28.380  1.00  0.00     0.306 C 
ATOM      7  O   UNL A   1      40.730  27.139  29.569  1.00  0.00    -0.252 OA
BRANCH   6   8
ATOM      8  C   UNL A   1      40.736  28.854  27.916  1.00  0.00     0.126 C 
BRANCH   8   9
ATOM      9  C   UNL A   1      39.534  29.731  28.276  1.00  0.00     0.003 C 
ATOM     10  N   UNL A   1      36.914  31.283  32.239  1.00  0.00    -0.332 N 
ATOM     11  C   UNL A   1      36.859  30.398  31.212  1.00  0.00     0.317 C 
ATOM     12  H   UNL A   1      36.983  30.891  33.139  1.00  0.00     0.165 HD
ATOM     13  O   UNL A   1      36.278  29.329  31.396  1.00  0.00    -0.249 OA
ATOM     14  N   UNL A   1      37.456  30.731  30.025  1.00  0.00    -0.325 N 
ATOM     15  C   UNL A   1      37.098  29.986  28.820  1.00  0.00     0.121 C 
ATOM     16  C   UNL A   1      38.721  31.453  29.952  1.00  0.00     0.121 C 
ATOM     17  C   UNL A   1      38.199  28.990  28.437  1.00  0.00     0.026 C 
ATOM     18  C   UNL A   1      39.855  30.504  29.572  1.00  0.00     0.026 C 
BRANCH  10  19
ATOM     19  C   UNL A   1      36.883  32.735  32.179  1.00  0.00     0.179 C 
BRANCH  19  20
ATOM     20  C   UNL A   1      35.764  33.301  31.277  1.00  0.00     0.283 C 
BRANCH  20  21
ATOM     21  N   UNL A   1      35.273  34.671  31.499  1.00  0.00    -0.336 N 
ATOM     22  C   UNL A   1      35.548  35.149  32.852  1.00  0.00     0.332 C 
ATOM     23  H   UNL A   1      35.824  35.210  30.831  1.00  0.00     0.347 HD
BRANCH  21  24
ATOM     24  C   UNL A   1      33.883  34.947  31.118  1.00  0.00     0.258 C 
ATOM     25  C   UNL A   1      33.072  35.732  32.142  1.00  0.00     0.071 C 
ENDBRANCH  21  24
ENDBRANCH  20  21
ENDBRANCH  19  20
ENDBRANCH  10  19
ENDBRANCH   8   9
ENDBRANCH   6   8
ENDBRANCH   5   6
ENDBRANCH   4   5
ENDBRANCH   3   4
ENDBRANCH   2   3
ENDBRANCH   1   2
BRANCH   1  26
ATOM     26  C   UNL A   1      40.813  20.380  27.022  1.00  0.00     0.188 C 
BRANCH  26  27
ATOM     27  O   UNL A   1      41.680  20.277  25.907  1.00  0.00    -0.377 OA
BRANCH  27  28
ATOM     28  C   UNL A   1      43.067  20.570  26.057  1.00  0.00     0.188 C 
BRANCH  28  29
ATOM     29  C   UNL A   1      43.886  21.212  24.919  1.00  0.00     0.188 C 
BRANCH  29  30
ATOM     30  O   UNL A   1      45.289  21.037  25.008  1.00  0.00    -0.376 OA
BRANCH  30  31
ATOM     31  C   UNL A   1      46.117  22.189  25.051  1.00  0.00     0.202 C 
BRANCH  31  32
ATOM     32  C   UNL A   1      45.713  23.301  26.032  1.00  0.00     0.261 C 
BRANCH  32  33
ATOM     33  O   UNL A   1      45.170  24.492  25.436  1.00  0.00    -0.460 OA
BRANCH  33  34
ATOM     34  C   UNL A   1      46.034  25.458  25.076  1.00  0.00     0.338 C 
ATOM     35  O   UNL A   1      46.938  25.381  24.252  1.00  0.00    -0.246 OA
BRANCH  34  36
ATOM     36  C   UNL A   1      45.622  26.717  25.716  1.00  0.00     0.060 A 
ATOM     37  C   UNL A   1      46.602  27.527  26.301  1.00  0.00     0.016 A 
ATOM     38  C   UNL A   1      44.270  27.060  25.797  1.00  0.00     0.016 A 
ATOM     39  C   UNL A   1      46.227  28.646  27.041  1.00  0.00     0.010 A 
ATOM     40  C   UNL A   1      43.894  28.173  26.554  1.00  0.00     0.010 A 
ATOM     41  C   UNL A   1      44.868  28.933  27.226  1.00  0.00    -0.014 A 
BRANCH  41  42
ATOM     42  C   UNL A   1      44.470  29.842  28.329  1.00  0.00     0.031 A 
ATOM     43  C   UNL A   1      44.173  29.227  29.673  1.00  0.00     0.074 A 
ATOM     44  C   UNL A   1      44.433  31.176  28.170  1.00  0.00     0.049 A 
ATOM     45  N   UNL A   1      43.777  29.795  30.783  1.00  0.00    -0.248 NA
ATOM     46  C   UNL A   1      44.349  27.768  29.778  1.00  0.00     0.031 C 
ATOM     47  C   UNL A   1      44.752  31.892  26.938  1.00  0.00     0.029 A 
ATOM     48  N   UNL A   1      44.104  32.167  29.063  1.00  0.00    -0.354 N 
ATOM     49  C   UNL A   1      43.659  28.767  31.710  1.00  0.00     0.074 A 
ATOM     50  C   UNL A   1      43.984  27.536  31.028  1.00  0.00     0.031 C 
ATOM     51  C   UNL A   1      44.589  33.211  27.147  1.00  0.00     0.029 A 
ATOM     52  C   UNL A   1      44.124  33.427  28.517  1.00  0.00     0.049 A 
ATOM     53  H   UNL A   1      43.876  31.991  30.003  1.00  0.00     0.167 HD
ATOM     54  C   UNL A   1      43.328  28.845  33.021  1.00  0.00     0.037 A 
ATOM     55  C   UNL A   1      43.782  34.611  29.061  1.00  0.00     0.037 A 
ATOM     56  C   UNL A   1      43.002  30.069  33.699  1.00  0.00     0.049 A 
ATOM     57  C   UNL A   1      43.334  34.657  30.504  1.00  0.00     0.074 A 
ATOM     58  C   UNL A   1      42.626  30.252  35.018  1.00  0.00     0.029 A 
ATOM     59  N   UNL A   1      43.013  31.322  33.107  1.00  0.00    -0.354 N 
ATOM     60  N   UNL A   1      43.230  33.682  31.375  1.00  0.00    -0.248 NA
ATOM     61  C   UNL A   1      42.968  35.975  31.042  1.00  0.00     0.031 C 
ATOM     62  C   UNL A   1      42.369  31.613  35.213  1.00  0.00     0.029 A 
ATOM     63  C   UNL A   1      42.646  32.284  34.033  1.00  0.00     0.049 A 
ATOM     64  H   UNL A   1      43.248  31.503  32.168  1.00  0.00     0.167 HD
ATOM     65  C   UNL A   1      42.836  34.275  32.569  1.00  0.00     0.074 A 
ATOM     66  C   UNL A   1      42.731  35.695  32.314  1.00  0.00     0.031 C 
ATOM     67  C   UNL A   1      42.583  33.698  33.770  1.00  0.00     0.037 A 
BRANCH  54  68
ATOM     68  C   UNL A   1      43.292  27.566  33.805  1.00  0.00     0.064 A 
ATOM     69  C   UNL A   1      44.467  26.950  34.261  1.00  0.00     0.173 A 
ATOM     70  C   UNL A   1      42.065  26.977  34.149  1.00  0.00     0.173 A 
ATOM     71  F   UNL A   1      45.665  27.463  33.943  1.00  0.00    -0.203 F 
ATOM     72  C   UNL A   1      44.416  25.783  35.020  1.00  0.00     0.198 A 
ATOM     73  C   UNL A   1      42.018  25.827  34.933  1.00  0.00     0.198 A 
ATOM     74  F   UNL A   1      40.912  27.525  33.739  1.00  0.00    -0.203 F 
ATOM     75  F   UNL A   1      45.553  25.191  35.411  1.00  0.00    -0.200 F 
ATOM     76  C   UNL A   1      43.192  25.229  35.364  1.00  0.00     0.200 A 
ATOM     77  F   UNL A   1      40.834  25.300  35.276  1.00  0.00    -0.200 F 
ATOM     78  F   UNL A   1      43.145  24.116  36.108  1.00  0.00    -0.200 F 
ENDBRANCH  54  68
BRANCH  55  79
ATOM     79  C   UNL A   1      43.819  35.858  28.249  1.00  0.00     0.064 A 
ATOM     80  C   UNL A   1      45.013  36.568  28.057  1.00  0.00     0.173 A 
ATOM     81  C   UNL A   1      42.646  36.405  27.707  1.00  0.00     0.173 A 
ATOM     82  F   UNL A   1      46.160  36.102  28.575  1.00  0.00    -0.203 F 
ATOM     83  C   UNL A   1      45.025  37.796  27.398  1.00  0.00     0.198 A 
ATOM     84  C   UNL A   1      42.665  37.614  27.016  1.00  0.00     0.198 A 
ATOM     85  F   UNL A   1      41.475  35.769  27.860  1.00  0.00    -0.203 F 
ATOM     86  F   UNL A   1      46.167  38.490  27.300  1.00  0.00    -0.200 F 
ATOM     87  C   UNL A   1      43.852  38.317  26.876  1.00  0.00     0.200 A 
ATOM     88  F   UNL A   1      41.530  38.108  26.503  1.00  0.00    -0.200 F 
ATOM     89  F   UNL A   1      43.861  39.504  26.253  1.00  0.00    -0.200 F 
ENDBRANCH  55  79
BRANCH  67  90
ATOM     90  C   UNL A   1      42.251  34.606  34.921  1.00  0.00     0.064 A 
ATOM     91  C   UNL A   1      43.243  35.175  35.733  1.00  0.00     0.173 A 
ATOM     92  C   UNL A   1      40.914  34.937  35.192  1.00  0.00     0.173 A 
ATOM     93  F   UNL A   1      44.536  34.884  35.523  1.00  0.00    -0.203 F 
ATOM     94  C   UNL A   1      42.907  36.006  36.798  1.00  0.00     0.198 A 
ATOM     95  C   UNL A   1      40.583  35.800  36.233  1.00  0.00     0.198 A 
ATOM     96  F   UNL A   1      39.925  34.433  34.438  1.00  0.00    -0.203 F 
ATOM     97  F   UNL A   1      43.867  36.488  37.599  1.00  0.00    -0.200 F 
ATOM     98  C   UNL A   1      41.579  36.324  37.043  1.00  0.00     0.200 A 
ATOM     99  F   UNL A   1      39.301  36.119  36.456  1.00  0.00    -0.200 F 
ATOM    100  F   UNL A   1      41.258  37.128  38.066  1.00  0.00    -0.200 F 
ENDBRANCH  67  90
ENDBRANCH  41  42
ENDBRANCH  34  36
ENDBRANCH  33  34
ENDBRANCH  32  33
ENDBRANCH  31  32
ENDBRANCH  30  31
ENDBRANCH  29  30
ENDBRANCH  28  29
ENDBRANCH  27  28
ENDBRANCH  26  27
ENDBRANCH   1  26
TORSDOF 25
ENDMDL
MODEL 3
REMARK VINA RESULT:      -8.6      7.285     11.648
REMARK SMILES CC[N@@H+](C)CCNC(=O)N1CCC(CC(=O)OCCOCCOCCOCCOC(=O)c2ccc(-c3c4nc(c(-c5c(F)c(F)c(F)c(F)c5F)c5ccc([nH]5)c(-c5c(F)c(F)c(F)c(F)c5F)c5nc(c(-c6c(F)c(F)c(F)c(F)c6F)c6ccc3[nH]6)C=C5)C=C4)cc2)CC1
REMARK SMILES IDX 21 1 20 2 19 3 18 4 17 5 15 6 16 7 14 8 13 9 7 10 8 11 9 13
REMARK SMILES IDX 10 14 11 15 96 16 12 17 95 18 6 19 5 20 3 21 4 22 2 24 1 25
REMARK SMILES IDX 22 26 23 27 24 28 25 29 26 30 27 31 28 32 29 33 30 34 31 35
REMARK SMILES IDX 32 36 33 37 94 38 34 39 93 40 35 41 36 42 37 43 87 44 38 45
REMARK SMILES IDX 92 46 86 47 88 48 39 49 91 50 85 51 84 52 40 54 72 55 52 56
REMARK SMILES IDX 71 57 53 58 56 59 70 60 89 61 54 62 55 63 69 65 90 66 57 67
REMARK SMILES IDX 41 68 42 69 50 70 43 71 44 72 48 73 51 74 45 75 46 76 49 77
REMARK SMILES IDX 47 78 73 79 74 80 82 81 75 82 76 83 80 84 83 85 77 86 78 87
REMARK SMILES IDX 81 88 79 89 58 90 59 91 67 92 60 93 61 94 65 95 68 96 62 97
REMARK SMILES IDX 63 98 66 99 64 100
REMARK H PARENT 7 12 3 23 88 53 56 64
REMARK Flexibility Score: inf
ROOT
ATOM      1  C   UNL A   1      39.740  23.161  26.605  1.00  0.00     0.188 C 
ENDROOT
BRANCH   1   2
ATOM      2  O   UNL A   1      38.336  23.110  26.503  1.00  0.00    -0.376 OA
BRANCH   2   3
ATOM      3  C   UNL A   1      37.695  22.143  25.685  1.00  0.00     0.202 C 
BRANCH   3   4
ATOM      4  C   UNL A   1      36.176  22.031  25.459  1.00  0.00     0.261 C 
BRANCH   4   5
ATOM      5  O   UNL A   1      35.725  21.633  24.156  1.00  0.00    -0.463 OA
BRANCH   5   6
ATOM      6  C   UNL A   1      35.527  22.641  23.274  1.00  0.00     0.306 C 
ATOM      7  O   UNL A   1      36.422  23.181  22.630  1.00  0.00    -0.252 OA
BRANCH   6   8
ATOM      8  C   UNL A   1      34.085  23.060  23.081  1.00  0.00     0.126 C 
BRANCH   8   9
ATOM      9  C   UNL A   1      33.655  24.529  23.088  1.00  0.00     0.003 C 
ATOM     10  N   UNL A   1      32.032  28.080  26.208  1.00  0.00    -0.332 N 
ATOM     11  C   UNL A   1      31.588  27.220  25.258  1.00  0.00     0.317 C 
ATOM     12  H   UNL A   1      31.710  27.911  27.122  1.00  0.00     0.165 HD
ATOM     13  O   UNL A   1      30.449  26.769  25.369  1.00  0.00    -0.249 OA
ATOM     14  N   UNL A   1      32.427  26.890  24.226  1.00  0.00    -0.325 N 
ATOM     15  C   UNL A   1      31.864  26.284  23.022  1.00  0.00     0.121 C 
ATOM     16  C   UNL A   1      33.860  26.686  24.408  1.00  0.00     0.121 C 
ATOM     17  C   UNL A   1      32.145  24.777  22.977  1.00  0.00     0.026 C 
ATOM     18  C   UNL A   1      34.195  25.197  24.369  1.00  0.00     0.026 C 
BRANCH  10  19
ATOM     19  C   UNL A   1      32.922  29.219  26.048  1.00  0.00     0.179 C 
BRANCH  19  20
ATOM     20  C   UNL A   1      32.846  30.240  27.204  1.00  0.00     0.283 C 
BRANCH  20  21
ATOM     21  N   UNL A   1      34.045  30.511  28.016  1.00  0.00    -0.336 N 
ATOM     22  C   UNL A   1      34.515  31.887  27.873  1.00  0.00     0.332 C 
ATOM     23  H   UNL A   1      33.700  30.368  28.965  1.00  0.00     0.347 HD
BRANCH  21  24
ATOM     24  C   UNL A   1      35.156  29.561  27.894  1.00  0.00     0.258 C 
ATOM     25  C   UNL A   1      36.501  30.176  27.528  1.00  0.00     0.071 C 
ENDBRANCH  21  24
ENDBRANCH  20  21
ENDBRANCH  19  20
ENDBRANCH  10  19
ENDBRANCH   8   9
ENDBRANCH   6   8
ENDBRANCH   5   6
ENDBRANCH   4   5
ENDBRANCH   3   4
ENDBRANCH   2   3
ENDBRANCH   1   2
BRANCH   1  26
ATOM     26  C   UNL A   1      40.433  22.156  27.532  1.00  0.00     0.188 C 
BRANCH  26  27
ATOM     27  O   UNL A   1      41.618  21.542  27.060  1.00  0.00    -0.377 OA
BRANCH  27  28
ATOM     28  C   UNL A   1      42.223  21.998  25.853  1.00  0.00     0.188 C 
BRANCH  28  29
ATOM     29  C   UNL A   1      43.320  23.082  25.858  1.00  0.00     0.188 C 
BRANCH  29  30
ATOM     30  O   UNL A   1      43.828  23.436  24.583  1.00  0.00    -0.376 OA
BRANCH  30  31
ATOM     31  C   UNL A   1      44.784  22.582  23.972  1.00  0.00     0.202 C 
BRANCH  31  32
ATOM     32  C   UNL A   1      46.085  22.324  24.748  1.00  0.00     0.261 C 
BRANCH  32  33
ATOM     33  O   UNL A   1      46.517  23.389  25.613  1.00  0.00    -0.460 OA
BRANCH  33  34
ATOM     34  C   UNL A   1      46.785  24.580  25.049  1.00  0.00     0.338 C 
ATOM     35  O   UNL A   1      47.372  24.791  23.995  1.00  0.00    -0.246 OA
BRANCH  34  36
ATOM     36  C   UNL A   1      46.105  25.629  25.825  1.00  0.00     0.060 A 
ATOM     37  C   UNL A   1      45.328  26.572  25.143  1.00  0.00     0.016 A 
ATOM     38  C   UNL A   1      46.290  25.720  27.207  1.00  0.00     0.016 A 
ATOM     39  C   UNL A   1      44.795  27.661  25.830  1.00  0.00     0.010 A 
ATOM     40  C   UNL A   1      45.769  26.821  27.892  1.00  0.00     0.010 A 
ATOM     41  C   UNL A   1      45.072  27.823  27.195  1.00  0.00    -0.014 A 
BRANCH  41  42
ATOM     42  C   UNL A   1      44.873  29.157  27.812  1.00  0.00     0.031 A 
ATOM     43  C   UNL A   1      45.976  30.173  27.662  1.00  0.00     0.074 A 
ATOM     44  C   UNL A   1      43.727  29.487  28.433  1.00  0.00     0.049 A 
ATOM     45  N   UNL A   1      46.061  31.391  28.132  1.00  0.00    -0.248 NA
ATOM     46  C   UNL A   1      47.146  29.755  26.869  1.00  0.00     0.031 C 
ATOM     47  C   UNL A   1      42.569  28.613  28.595  1.00  0.00     0.029 A 
ATOM     48  N   UNL A   1      43.357  30.658  29.049  1.00  0.00    -0.354 N 
ATOM     49  C   UNL A   1      47.285  31.879  27.692  1.00  0.00     0.074 A 
ATOM     50  C   UNL A   1      47.929  30.817  26.953  1.00  0.00     0.031 C 
ATOM     51  C   UNL A   1      41.618  29.273  29.281  1.00  0.00     0.029 A 
ATOM     52  C   UNL A   1      42.115  30.603  29.633  1.00  0.00     0.049 A 
ATOM     53  H   UNL A   1      43.928  31.459  29.071  1.00  0.00     0.167 HD
ATOM     54  C   UNL A   1      47.818  33.111  27.872  1.00  0.00     0.037 A 
ATOM     55  C   UNL A   1      41.471  31.518  30.382  1.00  0.00     0.037 A 
ATOM     56  C   UNL A   1      47.180  34.166  28.609  1.00  0.00     0.049 A 
ATOM     57  C   UNL A   1      42.126  32.856  30.638  1.00  0.00     0.074 A 
ATOM     58  C   UNL A   1      47.647  35.441  28.873  1.00  0.00     0.029 A 
ATOM     59  N   UNL A   1      45.931  34.065  29.203  1.00  0.00    -0.354 N 
ATOM     60  N   UNL A   1      43.281  33.312  30.215  1.00  0.00    -0.248 NA
ATOM     61  C   UNL A   1      41.378  33.812  31.467  1.00  0.00     0.031 C 
ATOM     62  C   UNL A   1      46.699  36.099  29.662  1.00  0.00     0.029 A 
ATOM     63  C   UNL A   1      45.613  35.255  29.836  1.00  0.00     0.049 A 
ATOM     64  H   UNL A   1      45.354  33.268  29.177  1.00  0.00     0.167 HD
ATOM     65  C   UNL A   1      43.374  34.617  30.685  1.00  0.00     0.074 A 
ATOM     66  C   UNL A   1      42.154  34.884  31.414  1.00  0.00     0.031 C 
ATOM     67  C   UNL A   1      44.377  35.516  30.527  1.00  0.00     0.037 A 
BRANCH  54  68
ATOM     68  C   UNL A   1      49.165  33.380  27.268  1.00  0.00     0.064 A 
ATOM     69  C   UNL A   1      49.300  34.020  26.027  1.00  0.00     0.173 A 
ATOM     70  C   UNL A   1      50.337  33.041  27.962  1.00  0.00     0.173 A 
ATOM     71  F   UNL A   1      48.211  34.347  25.315  1.00  0.00    -0.203 F 
ATOM     72  C   UNL A   1      50.557  34.297  25.495  1.00  0.00     0.198 A 
ATOM     73  C   UNL A   1      51.592  33.346  27.442  1.00  0.00     0.198 A 
ATOM     74  F   UNL A   1      50.265  32.428  29.153  1.00  0.00    -0.203 F 
ATOM     75  F   UNL A   1      50.661  34.873  24.290  1.00  0.00    -0.200 F 
ATOM     76  C   UNL A   1      51.701  33.970  26.208  1.00  0.00     0.200 A 
ATOM     77  F   UNL A   1      52.696  33.041  28.137  1.00  0.00    -0.200 F 
ATOM     78  F   UNL A   1      52.910  34.251  25.703  1.00  0.00    -0.200 F 
ENDBRANCH  54  68
BRANCH  55  79
ATOM     79  C   UNL A   1      40.140  31.212  30.975  1.00  0.00     0.064 A 
ATOM     80  C   UNL A   1      38.952  31.621  30.351  1.00  0.00     0.173 A 
ATOM     81  C   UNL A   1      40.031  30.567  32.216  1.00  0.00     0.173 A 
ATOM     82  F   UNL A   1      39.001  32.265  29.175  1.00  0.00    -0.203 F 
ATOM     83  C   UNL A   1      37.714  31.438  30.965  1.00  0.00     0.198 A 
ATOM     84  C   UNL A   1      38.790  30.351  32.811  1.00  0.00     0.198 A 
ATOM     85  F   UNL A   1      41.133  30.155  32.858  1.00  0.00    -0.203 F 
ATOM     86  F   UNL A   1      36.604  31.911  30.382  1.00  0.00    -0.200 F 
ATOM     87  C   UNL A   1      37.634  30.802  32.193  1.00  0.00     0.200 A 
ATOM     88  F   UNL A   1      38.716  29.725  33.994  1.00  0.00    -0.200 F 
ATOM     89  F   UNL A   1      36.445  30.637  32.790  1.00  0.00    -0.200 F 
ENDBRANCH  55  79
BRANCH  67  90
ATOM     90  C   UNL A   1      44.166  36.897  31.080  1.00  0.00     0.064 A 
ATOM     91  C   UNL A   1      44.420  37.210  32.423  1.00  0.00     0.173 A 
ATOM     92  C   UNL A   1      43.732  37.932  30.237  1.00  0.00     0.173 A 
ATOM     93  F   UNL A   1      44.827  36.256  33.274  1.00  0.00    -0.203 F 
ATOM     94  C   UNL A   1      44.207  38.497  32.910  1.00  0.00     0.198 A 
ATOM     95  C   UNL A   1      43.557  39.227  30.718  1.00  0.00     0.198 A 
ATOM     96  F   UNL A   1      43.488  37.692  28.939  1.00  0.00    -0.203 F 
ATOM     97  F   UNL A   1      44.395  38.759  34.212  1.00  0.00    -0.200 F 
ATOM     98  C   UNL A   1      43.783  39.506  32.057  1.00  0.00     0.200 A 
ATOM     99  F   UNL A   1      43.165  40.202  29.887  1.00  0.00    -0.200 F 
ATOM    100  F   UNL A   1      43.583  40.744  32.527  1.00  0.00    -0.200 F 
ENDBRANCH  67  90
ENDBRANCH  41  42
ENDBRANCH  34  36
ENDBRANCH  33  34
ENDBRANCH  32  33
ENDBRANCH  31  32
ENDBRANCH  30  31
ENDBRANCH  29  30
ENDBRANCH  28  29
ENDBRANCH  27  28
ENDBRANCH  26  27
ENDBRANCH   1  26
TORSDOF 25
ENDMDL
