MODEL 1
REMARK VINA RESULT:     -10.2      0.000      0.000
REMARK SMILES CC(C)(C)OC(=O)N1CC(Cc2ccc(C(=O)OCCOCCOCCOCCOC(=O)c3ccc(-c4c5nc(c(-c6c(F)c(F)c(F)c(F)c6F)c6ccc([nH]6)c(-c6c(F)c(F)c(F)c(F)c6F)c6nc(c(-c7c(F)c(F)c(F)c(F)c7F)c7ccc4[nH]7)C=C6)C=C5)cc3)cc2)C1
REMARK SMILES IDX 23 1 22 2 21 3 20 4 19 5 18 6 16 7 17 8 15 9 12 10 13 11
REMARK SMILES IDX 97 12 14 13 96 14 11 15 10 16 6 17 7 18 8 19 9 20 98 21 5 22
REMARK SMILES IDX 2 23 1 24 3 25 4 26 24 27 25 28 26 29 27 30 28 31 29 32
REMARK SMILES IDX 30 33 31 34 32 35 33 36 34 37 95 38 35 39 94 40 36 41 37 42
REMARK SMILES IDX 38 43 88 44 39 45 93 46 87 47 89 48 40 49 92 50 86 51 85 52
REMARK SMILES IDX 41 54 73 55 53 56 72 57 54 58 57 59 71 60 90 61 55 62 56 63
REMARK SMILES IDX 70 65 91 66 58 67 42 68 43 69 51 70 44 71 45 72 49 73 52 74
REMARK SMILES IDX 46 75 47 76 50 77 48 78 74 79 75 80 83 81 76 82 77 83 81 84
REMARK SMILES IDX 84 85 78 86 79 87 82 88 80 89 59 90 60 91 68 92 61 93 62 94
REMARK SMILES IDX 66 95 69 96 63 97 64 98 67 99 65 100
REMARK H PARENT 89 53 57 64
REMARK Flexibility Score: inf
ROOT
ATOM      1  C   UNL A   1      42.143  18.804  26.126  1.00  0.00     0.188 C 
ENDROOT
BRANCH   1   2
ATOM      2  C   UNL A   1      41.821  19.479  27.470  1.00  0.00     0.188 C 
BRANCH   2   3
ATOM      3  O   UNL A   1      41.553  20.876  27.374  1.00  0.00    -0.376 OA
BRANCH   3   4
ATOM      4  C   UNL A   1      40.189  21.231  27.178  1.00  0.00     0.202 C 
BRANCH   4   5
ATOM      5  C   UNL A   1      39.900  21.770  25.774  1.00  0.00     0.261 C 
BRANCH   5   6
ATOM      6  O   UNL A   1      38.507  21.778  25.433  1.00  0.00    -0.460 OA
BRANCH   6   7
ATOM      7  C   UNL A   1      37.790  22.840  25.861  1.00  0.00     0.338 C 
ATOM      8  O   UNL A   1      38.206  23.797  26.490  1.00  0.00    -0.246 OA
BRANCH   7   9
ATOM      9  C   UNL A   1      36.422  22.740  25.310  1.00  0.00     0.060 A 
ATOM     10  C   UNL A   1      33.817  22.463  24.344  1.00  0.00    -0.048 A 
ATOM     11  C   UNL A   1      34.046  22.565  25.722  1.00  0.00     0.004 A 
ATOM     12  C   UNL A   1      34.895  22.572  23.453  1.00  0.00     0.004 A 
ATOM     13  C   UNL A   1      35.346  22.698  26.205  1.00  0.00     0.016 A 
ATOM     14  C   UNL A   1      36.196  22.704  23.932  1.00  0.00     0.016 A 
BRANCH  10  15
ATOM     15  C   UNL A   1      32.444  22.121  23.819  1.00  0.00     0.042 C 
BRANCH  15  16
ATOM     16  C   UNL A   1      31.717  23.425  23.523  1.00  0.00     0.033 C 
ATOM     17  C   UNL A   1      31.320  26.642  23.222  1.00  0.00     0.410 C 
ATOM     18  O   UNL A   1      31.185  27.040  22.070  1.00  0.00    -0.224 OA
ATOM     19  N   UNL A   1      31.894  25.447  23.524  1.00  0.00    -0.307 N 
ATOM     20  C   UNL A   1      32.467  24.445  22.649  1.00  0.00     0.128 C 
ATOM     21  C   UNL A   1      31.681  24.524  24.622  1.00  0.00     0.128 C 
BRANCH  17  22
ATOM     22  O   UNL A   1      30.971  27.328  24.339  1.00  0.00    -0.444 OA
BRANCH  22  23
ATOM     23  C   UNL A   1      31.385  28.709  24.526  1.00  0.00     0.106 C 
ATOM     24  C   UNL A   1      30.291  29.552  23.852  1.00  0.00     0.056 C 
ATOM     25  C   UNL A   1      32.716  28.939  23.807  1.00  0.00     0.056 C 
ATOM     26  C   UNL A   1      31.460  29.137  26.000  1.00  0.00     0.056 C 
ENDBRANCH  22  23
ENDBRANCH  17  22
ENDBRANCH  15  16
ENDBRANCH  10  15
ENDBRANCH   7   9
ENDBRANCH   6   7
ENDBRANCH   5   6
ENDBRANCH   4   5
ENDBRANCH   3   4
ENDBRANCH   2   3
ENDBRANCH   1   2
BRANCH   1  27
ATOM     27  O   UNL A   1      42.922  19.535  25.196  1.00  0.00    -0.377 OA
BRANCH  27  28
ATOM     28  C   UNL A   1      44.283  19.178  24.983  1.00  0.00     0.188 C 
BRANCH  28  29
ATOM     29  C   UNL A   1      45.313  20.159  24.384  1.00  0.00     0.188 C 
BRANCH  29  30
ATOM     30  O   UNL A   1      45.895  21.059  25.320  1.00  0.00    -0.376 OA
BRANCH  30  31
ATOM     31  C   UNL A   1      46.390  22.279  24.785  1.00  0.00     0.202 C 
BRANCH  31  32
ATOM     32  C   UNL A   1      45.372  22.976  23.879  1.00  0.00     0.261 C 
BRANCH  32  33
ATOM     33  O   UNL A   1      44.638  24.033  24.518  1.00  0.00    -0.460 OA
BRANCH  33  34
ATOM     34  C   UNL A   1      43.434  23.714  25.036  1.00  0.00     0.338 C 
ATOM     35  O   UNL A   1      42.684  22.818  24.689  1.00  0.00    -0.246 OA
BRANCH  34  36
ATOM     36  C   UNL A   1      43.226  24.556  26.226  1.00  0.00     0.060 A 
ATOM     37  C   UNL A   1      42.416  24.080  27.265  1.00  0.00     0.016 A 
ATOM     38  C   UNL A   1      43.832  25.812  26.307  1.00  0.00     0.016 A 
ATOM     39  C   UNL A   1      42.183  24.882  28.382  1.00  0.00     0.010 A 
ATOM     40  C   UNL A   1      43.585  26.618  27.414  1.00  0.00     0.010 A 
ATOM     41  C   UNL A   1      42.735  26.169  28.439  1.00  0.00    -0.014 A 
BRANCH  41  42
ATOM     42  C   UNL A   1      42.277  27.137  29.459  1.00  0.00     0.031 A 
ATOM     43  C   UNL A   1      42.991  27.160  30.780  1.00  0.00     0.074 A 
ATOM     44  C   UNL A   1      41.225  27.940  29.238  1.00  0.00     0.049 A 
ATOM     45  N   UNL A   1      42.710  27.829  31.868  1.00  0.00    -0.248 NA
ATOM     46  C   UNL A   1      44.181  26.300  30.889  1.00  0.00     0.031 C 
ATOM     47  C   UNL A   1      40.467  28.019  27.992  1.00  0.00     0.029 A 
ATOM     48  N   UNL A   1      40.597  28.828  30.075  1.00  0.00    -0.354 N 
ATOM     49  C   UNL A   1      43.685  27.471  32.788  1.00  0.00     0.074 A 
ATOM     50  C   UNL A   1      44.547  26.504  32.145  1.00  0.00     0.031 C 
ATOM     51  C   UNL A   1      39.455  28.889  28.154  1.00  0.00     0.029 A 
ATOM     52  C   UNL A   1      39.479  29.402  29.523  1.00  0.00     0.049 A 
ATOM     53  H   UNL A   1      40.917  29.032  30.983  1.00  0.00     0.167 HD
ATOM     54  C   UNL A   1      43.851  27.914  34.056  1.00  0.00     0.037 A 
ATOM     55  C   UNL A   1      38.567  30.225  30.076  1.00  0.00     0.037 A 
ATOM     56  C   UNL A   1      42.979  28.858  34.701  1.00  0.00     0.049 A 
ATOM     57  C   UNL A   1      38.733  30.655  31.512  1.00  0.00     0.074 A 
ATOM     58  C   UNL A   1      43.057  29.372  35.983  1.00  0.00     0.029 A 
ATOM     59  N   UNL A   1      41.857  29.420  34.110  1.00  0.00    -0.354 N 
ATOM     60  N   UNL A   1      39.671  30.335  32.371  1.00  0.00    -0.248 NA
ATOM     61  C   UNL A   1      37.711  31.564  32.054  1.00  0.00     0.031 C 
ATOM     62  C   UNL A   1      41.959  30.216  36.182  1.00  0.00     0.029 A 
ATOM     63  C   UNL A   1      41.223  30.264  35.008  1.00  0.00     0.049 A 
ATOM     64  H   UNL A   1      41.556  29.246  33.190  1.00  0.00     0.167 HD
ATOM     65  C   UNL A   1      39.369  31.019  33.541  1.00  0.00     0.074 A 
ATOM     66  C   UNL A   1      38.165  31.780  33.281  1.00  0.00     0.031 C 
ATOM     67  C   UNL A   1      40.030  31.018  34.725  1.00  0.00     0.037 A 
BRANCH  54  68
ATOM     68  C   UNL A   1      45.008  27.356  34.827  1.00  0.00     0.064 A 
ATOM     69  C   UNL A   1      46.273  27.964  34.793  1.00  0.00     0.173 A 
ATOM     70  C   UNL A   1      44.855  26.201  35.607  1.00  0.00     0.173 A 
ATOM     71  F   UNL A   1      46.475  29.060  34.044  1.00  0.00    -0.203 F 
ATOM     72  C   UNL A   1      47.349  27.418  35.488  1.00  0.00     0.198 A 
ATOM     73  C   UNL A   1      45.926  25.673  36.322  1.00  0.00     0.198 A 
ATOM     74  F   UNL A   1      43.666  25.582  35.671  1.00  0.00    -0.203 F 
ATOM     75  F   UNL A   1      48.559  27.986  35.398  1.00  0.00    -0.200 F 
ATOM     76  C   UNL A   1      47.173  26.277  36.255  1.00  0.00     0.200 A 
ATOM     77  F   UNL A   1      45.754  24.573  37.069  1.00  0.00    -0.200 F 
ATOM     78  F   UNL A   1      48.209  25.751  36.923  1.00  0.00    -0.200 F 
ENDBRANCH  54  68
BRANCH  55  79
ATOM     79  C   UNL A   1      37.403  30.683  29.275  1.00  0.00     0.064 A 
ATOM     80  C   UNL A   1      37.338  31.993  28.782  1.00  0.00     0.173 A 
ATOM     81  C   UNL A   1      36.330  29.825  28.995  1.00  0.00     0.173 A 
ATOM     82  F   UNL A   1      38.327  32.859  29.046  1.00  0.00    -0.203 F 
ATOM     83  C   UNL A   1      36.236  32.431  28.048  1.00  0.00     0.198 A 
ATOM     84  C   UNL A   1      35.241  30.256  28.243  1.00  0.00     0.198 A 
ATOM     85  F   UNL A   1      36.345  28.563  29.450  1.00  0.00    -0.203 F 
ATOM     86  F   UNL A   1      36.179  33.700  27.623  1.00  0.00    -0.200 F 
ATOM     87  C   UNL A   1      35.192  31.561  27.775  1.00  0.00     0.200 A 
ATOM     88  F   UNL A   1      34.239  29.409  27.973  1.00  0.00    -0.200 F 
ATOM     89  F   UNL A   1      34.134  31.981  27.068  1.00  0.00    -0.200 F 
ENDBRANCH  55  79
BRANCH  67  90
ATOM     90  C   UNL A   1      39.489  31.893  35.818  1.00  0.00     0.064 A 
ATOM     91  C   UNL A   1      39.901  33.225  35.967  1.00  0.00     0.173 A 
ATOM     92  C   UNL A   1      38.505  31.407  36.693  1.00  0.00     0.173 A 
ATOM     93  F   UNL A   1      40.849  33.731  35.164  1.00  0.00    -0.203 F 
ATOM     94  C   UNL A   1      39.362  34.033  36.964  1.00  0.00     0.198 A 
ATOM     95  C   UNL A   1      37.948  32.225  37.671  1.00  0.00     0.198 A 
ATOM     96  F   UNL A   1      38.071  30.142  36.586  1.00  0.00    -0.203 F 
ATOM     97  F   UNL A   1      39.797  35.291  37.113  1.00  0.00    -0.200 F 
ATOM     98  C   UNL A   1      38.381  33.536  37.810  1.00  0.00     0.200 A 
ATOM     99  F   UNL A   1      36.992  31.746  38.479  1.00  0.00    -0.200 F 
ATOM    100  F   UNL A   1      37.857  34.318  38.763  1.00  0.00    -0.200 F 
ENDBRANCH  67  90
ENDBRANCH  41  42
ENDBRANCH  34  36
ENDBRANCH  33  34
ENDBRANCH  32  33
ENDBRANCH  31  32
ENDBRANCH  30  31
ENDBRANCH  29  30
ENDBRANCH  28  29
ENDBRANCH  27  28
ENDBRANCH   1  27
TORSDOF 24
ENDMDL
MODEL 2
REMARK VINA RESULT:     -10.0      3.203      4.990
REMARK SMILES CC(C)(C)OC(=O)N1CC(Cc2ccc(C(=O)OCCOCCOCCOCCOC(=O)c3ccc(-c4c5nc(c(-c6c(F)c(F)c(F)c(F)c6F)c6ccc([nH]6)c(-c6c(F)c(F)c(F)c(F)c6F)c6nc(c(-c7c(F)c(F)c(F)c(F)c7F)c7ccc4[nH]7)C=C6)C=C5)cc3)cc2)C1
REMARK SMILES IDX 23 1 22 2 21 3 20 4 19 5 18 6 16 7 17 8 15 9 12 10 13 11
REMARK SMILES IDX 97 12 14 13 96 14 11 15 10 16 6 17 7 18 8 19 9 20 98 21 5 22
REMARK SMILES IDX 2 23 1 24 3 25 4 26 24 27 25 28 26 29 27 30 28 31 29 32
REMARK SMILES IDX 30 33 31 34 32 35 33 36 34 37 95 38 35 39 94 40 36 41 37 42
REMARK SMILES IDX 38 43 88 44 39 45 93 46 87 47 89 48 40 49 92 50 86 51 85 52
REMARK SMILES IDX 41 54 73 55 53 56 72 57 54 58 57 59 71 60 90 61 55 62 56 63
REMARK SMILES IDX 70 65 91 66 58 67 42 68 43 69 51 70 44 71 45 72 49 73 52 74
REMARK SMILES IDX 46 75 47 76 50 77 48 78 74 79 75 80 83 81 76 82 77 83 81 84
REMARK SMILES IDX 84 85 78 86 79 87 82 88 80 89 59 90 60 91 68 92 61 93 62 94
REMARK SMILES IDX 66 95 69 96 63 97 64 98 67 99 65 100
REMARK H PARENT 89 53 57 64
REMARK Flexibility Score: inf
ROOT
ATOM      1  C   UNL A   1      35.374  17.065  25.013  1.00  0.00     0.188 C 
ENDROOT
BRANCH   1   2
ATOM      2  C   UNL A   1      34.248  16.227  24.385  1.00  0.00     0.188 C 
BRANCH   2   3
ATOM      3  O   UNL A   1      33.055  16.173  25.164  1.00  0.00    -0.376 OA
BRANCH   3   4
ATOM      4  C   UNL A   1      32.532  17.429  25.582  1.00  0.00     0.202 C 
BRANCH   4   5
ATOM      5  C   UNL A   1      32.154  18.344  24.413  1.00  0.00     0.261 C 
BRANCH   5   6
ATOM      6  O   UNL A   1      32.953  19.532  24.327  1.00  0.00    -0.460 OA
BRANCH   6   7
ATOM      7  C   UNL A   1      32.847  20.403  25.354  1.00  0.00     0.338 C 
ATOM      8  O   UNL A   1      33.268  20.251  26.487  1.00  0.00    -0.246 OA
BRANCH   7   9
ATOM      9  C   UNL A   1      32.262  21.662  24.847  1.00  0.00     0.060 A 
ATOM     10  C   UNL A   1      31.051  24.003  23.924  1.00  0.00    -0.048 A 
ATOM     11  C   UNL A   1      30.779  23.536  25.215  1.00  0.00     0.004 A 
ATOM     12  C   UNL A   1      31.988  23.327  23.126  1.00  0.00     0.004 A 
ATOM     13  C   UNL A   1      31.379  22.366  25.675  1.00  0.00     0.016 A 
ATOM     14  C   UNL A   1      32.588  22.157  23.582  1.00  0.00     0.016 A 
BRANCH  10  15
ATOM     15  C   UNL A   1      30.264  25.151  23.342  1.00  0.00     0.042 C 
BRANCH  15  16
ATOM     16  C   UNL A   1      30.551  26.389  24.180  1.00  0.00     0.033 C 
ATOM     17  C   UNL A   1      31.757  29.330  24.879  1.00  0.00     0.410 C 
ATOM     18  O   UNL A   1      30.918  30.216  25.001  1.00  0.00    -0.224 OA
ATOM     19  N   UNL A   1      31.513  28.175  24.204  1.00  0.00    -0.307 N 
ATOM     20  C   UNL A   1      30.324  27.747  23.496  1.00  0.00     0.128 C 
ATOM     21  C   UNL A   1      32.028  26.830  24.374  1.00  0.00     0.128 C 
BRANCH  17  22
ATOM     22  O   UNL A   1      33.030  29.380  25.345  1.00  0.00    -0.444 OA
BRANCH  22  23
ATOM     23  C   UNL A   1      33.299  29.519  26.767  1.00  0.00     0.106 C 
ATOM     24  C   UNL A   1      34.707  28.939  26.970  1.00  0.00     0.056 C 
ATOM     25  C   UNL A   1      32.289  28.682  27.556  1.00  0.00     0.056 C 
ATOM     26  C   UNL A   1      33.321  30.978  27.251  1.00  0.00     0.056 C 
ENDBRANCH  22  23
ENDBRANCH  17  22
ENDBRANCH  15  16
ENDBRANCH  10  15
ENDBRANCH   7   9
ENDBRANCH   6   7
ENDBRANCH   5   6
ENDBRANCH   4   5
ENDBRANCH   3   4
ENDBRANCH   2   3
ENDBRANCH   1   2
BRANCH   1  27
ATOM     27  O   UNL A   1      35.769  18.245  24.335  1.00  0.00    -0.377 OA
BRANCH  27  28
ATOM     28  C   UNL A   1      36.622  19.179  24.986  1.00  0.00     0.188 C 
BRANCH  28  29
ATOM     29  C   UNL A   1      36.334  20.695  25.000  1.00  0.00     0.188 C 
BRANCH  29  30
ATOM     30  O   UNL A   1      37.298  21.493  24.322  1.00  0.00    -0.376 OA
BRANCH  30  31
ATOM     31  C   UNL A   1      37.029  22.888  24.275  1.00  0.00     0.202 C 
BRANCH  31  32
ATOM     32  C   UNL A   1      37.571  23.628  25.500  1.00  0.00     0.261 C 
BRANCH  32  33
ATOM     33  O   UNL A   1      38.364  22.815  26.380  1.00  0.00    -0.460 OA
BRANCH  33  34
ATOM     34  C   UNL A   1      39.670  23.131  26.494  1.00  0.00     0.338 C 
ATOM     35  O   UNL A   1      40.630  22.496  26.094  1.00  0.00    -0.246 OA
BRANCH  34  36
ATOM     36  C   UNL A   1      39.751  24.485  27.065  1.00  0.00     0.060 A 
ATOM     37  C   UNL A   1      40.376  25.500  26.330  1.00  0.00     0.016 A 
ATOM     38  C   UNL A   1      39.209  24.743  28.327  1.00  0.00     0.016 A 
ATOM     39  C   UNL A   1      40.489  26.779  26.876  1.00  0.00     0.010 A 
ATOM     40  C   UNL A   1      39.338  26.015  28.878  1.00  0.00     0.010 A 
ATOM     41  C   UNL A   1      40.007  27.027  28.168  1.00  0.00    -0.014 A 
BRANCH  41  42
ATOM     42  C   UNL A   1      40.366  28.275  28.876  1.00  0.00     0.031 A 
ATOM     43  C   UNL A   1      41.734  28.371  29.487  1.00  0.00     0.074 A 
ATOM     44  C   UNL A   1      39.484  29.277  29.016  1.00  0.00     0.049 A 
ATOM     45  N   UNL A   1      42.243  29.303  30.249  1.00  0.00    -0.248 NA
ATOM     46  C   UNL A   1      42.650  27.253  29.204  1.00  0.00     0.031 C 
ATOM     47  C   UNL A   1      38.137  29.305  28.452  1.00  0.00     0.029 A 
ATOM     48  N   UNL A   1      39.589  30.460  29.704  1.00  0.00    -0.354 N 
ATOM     49  C   UNL A   1      43.535  28.885  30.537  1.00  0.00     0.074 A 
ATOM     50  C   UNL A   1      43.723  27.603  29.895  1.00  0.00     0.031 C 
ATOM     51  C   UNL A   1      37.527  30.438  28.842  1.00  0.00     0.029 A 
ATOM     52  C   UNL A   1      38.432  31.198  29.703  1.00  0.00     0.049 A 
ATOM     53  H   UNL A   1      40.415  30.751  30.154  1.00  0.00     0.167 HD
ATOM     54  C   UNL A   1      44.483  29.519  31.266  1.00  0.00     0.037 A 
ATOM     55  C   UNL A   1      38.135  32.340  30.351  1.00  0.00     0.037 A 
ATOM     56  C   UNL A   1      44.285  30.782  31.922  1.00  0.00     0.049 A 
ATOM     57  C   UNL A   1      39.183  32.996  31.214  1.00  0.00     0.074 A 
ATOM     58  C   UNL A   1      45.179  31.509  32.688  1.00  0.00     0.029 A 
ATOM     59  N   UNL A   1      43.099  31.501  31.899  1.00  0.00    -0.354 N 
ATOM     60  N   UNL A   1      40.412  32.611  31.463  1.00  0.00    -0.248 NA
ATOM     61  C   UNL A   1      38.801  34.247  31.886  1.00  0.00     0.031 C 
ATOM     62  C   UNL A   1      44.522  32.650  33.160  1.00  0.00     0.029 A 
ATOM     63  C   UNL A   1      43.232  32.657  32.651  1.00  0.00     0.049 A 
ATOM     64  H   UNL A   1      42.284  31.232  31.418  1.00  0.00     0.167 HD
ATOM     65  C   UNL A   1      40.957  33.581  32.295  1.00  0.00     0.074 A 
ATOM     66  C   UNL A   1      39.927  34.578  32.502  1.00  0.00     0.031 C 
ATOM     67  C   UNL A   1      42.198  33.641  32.838  1.00  0.00     0.037 A 
BRANCH  54  68
ATOM     68  C   UNL A   1      45.807  28.831  31.407  1.00  0.00     0.064 A 
ATOM     69  C   UNL A   1      46.090  28.005  32.506  1.00  0.00     0.173 A 
ATOM     70  C   UNL A   1      46.806  29.001  30.437  1.00  0.00     0.173 A 
ATOM     71  F   UNL A   1      45.175  27.828  33.471  1.00  0.00    -0.203 F 
ATOM     72  C   UNL A   1      47.335  27.397  32.642  1.00  0.00     0.198 A 
ATOM     73  C   UNL A   1      48.040  28.371  30.563  1.00  0.00     0.198 A 
ATOM     74  F   UNL A   1      46.584  29.783  29.370  1.00  0.00    -0.203 F 
ATOM     75  F   UNL A   1      47.601  26.655  33.725  1.00  0.00    -0.200 F 
ATOM     76  C   UNL A   1      48.306  27.576  31.669  1.00  0.00     0.200 A 
ATOM     77  F   UNL A   1      48.976  28.540  29.619  1.00  0.00    -0.200 F 
ATOM     78  F   UNL A   1      49.505  26.993  31.801  1.00  0.00    -0.200 F 
ENDBRANCH  54  68
BRANCH  55  79
ATOM     79  C   UNL A   1      36.777  32.930  30.225  1.00  0.00     0.064 A 
ATOM     80  C   UNL A   1      36.398  33.627  29.070  1.00  0.00     0.173 A 
ATOM     81  C   UNL A   1      35.837  32.817  31.259  1.00  0.00     0.173 A 
ATOM     82  F   UNL A   1      37.272  33.784  28.065  1.00  0.00    -0.203 F 
ATOM     83  C   UNL A   1      35.132  34.199  28.959  1.00  0.00     0.198 A 
ATOM     84  C   UNL A   1      34.564  33.369  31.138  1.00  0.00     0.198 A 
ATOM     85  F   UNL A   1      36.154  32.164  32.386  1.00  0.00    -0.203 F 
ATOM     86  F   UNL A   1      34.808  34.895  27.861  1.00  0.00    -0.200 F 
ATOM     87  C   UNL A   1      34.215  34.065  29.990  1.00  0.00     0.200 A 
ATOM     88  F   UNL A   1      33.678  33.230  32.132  1.00  0.00    -0.200 F 
ATOM     89  F   UNL A   1      32.997  34.614  29.882  1.00  0.00    -0.200 F 
ENDBRANCH  55  79
BRANCH  67  90
ATOM     90  C   UNL A   1      42.526  34.840  33.678  1.00  0.00     0.064 A 
ATOM     91  C   UNL A   1      42.387  34.821  35.073  1.00  0.00     0.173 A 
ATOM     92  C   UNL A   1      43.040  36.003  33.083  1.00  0.00     0.173 A 
ATOM     93  F   UNL A   1      41.888  33.738  35.687  1.00  0.00    -0.203 F 
ATOM     94  C   UNL A   1      42.732  35.931  35.841  1.00  0.00     0.198 A 
ATOM     95  C   UNL A   1      43.409  37.099  33.856  1.00  0.00     0.198 A 
ATOM     96  F   UNL A   1      43.200  36.066  31.753  1.00  0.00    -0.203 F 
ATOM     97  F   UNL A   1      42.555  35.906  37.169  1.00  0.00    -0.200 F 
ATOM     98  C   UNL A   1      43.249  37.065  35.233  1.00  0.00     0.200 A 
ATOM     99  F   UNL A   1      43.920  38.190  33.267  1.00  0.00    -0.200 F 
ATOM    100  F   UNL A   1      43.589  38.128  35.975  1.00  0.00    -0.200 F 
ENDBRANCH  67  90
ENDBRANCH  41  42
ENDBRANCH  34  36
ENDBRANCH  33  34
ENDBRANCH  32  33
ENDBRANCH  31  32
ENDBRANCH  30  31
ENDBRANCH  29  30
ENDBRANCH  28  29
ENDBRANCH  27  28
ENDBRANCH   1  27
TORSDOF 24
ENDMDL
MODEL 3
REMARK VINA RESULT:      -9.8      5.351     10.945
REMARK SMILES CC(C)(C)OC(=O)N1CC(Cc2ccc(C(=O)OCCOCCOCCOCCOC(=O)c3ccc(-c4c5nc(c(-c6c(F)c(F)c(F)c(F)c6F)c6ccc([nH]6)c(-c6c(F)c(F)c(F)c(F)c6F)c6nc(c(-c7c(F)c(F)c(F)c(F)c7F)c7ccc4[nH]7)C=C6)C=C5)cc3)cc2)C1
REMARK SMILES IDX 23 1 22 2 21 3 20 4 19 5 18 6 16 7 17 8 15 9 12 10 13 11
REMARK SMILES IDX 97 12 14 13 96 14 11 15 10 16 6 17 7 18 8 19 9 20 98 21 5 22
REMARK SMILES IDX 2 23 1 24 3 25 4 26 24 27 25 28 26 29 27 30 28 31 29 32
REMARK SMILES IDX 30 33 31 34 32 35 33 36 34 37 95 38 35 39 94 40 36 41 37 42
REMARK SMILES IDX 38 43 88 44 39 45 93 46 87 47 89 48 40 49 92 50 86 51 85 52
REMARK SMILES IDX 41 54 73 55 53 56 72 57 54 58 57 59 71 60 90 61 55 62 56 63
REMARK SMILES IDX 70 65 91 66 58 67 42 68 43 69 51 70 44 71 45 72 49 73 52 74
REMARK SMILES IDX 46 75 47 76 50 77 48 78 74 79 75 80 83 81 76 82 77 83 81 84
REMARK SMILES IDX 84 85 78 86 79 87 82 88 80 89 59 90 60 91 68 92 61 93 62 94
REMARK SMILES IDX 66 95 69 96 63 97 64 98 67 99 65 100
REMARK H PARENT 89 53 57 64
REMARK Flexibility Score: inf
ROOT
ATOM      1  C   UNL A   1      33.970  29.135  27.446  1.00  0.00     0.188 C 
ENDROOT
BRANCH   1   2
ATOM      2  C   UNL A   1      33.994  28.777  25.951  1.00  0.00     0.188 C 
BRANCH   2   3
ATOM      3  O   UNL A   1      33.273  29.684  25.119  1.00  0.00    -0.376 OA
BRANCH   3   4
ATOM      4  C   UNL A   1      32.584  29.099  24.021  1.00  0.00     0.202 C 
BRANCH   4   5
ATOM      5  C   UNL A   1      31.075  28.975  24.252  1.00  0.00     0.261 C 
BRANCH   5   6
ATOM      6  O   UNL A   1      30.697  27.793  24.971  1.00  0.00    -0.460 OA
BRANCH   6   7
ATOM      7  C   UNL A   1      30.729  26.633  24.281  1.00  0.00     0.338 C 
ATOM      8  O   UNL A   1      30.366  26.456  23.131  1.00  0.00    -0.246 OA
BRANCH   7   9
ATOM      9  C   UNL A   1      31.427  25.617  25.096  1.00  0.00     0.060 A 
ATOM     10  C   UNL A   1      32.684  23.732  26.730  1.00  0.00    -0.048 A 
ATOM     11  C   UNL A   1      31.287  23.825  26.714  1.00  0.00     0.004 A 
ATOM     12  C   UNL A   1      33.442  24.541  25.868  1.00  0.00     0.004 A 
ATOM     13  C   UNL A   1      30.660  24.768  25.902  1.00  0.00     0.016 A 
ATOM     14  C   UNL A   1      32.818  25.486  25.058  1.00  0.00     0.016 A 
BRANCH  10  15
ATOM     15  C   UNL A   1      33.382  22.858  27.741  1.00  0.00     0.042 C 
BRANCH  15  16
ATOM     16  C   UNL A   1      33.712  21.533  27.069  1.00  0.00     0.033 C 
ATOM     17  C   UNL A   1      34.715  19.530  24.708  1.00  0.00     0.410 C 
ATOM     18  O   UNL A   1      35.775  18.956  24.934  1.00  0.00    -0.224 OA
ATOM     19  N   UNL A   1      34.349  20.674  25.345  1.00  0.00    -0.307 N 
ATOM     20  C   UNL A   1      35.062  21.453  26.337  1.00  0.00     0.128 C 
ATOM     21  C   UNL A   1      33.049  21.206  25.702  1.00  0.00     0.128 C 
BRANCH  17  22
ATOM     22  O   UNL A   1      33.794  19.151  23.787  1.00  0.00    -0.444 OA
BRANCH  22  23
ATOM     23  C   UNL A   1      33.190  17.830  23.837  1.00  0.00     0.106 C 
ATOM     24  C   UNL A   1      34.343  16.850  23.571  1.00  0.00     0.056 C 
ATOM     25  C   UNL A   1      32.153  17.705  22.720  1.00  0.00     0.056 C 
ATOM     26  C   UNL A   1      32.587  17.478  25.207  1.00  0.00     0.056 C 
ENDBRANCH  22  23
ENDBRANCH  17  22
ENDBRANCH  15  16
ENDBRANCH  10  15
ENDBRANCH   7   9
ENDBRANCH   6   7
ENDBRANCH   5   6
ENDBRANCH   4   5
ENDBRANCH   3   4
ENDBRANCH   2   3
ENDBRANCH   1   2
BRANCH   1  27
ATOM     27  O   UNL A   1      34.967  30.020  27.924  1.00  0.00    -0.377 OA
BRANCH  27  28
ATOM     28  C   UNL A   1      34.843  31.417  27.683  1.00  0.00     0.188 C 
BRANCH  28  29
ATOM     29  C   UNL A   1      34.048  32.353  28.619  1.00  0.00     0.188 C 
BRANCH  29  30
ATOM     30  O   UNL A   1      34.715  33.562  28.961  1.00  0.00    -0.376 OA
BRANCH  30  31
ATOM     31  C   UNL A   1      34.034  34.410  29.877  1.00  0.00     0.202 C 
BRANCH  31  32
ATOM     32  C   UNL A   1      34.398  34.107  31.333  1.00  0.00     0.261 C 
BRANCH  32  33
ATOM     33  O   UNL A   1      35.799  33.887  31.559  1.00  0.00    -0.460 OA
BRANCH  33  34
ATOM     34  C   UNL A   1      36.156  32.690  32.068  1.00  0.00     0.338 C 
ATOM     35  O   UNL A   1      35.492  31.949  32.772  1.00  0.00    -0.246 OA
BRANCH  34  36
ATOM     36  C   UNL A   1      37.465  32.338  31.495  1.00  0.00     0.060 A 
ATOM     37  C   UNL A   1      37.654  32.438  30.110  1.00  0.00     0.016 A 
ATOM     38  C   UNL A   1      38.499  31.908  32.330  1.00  0.00     0.016 A 
ATOM     39  C   UNL A   1      38.879  32.073  29.552  1.00  0.00     0.010 A 
ATOM     40  C   UNL A   1      39.715  31.528  31.770  1.00  0.00     0.010 A 
ATOM     41  C   UNL A   1      39.898  31.578  30.378  1.00  0.00    -0.014 A 
BRANCH  41  42
ATOM     42  C   UNL A   1      41.086  30.922  29.791  1.00  0.00     0.031 A 
ATOM     43  C   UNL A   1      42.301  31.765  29.530  1.00  0.00     0.074 A 
ATOM     44  C   UNL A   1      41.071  29.623  29.453  1.00  0.00     0.049 A 
ATOM     45  N   UNL A   1      43.416  31.453  28.924  1.00  0.00    -0.248 NA
ATOM     46  C   UNL A   1      42.242  33.154  30.014  1.00  0.00     0.031 C 
ATOM     47  C   UNL A   1      39.958  28.704  29.674  1.00  0.00     0.029 A 
ATOM     48  N   UNL A   1      42.023  28.860  28.823  1.00  0.00    -0.354 N 
ATOM     49  C   UNL A   1      44.190  32.606  28.952  1.00  0.00     0.074 A 
ATOM     50  C   UNL A   1      43.408  33.631  29.607  1.00  0.00     0.031 C 
ATOM     51  C   UNL A   1      40.279  27.503  29.161  1.00  0.00     0.029 A 
ATOM     52  C   UNL A   1      41.606  27.581  28.552  1.00  0.00     0.049 A 
ATOM     53  H   UNL A   1      42.917  29.199  28.589  1.00  0.00     0.167 HD
ATOM     54  C   UNL A   1      45.445  32.790  28.480  1.00  0.00     0.037 A 
ATOM     55  C   UNL A   1      42.219  26.601  27.863  1.00  0.00     0.037 A 
ATOM     56  C   UNL A   1      46.211  31.776  27.809  1.00  0.00     0.049 A 
ATOM     57  C   UNL A   1      43.591  26.847  27.286  1.00  0.00     0.074 A 
ATOM     58  C   UNL A   1      47.491  31.860  27.290  1.00  0.00     0.029 A 
ATOM     59  N   UNL A   1      45.757  30.490  27.552  1.00  0.00    -0.354 N 
ATOM     60  N   UNL A   1      44.329  27.930  27.337  1.00  0.00    -0.248 NA
ATOM     61  C   UNL A   1      44.213  25.733  26.555  1.00  0.00     0.031 C 
ATOM     62  C   UNL A   1      47.797  30.636  26.684  1.00  0.00     0.029 A 
ATOM     63  C   UNL A   1      46.726  29.775  26.867  1.00  0.00     0.049 A 
ATOM     64  H   UNL A   1      44.878  30.138  27.819  1.00  0.00     0.167 HD
ATOM     65  C   UNL A   1      45.509  27.620  26.672  1.00  0.00     0.074 A 
ATOM     66  C   UNL A   1      45.392  26.246  26.233  1.00  0.00     0.031 C 
ATOM     67  C   UNL A   1      46.592  28.404  26.446  1.00  0.00     0.037 A 
BRANCH  54  68
ATOM     68  C   UNL A   1      46.046  34.151  28.656  1.00  0.00     0.064 A 
ATOM     69  C   UNL A   1      45.847  35.168  27.709  1.00  0.00     0.173 A 
ATOM     70  C   UNL A   1      46.833  34.443  29.780  1.00  0.00     0.173 A 
ATOM     71  F   UNL A   1      45.119  34.931  26.607  1.00  0.00    -0.203 F 
ATOM     72  C   UNL A   1      46.437  36.419  27.868  1.00  0.00     0.198 A 
ATOM     73  C   UNL A   1      47.399  35.703  29.948  1.00  0.00     0.198 A 
ATOM     74  F   UNL A   1      47.055  33.504  30.711  1.00  0.00    -0.203 F 
ATOM     75  F   UNL A   1      46.276  37.358  26.925  1.00  0.00    -0.200 F 
ATOM     76  C   UNL A   1      47.208  36.687  28.988  1.00  0.00     0.200 A 
ATOM     77  F   UNL A   1      48.140  35.964  31.034  1.00  0.00    -0.200 F 
ATOM     78  F   UNL A   1      47.777  37.890  29.139  1.00  0.00    -0.200 F 
ENDBRANCH  54  68
BRANCH  55  79
ATOM     79  C   UNL A   1      41.535  25.297  27.664  1.00  0.00     0.064 A 
ATOM     80  C   UNL A   1      41.953  24.150  28.352  1.00  0.00     0.173 A 
ATOM     81  C   UNL A   1      40.457  25.171  26.777  1.00  0.00     0.173 A 
ATOM     82  F   UNL A   1      42.997  24.215  29.191  1.00  0.00    -0.203 F 
ATOM     83  C   UNL A   1      41.325  22.922  28.150  1.00  0.00     0.198 A 
ATOM     84  C   UNL A   1      39.815  23.949  26.593  1.00  0.00     0.198 A 
ATOM     85  F   UNL A   1      40.023  26.239  26.092  1.00  0.00    -0.203 F 
ATOM     86  F   UNL A   1      41.770  21.832  28.789  1.00  0.00    -0.200 F 
ATOM     87  C   UNL A   1      40.254  22.824  27.276  1.00  0.00     0.200 A 
ATOM     88  F   UNL A   1      38.774  23.860  25.754  1.00  0.00    -0.200 F 
ATOM     89  F   UNL A   1      39.649  21.643  27.083  1.00  0.00    -0.200 F 
ENDBRANCH  55  79
BRANCH  67  90
ATOM     90  C   UNL A   1      47.753  27.786  25.723  1.00  0.00     0.064 A 
ATOM     91  C   UNL A   1      47.807  27.741  24.322  1.00  0.00     0.173 A 
ATOM     92  C   UNL A   1      48.849  27.284  26.441  1.00  0.00     0.173 A 
ATOM     93  F   UNL A   1      46.778  28.196  23.591  1.00  0.00    -0.203 F 
ATOM     94  C   UNL A   1      48.909  27.197  23.667  1.00  0.00     0.198 A 
ATOM     95  C   UNL A   1      49.960  26.767  25.782  1.00  0.00     0.198 A 
ATOM     96  F   UNL A   1      48.848  27.314  27.782  1.00  0.00    -0.203 F 
ATOM     97  F   UNL A   1      48.924  27.128  22.329  1.00  0.00    -0.200 F 
ATOM     98  C   UNL A   1      49.987  26.717  24.396  1.00  0.00     0.200 A 
ATOM     99  F   UNL A   1      51.005  26.315  26.489  1.00  0.00    -0.200 F 
ATOM    100  F   UNL A   1      51.050  26.203  23.764  1.00  0.00    -0.200 F 
ENDBRANCH  67  90
ENDBRANCH  41  42
ENDBRANCH  34  36
ENDBRANCH  33  34
ENDBRANCH  32  33
ENDBRANCH  31  32
ENDBRANCH  30  31
ENDBRANCH  29  30
ENDBRANCH  28  29
ENDBRANCH  27  28
ENDBRANCH   1  27
TORSDOF 24
ENDMDL
