MODEL 1
REMARK VINA RESULT:     -10.8      0.000      0.000
REMARK SMILES O=C(Nc1c(F)cc(F)cc1F)N[C@H]1C=C[C@@H](C(=O)OCCOCCOCCOCCOC(=O)c2ccc(-c3c4nc(c(-c5c(F)c(F)c(F)c(F)c5F)c5ccc([nH]5)c(-c5c(F)c(F)c(F)c(F)c5F)c5nc(c(-c6c(F)c(F)c(F)c(F)c6F)c6ccc3[nH]6)C=C5)C=C4)cc2)C1
REMARK SMILES IDX 26 1 25 2 24 3 23 4 22 5 21 6 20 7 18 8 19 9 17 10 14 11
REMARK SMILES IDX 15 12 98 13 16 14 13 15 1 16 2 17 3 18 4 21 5 22 11 23 6 24
REMARK SMILES IDX 7 25 10 26 12 27 8 28 9 29 27 30 28 31 29 32 30 33 31 34
REMARK SMILES IDX 32 35 33 36 34 37 35 38 36 39 97 40 37 41 96 42 38 43 39 44
REMARK SMILES IDX 40 45 90 46 41 47 95 48 89 49 91 50 42 51 94 52 88 53 87 54
REMARK SMILES IDX 43 56 75 57 55 58 74 59 56 60 59 61 73 62 92 63 57 64 58 65
REMARK SMILES IDX 72 67 93 68 60 69 44 70 45 71 53 72 46 73 47 74 51 75 54 76
REMARK SMILES IDX 48 77 49 78 52 79 50 80 76 81 77 82 85 83 78 84 79 85 83 86
REMARK SMILES IDX 86 87 80 88 81 89 84 90 82 91 61 92 62 93 70 94 63 95 64 96
REMARK SMILES IDX 68 97 71 98 65 99 66 100 69 101 67 102
REMARK H PARENT 3 19 13 20 91 55 59 66
REMARK Flexibility Score: inf
ROOT
ATOM      1  O   UNL A   1      38.924  23.022  26.582  1.00  0.00    -0.377 OA
ENDROOT
BRANCH   1   2
ATOM      2  C   UNL A   1      37.893  22.513  25.767  1.00  0.00     0.188 C 
BRANCH   2   3
ATOM      3  C   UNL A   1      36.911  23.566  25.241  1.00  0.00     0.188 C 
BRANCH   3   4
ATOM      4  O   UNL A   1      35.664  23.757  25.886  1.00  0.00    -0.376 OA
BRANCH   4   5
ATOM      5  C   UNL A   1      35.117  22.767  26.747  1.00  0.00     0.202 C 
BRANCH   5   6
ATOM      6  C   UNL A   1      33.648  22.723  27.211  1.00  0.00     0.261 C 
BRANCH   6   7
ATOM      7  O   UNL A   1      32.653  22.688  26.186  1.00  0.00    -0.463 OA
BRANCH   7   8
ATOM      8  C   UNL A   1      32.596  21.573  25.426  1.00  0.00     0.312 C 
ATOM      9  O   UNL A   1      32.573  20.430  25.877  1.00  0.00    -0.252 OA
BRANCH   8  10
ATOM     10  C   UNL A   1      32.531  21.846  23.925  1.00  0.00     0.124 C 
ATOM     11  C   UNL A   1      32.644  23.781  22.415  1.00  0.00     0.107 C 
ATOM     12  C   UNL A   1      33.989  23.187  22.642  1.00  0.00    -0.006 C 
ATOM     13  C   UNL A   1      31.738  23.053  23.401  1.00  0.00     0.048 C 
ATOM     14  C   UNL A   1      33.924  22.110  23.431  1.00  0.00    -0.014 C 
BRANCH  11  15
ATOM     15  N   UNL A   1      32.689  25.220  22.485  1.00  0.00    -0.332 N 
ATOM     16  O   UNL A   1      33.157  25.793  20.319  1.00  0.00    -0.248 OA
ATOM     17  C   UNL A   1      32.905  26.103  21.480  1.00  0.00     0.319 C 
ATOM     18  N   UNL A   1      32.732  27.429  21.743  1.00  0.00    -0.303 N 
ATOM     19  H   UNL A   1      32.963  28.016  20.987  1.00  0.00     0.172 HD
ATOM     20  H   UNL A   1      32.545  25.612  23.376  1.00  0.00     0.165 HD
BRANCH  18  21
ATOM     21  C   UNL A   1      32.289  28.123  22.885  1.00  0.00     0.115 A 
ATOM     22  C   UNL A   1      30.969  28.477  23.173  1.00  0.00     0.152 A 
ATOM     23  C   UNL A   1      33.282  28.530  23.783  1.00  0.00     0.152 A 
ATOM     24  F   UNL A   1      29.956  28.038  22.413  1.00  0.00    -0.204 F 
ATOM     25  C   UNL A   1      30.656  29.290  24.257  1.00  0.00     0.081 A 
ATOM     26  C   UNL A   1      32.994  29.362  24.859  1.00  0.00     0.081 A 
ATOM     27  F   UNL A   1      34.558  28.178  23.563  1.00  0.00    -0.204 F 
ATOM     28  C   UNL A   1      31.680  29.748  25.074  1.00  0.00     0.129 A 
ATOM     29  F   UNL A   1      31.393  30.579  26.083  1.00  0.00    -0.207 F 
ENDBRANCH  18  21
ENDBRANCH  11  15
ENDBRANCH   8  10
ENDBRANCH   7   8
ENDBRANCH   6   7
ENDBRANCH   5   6
ENDBRANCH   4   5
ENDBRANCH   3   4
ENDBRANCH   2   3
ENDBRANCH   1   2
BRANCH   1  30
ATOM     30  C   UNL A   1      40.153  22.317  26.658  1.00  0.00     0.188 C 
BRANCH  30  31
ATOM     31  C   UNL A   1      40.237  20.857  26.166  1.00  0.00     0.188 C 
BRANCH  31  32
ATOM     32  O   UNL A   1      41.551  20.374  25.932  1.00  0.00    -0.376 OA
BRANCH  32  33
ATOM     33  C   UNL A   1      42.647  21.031  26.552  1.00  0.00     0.202 C 
BRANCH  33  34
ATOM     34  C   UNL A   1      43.617  21.822  25.659  1.00  0.00     0.261 C 
BRANCH  34  35
ATOM     35  O   UNL A   1      44.292  22.934  26.271  1.00  0.00    -0.460 OA
BRANCH  35  36
ATOM     36  C   UNL A   1      44.210  24.136  25.671  1.00  0.00     0.338 C 
ATOM     37  O   UNL A   1      44.511  24.412  24.519  1.00  0.00    -0.246 OA
BRANCH  36  38
ATOM     38  C   UNL A   1      43.516  25.058  26.590  1.00  0.00     0.060 A 
ATOM     39  C   UNL A   1      43.965  26.381  26.690  1.00  0.00     0.016 A 
ATOM     40  C   UNL A   1      42.439  24.616  27.363  1.00  0.00     0.016 A 
ATOM     41  C   UNL A   1      43.370  27.253  27.602  1.00  0.00     0.010 A 
ATOM     42  C   UNL A   1      41.858  25.484  28.290  1.00  0.00     0.010 A 
ATOM     43  C   UNL A   1      42.348  26.794  28.442  1.00  0.00    -0.014 A 
BRANCH  43  44
ATOM     44  C   UNL A   1      41.935  27.610  29.609  1.00  0.00     0.031 A 
ATOM     45  C   UNL A   1      40.703  28.464  29.483  1.00  0.00     0.074 A 
ATOM     46  C   UNL A   1      42.613  27.570  30.769  1.00  0.00     0.049 A 
ATOM     47  N   UNL A   1      40.172  29.295  30.344  1.00  0.00    -0.248 NA
ATOM     48  C   UNL A   1      39.969  28.365  28.211  1.00  0.00     0.031 C 
ATOM     49  C   UNL A   1      43.783  26.737  31.034  1.00  0.00     0.029 A 
ATOM     50  N   UNL A   1      42.407  28.249  31.945  1.00  0.00    -0.354 N 
ATOM     51  C   UNL A   1      39.046  29.815  29.719  1.00  0.00     0.074 A 
ATOM     52  C   UNL A   1      38.991  29.240  28.392  1.00  0.00     0.031 C 
ATOM     53  C   UNL A   1      44.194  26.954  32.296  1.00  0.00     0.029 A 
ATOM     54  C   UNL A   1      43.338  27.967  32.913  1.00  0.00     0.049 A 
ATOM     55  H   UNL A   1      41.663  28.879  32.080  1.00  0.00     0.167 HD
ATOM     56  C   UNL A   1      38.130  30.679  30.213  1.00  0.00     0.037 A 
ATOM     57  C   UNL A   1      43.489  28.483  34.150  1.00  0.00     0.037 A 
ATOM     58  C   UNL A   1      38.191  31.252  31.533  1.00  0.00     0.049 A 
ATOM     59  C   UNL A   1      42.516  29.525  34.642  1.00  0.00     0.074 A 
ATOM     60  C   UNL A   1      37.316  32.146  32.124  1.00  0.00     0.029 A 
ATOM     61  N   UNL A   1      39.185  30.987  32.464  1.00  0.00    -0.354 N 
ATOM     62  N   UNL A   1      41.456  30.015  34.048  1.00  0.00    -0.248 NA
ATOM     63  C   UNL A   1      42.764  30.088  35.978  1.00  0.00     0.031 C 
ATOM     64  C   UNL A   1      37.811  32.467  33.390  1.00  0.00     0.029 A 
ATOM     65  C   UNL A   1      38.959  31.724  33.616  1.00  0.00     0.049 A 
ATOM     66  H   UNL A   1      39.939  30.369  32.326  1.00  0.00     0.167 HD
ATOM     67  C   UNL A   1      40.894  30.918  34.942  1.00  0.00     0.074 A 
ATOM     68  C   UNL A   1      41.725  30.899  36.128  1.00  0.00     0.031 C 
ATOM     69  C   UNL A   1      39.790  31.690  34.795  1.00  0.00     0.037 A 
BRANCH  56  70
ATOM     70  C   UNL A   1      36.989  31.075  29.320  1.00  0.00     0.064 A 
ATOM     71  C   UNL A   1      36.937  32.360  28.758  1.00  0.00     0.173 A 
ATOM     72  C   UNL A   1      35.920  30.204  29.062  1.00  0.00     0.173 A 
ATOM     73  F   UNL A   1      37.932  33.235  28.975  1.00  0.00    -0.203 F 
ATOM     74  C   UNL A   1      35.851  32.763  27.985  1.00  0.00     0.198 A 
ATOM     75  C   UNL A   1      34.852  30.598  28.261  1.00  0.00     0.198 A 
ATOM     76  F   UNL A   1      35.928  28.959  29.561  1.00  0.00    -0.203 F 
ATOM     77  F   UNL A   1      35.808  34.006  27.489  1.00  0.00    -0.200 F 
ATOM     78  C   UNL A   1      34.812  31.879  27.733  1.00  0.00     0.200 A 
ATOM     79  F   UNL A   1      33.863  29.734  27.993  1.00  0.00    -0.200 F 
ATOM     80  F   UNL A   1      33.776  32.262  26.975  1.00  0.00    -0.200 F 
ENDBRANCH  56  70
BRANCH  57  81
ATOM     81  C   UNL A   1      44.604  28.009  35.015  1.00  0.00     0.064 A 
ATOM     82  C   UNL A   1      45.867  28.618  34.981  1.00  0.00     0.173 A 
ATOM     83  C   UNL A   1      44.428  26.925  35.885  1.00  0.00     0.173 A 
ATOM     84  F   UNL A   1      46.086  29.667  34.173  1.00  0.00    -0.203 F 
ATOM     85  C   UNL A   1      46.918  28.144  35.763  1.00  0.00     0.198 A 
ATOM     86  C   UNL A   1      45.472  26.470  36.690  1.00  0.00     0.198 A 
ATOM     87  F   UNL A   1      43.231  26.328  35.978  1.00  0.00    -0.203 F 
ATOM     88  F   UNL A   1      48.123  28.724  35.686  1.00  0.00    -0.200 F 
ATOM     89  C   UNL A   1      46.719  27.072  36.620  1.00  0.00     0.200 A 
ATOM     90  F   UNL A   1      45.266  25.454  37.538  1.00  0.00    -0.200 F 
ATOM     91  F   UNL A   1      47.725  26.625  37.384  1.00  0.00    -0.200 F 
ENDBRANCH  57  81
BRANCH  69  92
ATOM     92  C   UNL A   1      39.384  32.568  35.946  1.00  0.00     0.064 A 
ATOM     93  C   UNL A   1      39.944  33.847  36.097  1.00  0.00     0.173 A 
ATOM     94  C   UNL A   1      38.514  32.113  36.948  1.00  0.00     0.173 A 
ATOM     95  F   UNL A   1      40.793  34.327  35.174  1.00  0.00    -0.203 F 
ATOM     96  C   UNL A   1      39.663  34.628  37.214  1.00  0.00     0.198 A 
ATOM     97  C   UNL A   1      38.208  32.912  38.047  1.00  0.00     0.198 A 
ATOM     98  F   UNL A   1      37.944  30.903  36.849  1.00  0.00    -0.203 F 
ATOM     99  F   UNL A   1      40.245  35.827  37.356  1.00  0.00    -0.200 F 
ATOM    100  C   UNL A   1      38.791  34.162  38.185  1.00  0.00     0.200 A 
ATOM    101  F   UNL A   1      37.345  32.470  38.973  1.00  0.00    -0.200 F 
ATOM    102  F   UNL A   1      38.512  34.919  39.256  1.00  0.00    -0.200 F 
ENDBRANCH  69  92
ENDBRANCH  43  44
ENDBRANCH  36  38
ENDBRANCH  35  36
ENDBRANCH  34  35
ENDBRANCH  33  34
ENDBRANCH  32  33
ENDBRANCH  31  32
ENDBRANCH  30  31
ENDBRANCH   1  30
TORSDOF 22
ENDMDL
MODEL 2
REMARK VINA RESULT:     -10.7      1.468      7.161
REMARK SMILES O=C(Nc1c(F)cc(F)cc1F)N[C@H]1C=C[C@@H](C(=O)OCCOCCOCCOCCOC(=O)c2ccc(-c3c4nc(c(-c5c(F)c(F)c(F)c(F)c5F)c5ccc([nH]5)c(-c5c(F)c(F)c(F)c(F)c5F)c5nc(c(-c6c(F)c(F)c(F)c(F)c6F)c6ccc3[nH]6)C=C5)C=C4)cc2)C1
REMARK SMILES IDX 26 1 25 2 24 3 23 4 22 5 21 6 20 7 18 8 19 9 17 10 14 11
REMARK SMILES IDX 15 12 98 13 16 14 13 15 1 16 2 17 3 18 4 21 5 22 11 23 6 24
REMARK SMILES IDX 7 25 10 26 12 27 8 28 9 29 27 30 28 31 29 32 30 33 31 34
REMARK SMILES IDX 32 35 33 36 34 37 35 38 36 39 97 40 37 41 96 42 38 43 39 44
REMARK SMILES IDX 40 45 90 46 41 47 95 48 89 49 91 50 42 51 94 52 88 53 87 54
REMARK SMILES IDX 43 56 75 57 55 58 74 59 56 60 59 61 73 62 92 63 57 64 58 65
REMARK SMILES IDX 72 67 93 68 60 69 44 70 45 71 53 72 46 73 47 74 51 75 54 76
REMARK SMILES IDX 48 77 49 78 52 79 50 80 76 81 77 82 85 83 78 84 79 85 83 86
REMARK SMILES IDX 86 87 80 88 81 89 84 90 82 91 61 92 62 93 70 94 63 95 64 96
REMARK SMILES IDX 68 97 71 98 65 99 66 100 69 101 67 102
REMARK H PARENT 3 19 13 20 91 55 59 66
REMARK Flexibility Score: inf
ROOT
ATOM      1  O   UNL A   1      40.453  22.466  27.740  1.00  0.00    -0.377 OA
ENDROOT
BRANCH   1   2
ATOM      2  C   UNL A   1      40.072  22.735  26.410  1.00  0.00     0.188 C 
BRANCH   2   3
ATOM      3  C   UNL A   1      38.682  23.363  26.255  1.00  0.00     0.188 C 
BRANCH   3   4
ATOM      4  O   UNL A   1      37.701  22.725  25.456  1.00  0.00    -0.376 OA
BRANCH   4   5
ATOM      5  C   UNL A   1      36.321  22.782  25.790  1.00  0.00     0.202 C 
BRANCH   5   6
ATOM      6  C   UNL A   1      35.460  21.563  26.172  1.00  0.00     0.261 C 
BRANCH   6   7
ATOM      7  O   UNL A   1      34.047  21.699  26.009  1.00  0.00    -0.463 OA
BRANCH   7   8
ATOM      8  C   UNL A   1      33.411  20.711  25.344  1.00  0.00     0.312 C 
ATOM      9  O   UNL A   1      33.847  19.569  25.221  1.00  0.00    -0.252 OA
BRANCH   8  10
ATOM     10  C   UNL A   1      32.057  21.121  24.767  1.00  0.00     0.124 C 
ATOM     11  C   UNL A   1      30.774  23.186  24.412  1.00  0.00     0.107 C 
ATOM     12  C   UNL A   1      31.614  22.856  23.230  1.00  0.00    -0.006 C 
ATOM     13  C   UNL A   1      31.215  22.191  25.479  1.00  0.00     0.048 C 
ATOM     14  C   UNL A   1      32.282  21.711  23.405  1.00  0.00    -0.014 C 
BRANCH  11  15
ATOM     15  N   UNL A   1      30.852  24.589  24.734  1.00  0.00    -0.332 N 
ATOM     16  O   UNL A   1      29.930  24.654  26.827  1.00  0.00    -0.248 OA
ATOM     17  C   UNL A   1      30.470  25.211  25.876  1.00  0.00     0.319 C 
ATOM     18  N   UNL A   1      30.796  26.525  26.031  1.00  0.00    -0.303 N 
ATOM     19  H   UNL A   1      30.438  26.928  26.855  1.00  0.00     0.172 HD
ATOM     20  H   UNL A   1      31.230  25.170  24.035  1.00  0.00     0.165 HD
BRANCH  18  21
ATOM     21  C   UNL A   1      31.545  27.419  25.242  1.00  0.00     0.115 A 
ATOM     22  C   UNL A   1      31.070  28.150  24.151  1.00  0.00     0.152 A 
ATOM     23  C   UNL A   1      32.902  27.538  25.563  1.00  0.00     0.152 A 
ATOM     24  F   UNL A   1      29.765  28.165  23.846  1.00  0.00    -0.204 F 
ATOM     25  C   UNL A   1      31.928  28.894  23.348  1.00  0.00     0.081 A 
ATOM     26  C   UNL A   1      33.780  28.256  24.761  1.00  0.00     0.081 A 
ATOM     27  F   UNL A   1      33.390  26.881  26.627  1.00  0.00    -0.204 F 
ATOM     28  C   UNL A   1      33.283  28.915  23.647  1.00  0.00     0.129 A 
ATOM     29  F   UNL A   1      34.122  29.580  22.844  1.00  0.00    -0.207 F 
ENDBRANCH  18  21
ENDBRANCH  11  15
ENDBRANCH   8  10
ENDBRANCH   7   8
ENDBRANCH   6   7
ENDBRANCH   5   6
ENDBRANCH   4   5
ENDBRANCH   3   4
ENDBRANCH   2   3
ENDBRANCH   1   2
BRANCH   1  30
ATOM     30  C   UNL A   1      41.584  21.643  27.978  1.00  0.00     0.188 C 
BRANCH  30  31
ATOM     31  C   UNL A   1      42.477  21.198  26.802  1.00  0.00     0.188 C 
BRANCH  31  32
ATOM     32  O   UNL A   1      43.677  21.939  26.641  1.00  0.00    -0.376 OA
BRANCH  32  33
ATOM     33  C   UNL A   1      44.399  21.826  25.423  1.00  0.00     0.202 C 
BRANCH  33  34
ATOM     34  C   UNL A   1      44.131  22.867  24.323  1.00  0.00     0.261 C 
BRANCH  34  35
ATOM     35  O   UNL A   1      43.465  24.074  24.729  1.00  0.00    -0.460 OA
BRANCH  35  36
ATOM     36  C   UNL A   1      44.219  25.100  25.165  1.00  0.00     0.338 C 
ATOM     37  O   UNL A   1      45.329  25.427  24.770  1.00  0.00    -0.246 OA
BRANCH  36  38
ATOM     38  C   UNL A   1      43.405  25.901  26.099  1.00  0.00     0.060 A 
ATOM     39  C   UNL A   1      43.612  27.284  26.164  1.00  0.00     0.016 A 
ATOM     40  C   UNL A   1      42.454  25.287  26.920  1.00  0.00     0.016 A 
ATOM     41  C   UNL A   1      42.904  28.053  27.088  1.00  0.00     0.010 A 
ATOM     42  C   UNL A   1      41.761  26.055  27.859  1.00  0.00     0.010 A 
ATOM     43  C   UNL A   1      42.012  27.435  27.974  1.00  0.00    -0.014 A 
BRANCH  43  44
ATOM     44  C   UNL A   1      41.503  28.186  29.146  1.00  0.00     0.031 A 
ATOM     45  C   UNL A   1      42.268  28.097  30.438  1.00  0.00     0.074 A 
ATOM     46  C   UNL A   1      40.407  28.960  29.063  1.00  0.00     0.049 A 
ATOM     47  N   UNL A   1      41.997  28.622  31.607  1.00  0.00    -0.248 NA
ATOM     48  C   UNL A   1      43.511  27.309  30.407  1.00  0.00     0.031 C 
ATOM     49  C   UNL A   1      39.617  29.176  27.853  1.00  0.00     0.029 A 
ATOM     50  N   UNL A   1      39.772  29.712  30.021  1.00  0.00    -0.354 N 
ATOM     51  C   UNL A   1      43.032  28.228  32.445  1.00  0.00     0.074 A 
ATOM     52  C   UNL A   1      43.914  27.386  31.666  1.00  0.00     0.031 C 
ATOM     53  C   UNL A   1      38.601  30.007  28.141  1.00  0.00     0.029 A 
ATOM     54  C   UNL A   1      38.648  30.351  29.562  1.00  0.00     0.049 A 
ATOM     55  H   UNL A   1      40.094  29.785  30.949  1.00  0.00     0.167 HD
ATOM     56  C   UNL A   1      43.238  28.553  33.742  1.00  0.00     0.037 A 
ATOM     57  C   UNL A   1      37.751  31.113  30.222  1.00  0.00     0.037 A 
ATOM     58  C   UNL A   1      42.354  29.387  34.514  1.00  0.00     0.049 A 
ATOM     59  C   UNL A   1      37.943  31.376  31.694  1.00  0.00     0.074 A 
ATOM     60  C   UNL A   1      42.470  29.768  35.839  1.00  0.00     0.029 A 
ATOM     61  N   UNL A   1      41.190  29.968  34.030  1.00  0.00    -0.354 N 
ATOM     62  N   UNL A   1      38.921  31.000  32.483  1.00  0.00    -0.248 NA
ATOM     63  C   UNL A   1      36.905  32.168  32.370  1.00  0.00     0.031 C 
ATOM     64  C   UNL A   1      41.347  30.530  36.173  1.00  0.00     0.029 A 
ATOM     65  C   UNL A   1      40.565  30.681  35.039  1.00  0.00     0.049 A 
ATOM     66  H   UNL A   1      40.859  29.884  33.106  1.00  0.00     0.167 HD
ATOM     67  C   UNL A   1      38.634  31.531  33.734  1.00  0.00     0.074 A 
ATOM     68  C   UNL A   1      37.395  32.268  33.599  1.00  0.00     0.031 C 
ATOM     69  C   UNL A   1      39.334  31.419  34.890  1.00  0.00     0.037 A 
BRANCH  56  70
ATOM     70  C   UNL A   1      44.456  27.994  34.418  1.00  0.00     0.064 A 
ATOM     71  C   UNL A   1      45.653  28.726  34.448  1.00  0.00     0.173 A 
ATOM     72  C   UNL A   1      44.457  26.713  34.991  1.00  0.00     0.173 A 
ATOM     73  F   UNL A   1      45.709  29.955  33.913  1.00  0.00    -0.203 F 
ATOM     74  C   UNL A   1      46.809  28.190  35.012  1.00  0.00     0.198 A 
ATOM     75  C   UNL A   1      45.606  26.194  35.584  1.00  0.00     0.198 A 
ATOM     76  F   UNL A   1      43.335  25.978  35.004  1.00  0.00    -0.203 F 
ATOM     77  F   UNL A   1      47.948  28.895  34.997  1.00  0.00    -0.200 F 
ATOM     78  C   UNL A   1      46.782  26.927  35.584  1.00  0.00     0.200 A 
ATOM     79  F   UNL A   1      45.571  24.986  36.162  1.00  0.00    -0.200 F 
ATOM     80  F   UNL A   1      47.890  26.420  36.140  1.00  0.00    -0.200 F 
ENDBRANCH  56  70
BRANCH  57  81
ATOM     81  C   UNL A   1      36.593  31.691  29.487  1.00  0.00     0.064 A 
ATOM     82  C   UNL A   1      35.557  30.881  28.999  1.00  0.00     0.173 A 
ATOM     83  C   UNL A   1      36.509  33.069  29.248  1.00  0.00     0.173 A 
ATOM     84  F   UNL A   1      35.584  29.556  29.209  1.00  0.00    -0.203 F 
ATOM     85  C   UNL A   1      34.497  31.423  28.276  1.00  0.00     0.198 A 
ATOM     86  C   UNL A   1      35.432  33.615  28.550  1.00  0.00     0.198 A 
ATOM     87  F   UNL A   1      37.458  33.890  29.720  1.00  0.00    -0.203 F 
ATOM     88  F   UNL A   1      33.538  30.623  27.793  1.00  0.00    -0.200 F 
ATOM     89  C   UNL A   1      34.433  32.791  28.055  1.00  0.00     0.200 A 
ATOM     90  F   UNL A   1      35.360  34.940  28.366  1.00  0.00    -0.200 F 
ATOM     91  F   UNL A   1      33.405  33.315  27.374  1.00  0.00    -0.200 F 
ENDBRANCH  57  81
BRANCH  69  92
ATOM     92  C   UNL A   1      38.805  32.127  36.106  1.00  0.00     0.064 A 
ATOM     93  C   UNL A   1      39.127  33.475  36.340  1.00  0.00     0.173 A 
ATOM     94  C   UNL A   1      38.059  31.454  37.084  1.00  0.00     0.173 A 
ATOM     95  F   UNL A   1      39.849  34.164  35.442  1.00  0.00    -0.203 F 
ATOM     96  C   UNL A   1      38.737  34.114  37.513  1.00  0.00     0.198 A 
ATOM     97  C   UNL A   1      37.641  32.107  38.241  1.00  0.00     0.198 A 
ATOM     98  F   UNL A   1      37.717  30.170  36.907  1.00  0.00    -0.203 F 
ATOM     99  F   UNL A   1      39.095  35.387  37.733  1.00  0.00    -0.200 F 
ATOM    100  C   UNL A   1      37.990  33.431  38.460  1.00  0.00     0.200 A 
ATOM    101  F   UNL A   1      36.898  31.453  39.145  1.00  0.00    -0.200 F 
ATOM    102  F   UNL A   1      37.606  34.049  39.586  1.00  0.00    -0.200 F 
ENDBRANCH  69  92
ENDBRANCH  43  44
ENDBRANCH  36  38
ENDBRANCH  35  36
ENDBRANCH  34  35
ENDBRANCH  33  34
ENDBRANCH  32  33
ENDBRANCH  31  32
ENDBRANCH  30  31
ENDBRANCH   1  30
TORSDOF 22
ENDMDL
MODEL 3
REMARK VINA RESULT:     -10.0      4.734      9.185
REMARK SMILES O=C(Nc1c(F)cc(F)cc1F)N[C@H]1C=C[C@@H](C(=O)OCCOCCOCCOCCOC(=O)c2ccc(-c3c4nc(c(-c5c(F)c(F)c(F)c(F)c5F)c5ccc([nH]5)c(-c5c(F)c(F)c(F)c(F)c5F)c5nc(c(-c6c(F)c(F)c(F)c(F)c6F)c6ccc3[nH]6)C=C5)C=C4)cc2)C1
REMARK SMILES IDX 26 1 25 2 24 3 23 4 22 5 21 6 20 7 18 8 19 9 17 10 14 11
REMARK SMILES IDX 15 12 98 13 16 14 13 15 1 16 2 17 3 18 4 21 5 22 11 23 6 24
REMARK SMILES IDX 7 25 10 26 12 27 8 28 9 29 27 30 28 31 29 32 30 33 31 34
REMARK SMILES IDX 32 35 33 36 34 37 35 38 36 39 97 40 37 41 96 42 38 43 39 44
REMARK SMILES IDX 40 45 90 46 41 47 95 48 89 49 91 50 42 51 94 52 88 53 87 54
REMARK SMILES IDX 43 56 75 57 55 58 74 59 56 60 59 61 73 62 92 63 57 64 58 65
REMARK SMILES IDX 72 67 93 68 60 69 44 70 45 71 53 72 46 73 47 74 51 75 54 76
REMARK SMILES IDX 48 77 49 78 52 79 50 80 76 81 77 82 85 83 78 84 79 85 83 86
REMARK SMILES IDX 86 87 80 88 81 89 84 90 82 91 61 92 62 93 70 94 63 95 64 96
REMARK SMILES IDX 68 97 71 98 65 99 66 100 69 101 67 102
REMARK H PARENT 3 19 13 20 91 55 59 66
REMARK Flexibility Score: inf
ROOT
ATOM      1  O   UNL A   1      35.657  22.716  24.268  1.00  0.00    -0.377 OA
ENDROOT
BRANCH   1   2
ATOM      2  C   UNL A   1      35.904  23.959  24.885  1.00  0.00     0.188 C 
BRANCH   2   3
ATOM      3  C   UNL A   1      34.647  24.770  25.220  1.00  0.00     0.188 C 
BRANCH   3   4
ATOM      4  O   UNL A   1      33.684  25.032  24.214  1.00  0.00    -0.376 OA
BRANCH   4   5
ATOM      5  C   UNL A   1      33.990  25.847  23.090  1.00  0.00     0.202 C 
BRANCH   5   6
ATOM      6  C   UNL A   1      32.964  26.701  22.321  1.00  0.00     0.261 C 
BRANCH   6   7
ATOM      7  O   UNL A   1      32.226  27.658  23.084  1.00  0.00    -0.463 OA
BRANCH   7   8
ATOM      8  C   UNL A   1      30.883  27.644  22.947  1.00  0.00     0.312 C 
ATOM      9  O   UNL A   1      30.279  28.138  21.997  1.00  0.00    -0.252 OA
BRANCH   8  10
ATOM     10  C   UNL A   1      30.150  26.921  24.076  1.00  0.00     0.124 C 
ATOM     11  C   UNL A   1      30.370  24.831  25.349  1.00  0.00     0.107 C 
ATOM     12  C   UNL A   1      31.090  25.951  26.012  1.00  0.00    -0.006 C 
ATOM     13  C   UNL A   1      29.943  25.400  24.001  1.00  0.00     0.048 C 
ATOM     14  C   UNL A   1      30.938  27.098  25.341  1.00  0.00    -0.014 C 
BRANCH  11  15
ATOM     15  N   UNL A   1      31.164  23.628  25.346  1.00  0.00    -0.332 N 
ATOM     16  O   UNL A   1      31.626  23.350  27.570  1.00  0.00    -0.248 OA
ATOM     17  C   UNL A   1      31.699  22.972  26.405  1.00  0.00     0.319 C 
ATOM     18  N   UNL A   1      32.270  21.755  26.183  1.00  0.00    -0.303 N 
ATOM     19  H   UNL A   1      32.690  21.362  26.983  1.00  0.00     0.172 HD
ATOM     20  H   UNL A   1      31.342  23.232  24.462  1.00  0.00     0.165 HD
BRANCH  18  21
ATOM     21  C   UNL A   1      32.378  20.949  25.033  1.00  0.00     0.115 A 
ATOM     22  C   UNL A   1      32.173  21.364  23.715  1.00  0.00     0.152 A 
ATOM     23  C   UNL A   1      32.673  19.599  25.250  1.00  0.00     0.152 A 
ATOM     24  F   UNL A   1      31.987  22.659  23.420  1.00  0.00    -0.204 F 
ATOM     25  C   UNL A   1      32.161  20.456  22.662  1.00  0.00     0.081 A 
ATOM     26  C   UNL A   1      32.642  18.671  24.216  1.00  0.00     0.081 A 
ATOM     27  F   UNL A   1      32.913  19.167  26.498  1.00  0.00    -0.204 F 
ATOM     28  C   UNL A   1      32.368  19.110  22.930  1.00  0.00     0.129 A 
ATOM     29  F   UNL A   1      32.299  18.223  21.930  1.00  0.00    -0.207 F 
ENDBRANCH  18  21
ENDBRANCH  11  15
ENDBRANCH   8  10
ENDBRANCH   7   8
ENDBRANCH   6   7
ENDBRANCH   5   6
ENDBRANCH   4   5
ENDBRANCH   3   4
ENDBRANCH   2   3
ENDBRANCH   1   2
BRANCH   1  30
ATOM     30  C   UNL A   1      36.682  21.734  24.264  1.00  0.00     0.188 C 
BRANCH  30  31
ATOM     31  C   UNL A   1      36.487  20.411  25.034  1.00  0.00     0.188 C 
BRANCH  31  32
ATOM     32  O   UNL A   1      37.320  19.342  24.616  1.00  0.00    -0.376 OA
BRANCH  32  33
ATOM     33  C   UNL A   1      38.409  18.953  25.441  1.00  0.00     0.202 C 
BRANCH  33  34
ATOM     34  C   UNL A   1      39.495  19.998  25.748  1.00  0.00     0.261 C 
BRANCH  34  35
ATOM     35  O   UNL A   1      40.563  19.579  26.614  1.00  0.00    -0.460 OA
BRANCH  35  36
ATOM     36  C   UNL A   1      41.816  19.577  26.122  1.00  0.00     0.338 C 
ATOM     37  O   UNL A   1      42.346  18.709  25.444  1.00  0.00    -0.246 OA
BRANCH  36  38
ATOM     38  C   UNL A   1      42.411  20.901  26.384  1.00  0.00     0.060 A 
ATOM     39  C   UNL A   1      42.609  21.305  27.710  1.00  0.00     0.016 A 
ATOM     40  C   UNL A   1      42.755  21.748  25.327  1.00  0.00     0.016 A 
ATOM     41  C   UNL A   1      43.105  22.579  27.985  1.00  0.00     0.010 A 
ATOM     42  C   UNL A   1      43.233  23.032  25.604  1.00  0.00     0.010 A 
ATOM     43  C   UNL A   1      43.372  23.467  26.935  1.00  0.00    -0.014 A 
BRANCH  43  44
ATOM     44  C   UNL A   1      43.594  24.903  27.225  1.00  0.00     0.031 A 
ATOM     45  C   UNL A   1      44.955  25.484  26.955  1.00  0.00     0.074 A 
ATOM     46  C   UNL A   1      42.604  25.689  27.684  1.00  0.00     0.049 A 
ATOM     47  N   UNL A   1      45.404  26.694  27.171  1.00  0.00    -0.248 NA
ATOM     48  C   UNL A   1      45.945  24.573  26.357  1.00  0.00     0.031 C 
ATOM     49  C   UNL A   1      41.230  25.259  27.926  1.00  0.00     0.029 A 
ATOM     50  N   UNL A   1      42.608  27.019  28.025  1.00  0.00    -0.354 N 
ATOM     51  C   UNL A   1      46.724  26.688  26.737  1.00  0.00     0.074 A 
ATOM     52  C   UNL A   1      47.018  25.346  26.284  1.00  0.00     0.031 C 
ATOM     53  C   UNL A   1      40.520  26.308  28.378  1.00  0.00     0.029 A 
ATOM     54  C   UNL A   1      41.399  27.471  28.491  1.00  0.00     0.049 A 
ATOM     55  H   UNL A   1      43.404  27.594  27.943  1.00  0.00     0.167 HD
ATOM     56  C   UNL A   1      47.605  27.714  26.702  1.00  0.00     0.037 A 
ATOM     57  C   UNL A   1      41.050  28.683  28.970  1.00  0.00     0.037 A 
ATOM     58  C   UNL A   1      47.309  29.047  27.157  1.00  0.00     0.049 A 
ATOM     59  C   UNL A   1      42.080  29.784  29.020  1.00  0.00     0.074 A 
ATOM     60  C   UNL A   1      48.138  30.155  27.173  1.00  0.00     0.029 A 
ATOM     61  N   UNL A   1      46.089  29.452  27.680  1.00  0.00    -0.354 N 
ATOM     62  N   UNL A   1      43.325  29.774  28.611  1.00  0.00    -0.248 NA
ATOM     63  C   UNL A   1      41.654  31.066  29.601  1.00  0.00     0.031 C 
ATOM     64  C   UNL A   1      47.439  31.214  27.758  1.00  0.00     0.029 A 
ATOM     65  C   UNL A   1      46.153  30.786  28.047  1.00  0.00     0.049 A 
ATOM     66  H   UNL A   1      45.297  28.875  27.776  1.00  0.00     0.167 HD
ATOM     67  C   UNL A   1      43.822  31.048  28.856  1.00  0.00     0.074 A 
ATOM     68  C   UNL A   1      42.740  31.812  29.439  1.00  0.00     0.031 C 
ATOM     69  C   UNL A   1      45.064  31.540  28.619  1.00  0.00     0.037 A 
BRANCH  56  70
ATOM     70  C   UNL A   1      48.981  27.436  26.168  1.00  0.00     0.064 A 
ATOM     71  C   UNL A   1      49.226  27.451  24.786  1.00  0.00     0.173 A 
ATOM     72  C   UNL A   1      50.047  27.104  27.018  1.00  0.00     0.173 A 
ATOM     73  F   UNL A   1      48.242  27.761  23.928  1.00  0.00    -0.203 F 
ATOM     74  C   UNL A   1      50.480  27.128  24.275  1.00  0.00     0.198 A 
ATOM     75  C   UNL A   1      51.309  26.813  26.506  1.00  0.00     0.198 A 
ATOM     76  F   UNL A   1      49.871  27.090  28.348  1.00  0.00    -0.203 F 
ATOM     77  F   UNL A   1      50.679  27.116  22.950  1.00  0.00    -0.200 F 
ATOM     78  C   UNL A   1      51.522  26.815  25.136  1.00  0.00     0.200 A 
ATOM     79  F   UNL A   1      52.322  26.540  27.339  1.00  0.00    -0.200 F 
ATOM     80  F   UNL A   1      52.733  26.520  24.644  1.00  0.00    -0.200 F 
ENDBRANCH  56  70
BRANCH  57  81
ATOM     81  C   UNL A   1      39.655  28.919  29.430  1.00  0.00     0.064 A 
ATOM     82  C   UNL A   1      38.669  29.406  28.558  1.00  0.00     0.173 A 
ATOM     83  C   UNL A   1      39.285  28.673  30.758  1.00  0.00     0.173 A 
ATOM     84  F   UNL A   1      38.968  29.648  27.273  1.00  0.00    -0.203 F 
ATOM     85  C   UNL A   1      37.375  29.663  29.005  1.00  0.00     0.198 A 
ATOM     86  C   UNL A   1      37.981  28.903  31.197  1.00  0.00     0.198 A 
ATOM     87  F   UNL A   1      40.182  28.178  31.623  1.00  0.00    -0.203 F 
ATOM     88  F   UNL A   1      36.462  30.159  28.159  1.00  0.00    -0.200 F 
ATOM     89  C   UNL A   1      37.030  29.408  30.324  1.00  0.00     0.200 A 
ATOM     90  F   UNL A   1      37.646  28.626  32.465  1.00  0.00    -0.200 F 
ATOM     91  F   UNL A   1      35.782  29.641  30.750  1.00  0.00    -0.200 F 
ENDBRANCH  57  81
BRANCH  69  92
ATOM     92  C   UNL A   1      45.328  32.981  28.958  1.00  0.00     0.064 A 
ATOM     93  C   UNL A   1      45.811  33.334  30.229  1.00  0.00     0.173 A 
ATOM     94  C   UNL A   1      45.021  34.016  28.063  1.00  0.00     0.173 A 
ATOM     95  F   UNL A   1      46.110  32.384  31.128  1.00  0.00    -0.203 F 
ATOM     96  C   UNL A   1      45.958  34.668  30.596  1.00  0.00     0.198 A 
ATOM     97  C   UNL A   1      45.202  35.350  28.423  1.00  0.00     0.198 A 
ATOM     98  F   UNL A   1      44.565  33.734  26.834  1.00  0.00    -0.203 F 
ATOM     99  F   UNL A   1      46.377  34.981  31.830  1.00  0.00    -0.200 F 
ATOM    100  C   UNL A   1      45.658  35.675  29.691  1.00  0.00     0.200 A 
ATOM    101  F   UNL A   1      44.935  36.321  27.539  1.00  0.00    -0.200 F 
ATOM    102  F   UNL A   1      45.808  36.960  30.042  1.00  0.00    -0.200 F 
ENDBRANCH  69  92
ENDBRANCH  43  44
ENDBRANCH  36  38
ENDBRANCH  35  36
ENDBRANCH  34  35
ENDBRANCH  33  34
ENDBRANCH  32  33
ENDBRANCH  31  32
ENDBRANCH  30  31
ENDBRANCH   1  30
TORSDOF 22
ENDMDL
