MODEL 1
REMARK VINA RESULT:      -8.7      0.000      0.000
REMARK SMILES CCOc1cc(C=O)ccc1OCc1ccc(C(=O)OCCOCCOCCOCCOC(=O)c2ccc(-c3c4nc(c(-c5c(F)c(F)c(F)c(F)c5F)c5ccc([nH]5)c(-c5c(F)c(F)c(F)c(F)c5F)c5nc(c(-c6c(F)c(F)c(F)c(F)c6F)c6ccc3[nH]6)C=C5)C=C4)cc2)cc1
REMARK SMILES IDX 24 1 23 2 22 3 21 4 20 5 18 6 19 7 17 8 14 9 15 10 99 11
REMARK SMILES IDX 16 12 98 13 13 14 12 15 11 16 4 17 5 18 6 19 10 20 9 21 3 22
REMARK SMILES IDX 2 23 1 24 7 25 8 26 25 27 26 28 27 29 28 30 29 31 30 32
REMARK SMILES IDX 31 33 32 34 33 35 34 36 35 37 36 38 97 39 37 40 96 41 38 42
REMARK SMILES IDX 39 43 40 44 90 45 41 46 95 47 89 48 91 49 42 50 94 51 88 52
REMARK SMILES IDX 87 53 43 55 75 56 55 57 74 58 56 59 59 60 73 61 92 62 57 63
REMARK SMILES IDX 58 64 72 66 93 67 60 68 44 69 45 70 53 71 46 72 47 73 51 74
REMARK SMILES IDX 54 75 48 76 49 77 52 78 50 79 76 80 77 81 85 82 78 83 79 84
REMARK SMILES IDX 83 85 86 86 80 87 81 88 84 89 82 90 61 91 62 92 70 93 63 94
REMARK SMILES IDX 64 95 68 96 71 97 65 98 66 99 69 100 67 101
REMARK H PARENT 91 54 59 65
REMARK Flexibility Score: inf
ROOT
ATOM      1  C   UNL A   1      43.656  22.926  34.813  1.00  0.00     0.188 C 
ENDROOT
BRANCH   1   2
ATOM      2  O   UNL A   1      43.789  23.874  33.771  1.00  0.00    -0.376 OA
BRANCH   2   3
ATOM      3  C   UNL A   1      44.895  23.816  32.896  1.00  0.00     0.202 C 
BRANCH   3   4
ATOM      4  C   UNL A   1      45.461  25.158  32.424  1.00  0.00     0.261 C 
BRANCH   4   5
ATOM      5  O   UNL A   1      46.647  25.077  31.626  1.00  0.00    -0.460 OA
BRANCH   5   6
ATOM      6  C   UNL A   1      46.936  26.167  30.876  1.00  0.00     0.338 C 
ATOM      7  O   UNL A   1      47.421  27.211  31.259  1.00  0.00    -0.246 OA
BRANCH   6   8
ATOM      8  C   UNL A   1      46.678  25.842  29.459  1.00  0.00     0.060 A 
ATOM      9  C   UNL A   1      46.189  25.444  26.707  1.00  0.00    -0.011 A 
ATOM     10  C   UNL A   1      47.503  25.510  27.209  1.00  0.00     0.008 A 
ATOM     11  C   UNL A   1      45.139  25.538  27.634  1.00  0.00     0.008 A 
ATOM     12  C   UNL A   1      47.749  25.730  28.569  1.00  0.00     0.016 A 
ATOM     13  C   UNL A   1      45.374  25.699  28.999  1.00  0.00     0.016 A 
BRANCH   9  14
ATOM     14  C   UNL A   1      46.011  25.252  25.198  1.00  0.00     0.265 C 
BRANCH  14  15
ATOM     15  O   UNL A   1      44.983  24.401  24.675  1.00  0.00    -0.485 OA
BRANCH  15  16
ATOM     16  C   UNL A   1      44.974  23.085  25.047  1.00  0.00     0.161 A 
ATOM     17  C   UNL A   1      43.870  22.363  25.531  1.00  0.00     0.161 A 
ATOM     18  C   UNL A   1      43.933  20.966  25.554  1.00  0.00     0.062 A 
ATOM     19  C   UNL A   1      45.116  20.319  25.152  1.00  0.00     0.018 A 
ATOM     20  C   UNL A   1      46.178  22.437  24.756  1.00  0.00     0.051 A 
ATOM     21  C   UNL A   1      46.253  21.051  24.800  1.00  0.00     0.015 A 
BRANCH  17  22
ATOM     22  O   UNL A   1      42.835  23.073  26.068  1.00  0.00    -0.490 OA
BRANCH  22  23
ATOM     23  C   UNL A   1      42.161  22.508  27.194  1.00  0.00     0.226 C 
ATOM     24  C   UNL A   1      42.522  23.378  28.397  1.00  0.00     0.049 C 
ENDBRANCH  22  23
ENDBRANCH  17  22
BRANCH  19  25
ATOM     25  C   UNL A   1      45.200  18.847  25.065  1.00  0.00     0.260 C 
ATOM     26  O   UNL A   1      46.179  18.274  24.606  1.00  0.00    -0.298 OA
ENDBRANCH  19  25
ENDBRANCH  15  16
ENDBRANCH  14  15
ENDBRANCH   9  14
ENDBRANCH   6   8
ENDBRANCH   5   6
ENDBRANCH   4   5
ENDBRANCH   3   4
ENDBRANCH   2   3
ENDBRANCH   1   2
BRANCH   1  27
ATOM     27  C   UNL A   1      44.689  23.062  35.958  1.00  0.00     0.188 C 
BRANCH  27  28
ATOM     28  O   UNL A   1      45.841  22.231  36.068  1.00  0.00    -0.377 OA
BRANCH  28  29
ATOM     29  C   UNL A   1      46.015  21.370  37.184  1.00  0.00     0.188 C 
BRANCH  29  30
ATOM     30  C   UNL A   1      46.161  21.993  38.588  1.00  0.00     0.188 C 
BRANCH  30  31
ATOM     31  O   UNL A   1      47.464  22.483  38.845  1.00  0.00    -0.376 OA
BRANCH  31  32
ATOM     32  C   UNL A   1      47.624  23.865  39.091  1.00  0.00     0.202 C 
BRANCH  32  33
ATOM     33  C   UNL A   1      46.477  24.818  38.722  1.00  0.00     0.261 C 
BRANCH  33  34
ATOM     34  O   UNL A   1      46.554  25.466  37.445  1.00  0.00    -0.460 OA
BRANCH  34  35
ATOM     35  C   UNL A   1      46.582  26.818  37.430  1.00  0.00     0.338 C 
ATOM     36  O   UNL A   1      47.344  27.549  38.026  1.00  0.00    -0.246 OA
BRANCH  35  37
ATOM     37  C   UNL A   1      45.620  27.258  36.393  1.00  0.00     0.060 A 
ATOM     38  C   UNL A   1      45.949  28.335  35.559  1.00  0.00     0.016 A 
ATOM     39  C   UNL A   1      44.404  26.589  36.240  1.00  0.00     0.016 A 
ATOM     40  C   UNL A   1      45.046  28.765  34.587  1.00  0.00     0.010 A 
ATOM     41  C   UNL A   1      43.491  27.036  35.284  1.00  0.00     0.010 A 
ATOM     42  C   UNL A   1      43.794  28.146  34.475  1.00  0.00    -0.014 A 
BRANCH  42  43
ATOM     43  C   UNL A   1      42.725  28.776  33.664  1.00  0.00     0.031 A 
ATOM     44  C   UNL A   1      41.777  29.719  34.350  1.00  0.00     0.074 A 
ATOM     45  C   UNL A   1      42.599  28.524  32.349  1.00  0.00     0.049 A 
ATOM     46  N   UNL A   1      40.723  30.333  33.878  1.00  0.00    -0.248 NA
ATOM     47  C   UNL A   1      42.056  30.002  35.768  1.00  0.00     0.031 C 
ATOM     48  C   UNL A   1      43.481  27.663  31.565  1.00  0.00     0.029 A 
ATOM     49  N   UNL A   1      41.664  28.964  31.446  1.00  0.00    -0.354 N 
ATOM     50  C   UNL A   1      40.209  31.066  34.940  1.00  0.00     0.074 A 
ATOM     51  C   UNL A   1      41.045  30.794  36.089  1.00  0.00     0.031 C 
ATOM     52  C   UNL A   1      43.035  27.624  30.297  1.00  0.00     0.029 A 
ATOM     53  C   UNL A   1      41.817  28.427  30.192  1.00  0.00     0.049 A 
ATOM     54  H   UNL A   1      40.953  29.605  31.675  1.00  0.00     0.167 HD
ATOM     55  C   UNL A   1      39.140  31.896  34.953  1.00  0.00     0.037 A 
ATOM     56  C   UNL A   1      41.042  28.550  29.096  1.00  0.00     0.037 A 
ATOM     57  C   UNL A   1      38.309  32.157  33.808  1.00  0.00     0.049 A 
ATOM     58  C   UNL A   1      39.807  29.415  29.158  1.00  0.00     0.074 A 
ATOM     59  C   UNL A   1      37.211  32.993  33.712  1.00  0.00     0.029 A 
ATOM     60  N   UNL A   1      38.478  31.572  32.561  1.00  0.00    -0.354 N 
ATOM     61  N   UNL A   1      39.340  30.128  30.155  1.00  0.00    -0.248 NA
ATOM     62  C   UNL A   1      38.991  29.496  27.938  1.00  0.00     0.031 C 
ATOM     63  C   UNL A   1      36.676  32.865  32.427  1.00  0.00     0.029 A 
ATOM     64  C   UNL A   1      37.485  32.007  31.698  1.00  0.00     0.049 A 
ATOM     65  H   UNL A   1      39.195  30.942  32.325  1.00  0.00     0.167 HD
ATOM     66  C   UNL A   1      38.204  30.767  29.674  1.00  0.00     0.074 A 
ATOM     67  C   UNL A   1      38.057  30.367  28.290  1.00  0.00     0.031 C 
ATOM     68  C   UNL A   1      37.360  31.611  30.318  1.00  0.00     0.037 A 
BRANCH  55  69
ATOM     69  C   UNL A   1      38.790  32.555  36.256  1.00  0.00     0.064 A 
ATOM     70  C   UNL A   1      38.068  31.886  37.257  1.00  0.00     0.173 A 
ATOM     71  C   UNL A   1      39.207  33.869  36.518  1.00  0.00     0.173 A 
ATOM     72  F   UNL A   1      37.632  30.634  37.052  1.00  0.00    -0.203 F 
ATOM     73  C   UNL A   1      37.753  32.517  38.457  1.00  0.00     0.198 A 
ATOM     74  C   UNL A   1      38.921  34.484  37.734  1.00  0.00     0.198 A 
ATOM     75  F   UNL A   1      39.902  34.556  35.599  1.00  0.00    -0.203 F 
ATOM     76  F   UNL A   1      37.017  31.876  39.376  1.00  0.00    -0.200 F 
ATOM     77  C   UNL A   1      38.187  33.812  38.699  1.00  0.00     0.200 A 
ATOM     78  F   UNL A   1      39.354  35.730  37.971  1.00  0.00    -0.200 F 
ATOM     79  F   UNL A   1      37.892  34.414  39.858  1.00  0.00    -0.200 F 
ENDBRANCH  55  69
BRANCH  56  80
ATOM     80  C   UNL A   1      41.397  27.826  27.845  1.00  0.00     0.064 A 
ATOM     81  C   UNL A   1      40.652  26.719  27.413  1.00  0.00     0.173 A 
ATOM     82  C   UNL A   1      42.505  28.205  27.072  1.00  0.00     0.173 A 
ATOM     83  F   UNL A   1      39.600  26.299  28.131  1.00  0.00    -0.203 F 
ATOM     84  C   UNL A   1      41.014  26.008  26.270  1.00  0.00     0.198 A 
ATOM     85  C   UNL A   1      42.846  27.514  25.912  1.00  0.00     0.198 A 
ATOM     86  F   UNL A   1      43.255  29.253  27.443  1.00  0.00    -0.203 F 
ATOM     87  F   UNL A   1      40.317  24.922  25.912  1.00  0.00    -0.200 F 
ATOM     88  C   UNL A   1      42.107  26.410  25.518  1.00  0.00     0.200 A 
ATOM     89  F   UNL A   1      43.895  27.913  25.180  1.00  0.00    -0.200 F 
ATOM     90  F   UNL A   1      42.454  25.726  24.418  1.00  0.00    -0.200 F 
ENDBRANCH  56  80
BRANCH  68  91
ATOM     91  C   UNL A   1      36.232  32.210  29.522  1.00  0.00     0.064 A 
ATOM     92  C   UNL A   1      35.152  31.440  29.069  1.00  0.00     0.173 A 
ATOM     93  C   UNL A   1      36.211  33.587  29.254  1.00  0.00     0.173 A 
ATOM     94  F   UNL A   1      35.127  30.116  29.286  1.00  0.00    -0.203 F 
ATOM     95  C   UNL A   1      34.109  32.021  28.351  1.00  0.00     0.198 A 
ATOM     96  C   UNL A   1      35.150  34.172  28.570  1.00  0.00     0.198 A 
ATOM     97  F   UNL A   1      37.215  34.374  29.674  1.00  0.00    -0.203 F 
ATOM     98  F   UNL A   1      33.114  31.256  27.881  1.00  0.00    -0.200 F 
ATOM     99  C   UNL A   1      34.103  33.386  28.111  1.00  0.00     0.200 A 
ATOM    100  F   UNL A   1      35.138  35.494  28.357  1.00  0.00    -0.200 F 
ATOM    101  F   UNL A   1      33.093  33.945  27.430  1.00  0.00    -0.200 F 
ENDBRANCH  68  91
ENDBRANCH  42  43
ENDBRANCH  35  37
ENDBRANCH  34  35
ENDBRANCH  33  34
ENDBRANCH  32  33
ENDBRANCH  31  32
ENDBRANCH  30  31
ENDBRANCH  29  30
ENDBRANCH  28  29
ENDBRANCH  27  28
ENDBRANCH   1  27
TORSDOF 26
ENDMDL
MODEL 2
REMARK VINA RESULT:      -8.4      1.446      2.120
REMARK SMILES CCOc1cc(C=O)ccc1OCc1ccc(C(=O)OCCOCCOCCOCCOC(=O)c2ccc(-c3c4nc(c(-c5c(F)c(F)c(F)c(F)c5F)c5ccc([nH]5)c(-c5c(F)c(F)c(F)c(F)c5F)c5nc(c(-c6c(F)c(F)c(F)c(F)c6F)c6ccc3[nH]6)C=C5)C=C4)cc2)cc1
REMARK SMILES IDX 24 1 23 2 22 3 21 4 20 5 18 6 19 7 17 8 14 9 15 10 99 11
REMARK SMILES IDX 16 12 98 13 13 14 12 15 11 16 4 17 5 18 6 19 10 20 9 21 3 22
REMARK SMILES IDX 2 23 1 24 7 25 8 26 25 27 26 28 27 29 28 30 29 31 30 32
REMARK SMILES IDX 31 33 32 34 33 35 34 36 35 37 36 38 97 39 37 40 96 41 38 42
REMARK SMILES IDX 39 43 40 44 90 45 41 46 95 47 89 48 91 49 42 50 94 51 88 52
REMARK SMILES IDX 87 53 43 55 75 56 55 57 74 58 56 59 59 60 73 61 92 62 57 63
REMARK SMILES IDX 58 64 72 66 93 67 60 68 44 69 45 70 53 71 46 72 47 73 51 74
REMARK SMILES IDX 54 75 48 76 49 77 52 78 50 79 76 80 77 81 85 82 78 83 79 84
REMARK SMILES IDX 83 85 86 86 80 87 81 88 84 89 82 90 61 91 62 92 70 93 63 94
REMARK SMILES IDX 64 95 68 96 71 97 65 98 66 99 69 100 67 101
REMARK H PARENT 91 54 59 65
REMARK Flexibility Score: inf
ROOT
ATOM      1  C   UNL A   1      43.679  22.950  34.767  1.00  0.00     0.188 C 
ENDROOT
BRANCH   1   2
ATOM      2  O   UNL A   1      43.675  23.905  33.724  1.00  0.00    -0.376 OA
BRANCH   2   3
ATOM      3  C   UNL A   1      44.827  24.094  32.930  1.00  0.00     0.202 C 
BRANCH   3   4
ATOM      4  C   UNL A   1      45.020  25.488  32.327  1.00  0.00     0.261 C 
BRANCH   4   5
ATOM      5  O   UNL A   1      46.113  25.615  31.412  1.00  0.00    -0.460 OA
BRANCH   5   6
ATOM      6  C   UNL A   1      46.074  26.685  30.584  1.00  0.00     0.338 C 
ATOM      7  O   UNL A   1      46.501  27.799  30.806  1.00  0.00    -0.246 OA
BRANCH   6   8
ATOM      8  C   UNL A   1      45.529  26.250  29.282  1.00  0.00     0.060 A 
ATOM      9  C   UNL A   1      44.612  25.582  26.697  1.00  0.00    -0.011 A 
ATOM     10  C   UNL A   1      45.777  24.997  27.228  1.00  0.00     0.008 A 
ATOM     11  C   UNL A   1      43.905  26.472  27.521  1.00  0.00     0.008 A 
ATOM     12  C   UNL A   1      46.247  25.343  28.499  1.00  0.00     0.016 A 
ATOM     13  C   UNL A   1      44.333  26.779  28.812  1.00  0.00     0.016 A 
BRANCH   9  14
ATOM     14  C   UNL A   1      44.198  25.185  25.276  1.00  0.00     0.265 C 
BRANCH  14  15
ATOM     15  O   UNL A   1      43.120  24.268  25.048  1.00  0.00    -0.485 OA
BRANCH  15  16
ATOM     16  C   UNL A   1      43.295  22.956  25.396  1.00  0.00     0.161 A 
ATOM     17  C   UNL A   1      42.351  22.126  26.022  1.00  0.00     0.161 A 
ATOM     18  C   UNL A   1      42.554  20.742  26.013  1.00  0.00     0.062 A 
ATOM     19  C   UNL A   1      43.724  20.218  25.432  1.00  0.00     0.018 A 
ATOM     20  C   UNL A   1      44.502  22.432  24.922  1.00  0.00     0.051 A 
ATOM     21  C   UNL A   1      44.719  21.060  24.931  1.00  0.00     0.015 A 
BRANCH  17  22
ATOM     22  O   UNL A   1      41.340  22.728  26.715  1.00  0.00    -0.490 OA
BRANCH  22  23
ATOM     23  C   UNL A   1      41.284  22.506  28.126  1.00  0.00     0.226 C 
ATOM     24  C   UNL A   1      42.530  23.163  28.718  1.00  0.00     0.049 C 
ENDBRANCH  22  23
ENDBRANCH  17  22
BRANCH  19  25
ATOM     25  C   UNL A   1      43.939  18.762  25.309  1.00  0.00     0.260 C 
ATOM     26  O   UNL A   1      44.849  18.290  24.641  1.00  0.00    -0.298 OA
ENDBRANCH  19  25
ENDBRANCH  15  16
ENDBRANCH  14  15
ENDBRANCH   9  14
ENDBRANCH   6   8
ENDBRANCH   5   6
ENDBRANCH   4   5
ENDBRANCH   3   4
ENDBRANCH   2   3
ENDBRANCH   1   2
BRANCH   1  27
ATOM     27  C   UNL A   1      44.632  23.268  35.944  1.00  0.00     0.188 C 
BRANCH  27  28
ATOM     28  O   UNL A   1      45.868  22.589  36.148  1.00  0.00    -0.377 OA
BRANCH  28  29
ATOM     29  C   UNL A   1      46.040  21.703  37.245  1.00  0.00     0.188 C 
BRANCH  29  30
ATOM     30  C   UNL A   1      45.974  22.272  38.678  1.00  0.00     0.188 C 
BRANCH  30  31
ATOM     31  O   UNL A   1      47.206  22.814  39.117  1.00  0.00    -0.376 OA
BRANCH  31  32
ATOM     32  C   UNL A   1      47.237  24.169  39.516  1.00  0.00     0.202 C 
BRANCH  32  33
ATOM     33  C   UNL A   1      46.037  25.066  39.178  1.00  0.00     0.261 C 
BRANCH  33  34
ATOM     34  O   UNL A   1      46.114  25.827  37.965  1.00  0.00    -0.460 OA
BRANCH  34  35
ATOM     35  C   UNL A   1      46.116  27.175  38.070  1.00  0.00     0.338 C 
ATOM     36  O   UNL A   1      46.865  27.864  38.728  1.00  0.00    -0.246 OA
BRANCH  35  37
ATOM     37  C   UNL A   1      45.144  27.687  37.076  1.00  0.00     0.060 A 
ATOM     38  C   UNL A   1      45.546  28.668  36.160  1.00  0.00     0.016 A 
ATOM     39  C   UNL A   1      43.844  27.179  37.045  1.00  0.00     0.016 A 
ATOM     40  C   UNL A   1      44.636  29.166  35.227  1.00  0.00     0.010 A 
ATOM     41  C   UNL A   1      42.928  27.695  36.128  1.00  0.00     0.010 A 
ATOM     42  C   UNL A   1      43.310  28.714  35.237  1.00  0.00    -0.014 A 
BRANCH  42  43
ATOM     43  C   UNL A   1      42.274  29.440  34.464  1.00  0.00     0.031 A 
ATOM     44  C   UNL A   1      41.623  30.636  35.100  1.00  0.00     0.074 A 
ATOM     45  C   UNL A   1      41.921  29.053  33.226  1.00  0.00     0.049 A 
ATOM     46  N   UNL A   1      40.646  31.387  34.661  1.00  0.00    -0.248 NA
ATOM     47  C   UNL A   1      42.145  31.035  36.417  1.00  0.00     0.031 C 
ATOM     48  C   UNL A   1      42.508  27.937  32.489  1.00  0.00     0.029 A 
ATOM     49  N   UNL A   1      40.966  29.555  32.376  1.00  0.00    -0.354 N 
ATOM     50  C   UNL A   1      40.431  32.338  35.649  1.00  0.00     0.074 A 
ATOM     51  C   UNL A   1      41.355  32.051  36.725  1.00  0.00     0.031 C 
ATOM     52  C   UNL A   1      41.890  27.828  31.299  1.00  0.00     0.029 A 
ATOM     53  C   UNL A   1      40.840  28.843  31.210  1.00  0.00     0.049 A 
ATOM     54  H   UNL A   1      40.425  30.351  32.584  1.00  0.00     0.167 HD
ATOM     55  C   UNL A   1      39.547  33.363  35.655  1.00  0.00     0.037 A 
ATOM     56  C   UNL A   1      39.955  28.980  30.202  1.00  0.00     0.037 A 
ATOM     57  C   UNL A   1      38.627  33.640  34.584  1.00  0.00     0.049 A 
ATOM     58  C   UNL A   1      38.923  30.079  30.270  1.00  0.00     0.074 A 
ATOM     59  C   UNL A   1      37.701  34.663  34.485  1.00  0.00     0.029 A 
ATOM     60  N   UNL A   1      38.508  32.878  33.431  1.00  0.00    -0.354 N 
ATOM     61  N   UNL A   1      38.741  30.993  31.192  1.00  0.00    -0.248 NA
ATOM     62  C   UNL A   1      37.974  30.168  29.150  1.00  0.00     0.031 C 
ATOM     63  C   UNL A   1      36.977  34.483  33.303  1.00  0.00     0.029 A 
ATOM     64  C   UNL A   1      37.503  33.393  32.628  1.00  0.00     0.049 A 
ATOM     65  H   UNL A   1      39.056  32.090  33.215  1.00  0.00     0.167 HD
ATOM     66  C   UNL A   1      37.688  31.784  30.749  1.00  0.00     0.074 A 
ATOM     67  C   UNL A   1      37.277  31.248  29.468  1.00  0.00     0.031 C 
ATOM     68  C   UNL A   1      37.114  32.858  31.347  1.00  0.00     0.037 A 
BRANCH  55  69
ATOM     69  C   UNL A   1      39.511  34.241  36.873  1.00  0.00     0.064 A 
ATOM     70  C   UNL A   1      40.197  35.465  36.926  1.00  0.00     0.173 A 
ATOM     71  C   UNL A   1      38.756  33.865  37.995  1.00  0.00     0.173 A 
ATOM     72  F   UNL A   1      40.945  35.866  35.887  1.00  0.00    -0.203 F 
ATOM     73  C   UNL A   1      40.150  36.264  38.065  1.00  0.00     0.198 A 
ATOM     74  C   UNL A   1      38.684  34.683  39.119  1.00  0.00     0.198 A 
ATOM     75  F   UNL A   1      38.080  32.707  37.998  1.00  0.00    -0.203 F 
ATOM     76  F   UNL A   1      40.856  37.403  38.113  1.00  0.00    -0.200 F 
ATOM     77  C   UNL A   1      39.388  35.877  39.158  1.00  0.00     0.200 A 
ATOM     78  F   UNL A   1      37.935  34.314  40.167  1.00  0.00    -0.200 F 
ATOM     79  F   UNL A   1      39.336  36.651  40.249  1.00  0.00    -0.200 F 
ENDBRANCH  55  69
BRANCH  56  80
ATOM     80  C   UNL A   1      39.991  28.045  29.045  1.00  0.00     0.064 A 
ATOM     81  C   UNL A   1      39.366  26.791  29.108  1.00  0.00     0.173 A 
ATOM     82  C   UNL A   1      40.675  28.372  27.864  1.00  0.00     0.173 A 
ATOM     83  F   UNL A   1      38.723  26.419  30.224  1.00  0.00    -0.203 F 
ATOM     84  C   UNL A   1      39.443  25.893  28.045  1.00  0.00     0.198 A 
ATOM     85  C   UNL A   1      40.722  27.487  26.790  1.00  0.00     0.198 A 
ATOM     86  F   UNL A   1      41.294  29.555  27.752  1.00  0.00    -0.203 F 
ATOM     87  F   UNL A   1      38.884  24.680  28.154  1.00  0.00    -0.200 F 
ATOM     88  C   UNL A   1      40.116  26.244  26.884  1.00  0.00     0.200 A 
ATOM     89  F   UNL A   1      41.362  27.835  25.664  1.00  0.00    -0.200 F 
ATOM     90  F   UNL A   1      40.188  25.380  25.861  1.00  0.00    -0.200 F 
ENDBRANCH  56  80
BRANCH  68  91
ATOM     91  C   UNL A   1      36.017  33.567  30.601  1.00  0.00     0.064 A 
ATOM     92  C   UNL A   1      36.163  33.963  29.264  1.00  0.00     0.173 A 
ATOM     93  C   UNL A   1      34.782  33.807  31.223  1.00  0.00     0.173 A 
ATOM     94  F   UNL A   1      37.327  33.769  28.624  1.00  0.00    -0.203 F 
ATOM     95  C   UNL A   1      35.125  34.600  28.588  1.00  0.00     0.198 A 
ATOM     96  C   UNL A   1      33.734  34.409  30.534  1.00  0.00     0.198 A 
ATOM     97  F   UNL A   1      34.583  33.439  32.499  1.00  0.00    -0.203 F 
ATOM     98  F   UNL A   1      35.306  35.018  27.328  1.00  0.00    -0.200 F 
ATOM     99  C   UNL A   1      33.909  34.814  29.219  1.00  0.00     0.200 A 
ATOM    100  F   UNL A   1      32.554  34.597  31.141  1.00  0.00    -0.200 F 
ATOM    101  F   UNL A   1      32.908  35.417  28.564  1.00  0.00    -0.200 F 
ENDBRANCH  68  91
ENDBRANCH  42  43
ENDBRANCH  35  37
ENDBRANCH  34  35
ENDBRANCH  33  34
ENDBRANCH  32  33
ENDBRANCH  31  32
ENDBRANCH  30  31
ENDBRANCH  29  30
ENDBRANCH  28  29
ENDBRANCH  27  28
ENDBRANCH   1  27
TORSDOF 26
ENDMDL
MODEL 3
REMARK VINA RESULT:      -8.3      4.682     10.667
REMARK SMILES CCOc1cc(C=O)ccc1OCc1ccc(C(=O)OCCOCCOCCOCCOC(=O)c2ccc(-c3c4nc(c(-c5c(F)c(F)c(F)c(F)c5F)c5ccc([nH]5)c(-c5c(F)c(F)c(F)c(F)c5F)c5nc(c(-c6c(F)c(F)c(F)c(F)c6F)c6ccc3[nH]6)C=C5)C=C4)cc2)cc1
REMARK SMILES IDX 24 1 23 2 22 3 21 4 20 5 18 6 19 7 17 8 14 9 15 10 99 11
REMARK SMILES IDX 16 12 98 13 13 14 12 15 11 16 4 17 5 18 6 19 10 20 9 21 3 22
REMARK SMILES IDX 2 23 1 24 7 25 8 26 25 27 26 28 27 29 28 30 29 31 30 32
REMARK SMILES IDX 31 33 32 34 33 35 34 36 35 37 36 38 97 39 37 40 96 41 38 42
REMARK SMILES IDX 39 43 40 44 90 45 41 46 95 47 89 48 91 49 42 50 94 51 88 52
REMARK SMILES IDX 87 53 43 55 75 56 55 57 74 58 56 59 59 60 73 61 92 62 57 63
REMARK SMILES IDX 58 64 72 66 93 67 60 68 44 69 45 70 53 71 46 72 47 73 51 74
REMARK SMILES IDX 54 75 48 76 49 77 52 78 50 79 76 80 77 81 85 82 78 83 79 84
REMARK SMILES IDX 83 85 86 86 80 87 81 88 84 89 82 90 61 91 62 92 70 93 63 94
REMARK SMILES IDX 64 95 68 96 71 97 65 98 66 99 69 100 67 101
REMARK H PARENT 91 54 59 65
REMARK Flexibility Score: inf
ROOT
ATOM      1  C   UNL A   1      41.220  22.771  27.601  1.00  0.00     0.188 C 
ENDROOT
BRANCH   1   2
ATOM      2  O   UNL A   1      40.093  23.627  27.596  1.00  0.00    -0.376 OA
BRANCH   2   3
ATOM      3  C   UNL A   1      40.197  24.933  27.073  1.00  0.00     0.202 C 
BRANCH   3   4
ATOM      4  C   UNL A   1      39.385  26.019  27.784  1.00  0.00     0.261 C 
BRANCH   4   5
ATOM      5  O   UNL A   1      40.154  26.989  28.503  1.00  0.00    -0.460 OA
BRANCH   5   6
ATOM      6  C   UNL A   1      40.051  28.269  28.072  1.00  0.00     0.338 C 
ATOM      7  O   UNL A   1      40.311  28.692  26.965  1.00  0.00    -0.246 OA
BRANCH   6   8
ATOM      8  C   UNL A   1      39.439  29.076  29.146  1.00  0.00     0.060 A 
ATOM      9  C   UNL A   1      38.192  30.761  31.038  1.00  0.00    -0.011 A 
ATOM     10  C   UNL A   1      37.495  29.688  30.450  1.00  0.00     0.008 A 
ATOM     11  C   UNL A   1      39.539  30.927  30.680  1.00  0.00     0.008 A 
ATOM     12  C   UNL A   1      38.103  28.865  29.494  1.00  0.00     0.016 A 
ATOM     13  C   UNL A   1      40.171  30.078  29.773  1.00  0.00     0.016 A 
BRANCH   9  14
ATOM     14  C   UNL A   1      37.434  31.642  32.035  1.00  0.00     0.265 C 
BRANCH  14  15
ATOM     15  O   UNL A   1      36.009  31.785  31.964  1.00  0.00    -0.485 OA
BRANCH  15  16
ATOM     16  C   UNL A   1      35.491  33.011  31.651  1.00  0.00     0.161 A 
ATOM     17  C   UNL A   1      34.770  33.341  30.491  1.00  0.00     0.161 A 
ATOM     18  C   UNL A   1      34.033  34.529  30.467  1.00  0.00     0.062 A 
ATOM     19  C   UNL A   1      34.077  35.394  31.576  1.00  0.00     0.018 A 
ATOM     20  C   UNL A   1      35.614  33.930  32.698  1.00  0.00     0.051 A 
ATOM     21  C   UNL A   1      34.902  35.122  32.669  1.00  0.00     0.015 A 
BRANCH  17  22
ATOM     22  O   UNL A   1      34.926  32.536  29.399  1.00  0.00    -0.490 OA
BRANCH  22  23
ATOM     23  C   UNL A   1      35.651  33.066  28.287  1.00  0.00     0.226 C 
ATOM     24  C   UNL A   1      37.045  33.415  28.804  1.00  0.00     0.049 C 
ENDBRANCH  22  23
ENDBRANCH  17  22
BRANCH  19  25
ATOM     25  C   UNL A   1      33.241  36.610  31.640  1.00  0.00     0.260 C 
ATOM     26  O   UNL A   1      32.895  37.219  30.637  1.00  0.00    -0.298 OA
ENDBRANCH  19  25
ENDBRANCH  15  16
ENDBRANCH  14  15
ENDBRANCH   9  14
ENDBRANCH   6   8
ENDBRANCH   5   6
ENDBRANCH   4   5
ENDBRANCH   3   4
ENDBRANCH   2   3
ENDBRANCH   1   2
BRANCH   1  27
ATOM     27  C   UNL A   1      42.236  23.032  28.739  1.00  0.00     0.188 C 
BRANCH  27  28
ATOM     28  O   UNL A   1      42.891  24.284  28.925  1.00  0.00    -0.377 OA
BRANCH  28  29
ATOM     29  C   UNL A   1      43.987  24.662  28.104  1.00  0.00     0.188 C 
BRANCH  29  30
ATOM     30  C   UNL A   1      45.400  24.167  28.476  1.00  0.00     0.188 C 
BRANCH  30  31
ATOM     31  O   UNL A   1      45.994  23.372  27.467  1.00  0.00    -0.376 OA
BRANCH  31  32
ATOM     32  C   UNL A   1      45.257  23.131  26.285  1.00  0.00     0.202 C 
BRANCH  32  33
ATOM     33  C   UNL A   1      45.687  23.836  24.990  1.00  0.00     0.261 C 
BRANCH  33  34
ATOM     34  O   UNL A   1      45.243  25.187  24.805  1.00  0.00    -0.460 OA
BRANCH  34  35
ATOM     35  C   UNL A   1      46.168  26.168  24.893  1.00  0.00     0.338 C 
ATOM     36  O   UNL A   1      47.142  26.331  24.191  1.00  0.00    -0.246 OA
BRANCH  35  37
ATOM     37  C   UNL A   1      45.675  27.137  25.900  1.00  0.00     0.060 A 
ATOM     38  C   UNL A   1      46.579  27.714  26.801  1.00  0.00     0.016 A 
ATOM     39  C   UNL A   1      44.323  27.481  25.933  1.00  0.00     0.016 A 
ATOM     40  C   UNL A   1      46.124  28.619  27.761  1.00  0.00     0.010 A 
ATOM     41  C   UNL A   1      43.865  28.368  26.909  1.00  0.00     0.010 A 
ATOM     42  C   UNL A   1      44.758  28.915  27.848  1.00  0.00    -0.014 A 
BRANCH  42  43
ATOM     43  C   UNL A   1      44.228  29.629  29.034  1.00  0.00     0.031 A 
ATOM     44  C   UNL A   1      44.066  31.121  28.950  1.00  0.00     0.074 A 
ATOM     45  C   UNL A   1      43.891  28.972  30.158  1.00  0.00     0.049 A 
ATOM     46  N   UNL A   1      43.696  31.974  29.869  1.00  0.00    -0.248 NA
ATOM     47  C   UNL A   1      44.373  31.734  27.647  1.00  0.00     0.031 C 
ATOM     48  C   UNL A   1      43.962  27.526  30.346  1.00  0.00     0.029 A 
ATOM     49  N   UNL A   1      43.433  29.448  31.362  1.00  0.00    -0.354 N 
ATOM     50  C   UNL A   1      43.733  33.221  29.261  1.00  0.00     0.074 A 
ATOM     51  C   UNL A   1      44.194  33.020  27.904  1.00  0.00     0.031 C 
ATOM     52  C   UNL A   1      43.576  27.231  31.600  1.00  0.00     0.029 A 
ATOM     53  C   UNL A   1      43.267  28.471  32.311  1.00  0.00     0.049 A 
ATOM     54  H   UNL A   1      43.240  30.399  31.527  1.00  0.00     0.167 HD
ATOM     55  C   UNL A   1      43.406  34.426  29.784  1.00  0.00     0.037 A 
ATOM     56  C   UNL A   1      42.933  28.575  33.613  1.00  0.00     0.037 A 
ATOM     57  C   UNL A   1      42.953  34.621  31.137  1.00  0.00     0.049 A 
ATOM     58  C   UNL A   1      42.654  29.938  34.197  1.00  0.00     0.074 A 
ATOM     59  C   UNL A   1      42.581  35.798  31.760  1.00  0.00     0.029 A 
ATOM     60  N   UNL A   1      42.826  33.609  32.078  1.00  0.00    -0.354 N 
ATOM     61  N   UNL A   1      42.663  31.111  33.612  1.00  0.00    -0.248 NA
ATOM     62  C   UNL A   1      42.312  29.990  35.627  1.00  0.00     0.031 C 
ATOM     63  C   UNL A   1      42.291  35.510  33.097  1.00  0.00     0.029 A 
ATOM     64  C   UNL A   1      42.409  34.142  33.287  1.00  0.00     0.049 A 
ATOM     65  H   UNL A   1      43.005  32.656  31.912  1.00  0.00     0.167 HD
ATOM     66  C   UNL A   1      42.294  32.032  34.586  1.00  0.00     0.074 A 
ATOM     67  C   UNL A   1      42.057  31.279  35.800  1.00  0.00     0.031 C 
ATOM     68  C   UNL A   1      42.162  33.377  34.484  1.00  0.00     0.037 A 
BRANCH  55  69
ATOM     69  C   UNL A   1      43.557  35.631  28.901  1.00  0.00     0.064 A 
ATOM     70  C   UNL A   1      44.791  36.279  28.734  1.00  0.00     0.173 A 
ATOM     71  C   UNL A   1      42.454  36.128  28.189  1.00  0.00     0.173 A 
ATOM     72  F   UNL A   1      45.873  35.853  29.403  1.00  0.00    -0.203 F 
ATOM     73  C   UNL A   1      44.908  37.395  27.910  1.00  0.00     0.198 A 
ATOM     74  C   UNL A   1      42.584  37.223  27.339  1.00  0.00     0.198 A 
ATOM     75  F   UNL A   1      41.252  35.547  28.309  1.00  0.00    -0.203 F 
ATOM     76  F   UNL A   1      46.085  38.029  27.807  1.00  0.00    -0.200 F 
ATOM     77  C   UNL A   1      43.807  37.862  27.206  1.00  0.00     0.200 A 
ATOM     78  F   UNL A   1      41.522  37.663  26.649  1.00  0.00    -0.200 F 
ATOM     79  F   UNL A   1      43.924  38.930  26.407  1.00  0.00    -0.200 F 
ENDBRANCH  55  69
BRANCH  56  80
ATOM     80  C   UNL A   1      42.857  27.356  34.464  1.00  0.00     0.064 A 
ATOM     81  C   UNL A   1      41.642  26.683  34.658  1.00  0.00     0.173 A 
ATOM     82  C   UNL A   1      43.989  26.857  35.126  1.00  0.00     0.173 A 
ATOM     83  F   UNL A   1      40.525  27.136  34.069  1.00  0.00    -0.203 F 
ATOM     84  C   UNL A   1      41.559  25.573  35.496  1.00  0.00     0.198 A 
ATOM     85  C   UNL A   1      43.911  25.728  35.937  1.00  0.00     0.198 A 
ATOM     86  F   UNL A   1      45.175  27.466  34.981  1.00  0.00    -0.203 F 
ATOM     87  F   UNL A   1      40.374  24.983  35.705  1.00  0.00    -0.200 F 
ATOM     88  C   UNL A   1      42.694  25.093  36.130  1.00  0.00     0.200 A 
ATOM     89  F   UNL A   1      45.014  25.258  36.538  1.00  0.00    -0.200 F 
ATOM     90  F   UNL A   1      42.614  24.023  36.935  1.00  0.00    -0.200 F 
ENDBRANCH  56  80
BRANCH  68  91
ATOM     91  C   UNL A   1      41.684  34.124  35.700  1.00  0.00     0.064 A 
ATOM     92  C   UNL A   1      42.564  34.833  36.531  1.00  0.00     0.173 A 
ATOM     93  C   UNL A   1      40.316  34.170  36.007  1.00  0.00     0.173 A 
ATOM     94  F   UNL A   1      43.885  34.812  36.290  1.00  0.00    -0.203 F 
ATOM     95  C   UNL A   1      42.096  35.533  37.639  1.00  0.00     0.198 A 
ATOM     96  C   UNL A   1      39.846  34.902  37.093  1.00  0.00     0.198 A 
ATOM     97  F   UNL A   1      39.427  33.519  35.240  1.00  0.00    -0.203 F 
ATOM     98  F   UNL A   1      42.961  36.158  38.449  1.00  0.00    -0.200 F 
ATOM     99  C   UNL A   1      40.737  35.575  37.915  1.00  0.00     0.200 A 
ATOM    100  F   UNL A   1      38.531  34.957  37.345  1.00  0.00    -0.200 F 
ATOM    101  F   UNL A   1      40.287  36.260  38.975  1.00  0.00    -0.200 F 
ENDBRANCH  68  91
ENDBRANCH  42  43
ENDBRANCH  35  37
ENDBRANCH  34  35
ENDBRANCH  33  34
ENDBRANCH  32  33
ENDBRANCH  31  32
ENDBRANCH  30  31
ENDBRANCH  29  30
ENDBRANCH  28  29
ENDBRANCH  27  28
ENDBRANCH   1  27
TORSDOF 26
ENDMDL
