MODEL 1
REMARK VINA RESULT:     -10.4      0.000      0.000
REMARK SMILES C[C@@H]1C(=O)NC(=O)CN1C(=O)NC1(CC(=O)OCCOCCOCCOCCOC(=O)c2ccc(-c3c4nc(c(-c5c(F)c(F)c(F)c(F)c5F)c5ccc([nH]5)c(-c5c(F)c(F)c(F)c(F)c5F)c5nc(c(-c6c(F)c(F)c(F)c(F)c6F)c6ccc3[nH]6)C=C5)C=C4)cc2)CCC1
REMARK SMILES IDX 22 1 21 2 20 3 19 4 18 5 17 6 15 7 16 8 14 9 13 10 95 11
REMARK SMILES IDX 97 12 96 13 12 14 10 15 11 16 9 18 1 19 2 20 3 21 4 22 5 23
REMARK SMILES IDX 8 24 6 25 7 27 23 28 24 29 25 30 26 31 27 32 28 33 29 34
REMARK SMILES IDX 30 35 31 36 32 37 33 38 94 39 34 40 93 41 35 42 36 43 37 44
REMARK SMILES IDX 87 45 38 46 92 47 86 48 88 49 39 50 91 51 85 52 84 53 40 55
REMARK SMILES IDX 72 56 52 57 71 58 53 59 56 60 70 61 89 62 54 63 55 64 69 66
REMARK SMILES IDX 90 67 57 68 41 69 42 70 50 71 43 72 44 73 48 74 51 75 45 76
REMARK SMILES IDX 46 77 49 78 47 79 73 80 74 81 82 82 75 83 76 84 80 85 83 86
REMARK SMILES IDX 77 87 78 88 81 89 79 90 58 91 59 92 67 93 60 94 61 95 65 96
REMARK SMILES IDX 68 97 62 98 63 99 66 100 64 101
REMARK H PARENT 12 17 5 26 88 54 56 65
REMARK Flexibility Score: inf
ROOT
ATOM      1  C   UNL A   1      33.127  27.680  26.116  1.00  0.00     0.188 C 
ENDROOT
BRANCH   1   2
ATOM      2  C   UNL A   1      31.669  28.077  25.781  1.00  0.00     0.188 C 
BRANCH   2   3
ATOM      3  O   UNL A   1      31.358  28.960  24.705  1.00  0.00    -0.376 OA
BRANCH   3   4
ATOM      4  C   UNL A   1      30.360  28.599  23.770  1.00  0.00     0.202 C 
BRANCH   4   5
ATOM      5  C   UNL A   1      30.841  28.081  22.405  1.00  0.00     0.261 C 
BRANCH   5   6
ATOM      6  O   UNL A   1      31.265  26.702  22.372  1.00  0.00    -0.463 OA
BRANCH   6   7
ATOM      7  C   UNL A   1      32.593  26.464  22.308  1.00  0.00     0.308 C 
ATOM      8  O   UNL A   1      33.447  27.326  22.485  1.00  0.00    -0.252 OA
BRANCH   7   9
ATOM      9  C   UNL A   1      32.986  25.038  21.944  1.00  0.00     0.151 C 
BRANCH   9  10
ATOM     10  C   UNL A   1      33.411  23.957  22.993  1.00  0.00     0.052 C 
ATOM     11  C   UNL A   1      33.028  24.430  24.427  1.00  0.00     0.029 C 
ATOM     12  C   UNL A   1      34.900  24.058  23.389  1.00  0.00     0.029 C 
ATOM     13  C   UNL A   1      34.498  24.787  24.684  1.00  0.00     0.005 C 
BRANCH  10  14
ATOM     14  N   UNL A   1      32.760  22.639  22.689  1.00  0.00    -0.332 N 
ATOM     15  C   UNL A   1      32.661  21.346  23.068  1.00  0.00     0.318 C 
ATOM     16  O   UNL A   1      31.839  20.720  22.383  1.00  0.00    -0.249 OA
ATOM     17  H   UNL A   1      32.176  22.767  21.908  1.00  0.00     0.165 HD
BRANCH  15  18
ATOM     18  N   UNL A   1      33.350  20.702  24.045  1.00  0.00    -0.304 N 
ATOM     19  C   UNL A   1      35.681  20.854  24.886  1.00  0.00     0.042 C 
ATOM     20  C   UNL A   1      34.215  21.243  25.087  1.00  0.00     0.174 C 
ATOM     21  C   UNL A   1      33.746  20.822  26.483  1.00  0.00     0.249 C 
ATOM     22  O   UNL A   1      34.106  21.412  27.501  1.00  0.00    -0.272 OA
ATOM     23  N   UNL A   1      33.046  19.649  26.574  1.00  0.00    -0.293 N 
ATOM     24  C   UNL A   1      33.177  19.238  24.144  1.00  0.00     0.222 C 
ATOM     25  C   UNL A   1      32.768  18.786  25.545  1.00  0.00     0.246 C 
ATOM     26  H   UNL A   1      32.708  19.400  27.465  1.00  0.00     0.173 HD
ATOM     27  O   UNL A   1      32.359  17.651  25.781  1.00  0.00    -0.273 OA
ENDBRANCH  15  18
ENDBRANCH  10  14
ENDBRANCH   9  10
ENDBRANCH   7   9
ENDBRANCH   6   7
ENDBRANCH   5   6
ENDBRANCH   4   5
ENDBRANCH   3   4
ENDBRANCH   2   3
ENDBRANCH   1   2
BRANCH   1  28
ATOM     28  O   UNL A   1      33.686  28.294  27.266  1.00  0.00    -0.377 OA
BRANCH  28  29
ATOM     29  C   UNL A   1      34.739  29.199  26.984  1.00  0.00     0.188 C 
BRANCH  29  30
ATOM     30  C   UNL A   1      34.417  30.654  27.354  1.00  0.00     0.188 C 
BRANCH  30  31
ATOM     31  O   UNL A   1      33.055  30.811  27.704  1.00  0.00    -0.376 OA
BRANCH  31  32
ATOM     32  C   UNL A   1      32.163  31.592  26.935  1.00  0.00     0.202 C 
BRANCH  32  33
ATOM     33  C   UNL A   1      31.961  33.094  27.198  1.00  0.00     0.261 C 
BRANCH  33  34
ATOM     34  O   UNL A   1      33.123  33.918  27.324  1.00  0.00    -0.460 OA
BRANCH  34  35
ATOM     35  C   UNL A   1      33.236  34.652  28.450  1.00  0.00     0.338 C 
ATOM     36  O   UNL A   1      32.468  35.513  28.847  1.00  0.00    -0.246 OA
BRANCH  35  37
ATOM     37  C   UNL A   1      34.350  34.091  29.244  1.00  0.00     0.060 A 
ATOM     38  C   UNL A   1      35.661  34.424  28.880  1.00  0.00     0.016 A 
ATOM     39  C   UNL A   1      34.109  33.273  30.352  1.00  0.00     0.016 A 
ATOM     40  C   UNL A   1      36.738  33.925  29.609  1.00  0.00     0.010 A 
ATOM     41  C   UNL A   1      35.192  32.741  31.060  1.00  0.00     0.010 A 
ATOM     42  C   UNL A   1      36.509  33.040  30.668  1.00  0.00    -0.014 A 
BRANCH  42  43
ATOM     43  C   UNL A   1      37.644  32.248  31.197  1.00  0.00     0.031 A 
ATOM     44  C   UNL A   1      38.134  32.566  32.582  1.00  0.00     0.074 A 
ATOM     45  C   UNL A   1      38.193  31.245  30.490  1.00  0.00     0.049 A 
ATOM     46  N   UNL A   1      39.124  32.043  33.258  1.00  0.00    -0.248 NA
ATOM     47  C   UNL A   1      37.402  33.620  33.304  1.00  0.00     0.031 C 
ATOM     48  C   UNL A   1      37.761  30.811  29.164  1.00  0.00     0.029 A 
ATOM     49  N   UNL A   1      39.240  30.412  30.797  1.00  0.00    -0.354 N 
ATOM     50  C   UNL A   1      39.136  32.708  34.478  1.00  0.00     0.074 A 
ATOM     51  C   UNL A   1      38.079  33.693  34.438  1.00  0.00     0.031 C 
ATOM     52  C   UNL A   1      38.547  29.796  28.763  1.00  0.00     0.029 A 
ATOM     53  C   UNL A   1      39.557  29.536  29.789  1.00  0.00     0.049 A 
ATOM     54  H   UNL A   1      39.717  30.441  31.657  1.00  0.00     0.167 HD
ATOM     55  C   UNL A   1      39.950  32.506  35.539  1.00  0.00     0.037 A 
ATOM     56  C   UNL A   1      40.565  28.645  29.703  1.00  0.00     0.037 A 
ATOM     57  C   UNL A   1      41.004  31.528  35.566  1.00  0.00     0.049 A 
ATOM     58  C   UNL A   1      41.518  28.501  30.865  1.00  0.00     0.074 A 
ATOM     59  C   UNL A   1      41.886  31.237  36.591  1.00  0.00     0.029 A 
ATOM     60  N   UNL A   1      41.324  30.686  34.510  1.00  0.00    -0.354 N 
ATOM     61  N   UNL A   1      41.514  29.119  32.022  1.00  0.00    -0.248 NA
ATOM     62  C   UNL A   1      42.611  27.533  30.709  1.00  0.00     0.031 C 
ATOM     63  C   UNL A   1      42.780  30.265  36.132  1.00  0.00     0.029 A 
ATOM     64  C   UNL A   1      42.411  29.897  34.848  1.00  0.00     0.049 A 
ATOM     65  H   UNL A   1      40.849  30.655  33.649  1.00  0.00     0.167 HD
ATOM     66  C   UNL A   1      42.579  28.591  32.742  1.00  0.00     0.074 A 
ATOM     67  C   UNL A   1      43.198  27.593  31.895  1.00  0.00     0.031 C 
ATOM     68  C   UNL A   1      43.006  28.902  33.992  1.00  0.00     0.037 A 
BRANCH  55  69
ATOM     69  C   UNL A   1      39.758  33.389  36.738  1.00  0.00     0.064 A 
ATOM     70  C   UNL A   1      40.450  34.602  36.885  1.00  0.00     0.173 A 
ATOM     71  C   UNL A   1      38.855  33.025  37.748  1.00  0.00     0.173 A 
ATOM     72  F   UNL A   1      41.341  34.988  35.959  1.00  0.00    -0.203 F 
ATOM     73  C   UNL A   1      40.265  35.401  38.011  1.00  0.00     0.198 A 
ATOM     74  C   UNL A   1      38.646  33.843  38.855  1.00  0.00     0.198 A 
ATOM     75  F   UNL A   1      38.168  31.876  37.659  1.00  0.00    -0.203 F 
ATOM     76  F   UNL A   1      40.978  36.526  38.156  1.00  0.00    -0.200 F 
ATOM     77  C   UNL A   1      39.358  35.025  38.990  1.00  0.00     0.200 A 
ATOM     78  F   UNL A   1      37.761  33.483  39.795  1.00  0.00    -0.200 F 
ATOM     79  F   UNL A   1      39.176  35.798  40.070  1.00  0.00    -0.200 F 
ENDBRANCH  55  69
BRANCH  56  80
ATOM     80  C   UNL A   1      40.741  27.831  28.469  1.00  0.00     0.064 A 
ATOM     81  C   UNL A   1      41.492  28.307  27.385  1.00  0.00     0.173 A 
ATOM     82  C   UNL A   1      40.135  26.572  28.338  1.00  0.00     0.173 A 
ATOM     83  F   UNL A   1      42.070  29.516  27.450  1.00  0.00    -0.203 F 
ATOM     84  C   UNL A   1      41.614  27.566  26.212  1.00  0.00     0.198 A 
ATOM     85  C   UNL A   1      40.285  25.817  27.176  1.00  0.00     0.198 A 
ATOM     86  F   UNL A   1      39.402  26.070  29.342  1.00  0.00    -0.203 F 
ATOM     87  F   UNL A   1      42.293  28.068  25.172  1.00  0.00    -0.200 F 
ATOM     88  C   UNL A   1      41.015  26.318  26.110  1.00  0.00     0.200 A 
ATOM     89  F   UNL A   1      39.716  24.608  27.088  1.00  0.00    -0.200 F 
ATOM     90  F   UNL A   1      41.134  25.605  24.982  1.00  0.00    -0.200 F 
ENDBRANCH  56  80
BRANCH  68  91
ATOM     91  C   UNL A   1      44.168  28.122  34.542  1.00  0.00     0.064 A 
ATOM     92  C   UNL A   1      43.996  26.881  35.173  1.00  0.00     0.173 A 
ATOM     93  C   UNL A   1      45.478  28.603  34.388  1.00  0.00     0.173 A 
ATOM     94  F   UNL A   1      42.765  26.381  35.356  1.00  0.00    -0.203 F 
ATOM     95  C   UNL A   1      45.090  26.167  35.658  1.00  0.00     0.198 A 
ATOM     96  C   UNL A   1      46.571  27.869  34.841  1.00  0.00     0.198 A 
ATOM     97  F   UNL A   1      45.700  29.779  33.782  1.00  0.00    -0.203 F 
ATOM     98  F   UNL A   1      44.898  25.010  36.306  1.00  0.00    -0.200 F 
ATOM     99  C   UNL A   1      46.376  26.658  35.483  1.00  0.00     0.200 A 
ATOM    100  F   UNL A   1      47.813  28.336  34.653  1.00  0.00    -0.200 F 
ATOM    101  F   UNL A   1      47.427  25.963  35.940  1.00  0.00    -0.200 F 
ENDBRANCH  68  91
ENDBRANCH  42  43
ENDBRANCH  35  37
ENDBRANCH  34  35
ENDBRANCH  33  34
ENDBRANCH  32  33
ENDBRANCH  31  32
ENDBRANCH  30  31
ENDBRANCH  29  30
ENDBRANCH  28  29
ENDBRANCH   1  28
TORSDOF 23
ENDMDL
MODEL 2
REMARK VINA RESULT:     -10.1      1.190      2.061
REMARK SMILES C[C@@H]1C(=O)NC(=O)CN1C(=O)NC1(CC(=O)OCCOCCOCCOCCOC(=O)c2ccc(-c3c4nc(c(-c5c(F)c(F)c(F)c(F)c5F)c5ccc([nH]5)c(-c5c(F)c(F)c(F)c(F)c5F)c5nc(c(-c6c(F)c(F)c(F)c(F)c6F)c6ccc3[nH]6)C=C5)C=C4)cc2)CCC1
REMARK SMILES IDX 22 1 21 2 20 3 19 4 18 5 17 6 15 7 16 8 14 9 13 10 95 11
REMARK SMILES IDX 97 12 96 13 12 14 10 15 11 16 9 18 1 19 2 20 3 21 4 22 5 23
REMARK SMILES IDX 8 24 6 25 7 27 23 28 24 29 25 30 26 31 27 32 28 33 29 34
REMARK SMILES IDX 30 35 31 36 32 37 33 38 94 39 34 40 93 41 35 42 36 43 37 44
REMARK SMILES IDX 87 45 38 46 92 47 86 48 88 49 39 50 91 51 85 52 84 53 40 55
REMARK SMILES IDX 72 56 52 57 71 58 53 59 56 60 70 61 89 62 54 63 55 64 69 66
REMARK SMILES IDX 90 67 57 68 41 69 42 70 50 71 43 72 44 73 48 74 51 75 45 76
REMARK SMILES IDX 46 77 49 78 47 79 73 80 74 81 82 82 75 83 76 84 80 85 83 86
REMARK SMILES IDX 77 87 78 88 81 89 79 90 58 91 59 92 67 93 60 94 61 95 65 96
REMARK SMILES IDX 68 97 62 98 63 99 66 100 64 101
REMARK H PARENT 12 17 5 26 88 54 56 65
REMARK Flexibility Score: inf
ROOT
ATOM      1  C   UNL A   1      33.957  27.540  26.123  1.00  0.00     0.188 C 
ENDROOT
BRANCH   1   2
ATOM      2  C   UNL A   1      33.001  28.324  25.191  1.00  0.00     0.188 C 
BRANCH   2   3
ATOM      3  O   UNL A   1      33.051  28.184  23.773  1.00  0.00    -0.376 OA
BRANCH   3   4
ATOM      4  C   UNL A   1      32.153  28.920  22.965  1.00  0.00     0.202 C 
BRANCH   4   5
ATOM      5  C   UNL A   1      30.982  28.142  22.340  1.00  0.00     0.261 C 
BRANCH   5   6
ATOM      6  O   UNL A   1      30.260  27.270  23.235  1.00  0.00    -0.463 OA
BRANCH   6   7
ATOM      7  C   UNL A   1      30.721  26.008  23.377  1.00  0.00     0.308 C 
ATOM      8  O   UNL A   1      31.100  25.314  22.439  1.00  0.00    -0.252 OA
BRANCH   7   9
ATOM      9  C   UNL A   1      30.701  25.459  24.797  1.00  0.00     0.151 C 
BRANCH   9  10
ATOM     10  C   UNL A   1      31.661  24.335  25.311  1.00  0.00     0.052 C 
ATOM     11  C   UNL A   1      30.948  22.953  25.235  1.00  0.00     0.029 C 
ATOM     12  C   UNL A   1      31.673  24.213  26.850  1.00  0.00     0.029 C 
ATOM     13  C   UNL A   1      30.725  23.004  26.753  1.00  0.00     0.005 C 
BRANCH  10  14
ATOM     14  N   UNL A   1      32.928  24.311  24.505  1.00  0.00    -0.332 N 
ATOM     15  C   UNL A   1      34.121  23.698  24.348  1.00  0.00     0.318 C 
ATOM     16  O   UNL A   1      34.753  24.145  23.379  1.00  0.00    -0.249 OA
ATOM     17  H   UNL A   1      32.862  25.017  23.823  1.00  0.00     0.165 HD
BRANCH  15  18
ATOM     18  N   UNL A   1      34.673  22.723  25.115  1.00  0.00    -0.304 N 
ATOM     19  C   UNL A   1      33.747  21.090  26.740  1.00  0.00     0.042 C 
ATOM     20  C   UNL A   1      34.247  21.343  25.316  1.00  0.00     0.174 C 
ATOM     21  C   UNL A   1      35.362  20.353  24.967  1.00  0.00     0.249 C 
ATOM     22  O   UNL A   1      35.137  19.165  24.741  1.00  0.00    -0.272 OA
ATOM     23  N   UNL A   1      36.650  20.803  25.085  1.00  0.00    -0.293 N 
ATOM     24  C   UNL A   1      35.930  23.046  25.822  1.00  0.00     0.222 C 
ATOM     25  C   UNL A   1      37.042  22.038  25.537  1.00  0.00     0.246 C 
ATOM     26  H   UNL A   1      37.366  20.180  24.820  1.00  0.00     0.173 HD
ATOM     27  O   UNL A   1      38.215  22.242  25.841  1.00  0.00    -0.273 OA
ENDBRANCH  15  18
ENDBRANCH  10  14
ENDBRANCH   9  10
ENDBRANCH   7   9
ENDBRANCH   6   7
ENDBRANCH   5   6
ENDBRANCH   4   5
ENDBRANCH   3   4
ENDBRANCH   2   3
ENDBRANCH   1   2
BRANCH   1  28
ATOM     28  O   UNL A   1      34.693  28.320  27.051  1.00  0.00    -0.377 OA
BRANCH  28  29
ATOM     29  C   UNL A   1      34.847  29.677  26.673  1.00  0.00     0.188 C 
BRANCH  29  30
ATOM     30  C   UNL A   1      34.245  30.669  27.680  1.00  0.00     0.188 C 
BRANCH  30  31
ATOM     31  O   UNL A   1      32.831  30.646  27.648  1.00  0.00    -0.376 OA
BRANCH  31  32
ATOM     32  C   UNL A   1      32.080  31.526  26.837  1.00  0.00     0.202 C 
BRANCH  32  33
ATOM     33  C   UNL A   1      31.892  33.009  27.201  1.00  0.00     0.261 C 
BRANCH  33  34
ATOM     34  O   UNL A   1      33.056  33.835  27.283  1.00  0.00    -0.460 OA
BRANCH  34  35
ATOM     35  C   UNL A   1      33.184  34.609  28.380  1.00  0.00     0.338 C 
ATOM     36  O   UNL A   1      32.422  35.486  28.755  1.00  0.00    -0.246 OA
BRANCH  35  37
ATOM     37  C   UNL A   1      34.304  34.071  29.182  1.00  0.00     0.060 A 
ATOM     38  C   UNL A   1      35.613  34.384  28.792  1.00  0.00     0.016 A 
ATOM     39  C   UNL A   1      34.072  33.297  30.323  1.00  0.00     0.016 A 
ATOM     40  C   UNL A   1      36.695  33.907  29.526  1.00  0.00     0.010 A 
ATOM     41  C   UNL A   1      35.160  32.786  31.038  1.00  0.00     0.010 A 
ATOM     42  C   UNL A   1      36.474  33.063  30.620  1.00  0.00    -0.014 A 
BRANCH  42  43
ATOM     43  C   UNL A   1      37.612  32.286  31.165  1.00  0.00     0.031 A 
ATOM     44  C   UNL A   1      38.092  32.625  32.549  1.00  0.00     0.074 A 
ATOM     45  C   UNL A   1      38.170  31.277  30.475  1.00  0.00     0.049 A 
ATOM     46  N   UNL A   1      39.082  32.117  33.236  1.00  0.00    -0.248 NA
ATOM     47  C   UNL A   1      37.349  33.684  33.252  1.00  0.00     0.031 C 
ATOM     48  C   UNL A   1      37.748  30.822  29.152  1.00  0.00     0.029 A 
ATOM     49  N   UNL A   1      39.220  30.455  30.797  1.00  0.00    -0.354 N 
ATOM     50  C   UNL A   1      39.083  32.798  34.447  1.00  0.00     0.074 A 
ATOM     51  C   UNL A   1      38.020  33.776  34.389  1.00  0.00     0.031 C 
ATOM     52  C   UNL A   1      38.542  29.807  28.769  1.00  0.00     0.029 A 
ATOM     53  C   UNL A   1      39.549  29.567  29.803  1.00  0.00     0.049 A 
ATOM     54  H   UNL A   1      39.693  30.498  31.660  1.00  0.00     0.167 HD
ATOM     55  C   UNL A   1      39.893  32.616  35.515  1.00  0.00     0.037 A 
ATOM     56  C   UNL A   1      40.562  28.681  29.734  1.00  0.00     0.037 A 
ATOM     57  C   UNL A   1      40.953  31.645  35.561  1.00  0.00     0.049 A 
ATOM     58  C   UNL A   1      41.510  28.559  30.903  1.00  0.00     0.074 A 
ATOM     59  C   UNL A   1      41.832  31.373  36.593  1.00  0.00     0.029 A 
ATOM     60  N   UNL A   1      41.284  30.791  34.517  1.00  0.00    -0.354 N 
ATOM     61  N   UNL A   1      41.497  29.192  32.052  1.00  0.00    -0.248 NA
ATOM     62  C   UNL A   1      42.610  27.596  30.765  1.00  0.00     0.031 C 
ATOM     63  C   UNL A   1      42.734  30.401  36.153  1.00  0.00     0.029 A 
ATOM     64  C   UNL A   1      42.374  30.014  34.871  1.00  0.00     0.049 A 
ATOM     65  H   UNL A   1      40.813  30.746  33.654  1.00  0.00     0.167 HD
ATOM     66  C   UNL A   1      42.561  28.681  32.784  1.00  0.00     0.074 A 
ATOM     67  C   UNL A   1      43.191  27.675  31.954  1.00  0.00     0.031 C 
ATOM     68  C   UNL A   1      42.980  29.011  34.032  1.00  0.00     0.037 A 
BRANCH  55  69
ATOM     69  C   UNL A   1      39.689  33.514  36.701  1.00  0.00     0.064 A 
ATOM     70  C   UNL A   1      40.325  34.762  36.805  1.00  0.00     0.173 A 
ATOM     71  C   UNL A   1      38.832  33.128  37.742  1.00  0.00     0.173 A 
ATOM     72  F   UNL A   1      41.171  35.171  35.848  1.00  0.00    -0.203 F 
ATOM     73  C   UNL A   1      40.130  35.574  37.920  1.00  0.00     0.198 A 
ATOM     74  C   UNL A   1      38.613  33.957  38.838  1.00  0.00     0.198 A 
ATOM     75  F   UNL A   1      38.201  31.945  37.694  1.00  0.00    -0.203 F 
ATOM     76  F   UNL A   1      40.791  36.735  38.023  1.00  0.00    -0.200 F 
ATOM     77  C   UNL A   1      39.269  35.175  38.931  1.00  0.00     0.200 A 
ATOM     78  F   UNL A   1      37.771  33.575  39.808  1.00  0.00    -0.200 F 
ATOM     79  F   UNL A   1      39.077  35.961  39.999  1.00  0.00    -0.200 F 
ENDBRANCH  55  69
BRANCH  56  80
ATOM     80  C   UNL A   1      40.749  27.852  28.513  1.00  0.00     0.064 A 
ATOM     81  C   UNL A   1      41.519  28.310  27.434  1.00  0.00     0.173 A 
ATOM     82  C   UNL A   1      40.137  26.596  28.387  1.00  0.00     0.173 A 
ATOM     83  F   UNL A   1      42.105  29.516  27.493  1.00  0.00    -0.203 F 
ATOM     84  C   UNL A   1      41.652  27.555  26.271  1.00  0.00     0.198 A 
ATOM     85  C   UNL A   1      40.297  25.827  27.236  1.00  0.00     0.198 A 
ATOM     86  F   UNL A   1      39.386  26.111  29.386  1.00  0.00    -0.203 F 
ATOM     87  F   UNL A   1      42.350  28.041  25.235  1.00  0.00    -0.200 F 
ATOM     88  C   UNL A   1      41.046  26.311  26.175  1.00  0.00     0.200 A 
ATOM     89  F   UNL A   1      39.721  24.621  27.154  1.00  0.00    -0.200 F 
ATOM     90  F   UNL A   1      41.176  25.584  25.057  1.00  0.00    -0.200 F 
ENDBRANCH  56  80
BRANCH  68  91
ATOM     91  C   UNL A   1      44.144  28.246  34.598  1.00  0.00     0.064 A 
ATOM     92  C   UNL A   1      45.470  28.646  34.379  1.00  0.00     0.173 A 
ATOM     93  C   UNL A   1      43.924  27.124  35.412  1.00  0.00     0.173 A 
ATOM     94  F   UNL A   1      45.737  29.706  33.600  1.00  0.00    -0.203 F 
ATOM     95  C   UNL A   1      46.533  27.933  34.929  1.00  0.00     0.198 A 
ATOM     96  C   UNL A   1      44.988  26.435  35.989  1.00  0.00     0.198 A 
ATOM     97  F   UNL A   1      42.675  26.703  35.662  1.00  0.00    -0.203 F 
ATOM     98  F   UNL A   1      47.794  28.302  34.662  1.00  0.00    -0.200 F 
ATOM     99  C   UNL A   1      46.290  26.834  35.740  1.00  0.00     0.200 A 
ATOM    100  F   UNL A   1      44.749  25.386  36.788  1.00  0.00    -0.200 F 
ATOM    101  F   UNL A   1      47.314  26.156  36.276  1.00  0.00    -0.200 F 
ENDBRANCH  68  91
ENDBRANCH  42  43
ENDBRANCH  35  37
ENDBRANCH  34  35
ENDBRANCH  33  34
ENDBRANCH  32  33
ENDBRANCH  31  32
ENDBRANCH  30  31
ENDBRANCH  29  30
ENDBRANCH  28  29
ENDBRANCH   1  28
TORSDOF 23
ENDMDL
MODEL 3
REMARK VINA RESULT:      -9.8      1.144      2.164
REMARK SMILES C[C@@H]1C(=O)NC(=O)CN1C(=O)NC1(CC(=O)OCCOCCOCCOCCOC(=O)c2ccc(-c3c4nc(c(-c5c(F)c(F)c(F)c(F)c5F)c5ccc([nH]5)c(-c5c(F)c(F)c(F)c(F)c5F)c5nc(c(-c6c(F)c(F)c(F)c(F)c6F)c6ccc3[nH]6)C=C5)C=C4)cc2)CCC1
REMARK SMILES IDX 22 1 21 2 20 3 19 4 18 5 17 6 15 7 16 8 14 9 13 10 95 11
REMARK SMILES IDX 97 12 96 13 12 14 10 15 11 16 9 18 1 19 2 20 3 21 4 22 5 23
REMARK SMILES IDX 8 24 6 25 7 27 23 28 24 29 25 30 26 31 27 32 28 33 29 34
REMARK SMILES IDX 30 35 31 36 32 37 33 38 94 39 34 40 93 41 35 42 36 43 37 44
REMARK SMILES IDX 87 45 38 46 92 47 86 48 88 49 39 50 91 51 85 52 84 53 40 55
REMARK SMILES IDX 72 56 52 57 71 58 53 59 56 60 70 61 89 62 54 63 55 64 69 66
REMARK SMILES IDX 90 67 57 68 41 69 42 70 50 71 43 72 44 73 48 74 51 75 45 76
REMARK SMILES IDX 46 77 49 78 47 79 73 80 74 81 82 82 75 83 76 84 80 85 83 86
REMARK SMILES IDX 77 87 78 88 81 89 79 90 58 91 59 92 67 93 60 94 61 95 65 96
REMARK SMILES IDX 68 97 62 98 63 99 66 100 64 101
REMARK H PARENT 12 17 5 26 88 54 56 65
REMARK Flexibility Score: inf
ROOT
ATOM      1  C   UNL A   1      33.976  27.745  26.105  1.00  0.00     0.188 C 
ENDROOT
BRANCH   1   2
ATOM      2  C   UNL A   1      33.052  28.532  25.145  1.00  0.00     0.188 C 
BRANCH   2   3
ATOM      3  O   UNL A   1      33.063  28.306  23.737  1.00  0.00    -0.376 OA
BRANCH   3   4
ATOM      4  C   UNL A   1      32.166  29.019  22.907  1.00  0.00     0.202 C 
BRANCH   4   5
ATOM      5  C   UNL A   1      30.958  28.240  22.360  1.00  0.00     0.261 C 
BRANCH   5   6
ATOM      6  O   UNL A   1      30.217  27.469  23.329  1.00  0.00    -0.463 OA
BRANCH   6   7
ATOM      7  C   UNL A   1      30.500  26.151  23.419  1.00  0.00     0.308 C 
ATOM      8  O   UNL A   1      30.427  25.374  22.472  1.00  0.00    -0.252 OA
BRANCH   7   9
ATOM      9  C   UNL A   1      30.879  25.656  24.808  1.00  0.00     0.151 C 
BRANCH   9  10
ATOM     10  C   UNL A   1      31.706  24.354  25.074  1.00  0.00     0.052 C 
ATOM     11  C   UNL A   1      30.747  23.179  25.428  1.00  0.00     0.029 C 
ATOM     12  C   UNL A   1      32.273  24.286  26.508  1.00  0.00     0.029 C 
ATOM     13  C   UNL A   1      31.130  23.335  26.906  1.00  0.00     0.005 C 
BRANCH  10  14
ATOM     14  N   UNL A   1      32.539  24.002  23.876  1.00  0.00    -0.332 N 
ATOM     15  C   UNL A   1      33.669  23.388  23.462  1.00  0.00     0.318 C 
ATOM     16  O   UNL A   1      33.777  23.391  22.227  1.00  0.00    -0.249 OA
ATOM     17  H   UNL A   1      32.082  24.356  23.079  1.00  0.00     0.165 HD
BRANCH  15  18
ATOM     18  N   UNL A   1      34.648  22.830  24.220  1.00  0.00    -0.304 N 
ATOM     19  C   UNL A   1      37.021  22.239  23.791  1.00  0.00     0.042 C 
ATOM     20  C   UNL A   1      36.036  23.240  24.398  1.00  0.00     0.174 C 
ATOM     21  C   UNL A   1      36.368  23.476  25.875  1.00  0.00     0.249 C 
ATOM     22  O   UNL A   1      37.347  24.131  26.230  1.00  0.00    -0.272 OA
ATOM     23  N   UNL A   1      35.630  22.780  26.795  1.00  0.00    -0.293 N 
ATOM     24  C   UNL A   1      34.281  21.667  25.054  1.00  0.00     0.222 C 
ATOM     25  C   UNL A   1      34.657  21.852  26.522  1.00  0.00     0.246 C 
ATOM     26  H   UNL A   1      35.815  22.963  27.745  1.00  0.00     0.173 HD
ATOM     27  O   UNL A   1      34.242  21.111  27.411  1.00  0.00    -0.273 OA
ENDBRANCH  15  18
ENDBRANCH  10  14
ENDBRANCH   9  10
ENDBRANCH   7   9
ENDBRANCH   6   7
ENDBRANCH   5   6
ENDBRANCH   4   5
ENDBRANCH   3   4
ENDBRANCH   2   3
ENDBRANCH   1   2
BRANCH   1  28
ATOM     28  O   UNL A   1      34.722  28.527  27.025  1.00  0.00    -0.377 OA
BRANCH  28  29
ATOM     29  C   UNL A   1      34.748  29.910  26.720  1.00  0.00     0.188 C 
BRANCH  29  30
ATOM     30  C   UNL A   1      34.037  30.785  27.763  1.00  0.00     0.188 C 
BRANCH  30  31
ATOM     31  O   UNL A   1      32.631  30.738  27.608  1.00  0.00    -0.376 OA
BRANCH  31  32
ATOM     32  C   UNL A   1      31.925  31.689  26.839  1.00  0.00     0.202 C 
BRANCH  32  33
ATOM     33  C   UNL A   1      31.873  33.176  27.229  1.00  0.00     0.261 C 
BRANCH  33  34
ATOM     34  O   UNL A   1      33.108  33.891  27.320  1.00  0.00    -0.460 OA
BRANCH  34  35
ATOM     35  C   UNL A   1      33.279  34.686  28.397  1.00  0.00     0.338 C 
ATOM     36  O   UNL A   1      32.553  35.597  28.761  1.00  0.00    -0.246 OA
BRANCH  35  37
ATOM     37  C   UNL A   1      34.392  34.130  29.194  1.00  0.00     0.060 A 
ATOM     38  C   UNL A   1      35.705  34.419  28.798  1.00  0.00     0.016 A 
ATOM     39  C   UNL A   1      34.151  33.362  30.338  1.00  0.00     0.016 A 
ATOM     40  C   UNL A   1      36.782  33.924  29.529  1.00  0.00     0.010 A 
ATOM     41  C   UNL A   1      35.234  32.833  31.049  1.00  0.00     0.010 A 
ATOM     42  C   UNL A   1      36.551  33.087  30.625  1.00  0.00    -0.014 A 
BRANCH  42  43
ATOM     43  C   UNL A   1      37.676  32.290  31.167  1.00  0.00     0.031 A 
ATOM     44  C   UNL A   1      38.135  32.588  32.567  1.00  0.00     0.074 A 
ATOM     45  C   UNL A   1      38.243  31.299  30.458  1.00  0.00     0.049 A 
ATOM     46  N   UNL A   1      39.112  32.059  33.257  1.00  0.00    -0.248 NA
ATOM     47  C   UNL A   1      37.384  33.630  33.288  1.00  0.00     0.031 C 
ATOM     48  C   UNL A   1      37.842  30.883  29.116  1.00  0.00     0.029 A 
ATOM     49  N   UNL A   1      39.285  30.464  30.775  1.00  0.00    -0.354 N 
ATOM     50  C   UNL A   1      39.095  32.705  34.486  1.00  0.00     0.074 A 
ATOM     51  C   UNL A   1      38.036  33.688  34.438  1.00  0.00     0.031 C 
ATOM     52  C   UNL A   1      38.639  29.877  28.718  1.00  0.00     0.029 A 
ATOM     53  C   UNL A   1      39.627  29.603  29.762  1.00  0.00     0.049 A 
ATOM     54  H   UNL A   1      39.743  30.482  31.646  1.00  0.00     0.167 HD
ATOM     55  C   UNL A   1      39.886  32.491  35.562  1.00  0.00     0.037 A 
ATOM     56  C   UNL A   1      40.639  28.717  29.685  1.00  0.00     0.037 A 
ATOM     57  C   UNL A   1      40.943  31.515  35.598  1.00  0.00     0.049 A 
ATOM     58  C   UNL A   1      41.567  28.558  30.865  1.00  0.00     0.074 A 
ATOM     59  C   UNL A   1      41.803  31.211  36.637  1.00  0.00     0.029 A 
ATOM     60  N   UNL A   1      41.288  30.689  34.536  1.00  0.00    -0.354 N 
ATOM     61  N   UNL A   1      41.536  29.159  32.031  1.00  0.00    -0.248 NA
ATOM     62  C   UNL A   1      42.666  27.595  30.719  1.00  0.00     0.031 C 
ATOM     63  C   UNL A   1      42.710  30.248  36.184  1.00  0.00     0.029 A 
ATOM     64  C   UNL A   1      42.369  29.898  34.886  1.00  0.00     0.049 A 
ATOM     65  H   UNL A   1      40.832  30.670  33.665  1.00  0.00     0.167 HD
ATOM     66  C   UNL A   1      42.587  28.623  32.766  1.00  0.00     0.074 A 
ATOM     67  C   UNL A   1      43.227  27.640  31.918  1.00  0.00     0.031 C 
ATOM     68  C   UNL A   1      42.986  28.917  34.030  1.00  0.00     0.037 A 
BRANCH  55  69
ATOM     69  C   UNL A   1      39.666  33.355  36.769  1.00  0.00     0.064 A 
ATOM     70  C   UNL A   1      38.753  33.003  37.777  1.00  0.00     0.173 A 
ATOM     71  C   UNL A   1      40.390  34.545  36.929  1.00  0.00     0.173 A 
ATOM     72  F   UNL A   1      38.019  31.886  37.664  1.00  0.00    -0.203 F 
ATOM     73  C   UNL A   1      38.557  33.826  38.884  1.00  0.00     0.198 A 
ATOM     74  C   UNL A   1      40.217  35.348  38.054  1.00  0.00     0.198 A 
ATOM     75  F   UNL A   1      41.274  34.930  35.996  1.00  0.00    -0.203 F 
ATOM     76  F   UNL A   1      37.640  33.498  39.805  1.00  0.00    -0.200 F 
ATOM     77  C   UNL A   1      39.293  34.992  39.025  1.00  0.00     0.200 A 
ATOM     78  F   UNL A   1      40.938  36.468  38.194  1.00  0.00    -0.200 F 
ATOM     79  F   UNL A   1      39.107  35.779  40.094  1.00  0.00    -0.200 F 
ENDBRANCH  55  69
BRANCH  56  80
ATOM     80  C   UNL A   1      40.844  27.921  28.444  1.00  0.00     0.064 A 
ATOM     81  C   UNL A   1      40.331  26.622  28.319  1.00  0.00     0.173 A 
ATOM     82  C   UNL A   1      41.583  28.434  27.367  1.00  0.00     0.173 A 
ATOM     83  F   UNL A   1      39.640  26.076  29.331  1.00  0.00    -0.203 F 
ATOM     84  C   UNL A   1      40.567  25.860  27.177  1.00  0.00     0.198 A 
ATOM     85  C   UNL A   1      41.791  27.683  26.211  1.00  0.00     0.198 A 
ATOM     86  F   UNL A   1      42.100  29.670  27.434  1.00  0.00    -0.203 F 
ATOM     87  F   UNL A   1      40.111  24.602  27.107  1.00  0.00    -0.200 F 
ATOM     88  C   UNL A   1      41.292  26.394  26.121  1.00  0.00     0.200 A 
ATOM     89  F   UNL A   1      42.479  28.208  25.189  1.00  0.00    -0.200 F 
ATOM     90  F   UNL A   1      41.517  25.661  25.022  1.00  0.00    -0.200 F 
ENDBRANCH  56  80
BRANCH  68  91
ATOM     91  C   UNL A   1      44.138  28.132  34.593  1.00  0.00     0.064 A 
ATOM     92  C   UNL A   1      43.952  26.899  35.234  1.00  0.00     0.173 A 
ATOM     93  C   UNL A   1      45.453  28.600  34.443  1.00  0.00     0.173 A 
ATOM     94  F   UNL A   1      42.715  26.410  35.414  1.00  0.00    -0.203 F 
ATOM     95  C   UNL A   1      45.037  26.180  35.732  1.00  0.00     0.198 A 
ATOM     96  C   UNL A   1      46.537  27.862  34.908  1.00  0.00     0.198 A 
ATOM     97  F   UNL A   1      45.689  29.769  33.827  1.00  0.00    -0.203 F 
ATOM     98  F   UNL A   1      44.830  25.029  36.388  1.00  0.00    -0.200 F 
ATOM     99  C   UNL A   1      46.327  26.657  35.560  1.00  0.00     0.200 A 
ATOM    100  F   UNL A   1      47.784  28.316  34.724  1.00  0.00    -0.200 F 
ATOM    101  F   UNL A   1      47.370  25.958  36.030  1.00  0.00    -0.200 F 
ENDBRANCH  68  91
ENDBRANCH  42  43
ENDBRANCH  35  37
ENDBRANCH  34  35
ENDBRANCH  33  34
ENDBRANCH  32  33
ENDBRANCH  31  32
ENDBRANCH  30  31
ENDBRANCH  29  30
ENDBRANCH  28  29
ENDBRANCH   1  28
TORSDOF 23
ENDMDL
