MODEL 1
REMARK VINA RESULT:      -9.8      0.000      0.000
REMARK SMILES Cc1cnn(C2(C(=O)OCCOCCOCCOCCOC(=O)c3ccc(-c4c5nc(c(-c6c(F)c(F)c(F)c(F)c6F)c6ccc([nH]6)c(-c6c(F)c(F)c(F)c(F)c6F)c6nc(c(-c7c(F)c(F)c(F)c(F)c7F)c7ccc4[nH]7)C=C6)C=C5)cc3)CCN(C(=O)c3cc4ccccc4[nH]3)CC2)c1
REMARK SMILES IDX 16 1 15 2 14 3 13 4 12 5 11 6 10 7 9 8 7 9 8 10 6 11 87 12
REMARK SMILES IDX 102 13 88 14 101 15 89 16 90 17 91 18 5 19 1 20 2 21 3 22
REMARK SMILES IDX 103 23 4 24 92 25 93 26 100 27 94 28 99 29 95 31 98 32 96 33
REMARK SMILES IDX 97 34 17 35 18 36 19 37 20 38 21 39 22 40 23 41 24 42 25 43
REMARK SMILES IDX 86 44 26 45 85 46 27 47 28 48 29 49 79 50 30 51 84 52 78 53
REMARK SMILES IDX 80 54 31 55 83 56 77 57 76 58 32 60 64 61 44 62 63 63 45 64
REMARK SMILES IDX 48 65 62 66 81 67 46 68 47 69 61 71 82 72 49 73 33 74 34 75
REMARK SMILES IDX 42 76 35 77 36 78 40 79 43 80 37 81 38 82 41 83 39 84 65 85
REMARK SMILES IDX 66 86 74 87 67 88 68 89 72 90 75 91 69 92 70 93 73 94 71 95
REMARK SMILES IDX 50 96 51 97 59 98 52 99 53 100 57 101 60 102 54 103 55 104
REMARK SMILES IDX 58 105 56 106
REMARK H PARENT 100 30 80 59 48 70
REMARK Flexibility Score: inf
ROOT
ATOM      1  C   UNL A   1      33.215  33.977  28.168  1.00  0.00     0.188 C 
ENDROOT
BRANCH   1   2
ATOM      2  O   UNL A   1      33.577  35.189  28.819  1.00  0.00    -0.377 OA
BRANCH   2   3
ATOM      3  C   UNL A   1      32.961  35.467  30.064  1.00  0.00     0.188 C 
BRANCH   3   4
ATOM      4  C   UNL A   1      33.594  36.631  30.842  1.00  0.00     0.188 C 
BRANCH   4   5
ATOM      5  O   UNL A   1      33.266  36.595  32.220  1.00  0.00    -0.376 OA
BRANCH   5   6
ATOM      6  C   UNL A   1      34.189  36.021  33.127  1.00  0.00     0.202 C 
BRANCH   6   7
ATOM      7  C   UNL A   1      35.518  35.337  32.730  1.00  0.00     0.261 C 
BRANCH   7   8
ATOM      8  O   UNL A   1      36.451  34.948  33.748  1.00  0.00    -0.461 OA
BRANCH   8   9
ATOM      9  C   UNL A   1      36.349  33.700  34.267  1.00  0.00     0.334 C 
ATOM     10  O   UNL A   1      35.296  33.068  34.277  1.00  0.00    -0.249 OA
BRANCH   9  11
ATOM     11  C   UNL A   1      37.646  33.242  34.995  1.00  0.00     0.163 C 
ATOM     12  C   UNL A   1      38.516  34.352  35.649  1.00  0.00     0.064 C 
ATOM     13  C   UNL A   1      37.026  32.358  36.095  1.00  0.00     0.064 C 
ATOM     14  C   UNL A   1      39.452  33.834  36.735  1.00  0.00     0.123 C 
ATOM     15  C   UNL A   1      37.919  31.996  37.263  1.00  0.00     0.123 C 
ATOM     16  N   UNL A   1      38.708  33.118  37.752  1.00  0.00    -0.337 N 
ATOM     17  C   UNL A   1      38.814  33.545  39.081  1.00  0.00     0.270 C 
ATOM     18  O   UNL A   1      39.420  34.574  39.379  1.00  0.00    -0.267 OA
BRANCH  11  19
ATOM     19  N   UNL A   1      38.491  32.556  34.004  1.00  0.00    -0.255 N 
ATOM     20  C   UNL A   1      40.408  29.782  32.583  1.00  0.00     0.048 C 
ATOM     21  C   UNL A   1      39.772  31.042  33.018  1.00  0.00    -0.013 A 
ATOM     22  C   UNL A   1      40.228  32.352  32.789  1.00  0.00     0.138 A 
ATOM     23  C   UNL A   1      38.630  31.211  33.776  1.00  0.00     0.113 A 
ATOM     24  N   UNL A   1      39.495  33.260  33.429  1.00  0.00    -0.180 NA
ENDBRANCH  11  19
BRANCH  17  25
ATOM     25  C   UNL A   1      38.112  32.803  40.103  1.00  0.00     0.105 A 
ATOM     26  C   UNL A   1      36.899  33.003  40.740  1.00  0.00     0.042 A 
ATOM     27  N   UNL A   1      38.624  31.636  40.626  1.00  0.00    -0.351 N 
ATOM     28  C   UNL A   1      36.878  32.174  41.890  1.00  0.00     0.000 A 
ATOM     29  C   UNL A   1      37.955  31.298  41.779  1.00  0.00     0.046 A 
ATOM     30  H   UNL A   1      39.361  31.117  40.232  1.00  0.00     0.167 HD
ATOM     31  C   UNL A   1      36.055  32.109  43.027  1.00  0.00     0.010 A 
ATOM     32  C   UNL A   1      38.223  30.310  42.729  1.00  0.00     0.026 A 
ATOM     33  C   UNL A   1      36.337  31.159  44.012  1.00  0.00     0.001 A 
ATOM     34  C   UNL A   1      37.394  30.264  43.855  1.00  0.00     0.002 A 
ENDBRANCH  17  25
ENDBRANCH   9  11
ENDBRANCH   8   9
ENDBRANCH   7   8
ENDBRANCH   6   7
ENDBRANCH   5   6
ENDBRANCH   4   5
ENDBRANCH   3   4
ENDBRANCH   2   3
ENDBRANCH   1   2
BRANCH   1  35
ATOM     35  C   UNL A   1      34.175  32.759  28.059  1.00  0.00     0.188 C 
BRANCH  35  36
ATOM     36  O   UNL A   1      35.569  33.049  28.017  1.00  0.00    -0.376 OA
BRANCH  36  37
ATOM     37  C   UNL A   1      36.363  33.059  29.190  1.00  0.00     0.202 C 
BRANCH  37  38
ATOM     38  C   UNL A   1      37.783  32.513  29.025  1.00  0.00     0.261 C 
BRANCH  38  39
ATOM     39  O   UNL A   1      38.109  31.548  30.009  1.00  0.00    -0.460 OA
BRANCH  39  40
ATOM     40  C   UNL A   1      37.272  30.495  30.041  1.00  0.00     0.338 C 
ATOM     41  O   UNL A   1      36.231  30.393  30.663  1.00  0.00    -0.246 OA
BRANCH  40  42
ATOM     42  C   UNL A   1      37.857  29.413  29.247  1.00  0.00     0.060 A 
ATOM     43  C   UNL A   1      38.185  28.271  29.973  1.00  0.00     0.016 A 
ATOM     44  C   UNL A   1      38.418  29.719  27.997  1.00  0.00     0.016 A 
ATOM     45  C   UNL A   1      39.368  27.670  29.654  1.00  0.00     0.010 A 
ATOM     46  C   UNL A   1      39.601  29.119  27.678  1.00  0.00     0.010 A 
ATOM     47  C   UNL A   1      40.115  28.226  28.609  1.00  0.00    -0.014 A 
BRANCH  47  48
ATOM     48  C   UNL A   1      41.528  27.963  28.635  1.00  0.00     0.031 A 
ATOM     49  C   UNL A   1      41.901  26.722  27.953  1.00  0.00     0.074 A 
ATOM     50  C   UNL A   1      42.375  28.818  29.238  1.00  0.00     0.049 A 
ATOM     51  N   UNL A   1      42.363  25.637  28.473  1.00  0.00    -0.248 NA
ATOM     52  C   UNL A   1      41.559  26.634  26.526  1.00  0.00     0.031 C 
ATOM     53  C   UNL A   1      42.131  30.196  29.678  1.00  0.00     0.029 A 
ATOM     54  N   UNL A   1      43.694  28.641  29.495  1.00  0.00    -0.354 N 
ATOM     55  C   UNL A   1      42.549  24.781  27.398  1.00  0.00     0.074 A 
ATOM     56  C   UNL A   1      41.877  25.368  26.267  1.00  0.00     0.031 C 
ATOM     57  C   UNL A   1      43.319  30.796  29.928  1.00  0.00     0.029 A 
ATOM     58  C   UNL A   1      44.376  29.807  29.795  1.00  0.00     0.049 A 
ATOM     59  H   UNL A   1      44.130  27.759  29.472  1.00  0.00     0.167 HD
ATOM     60  C   UNL A   1      43.472  23.789  27.448  1.00  0.00     0.037 A 
ATOM     61  C   UNL A   1      45.723  29.939  29.803  1.00  0.00     0.037 A 
ATOM     62  C   UNL A   1      43.829  23.446  28.797  1.00  0.00     0.049 A 
ATOM     63  C   UNL A   1      46.306  28.573  29.898  1.00  0.00     0.074 A 
ATOM     64  C   UNL A   1      43.133  22.951  29.884  1.00  0.00     0.029 A 
ATOM     65  N   UNL A   1      45.004  23.943  29.305  1.00  0.00    -0.354 N 
ATOM     66  N   UNL A   1      46.209  27.806  30.950  1.00  0.00    -0.248 NA
ATOM     67  C   UNL A   1      46.623  27.882  28.656  1.00  0.00     0.031 C 
ATOM     68  C   UNL A   1      43.716  23.578  31.024  1.00  0.00     0.029 A 
ATOM     69  C   UNL A   1      44.748  24.402  30.572  1.00  0.00     0.049 A 
ATOM     70  H   UNL A   1      45.873  23.966  28.842  1.00  0.00     0.167 HD
ATOM     71  C   UNL A   1      46.055  26.520  30.447  1.00  0.00     0.074 A 
ATOM     72  C   UNL A   1      46.413  26.619  29.036  1.00  0.00     0.031 C 
ATOM     73  C   UNL A   1      45.383  25.563  31.152  1.00  0.00     0.037 A 
BRANCH  60  74
ATOM     74  C   UNL A   1      44.300  23.416  26.253  1.00  0.00     0.064 A 
ATOM     75  C   UNL A   1      44.275  22.096  25.780  1.00  0.00     0.173 A 
ATOM     76  C   UNL A   1      45.318  24.244  25.726  1.00  0.00     0.173 A 
ATOM     77  F   UNL A   1      43.375  21.220  26.253  1.00  0.00    -0.203 F 
ATOM     78  C   UNL A   1      45.227  21.628  24.873  1.00  0.00     0.198 A 
ATOM     79  C   UNL A   1      46.225  23.792  24.774  1.00  0.00     0.198 A 
ATOM     80  F   UNL A   1      45.547  25.478  26.192  1.00  0.00    -0.203 F 
ATOM     81  F   UNL A   1      45.239  20.332  24.534  1.00  0.00    -0.200 F 
ATOM     82  C   UNL A   1      46.198  22.476  24.369  1.00  0.00     0.200 A 
ATOM     83  F   UNL A   1      47.171  24.625  24.318  1.00  0.00    -0.200 F 
ATOM     84  F   UNL A   1      47.140  22.015  23.537  1.00  0.00    -0.200 F 
ENDBRANCH  60  74
BRANCH  61  85
ATOM     85  C   UNL A   1      46.494  31.104  29.312  1.00  0.00     0.064 A 
ATOM     86  C   UNL A   1      47.516  31.670  30.087  1.00  0.00     0.173 A 
ATOM     87  C   UNL A   1      46.425  31.514  27.965  1.00  0.00     0.173 A 
ATOM     88  F   UNL A   1      47.679  31.292  31.362  1.00  0.00    -0.203 F 
ATOM     89  C   UNL A   1      48.426  32.582  29.542  1.00  0.00     0.198 A 
ATOM     90  C   UNL A   1      47.326  32.430  27.424  1.00  0.00     0.198 A 
ATOM     91  F   UNL A   1      45.541  30.963  27.119  1.00  0.00    -0.203 F 
ATOM     92  F   UNL A   1      49.426  33.059  30.295  1.00  0.00    -0.200 F 
ATOM     93  C   UNL A   1      48.335  32.955  28.210  1.00  0.00     0.200 A 
ATOM     94  F   UNL A   1      47.247  32.752  26.125  1.00  0.00    -0.200 F 
ATOM     95  F   UNL A   1      49.240  33.783  27.673  1.00  0.00    -0.200 F 
ENDBRANCH  61  85
BRANCH  73  96
ATOM     96  C   UNL A   1      45.060  25.869  32.588  1.00  0.00     0.064 A 
ATOM     97  C   UNL A   1      43.887  26.528  32.996  1.00  0.00     0.173 A 
ATOM     98  C   UNL A   1      45.897  25.362  33.589  1.00  0.00     0.173 A 
ATOM     99  F   UNL A   1      42.986  26.947  32.099  1.00  0.00    -0.203 F 
ATOM    100  C   UNL A   1      43.597  26.716  34.347  1.00  0.00     0.198 A 
ATOM    101  C   UNL A   1      45.587  25.519  34.937  1.00  0.00     0.198 A 
ATOM    102  F   UNL A   1      46.999  24.670  33.257  1.00  0.00    -0.203 F 
ATOM    103  F   UNL A   1      42.480  27.363  34.711  1.00  0.00    -0.200 F 
ATOM    104  C   UNL A   1      44.444  26.206  35.316  1.00  0.00     0.200 A 
ATOM    105  F   UNL A   1      46.383  24.980  35.871  1.00  0.00    -0.200 F 
ATOM    106  F   UNL A   1      44.146  26.351  36.615  1.00  0.00    -0.200 F 
ENDBRANCH  73  96
ENDBRANCH  47  48
ENDBRANCH  40  42
ENDBRANCH  39  40
ENDBRANCH  38  39
ENDBRANCH  37  38
ENDBRANCH  36  37
ENDBRANCH  35  36
ENDBRANCH   1  35
TORSDOF 22
ENDMDL
MODEL 2
REMARK VINA RESULT:      -9.4      6.236     11.614
REMARK SMILES Cc1cnn(C2(C(=O)OCCOCCOCCOCCOC(=O)c3ccc(-c4c5nc(c(-c6c(F)c(F)c(F)c(F)c6F)c6ccc([nH]6)c(-c6c(F)c(F)c(F)c(F)c6F)c6nc(c(-c7c(F)c(F)c(F)c(F)c7F)c7ccc4[nH]7)C=C6)C=C5)cc3)CCN(C(=O)c3cc4ccccc4[nH]3)CC2)c1
REMARK SMILES IDX 16 1 15 2 14 3 13 4 12 5 11 6 10 7 9 8 7 9 8 10 6 11 87 12
REMARK SMILES IDX 102 13 88 14 101 15 89 16 90 17 91 18 5 19 1 20 2 21 3 22
REMARK SMILES IDX 103 23 4 24 92 25 93 26 100 27 94 28 99 29 95 31 98 32 96 33
REMARK SMILES IDX 97 34 17 35 18 36 19 37 20 38 21 39 22 40 23 41 24 42 25 43
REMARK SMILES IDX 86 44 26 45 85 46 27 47 28 48 29 49 79 50 30 51 84 52 78 53
REMARK SMILES IDX 80 54 31 55 83 56 77 57 76 58 32 60 64 61 44 62 63 63 45 64
REMARK SMILES IDX 48 65 62 66 81 67 46 68 47 69 61 71 82 72 49 73 33 74 34 75
REMARK SMILES IDX 42 76 35 77 36 78 40 79 43 80 37 81 38 82 41 83 39 84 65 85
REMARK SMILES IDX 66 86 74 87 67 88 68 89 72 90 75 91 69 92 70 93 73 94 71 95
REMARK SMILES IDX 50 96 51 97 59 98 52 99 53 100 57 101 60 102 54 103 55 104
REMARK SMILES IDX 58 105 56 106
REMARK H PARENT 100 30 80 59 48 70
REMARK Flexibility Score: inf
ROOT
ATOM      1  C   UNL A   1      46.380  32.410  26.894  1.00  0.00     0.188 C 
ENDROOT
BRANCH   1   2
ATOM      2  O   UNL A   1      45.831  33.701  26.660  1.00  0.00    -0.377 OA
BRANCH   2   3
ATOM      3  C   UNL A   1      44.423  33.836  26.753  1.00  0.00     0.188 C 
BRANCH   3   4
ATOM      4  C   UNL A   1      43.715  34.075  25.412  1.00  0.00     0.188 C 
BRANCH   4   5
ATOM      5  O   UNL A   1      42.798  35.152  25.475  1.00  0.00    -0.376 OA
BRANCH   5   6
ATOM      6  C   UNL A   1      42.482  35.708  26.738  1.00  0.00     0.202 C 
BRANCH   6   7
ATOM      7  C   UNL A   1      42.397  37.220  27.048  1.00  0.00     0.261 C 
BRANCH   7   8
ATOM      8  O   UNL A   1      43.485  38.084  26.685  1.00  0.00    -0.461 OA
BRANCH   8   9
ATOM      9  C   UNL A   1      43.262  39.421  26.667  1.00  0.00     0.334 C 
ATOM     10  O   UNL A   1      42.219  39.915  26.248  1.00  0.00    -0.249 OA
BRANCH   9  11
ATOM     11  C   UNL A   1      44.520  40.247  27.061  1.00  0.00     0.163 C 
ATOM     12  C   UNL A   1      44.578  41.720  26.569  1.00  0.00     0.064 C 
ATOM     13  C   UNL A   1      44.376  40.221  28.596  1.00  0.00     0.064 C 
ATOM     14  C   UNL A   1      45.532  42.596  27.373  1.00  0.00     0.123 C 
ATOM     15  C   UNL A   1      45.202  41.223  29.376  1.00  0.00     0.123 C 
ATOM     16  N   UNL A   1      45.202  42.552  28.783  1.00  0.00    -0.337 N 
ATOM     17  C   UNL A   1      44.927  43.757  29.442  1.00  0.00     0.270 C 
ATOM     18  O   UNL A   1      44.843  44.821  28.827  1.00  0.00    -0.267 OA
BRANCH  11  19
ATOM     19  N   UNL A   1      45.695  39.557  26.504  1.00  0.00    -0.255 N 
ATOM     20  C   UNL A   1      49.096  38.208  26.493  1.00  0.00     0.048 C 
ATOM     21  C   UNL A   1      47.743  38.754  26.258  1.00  0.00    -0.013 A 
ATOM     22  C   UNL A   1      47.226  39.263  25.054  1.00  0.00     0.138 A 
ATOM     23  C   UNL A   1      46.717  38.929  27.165  1.00  0.00     0.113 A 
ATOM     24  N   UNL A   1      46.019  39.800  25.211  1.00  0.00    -0.180 NA
ENDBRANCH  11  19
BRANCH  17  25
ATOM     25  C   UNL A   1      44.645  43.722  30.858  1.00  0.00     0.105 A 
ATOM     26  C   UNL A   1      45.452  43.561  31.972  1.00  0.00     0.042 A 
ATOM     27  N   UNL A   1      43.365  43.886  31.342  1.00  0.00    -0.351 N 
ATOM     28  C   UNL A   1      44.610  43.254  33.069  1.00  0.00     0.000 A 
ATOM     29  C   UNL A   1      43.302  43.500  32.660  1.00  0.00     0.046 A 
ATOM     30  H   UNL A   1      42.605  44.232  30.820  1.00  0.00     0.167 HD
ATOM     31  C   UNL A   1      44.842  42.764  34.366  1.00  0.00     0.010 A 
ATOM     32  C   UNL A   1      42.204  43.333  33.507  1.00  0.00     0.026 A 
ATOM     33  C   UNL A   1      43.751  42.545  35.211  1.00  0.00     0.001 A 
ATOM     34  C   UNL A   1      42.455  42.842  34.792  1.00  0.00     0.002 A 
ENDBRANCH  17  25
ENDBRANCH   9  11
ENDBRANCH   8   9
ENDBRANCH   7   8
ENDBRANCH   6   7
ENDBRANCH   5   6
ENDBRANCH   4   5
ENDBRANCH   3   4
ENDBRANCH   2   3
ENDBRANCH   1   2
BRANCH   1  35
ATOM     35  C   UNL A   1      45.989  31.161  26.054  1.00  0.00     0.188 C 
BRANCH  35  36
ATOM     36  O   UNL A   1      45.438  30.060  26.769  1.00  0.00    -0.376 OA
BRANCH  36  37
ATOM     37  C   UNL A   1      46.062  28.788  26.773  1.00  0.00     0.202 C 
BRANCH  37  38
ATOM     38  C   UNL A   1      45.409  27.735  25.874  1.00  0.00     0.261 C 
BRANCH  38  39
ATOM     39  O   UNL A   1      44.079  28.073  25.525  1.00  0.00    -0.460 OA
BRANCH  39  40
ATOM     40  C   UNL A   1      43.246  27.018  25.455  1.00  0.00     0.338 C 
ATOM     41  O   UNL A   1      43.480  25.917  24.993  1.00  0.00    -0.246 OA
BRANCH  40  42
ATOM     42  C   UNL A   1      41.937  27.427  25.967  1.00  0.00     0.060 A 
ATOM     43  C   UNL A   1      41.654  28.783  25.822  1.00  0.00     0.016 A 
ATOM     44  C   UNL A   1      41.283  26.598  26.891  1.00  0.00     0.016 A 
ATOM     45  C   UNL A   1      41.038  29.388  26.879  1.00  0.00     0.010 A 
ATOM     46  C   UNL A   1      40.666  27.203  27.948  1.00  0.00     0.010 A 
ATOM     47  C   UNL A   1      40.710  28.590  27.981  1.00  0.00    -0.014 A 
BRANCH  47  48
ATOM     48  C   UNL A   1      40.582  29.275  29.238  1.00  0.00     0.031 A 
ATOM     49  C   UNL A   1      39.445  30.196  29.285  1.00  0.00     0.074 A 
ATOM     50  C   UNL A   1      41.451  29.042  30.239  1.00  0.00     0.049 A 
ATOM     51  N   UNL A   1      39.466  31.484  29.344  1.00  0.00    -0.248 NA
ATOM     52  C   UNL A   1      38.116  29.604  29.077  1.00  0.00     0.031 C 
ATOM     53  C   UNL A   1      42.418  27.948  30.380  1.00  0.00     0.029 A 
ATOM     54  N   UNL A   1      41.572  29.713  31.410  1.00  0.00    -0.354 N 
ATOM     55  C   UNL A   1      38.132  31.860  29.368  1.00  0.00     0.074 A 
ATOM     56  C   UNL A   1      37.357  30.696  29.022  1.00  0.00     0.031 C 
ATOM     57  C   UNL A   1      42.850  27.904  31.662  1.00  0.00     0.029 A 
ATOM     58  C   UNL A   1      42.295  29.040  32.379  1.00  0.00     0.049 A 
ATOM     59  H   UNL A   1      41.180  30.603  31.560  1.00  0.00     0.167 HD
ATOM     60  C   UNL A   1      37.746  33.028  29.939  1.00  0.00     0.037 A 
ATOM     61  C   UNL A   1      42.312  29.355  33.695  1.00  0.00     0.037 A 
ATOM     62  C   UNL A   1      38.830  33.967  30.039  1.00  0.00     0.049 A 
ATOM     63  C   UNL A   1      41.828  30.757  33.825  1.00  0.00     0.074 A 
ATOM     64  C   UNL A   1      39.646  34.601  29.121  1.00  0.00     0.029 A 
ATOM     65  N   UNL A   1      39.457  34.109  31.252  1.00  0.00    -0.354 N 
ATOM     66  N   UNL A   1      42.483  31.801  33.397  1.00  0.00    -0.248 NA
ATOM     67  C   UNL A   1      40.404  30.965  34.042  1.00  0.00     0.031 C 
ATOM     68  C   UNL A   1      40.923  34.692  29.750  1.00  0.00     0.029 A 
ATOM     69  C   UNL A   1      40.809  34.129  31.022  1.00  0.00     0.049 A 
ATOM     70  H   UNL A   1      39.015  34.183  32.130  1.00  0.00     0.167 HD
ATOM     71  C   UNL A   1      41.509  32.665  32.913  1.00  0.00     0.074 A 
ATOM     72  C   UNL A   1      40.247  32.139  33.423  1.00  0.00     0.031 C 
ATOM     73  C   UNL A   1      41.788  33.555  31.917  1.00  0.00     0.037 A 
BRANCH  60  74
ATOM     74  C   UNL A   1      36.477  33.143  30.731  1.00  0.00     0.064 A 
ATOM     75  C   UNL A   1      35.417  33.911  30.229  1.00  0.00     0.173 A 
ATOM     76  C   UNL A   1      36.368  32.745  32.084  1.00  0.00     0.173 A 
ATOM     77  F   UNL A   1      35.449  34.376  28.970  1.00  0.00    -0.203 F 
ATOM     78  C   UNL A   1      34.343  34.288  31.037  1.00  0.00     0.198 A 
ATOM     79  C   UNL A   1      35.266  33.068  32.867  1.00  0.00     0.198 A 
ATOM     80  F   UNL A   1      37.368  32.132  32.730  1.00  0.00    -0.203 F 
ATOM     81  F   UNL A   1      33.409  35.118  30.554  1.00  0.00    -0.200 F 
ATOM     82  C   UNL A   1      34.266  33.864  32.352  1.00  0.00     0.200 A 
ATOM     83  F   UNL A   1      35.225  32.666  34.145  1.00  0.00    -0.200 F 
ATOM     84  F   UNL A   1      33.261  34.265  33.141  1.00  0.00    -0.200 F 
ENDBRANCH  60  74
BRANCH  61  85
ATOM     85  C   UNL A   1      42.309  28.400  34.827  1.00  0.00     0.064 A 
ATOM     86  C   UNL A   1      41.471  27.277  34.819  1.00  0.00     0.173 A 
ATOM     87  C   UNL A   1      43.320  28.425  35.810  1.00  0.00     0.173 A 
ATOM     88  F   UNL A   1      40.519  27.155  33.883  1.00  0.00    -0.203 F 
ATOM     89  C   UNL A   1      41.643  26.231  35.733  1.00  0.00     0.198 A 
ATOM     90  C   UNL A   1      43.485  27.388  36.726  1.00  0.00     0.198 A 
ATOM     91  F   UNL A   1      44.228  29.411  35.841  1.00  0.00    -0.203 F 
ATOM     92  F   UNL A   1      40.861  25.145  35.660  1.00  0.00    -0.200 F 
ATOM     93  C   UNL A   1      42.653  26.284  36.679  1.00  0.00     0.200 A 
ATOM     94  F   UNL A   1      44.490  27.436  37.611  1.00  0.00    -0.200 F 
ATOM     95  F   UNL A   1      42.855  25.257  37.517  1.00  0.00    -0.200 F 
ENDBRANCH  61  85
BRANCH  73  96
ATOM     96  C   UNL A   1      43.235  33.753  31.559  1.00  0.00     0.064 A 
ATOM     97  C   UNL A   1      43.972  32.847  30.777  1.00  0.00     0.173 A 
ATOM     98  C   UNL A   1      43.855  34.960  31.906  1.00  0.00     0.173 A 
ATOM     99  F   UNL A   1      43.412  31.722  30.318  1.00  0.00    -0.203 F 
ATOM    100  C   UNL A   1      45.289  33.117  30.407  1.00  0.00     0.198 A 
ATOM    101  C   UNL A   1      45.158  35.243  31.505  1.00  0.00     0.198 A 
ATOM    102  F   UNL A   1      43.178  35.889  32.599  1.00  0.00    -0.203 F 
ATOM    103  F   UNL A   1      45.977  32.229  29.674  1.00  0.00    -0.200 F 
ATOM    104  C   UNL A   1      45.878  34.318  30.766  1.00  0.00     0.200 A 
ATOM    105  F   UNL A   1      45.707  36.427  31.811  1.00  0.00    -0.200 F 
ATOM    106  F   UNL A   1      47.130  34.595  30.377  1.00  0.00    -0.200 F 
ENDBRANCH  73  96
ENDBRANCH  47  48
ENDBRANCH  40  42
ENDBRANCH  39  40
ENDBRANCH  38  39
ENDBRANCH  37  38
ENDBRANCH  36  37
ENDBRANCH  35  36
ENDBRANCH   1  35
TORSDOF 22
ENDMDL
MODEL 3
REMARK VINA RESULT:      -9.3      8.503     13.275
REMARK SMILES Cc1cnn(C2(C(=O)OCCOCCOCCOCCOC(=O)c3ccc(-c4c5nc(c(-c6c(F)c(F)c(F)c(F)c6F)c6ccc([nH]6)c(-c6c(F)c(F)c(F)c(F)c6F)c6nc(c(-c7c(F)c(F)c(F)c(F)c7F)c7ccc4[nH]7)C=C6)C=C5)cc3)CCN(C(=O)c3cc4ccccc4[nH]3)CC2)c1
REMARK SMILES IDX 16 1 15 2 14 3 13 4 12 5 11 6 10 7 9 8 7 9 8 10 6 11 87 12
REMARK SMILES IDX 102 13 88 14 101 15 89 16 90 17 91 18 5 19 1 20 2 21 3 22
REMARK SMILES IDX 103 23 4 24 92 25 93 26 100 27 94 28 99 29 95 31 98 32 96 33
REMARK SMILES IDX 97 34 17 35 18 36 19 37 20 38 21 39 22 40 23 41 24 42 25 43
REMARK SMILES IDX 86 44 26 45 85 46 27 47 28 48 29 49 79 50 30 51 84 52 78 53
REMARK SMILES IDX 80 54 31 55 83 56 77 57 76 58 32 60 64 61 44 62 63 63 45 64
REMARK SMILES IDX 48 65 62 66 81 67 46 68 47 69 61 71 82 72 49 73 33 74 34 75
REMARK SMILES IDX 42 76 35 77 36 78 40 79 43 80 37 81 38 82 41 83 39 84 65 85
REMARK SMILES IDX 66 86 74 87 67 88 68 89 72 90 75 91 69 92 70 93 73 94 71 95
REMARK SMILES IDX 50 96 51 97 59 98 52 99 53 100 57 101 60 102 54 103 55 104
REMARK SMILES IDX 58 105 56 106
REMARK H PARENT 100 30 80 59 48 70
REMARK Flexibility Score: inf
ROOT
ATOM      1  C   UNL A   1      43.437  38.893  33.277  1.00  0.00     0.188 C 
ENDROOT
BRANCH   1   2
ATOM      2  O   UNL A   1      42.961  40.017  32.547  1.00  0.00    -0.377 OA
BRANCH   2   3
ATOM      3  C   UNL A   1      43.751  40.471  31.462  1.00  0.00     0.188 C 
BRANCH   3   4
ATOM      4  C   UNL A   1      43.052  40.412  30.096  1.00  0.00     0.188 C 
BRANCH   4   5
ATOM      5  O   UNL A   1      43.567  41.370  29.189  1.00  0.00    -0.376 OA
BRANCH   5   6
ATOM      6  C   UNL A   1      44.187  40.920  27.998  1.00  0.00     0.202 C 
BRANCH   6   7
ATOM      7  C   UNL A   1      43.457  40.659  26.660  1.00  0.00     0.261 C 
BRANCH   7   8
ATOM      8  O   UNL A   1      44.118  40.950  25.419  1.00  0.00    -0.461 OA
BRANCH   8   9
ATOM      9  C   UNL A   1      43.603  41.928  24.635  1.00  0.00     0.334 C 
ATOM     10  O   UNL A   1      42.418  41.972  24.318  1.00  0.00    -0.249 OA
BRANCH   9  11
ATOM     11  C   UNL A   1      44.697  42.865  24.045  1.00  0.00     0.163 C 
ATOM     12  C   UNL A   1      45.674  42.243  23.009  1.00  0.00     0.064 C 
ATOM     13  C   UNL A   1      43.797  43.903  23.346  1.00  0.00     0.064 C 
ATOM     14  C   UNL A   1      46.361  43.274  22.121  1.00  0.00     0.123 C 
ATOM     15  C   UNL A   1      44.462  44.809  22.330  1.00  0.00     0.123 C 
ATOM     16  N   UNL A   1      45.382  44.104  21.449  1.00  0.00    -0.337 N 
ATOM     17  C   UNL A   1      45.407  44.165  20.050  1.00  0.00     0.270 C 
ATOM     18  O   UNL A   1      46.154  43.444  19.388  1.00  0.00    -0.267 OA
BRANCH  11  19
ATOM     19  N   UNL A   1      45.511  43.357  25.169  1.00  0.00    -0.255 N 
ATOM     20  C   UNL A   1      48.000  43.156  27.842  1.00  0.00     0.048 C 
ATOM     21  C   UNL A   1      46.904  43.421  26.888  1.00  0.00    -0.013 A 
ATOM     22  C   UNL A   1      45.783  44.246  27.085  1.00  0.00     0.138 A 
ATOM     23  C   UNL A   1      46.714  42.889  25.628  1.00  0.00     0.113 A 
ATOM     24  N   UNL A   1      44.915  44.163  26.079  1.00  0.00    -0.180 NA
ENDBRANCH  11  19
BRANCH  17  25
ATOM     25  C   UNL A   1      44.463  45.029  19.379  1.00  0.00     0.105 A 
ATOM     26  C   UNL A   1      43.204  44.808  18.846  1.00  0.00     0.042 A 
ATOM     27  N   UNL A   1      44.726  46.366  19.179  1.00  0.00    -0.351 N 
ATOM     28  C   UNL A   1      42.896  45.908  18.007  1.00  0.00     0.000 A 
ATOM     29  C   UNL A   1      43.848  46.891  18.260  1.00  0.00     0.046 A 
ATOM     30  H   UNL A   1      45.439  46.874  19.630  1.00  0.00     0.167 HD
ATOM     31  C   UNL A   1      41.906  46.143  17.037  1.00  0.00     0.010 A 
ATOM     32  C   UNL A   1      43.831  48.136  17.627  1.00  0.00     0.026 A 
ATOM     33  C   UNL A   1      41.903  47.365  16.358  1.00  0.00     0.001 A 
ATOM     34  C   UNL A   1      42.841  48.351  16.663  1.00  0.00     0.002 A 
ENDBRANCH  17  25
ENDBRANCH   9  11
ENDBRANCH   8   9
ENDBRANCH   7   8
ENDBRANCH   6   7
ENDBRANCH   5   6
ENDBRANCH   4   5
ENDBRANCH   3   4
ENDBRANCH   2   3
ENDBRANCH   1   2
BRANCH   1  35
ATOM     35  C   UNL A   1      43.778  37.534  32.605  1.00  0.00     0.188 C 
BRANCH  35  36
ATOM     36  O   UNL A   1      45.136  37.337  32.221  1.00  0.00    -0.376 OA
BRANCH  36  37
ATOM     37  C   UNL A   1      45.480  36.713  30.996  1.00  0.00     0.202 C 
BRANCH  37  38
ATOM     38  C   UNL A   1      45.264  37.565  29.743  1.00  0.00     0.261 C 
BRANCH  38  39
ATOM     39  O   UNL A   1      44.440  36.922  28.787  1.00  0.00    -0.460 OA
BRANCH  39  40
ATOM     40  C   UNL A   1      45.018  36.768  27.582  1.00  0.00     0.338 C 
ATOM     41  O   UNL A   1      45.437  37.639  26.843  1.00  0.00    -0.246 OA
BRANCH  40  42
ATOM     42  C   UNL A   1      44.998  35.345  27.238  1.00  0.00     0.060 A 
ATOM     43  C   UNL A   1      43.776  34.880  26.758  1.00  0.00     0.016 A 
ATOM     44  C   UNL A   1      45.984  34.505  27.779  1.00  0.00     0.016 A 
ATOM     45  C   UNL A   1      43.375  33.656  27.208  1.00  0.00     0.010 A 
ATOM     46  C   UNL A   1      45.583  33.280  28.229  1.00  0.00     0.010 A 
ATOM     47  C   UNL A   1      44.240  32.968  28.068  1.00  0.00    -0.014 A 
BRANCH  47  48
ATOM     48  C   UNL A   1      43.627  32.000  28.936  1.00  0.00     0.031 A 
ATOM     49  C   UNL A   1      43.459  30.685  28.313  1.00  0.00     0.074 A 
ATOM     50  C   UNL A   1      43.271  32.330  30.191  1.00  0.00     0.049 A 
ATOM     51  N   UNL A   1      42.361  30.098  27.979  1.00  0.00    -0.248 NA
ATOM     52  C   UNL A   1      44.686  30.015  27.861  1.00  0.00     0.031 C 
ATOM     53  C   UNL A   1      43.660  33.507  30.976  1.00  0.00     0.029 A 
ATOM     54  N   UNL A   1      42.543  31.600  31.070  1.00  0.00    -0.354 N 
ATOM     55  C   UNL A   1      42.758  28.885  27.437  1.00  0.00     0.074 A 
ATOM     56  C   UNL A   1      44.181  28.962  27.223  1.00  0.00     0.031 C 
ATOM     57  C   UNL A   1      43.356  33.288  32.277  1.00  0.00     0.029 A 
ATOM     58  C   UNL A   1      42.639  32.028  32.382  1.00  0.00     0.049 A 
ATOM     59  H   UNL A   1      41.993  30.830  30.799  1.00  0.00     0.167 HD
ATOM     60  C   UNL A   1      41.935  27.807  27.459  1.00  0.00     0.037 A 
ATOM     61  C   UNL A   1      42.253  31.312  33.464  1.00  0.00     0.037 A 
ATOM     62  C   UNL A   1      40.557  28.180  27.627  1.00  0.00     0.049 A 
ATOM     63  C   UNL A   1      41.324  30.251  32.989  1.00  0.00     0.074 A 
ATOM     64  C   UNL A   1      39.666  28.937  26.890  1.00  0.00     0.029 A 
ATOM     65  N   UNL A   1      39.999  28.060  28.875  1.00  0.00    -0.354 N 
ATOM     66  N   UNL A   1      40.132  30.480  32.509  1.00  0.00    -0.248 NA
ATOM     67  C   UNL A   1      41.894  28.958  32.638  1.00  0.00     0.031 C 
ATOM     68  C   UNL A   1      38.851  29.603  27.852  1.00  0.00     0.029 A 
ATOM     69  C   UNL A   1      39.276  29.200  29.119  1.00  0.00     0.049 A 
ATOM     70  H   UNL A   1      40.099  27.293  29.485  1.00  0.00     0.167 HD
ATOM     71  C   UNL A   1      39.970  29.555  31.486  1.00  0.00     0.074 A 
ATOM     72  C   UNL A   1      41.045  28.586  31.676  1.00  0.00     0.031 C 
ATOM     73  C   UNL A   1      39.157  29.816  30.421  1.00  0.00     0.037 A 
BRANCH  60  74
ATOM     74  C   UNL A   1      42.452  26.420  27.702  1.00  0.00     0.064 A 
ATOM     75  C   UNL A   1      42.150  25.401  26.787  1.00  0.00     0.173 A 
ATOM     76  C   UNL A   1      43.004  26.002  28.935  1.00  0.00     0.173 A 
ATOM     77  F   UNL A   1      41.581  25.691  25.607  1.00  0.00    -0.203 F 
ATOM     78  C   UNL A   1      42.350  24.055  27.102  1.00  0.00     0.198 A 
ATOM     79  C   UNL A   1      43.262  24.666  29.219  1.00  0.00     0.198 A 
ATOM     80  F   UNL A   1      43.207  26.852  29.950  1.00  0.00    -0.203 F 
ATOM     81  F   UNL A   1      41.942  23.107  26.248  1.00  0.00    -0.200 F 
ATOM     82  C   UNL A   1      42.909  23.690  28.314  1.00  0.00     0.200 A 
ATOM     83  F   UNL A   1      43.782  24.334  30.410  1.00  0.00    -0.200 F 
ATOM     84  F   UNL A   1      43.056  22.399  28.636  1.00  0.00    -0.200 F 
ENDBRANCH  60  74
BRANCH  61  85
ATOM     85  C   UNL A   1      42.960  31.233  34.762  1.00  0.00     0.064 A 
ATOM     86  C   UNL A   1      42.318  31.595  35.955  1.00  0.00     0.173 A 
ATOM     87  C   UNL A   1      44.186  30.548  34.889  1.00  0.00     0.173 A 
ATOM     88  F   UNL A   1      41.124  32.202  35.918  1.00  0.00    -0.203 F 
ATOM     89  C   UNL A   1      42.863  31.275  37.203  1.00  0.00     0.198 A 
ATOM     90  C   UNL A   1      44.734  30.239  36.133  1.00  0.00     0.198 A 
ATOM     91  F   UNL A   1      44.830  30.080  33.810  1.00  0.00    -0.203 F 
ATOM     92  F   UNL A   1      42.195  31.584  38.323  1.00  0.00    -0.200 F 
ATOM     93  C   UNL A   1      44.066  30.592  37.290  1.00  0.00     0.200 A 
ATOM     94  F   UNL A   1      45.878  29.545  36.201  1.00  0.00    -0.200 F 
ATOM     95  F   UNL A   1      44.560  30.235  38.484  1.00  0.00    -0.200 F 
ENDBRANCH  61  85
BRANCH  73  96
ATOM     96  C   UNL A   1      38.246  31.007  30.529  1.00  0.00     0.064 A 
ATOM     97  C   UNL A   1      36.924  30.932  31.001  1.00  0.00     0.173 A 
ATOM     98  C   UNL A   1      38.769  32.281  30.275  1.00  0.00     0.173 A 
ATOM     99  F   UNL A   1      36.390  29.759  31.366  1.00  0.00    -0.203 F 
ATOM    100  C   UNL A   1      36.146  32.079  31.159  1.00  0.00     0.198 A 
ATOM    101  C   UNL A   1      38.003  33.427  30.468  1.00  0.00     0.198 A 
ATOM    102  F   UNL A   1      40.046  32.417  29.882  1.00  0.00    -0.203 F 
ATOM    103  F   UNL A   1      34.882  31.979  31.595  1.00  0.00    -0.200 F 
ATOM    104  C   UNL A   1      36.689  33.325  30.898  1.00  0.00     0.200 A 
ATOM    105  F   UNL A   1      38.547  34.634  30.262  1.00  0.00    -0.200 F 
ATOM    106  F   UNL A   1      35.956  34.431  31.086  1.00  0.00    -0.200 F 
ENDBRANCH  73  96
ENDBRANCH  47  48
ENDBRANCH  40  42
ENDBRANCH  39  40
ENDBRANCH  38  39
ENDBRANCH  37  38
ENDBRANCH  36  37
ENDBRANCH  35  36
ENDBRANCH   1  35
TORSDOF 22
ENDMDL
