MODEL 1
REMARK VINA RESULT:     -10.0      0.000      0.000
REMARK SMILES C[C@@H]1SCCC[C@H]1[N@H+]1CCC[C@H](CCC(=O)OCCOCCOCCOCCOC(=O)c2ccc(-c3c4nc(c(-c5c(F)c(F)c(F)c(F)c5F)c5ccc([nH]5)c(-c5c(F)c(F)c(F)c(F)c5F)c5nc(c(-c6c(F)c(F)c(F)c(F)c6F)c6ccc3[nH]6)C=C5)C=C4)cc2)C1
REMARK SMILES IDX 22 1 21 2 20 3 19 4 18 5 17 6 15 7 16 8 14 9 13 10 12 11
REMARK SMILES IDX 8 12 9 13 95 14 10 16 11 17 7 18 1 19 2 20 3 21 4 22 6 23
REMARK SMILES IDX 5 24 23 25 24 26 25 27 26 28 27 29 28 30 29 31 30 32 31 33
REMARK SMILES IDX 32 34 33 35 94 36 34 37 93 38 35 39 36 40 37 41 87 42 38 43
REMARK SMILES IDX 92 44 86 45 88 46 39 47 91 48 85 49 84 50 40 52 72 53 52 54
REMARK SMILES IDX 71 55 53 56 56 57 70 58 89 59 54 60 55 61 69 63 90 64 57 65
REMARK SMILES IDX 41 66 42 67 50 68 43 69 44 70 48 71 51 72 45 73 46 74 49 75
REMARK SMILES IDX 47 76 73 77 74 78 82 79 75 80 76 81 80 82 83 83 77 84 78 85
REMARK SMILES IDX 81 86 79 87 58 88 59 89 67 90 60 91 61 92 65 93 68 94 62 95
REMARK SMILES IDX 63 96 66 97 64 98
REMARK H PARENT 8 15 88 51 56 62
REMARK Flexibility Score: inf
ROOT
ATOM      1  C   UNL A   1      34.879  22.815  26.473  1.00  0.00     0.188 C 
ENDROOT
BRANCH   1   2
ATOM      2  C   UNL A   1      34.692  21.285  26.545  1.00  0.00     0.188 C 
BRANCH   2   3
ATOM      3  O   UNL A   1      33.342  20.867  26.597  1.00  0.00    -0.376 OA
BRANCH   3   4
ATOM      4  C   UNL A   1      32.619  20.735  25.390  1.00  0.00     0.202 C 
BRANCH   4   5
ATOM      5  C   UNL A   1      31.778  21.911  24.870  1.00  0.00     0.261 C 
BRANCH   5   6
ATOM      6  O   UNL A   1      30.883  22.503  25.821  1.00  0.00    -0.463 OA
BRANCH   6   7
ATOM      7  C   UNL A   1      30.653  23.828  25.735  1.00  0.00     0.305 C 
ATOM      8  O   UNL A   1      30.572  24.575  26.705  1.00  0.00    -0.252 OA
BRANCH   7   9
ATOM      9  C   UNL A   1      30.586  24.342  24.304  1.00  0.00     0.123 C 
BRANCH   9  10
ATOM     10  C   UNL A   1      29.784  25.598  23.911  1.00  0.00     0.021 C 
BRANCH  10  11
ATOM     11  C   UNL A   1      30.543  26.924  23.734  1.00  0.00     0.045 C 
ATOM     12  N   UNL A   1      31.216  29.000  25.036  1.00  0.00    -0.331 N 
ATOM     13  C   UNL A   1      30.421  29.796  24.119  1.00  0.00     0.262 C 
ATOM     14  C   UNL A   1      30.751  27.611  25.109  1.00  0.00     0.265 C 
ATOM     15  H   UNL A   1      30.993  29.461  25.919  1.00  0.00     0.348 HD
ATOM     16  C   UNL A   1      30.387  29.227  22.712  1.00  0.00     0.062 C 
ATOM     17  C   UNL A   1      29.812  27.823  22.732  1.00  0.00     0.015 C 
BRANCH  12  18
ATOM     18  C   UNL A   1      32.659  29.240  25.228  1.00  0.00     0.196 C 
ATOM     19  C   UNL A   1      34.592  29.289  26.879  1.00  0.00     0.026 C 
ATOM     20  C   UNL A   1      33.383  28.501  26.381  1.00  0.00     0.101 C 
ATOM     21  S   UNL A   1      33.906  26.782  26.072  1.00  0.00    -0.153 SA
ATOM     22  C   UNL A   1      34.273  26.751  24.301  1.00  0.00     0.070 C 
ATOM     23  C   UNL A   1      33.514  29.236  23.944  1.00  0.00     0.067 C 
ATOM     24  C   UNL A   1      33.913  27.889  23.363  1.00  0.00     0.017 C 
ENDBRANCH  12  18
ENDBRANCH  10  11
ENDBRANCH   9  10
ENDBRANCH   7   9
ENDBRANCH   6   7
ENDBRANCH   5   6
ENDBRANCH   4   5
ENDBRANCH   3   4
ENDBRANCH   2   3
ENDBRANCH   1   2
BRANCH   1  25
ATOM     25  O   UNL A   1      36.095  23.403  26.023  1.00  0.00    -0.377 OA
BRANCH  25  26
ATOM     26  C   UNL A   1      36.393  23.430  24.631  1.00  0.00     0.188 C 
BRANCH  26  27
ATOM     27  C   UNL A   1      37.046  22.193  23.980  1.00  0.00     0.188 C 
BRANCH  27  28
ATOM     28  O   UNL A   1      38.070  21.600  24.759  1.00  0.00    -0.376 OA
BRANCH  28  29
ATOM     29  C   UNL A   1      37.974  20.207  25.013  1.00  0.00     0.202 C 
BRANCH  29  30
ATOM     30  C   UNL A   1      39.164  19.500  25.681  1.00  0.00     0.261 C 
BRANCH  30  31
ATOM     31  O   UNL A   1      40.339  20.296  25.923  1.00  0.00    -0.460 OA
BRANCH  31  32
ATOM     32  C   UNL A   1      40.783  20.415  27.191  1.00  0.00     0.338 C 
ATOM     33  O   UNL A   1      41.078  19.520  27.966  1.00  0.00    -0.246 OA
BRANCH  32  34
ATOM     34  C   UNL A   1      40.991  21.854  27.448  1.00  0.00     0.060 A 
ATOM     35  C   UNL A   1      40.206  22.808  26.785  1.00  0.00     0.016 A 
ATOM     36  C   UNL A   1      41.957  22.255  28.371  1.00  0.00     0.016 A 
ATOM     37  C   UNL A   1      40.385  24.171  27.046  1.00  0.00     0.010 A 
ATOM     38  C   UNL A   1      42.136  23.618  28.626  1.00  0.00     0.010 A 
ATOM     39  C   UNL A   1      41.365  24.590  27.953  1.00  0.00    -0.014 A 
BRANCH  39  40
ATOM     40  C   UNL A   1      41.734  26.028  28.070  1.00  0.00     0.031 A 
ATOM     41  C   UNL A   1      43.069  26.449  27.523  1.00  0.00     0.074 A 
ATOM     42  C   UNL A   1      40.925  26.950  28.627  1.00  0.00     0.049 A 
ATOM     43  N   UNL A   1      43.669  27.610  27.586  1.00  0.00    -0.248 NA
ATOM     44  C   UNL A   1      43.836  25.415  26.809  1.00  0.00     0.031 C 
ATOM     45  C   UNL A   1      39.572  26.710  29.117  1.00  0.00     0.029 A 
ATOM     46  N   UNL A   1      41.136  28.288  28.885  1.00  0.00    -0.354 N 
ATOM     47  C   UNL A   1      44.882  27.437  26.935  1.00  0.00     0.074 A 
ATOM     48  C   UNL A   1      44.962  26.053  26.533  1.00  0.00     0.031 C 
ATOM     49  C   UNL A   1      39.083  27.851  29.636  1.00  0.00     0.029 A 
ATOM     50  C   UNL A   1      40.104  28.890  29.566  1.00  0.00     0.049 A 
ATOM     51  H   UNL A   1      41.950  28.767  28.607  1.00  0.00     0.167 HD
ATOM     52  C   UNL A   1      45.834  28.360  26.670  1.00  0.00     0.037 A 
ATOM     53  C   UNL A   1      40.002  30.126  30.097  1.00  0.00     0.037 A 
ATOM     54  C   UNL A   1      45.740  29.746  27.034  1.00  0.00     0.049 A 
ATOM     55  C   UNL A   1      41.128  31.109  29.879  1.00  0.00     0.074 A 
ATOM     56  C   UNL A   1      46.630  30.767  26.758  1.00  0.00     0.029 A 
ATOM     57  N   UNL A   1      44.699  30.303  27.760  1.00  0.00    -0.354 N 
ATOM     58  N   UNL A   1      42.249  30.950  29.219  1.00  0.00    -0.248 NA
ATOM     59  C   UNL A   1      40.962  32.451  30.456  1.00  0.00     0.031 C 
ATOM     60  C   UNL A   1      46.164  31.929  27.378  1.00  0.00     0.029 A 
ATOM     61  C   UNL A   1      44.946  31.648  27.978  1.00  0.00     0.049 A 
ATOM     62  H   UNL A   1      43.904  29.816  28.074  1.00  0.00     0.167 HD
ATOM     63  C   UNL A   1      42.889  32.182  29.250  1.00  0.00     0.074 A 
ATOM     64  C   UNL A   1      42.033  33.080  29.993  1.00  0.00     0.031 C 
ATOM     65  C   UNL A   1      44.076  32.539  28.701  1.00  0.00     0.037 A 
BRANCH  52  66
ATOM     66  C   UNL A   1      47.074  27.890  25.970  1.00  0.00     0.064 A 
ATOM     67  C   UNL A   1      48.219  27.488  26.673  1.00  0.00     0.173 A 
ATOM     68  C   UNL A   1      47.101  27.813  24.570  1.00  0.00     0.173 A 
ATOM     69  F   UNL A   1      48.251  27.563  28.013  1.00  0.00    -0.203 F 
ATOM     70  C   UNL A   1      49.354  27.047  25.998  1.00  0.00     0.198 A 
ATOM     71  C   UNL A   1      48.224  27.339  23.900  1.00  0.00     0.198 A 
ATOM     72  F   UNL A   1      46.031  28.189  23.851  1.00  0.00    -0.203 F 
ATOM     73  F   UNL A   1      50.454  26.716  26.688  1.00  0.00    -0.200 F 
ATOM     74  C   UNL A   1      49.352  26.963  24.615  1.00  0.00     0.200 A 
ATOM     75  F   UNL A   1      48.215  27.248  22.564  1.00  0.00    -0.200 F 
ATOM     76  F   UNL A   1      50.440  26.526  23.967  1.00  0.00    -0.200 F 
ENDBRANCH  52  66
BRANCH  53  77
ATOM     77  C   UNL A   1      38.811  30.521  30.902  1.00  0.00     0.064 A 
ATOM     78  C   UNL A   1      37.705  31.149  30.310  1.00  0.00     0.173 A 
ATOM     79  C   UNL A   1      38.791  30.357  32.296  1.00  0.00     0.173 A 
ATOM     80  F   UNL A   1      37.684  31.356  28.985  1.00  0.00    -0.203 F 
ATOM     81  C   UNL A   1      36.649  31.635  31.082  1.00  0.00     0.198 A 
ATOM     82  C   UNL A   1      37.719  30.815  33.063  1.00  0.00     0.198 A 
ATOM     83  F   UNL A   1      39.820  29.766  32.920  1.00  0.00    -0.203 F 
ATOM     84  F   UNL A   1      35.643  32.298  30.494  1.00  0.00    -0.200 F 
ATOM     85  C   UNL A   1      36.657  31.467  32.458  1.00  0.00     0.200 A 
ATOM     86  F   UNL A   1      37.727  30.641  34.392  1.00  0.00    -0.200 F 
ATOM     87  F   UNL A   1      35.650  31.948  33.200  1.00  0.00    -0.200 F 
ENDBRANCH  53  77
BRANCH  65  88
ATOM     88  C   UNL A   1      44.495  33.977  28.821  1.00  0.00     0.064 A 
ATOM     89  C   UNL A   1      44.114  34.944  27.880  1.00  0.00     0.173 A 
ATOM     90  C   UNL A   1      45.252  34.399  29.927  1.00  0.00     0.173 A 
ATOM     91  F   UNL A   1      43.402  34.590  26.799  1.00  0.00    -0.203 F 
ATOM     92  C   UNL A   1      44.499  36.274  28.025  1.00  0.00     0.198 A 
ATOM     93  C   UNL A   1      45.601  35.736  30.088  1.00  0.00     0.198 A 
ATOM     94  F   UNL A   1      45.635  33.517  30.862  1.00  0.00    -0.203 F 
ATOM     95  F   UNL A   1      44.170  37.170  27.085  1.00  0.00    -0.200 F 
ATOM     96  C   UNL A   1      45.232  36.670  29.134  1.00  0.00     0.200 A 
ATOM     97  F   UNL A   1      46.293  36.120  31.170  1.00  0.00    -0.200 F 
ATOM     98  F   UNL A   1      45.591  37.954  29.278  1.00  0.00    -0.200 F 
ENDBRANCH  65  88
ENDBRANCH  39  40
ENDBRANCH  32  34
ENDBRANCH  31  32
ENDBRANCH  30  31
ENDBRANCH  29  30
ENDBRANCH  28  29
ENDBRANCH  27  28
ENDBRANCH  26  27
ENDBRANCH  25  26
ENDBRANCH   1  25
TORSDOF 23
ENDMDL
MODEL 2
REMARK VINA RESULT:      -9.6      1.369      2.210
REMARK SMILES C[C@@H]1SCCC[C@H]1[N@H+]1CCC[C@H](CCC(=O)OCCOCCOCCOCCOC(=O)c2ccc(-c3c4nc(c(-c5c(F)c(F)c(F)c(F)c5F)c5ccc([nH]5)c(-c5c(F)c(F)c(F)c(F)c5F)c5nc(c(-c6c(F)c(F)c(F)c(F)c6F)c6ccc3[nH]6)C=C5)C=C4)cc2)C1
REMARK SMILES IDX 22 1 21 2 20 3 19 4 18 5 17 6 15 7 16 8 14 9 13 10 12 11
REMARK SMILES IDX 8 12 9 13 95 14 10 16 11 17 7 18 1 19 2 20 3 21 4 22 6 23
REMARK SMILES IDX 5 24 23 25 24 26 25 27 26 28 27 29 28 30 29 31 30 32 31 33
REMARK SMILES IDX 32 34 33 35 94 36 34 37 93 38 35 39 36 40 37 41 87 42 38 43
REMARK SMILES IDX 92 44 86 45 88 46 39 47 91 48 85 49 84 50 40 52 72 53 52 54
REMARK SMILES IDX 71 55 53 56 56 57 70 58 89 59 54 60 55 61 69 63 90 64 57 65
REMARK SMILES IDX 41 66 42 67 50 68 43 69 44 70 48 71 51 72 45 73 46 74 49 75
REMARK SMILES IDX 47 76 73 77 74 78 82 79 75 80 76 81 80 82 83 83 77 84 78 85
REMARK SMILES IDX 81 86 79 87 58 88 59 89 67 90 60 91 61 92 65 93 68 94 62 95
REMARK SMILES IDX 63 96 66 97 64 98
REMARK H PARENT 8 15 88 51 56 62
REMARK Flexibility Score: inf
ROOT
ATOM      1  C   UNL A   1      34.588  23.015  27.126  1.00  0.00     0.188 C 
ENDROOT
BRANCH   1   2
ATOM      2  C   UNL A   1      34.048  21.574  27.233  1.00  0.00     0.188 C 
BRANCH   2   3
ATOM      3  O   UNL A   1      33.125  21.223  26.221  1.00  0.00    -0.376 OA
BRANCH   3   4
ATOM      4  C   UNL A   1      33.226  19.950  25.613  1.00  0.00     0.202 C 
BRANCH   4   5
ATOM      5  C   UNL A   1      33.292  19.837  24.083  1.00  0.00     0.261 C 
BRANCH   5   6
ATOM      6  O   UNL A   1      32.070  20.110  23.385  1.00  0.00    -0.463 OA
BRANCH   6   7
ATOM      7  C   UNL A   1      32.056  21.130  22.504  1.00  0.00     0.305 C 
ATOM      8  O   UNL A   1      31.887  20.992  21.297  1.00  0.00    -0.252 OA
BRANCH   7   9
ATOM      9  C   UNL A   1      32.186  22.499  23.158  1.00  0.00     0.123 C 
BRANCH   9  10
ATOM     10  C   UNL A   1      30.961  23.347  23.553  1.00  0.00     0.021 C 
BRANCH  10  11
ATOM     11  C   UNL A   1      31.201  24.754  24.124  1.00  0.00     0.045 C 
ATOM     12  N   UNL A   1      32.957  26.101  25.375  1.00  0.00    -0.331 N 
ATOM     13  C   UNL A   1      32.015  26.256  26.468  1.00  0.00     0.262 C 
ATOM     14  C   UNL A   1      32.680  24.908  24.571  1.00  0.00     0.265 C 
ATOM     15  H   UNL A   1      33.819  25.945  25.897  1.00  0.00     0.348 HD
ATOM     16  C   UNL A   1      30.569  26.313  26.007  1.00  0.00     0.062 C 
ATOM     17  C   UNL A   1      30.213  25.043  25.257  1.00  0.00     0.015 C 
BRANCH  12  18
ATOM     18  C   UNL A   1      33.540  27.264  24.679  1.00  0.00     0.196 C 
ATOM     19  C   UNL A   1      33.805  28.489  22.466  1.00  0.00     0.026 C 
ATOM     20  C   UNL A   1      32.825  27.802  23.415  1.00  0.00     0.101 C 
ATOM     21  S   UNL A   1      31.401  28.912  23.669  1.00  0.00    -0.153 SA
ATOM     22  C   UNL A   1      31.800  29.786  25.202  1.00  0.00     0.070 C 
ATOM     23  C   UNL A   1      34.006  28.421  25.587  1.00  0.00     0.067 C 
ATOM     24  C   UNL A   1      32.951  29.384  26.107  1.00  0.00     0.017 C 
ENDBRANCH  12  18
ENDBRANCH  10  11
ENDBRANCH   9  10
ENDBRANCH   7   9
ENDBRANCH   6   7
ENDBRANCH   5   6
ENDBRANCH   4   5
ENDBRANCH   3   4
ENDBRANCH   2   3
ENDBRANCH   1   2
BRANCH   1  25
ATOM     25  O   UNL A   1      35.881  23.296  26.600  1.00  0.00    -0.377 OA
BRANCH  25  26
ATOM     26  C   UNL A   1      36.024  23.638  25.226  1.00  0.00     0.188 C 
BRANCH  26  27
ATOM     27  C   UNL A   1      35.706  22.577  24.153  1.00  0.00     0.188 C 
BRANCH  27  28
ATOM     28  O   UNL A   1      36.767  21.672  23.899  1.00  0.00    -0.376 OA
BRANCH  28  29
ATOM     29  C   UNL A   1      36.950  20.606  24.818  1.00  0.00     0.202 C 
BRANCH  29  30
ATOM     30  C   UNL A   1      38.338  20.413  25.450  1.00  0.00     0.261 C 
BRANCH  30  31
ATOM     31  O   UNL A   1      39.045  21.605  25.839  1.00  0.00    -0.460 OA
BRANCH  31  32
ATOM     32  C   UNL A   1      39.950  21.519  26.836  1.00  0.00     0.338 C 
ATOM     33  O   UNL A   1      40.446  20.509  27.307  1.00  0.00    -0.246 OA
BRANCH  32  34
ATOM     34  C   UNL A   1      40.354  22.896  27.180  1.00  0.00     0.060 A 
ATOM     35  C   UNL A   1      39.704  23.989  26.589  1.00  0.00     0.016 A 
ATOM     36  C   UNL A   1      41.370  23.101  28.114  1.00  0.00     0.016 A 
ATOM     37  C   UNL A   1      40.069  25.295  26.933  1.00  0.00     0.010 A 
ATOM     38  C   UNL A   1      41.735  24.408  28.451  1.00  0.00     0.010 A 
ATOM     39  C   UNL A   1      41.102  25.517  27.852  1.00  0.00    -0.014 A 
BRANCH  39  40
ATOM     40  C   UNL A   1      41.665  26.880  28.054  1.00  0.00     0.031 A 
ATOM     41  C   UNL A   1      43.078  27.123  27.602  1.00  0.00     0.074 A 
ATOM     42  C   UNL A   1      40.964  27.889  28.608  1.00  0.00     0.049 A 
ATOM     43  N   UNL A   1      43.832  28.181  27.751  1.00  0.00    -0.248 NA
ATOM     44  C   UNL A   1      43.731  26.015  26.885  1.00  0.00     0.031 C 
ATOM     45  C   UNL A   1      39.563  27.831  29.010  1.00  0.00     0.029 A 
ATOM     46  N   UNL A   1      41.348  29.172  28.937  1.00  0.00    -0.354 N 
ATOM     47  C   UNL A   1      45.046  27.858  27.161  1.00  0.00     0.074 A 
ATOM     48  C   UNL A   1      44.951  26.492  26.701  1.00  0.00     0.031 C 
ATOM     49  C   UNL A   1      39.212  29.010  29.553  1.00  0.00     0.029 A 
ATOM     50  C   UNL A   1      40.373  29.892  29.587  1.00  0.00     0.049 A 
ATOM     51  H   UNL A   1      42.237  29.537  28.727  1.00  0.00     0.167 HD
ATOM     52  C   UNL A   1      46.134  28.641  26.991  1.00  0.00     0.037 A 
ATOM     53  C   UNL A   1      40.417  31.109  30.167  1.00  0.00     0.037 A 
ATOM     54  C   UNL A   1      46.218  30.012  27.412  1.00  0.00     0.049 A 
ATOM     55  C   UNL A   1      41.683  31.925  30.058  1.00  0.00     0.074 A 
ATOM     56  C   UNL A   1      47.260  30.902  27.232  1.00  0.00     0.029 A 
ATOM     57  N   UNL A   1      45.225  30.687  28.104  1.00  0.00    -0.354 N 
ATOM     58  N   UNL A   1      42.808  31.629  29.453  1.00  0.00    -0.248 NA
ATOM     59  C   UNL A   1      41.676  33.255  30.685  1.00  0.00     0.031 C 
ATOM     60  C   UNL A   1      46.929  32.096  27.878  1.00  0.00     0.029 A 
ATOM     61  C   UNL A   1      45.648  31.973  28.396  1.00  0.00     0.049 A 
ATOM     62  H   UNL A   1      44.350  30.309  28.351  1.00  0.00     0.167 HD
ATOM     63  C   UNL A   1      43.615  32.753  29.576  1.00  0.00     0.074 A 
ATOM     64  C   UNL A   1      42.852  33.738  30.311  1.00  0.00     0.031 C 
ATOM     65  C   UNL A   1      44.872  32.953  29.110  1.00  0.00     0.037 A 
BRANCH  52  66
ATOM     66  C   UNL A   1      47.335  28.023  26.340  1.00  0.00     0.064 A 
ATOM     67  C   UNL A   1      48.407  27.511  27.087  1.00  0.00     0.173 A 
ATOM     68  C   UNL A   1      47.395  27.913  24.943  1.00  0.00     0.173 A 
ATOM     69  F   UNL A   1      48.407  27.611  28.425  1.00  0.00    -0.203 F 
ATOM     70  C   UNL A   1      49.505  26.933  26.457  1.00  0.00     0.198 A 
ATOM     71  C   UNL A   1      48.478  27.303  24.318  1.00  0.00     0.198 A 
ATOM     72  F   UNL A   1      46.396  28.389  24.183  1.00  0.00    -0.203 F 
ATOM     73  F   UNL A   1      50.541  26.497  27.187  1.00  0.00    -0.200 F 
ATOM     74  C   UNL A   1      49.535  26.820  25.075  1.00  0.00     0.200 A 
ATOM     75  F   UNL A   1      48.499  27.185  22.984  1.00  0.00    -0.200 F 
ATOM     76  F   UNL A   1      50.587  26.252  24.471  1.00  0.00    -0.200 F 
ENDBRANCH  52  66
BRANCH  53  77
ATOM     77  C   UNL A   1      39.248  31.643  30.923  1.00  0.00     0.064 A 
ATOM     78  C   UNL A   1      38.239  32.378  30.283  1.00  0.00     0.173 A 
ATOM     79  C   UNL A   1      39.159  31.503  32.317  1.00  0.00     0.173 A 
ATOM     80  F   UNL A   1      38.288  32.567  28.956  1.00  0.00    -0.203 F 
ATOM     81  C   UNL A   1      37.215  32.987  31.009  1.00  0.00     0.198 A 
ATOM     82  C   UNL A   1      38.116  32.086  33.038  1.00  0.00     0.198 A 
ATOM     83  F   UNL A   1      40.095  30.813  32.985  1.00  0.00    -0.203 F 
ATOM     84  F   UNL A   1      36.310  33.747  30.377  1.00  0.00    -0.200 F 
ATOM     85  C   UNL A   1      37.155  32.840  32.386  1.00  0.00     0.200 A 
ATOM     86  F   UNL A   1      38.058  31.932  34.368  1.00  0.00    -0.200 F 
ATOM     87  F   UNL A   1      36.180  33.439  33.084  1.00  0.00    -0.200 F 
ENDBRANCH  53  77
BRANCH  65  88
ATOM     88  C   UNL A   1      45.484  34.309  29.319  1.00  0.00     0.064 A 
ATOM     89  C   UNL A   1      46.235  34.618  30.463  1.00  0.00     0.173 A 
ATOM     90  C   UNL A   1      45.356  35.300  28.332  1.00  0.00     0.173 A 
ATOM     91  F   UNL A   1      46.377  33.711  31.442  1.00  0.00    -0.203 F 
ATOM     92  C   UNL A   1      46.808  35.876  30.624  1.00  0.00     0.198 A 
ATOM     93  C   UNL A   1      45.964  36.542  28.479  1.00  0.00     0.198 A 
ATOM     94  F   UNL A   1      44.657  35.055  27.214  1.00  0.00    -0.203 F 
ATOM     95  F   UNL A   1      47.475  36.167  31.750  1.00  0.00    -0.200 F 
ATOM     96  C   UNL A   1      46.682  36.833  29.628  1.00  0.00     0.200 A 
ATOM     97  F   UNL A   1      45.856  37.458  27.506  1.00  0.00    -0.200 F 
ATOM     98  F   UNL A   1      47.246  38.039  29.780  1.00  0.00    -0.200 F 
ENDBRANCH  65  88
ENDBRANCH  39  40
ENDBRANCH  32  34
ENDBRANCH  31  32
ENDBRANCH  30  31
ENDBRANCH  29  30
ENDBRANCH  28  29
ENDBRANCH  27  28
ENDBRANCH  26  27
ENDBRANCH  25  26
ENDBRANCH   1  25
TORSDOF 23
ENDMDL
MODEL 3
REMARK VINA RESULT:      -9.4      1.793      2.765
REMARK SMILES C[C@@H]1SCCC[C@H]1[N@H+]1CCC[C@H](CCC(=O)OCCOCCOCCOCCOC(=O)c2ccc(-c3c4nc(c(-c5c(F)c(F)c(F)c(F)c5F)c5ccc([nH]5)c(-c5c(F)c(F)c(F)c(F)c5F)c5nc(c(-c6c(F)c(F)c(F)c(F)c6F)c6ccc3[nH]6)C=C5)C=C4)cc2)C1
REMARK SMILES IDX 22 1 21 2 20 3 19 4 18 5 17 6 15 7 16 8 14 9 13 10 12 11
REMARK SMILES IDX 8 12 9 13 95 14 10 16 11 17 7 18 1 19 2 20 3 21 4 22 6 23
REMARK SMILES IDX 5 24 23 25 24 26 25 27 26 28 27 29 28 30 29 31 30 32 31 33
REMARK SMILES IDX 32 34 33 35 94 36 34 37 93 38 35 39 36 40 37 41 87 42 38 43
REMARK SMILES IDX 92 44 86 45 88 46 39 47 91 48 85 49 84 50 40 52 72 53 52 54
REMARK SMILES IDX 71 55 53 56 56 57 70 58 89 59 54 60 55 61 69 63 90 64 57 65
REMARK SMILES IDX 41 66 42 67 50 68 43 69 44 70 48 71 51 72 45 73 46 74 49 75
REMARK SMILES IDX 47 76 73 77 74 78 82 79 75 80 76 81 80 82 83 83 77 84 78 85
REMARK SMILES IDX 81 86 79 87 58 88 59 89 67 90 60 91 61 92 65 93 68 94 62 95
REMARK SMILES IDX 63 96 66 97 64 98
REMARK H PARENT 8 15 88 51 56 62
REMARK Flexibility Score: inf
ROOT
ATOM      1  C   UNL A   1      34.666  23.045  27.104  1.00  0.00     0.188 C 
ENDROOT
BRANCH   1   2
ATOM      2  C   UNL A   1      34.085  21.632  27.315  1.00  0.00     0.188 C 
BRANCH   2   3
ATOM      3  O   UNL A   1      33.171  21.223  26.317  1.00  0.00    -0.376 OA
BRANCH   3   4
ATOM      4  C   UNL A   1      33.304  19.933  25.754  1.00  0.00     0.202 C 
BRANCH   4   5
ATOM      5  C   UNL A   1      33.377  19.768  24.228  1.00  0.00     0.261 C 
BRANCH   5   6
ATOM      6  O   UNL A   1      32.156  20.014  23.518  1.00  0.00    -0.463 OA
BRANCH   6   7
ATOM      7  C   UNL A   1      32.145  20.998  22.596  1.00  0.00     0.305 C 
ATOM      8  O   UNL A   1      32.001  20.810  21.393  1.00  0.00    -0.252 OA
BRANCH   7   9
ATOM      9  C   UNL A   1      32.243  22.393  23.197  1.00  0.00     0.123 C 
BRANCH   9  10
ATOM     10  C   UNL A   1      31.193  22.948  24.179  1.00  0.00     0.021 C 
BRANCH  10  11
ATOM     11  C   UNL A   1      31.228  24.448  24.515  1.00  0.00     0.045 C 
ATOM     12  N   UNL A   1      32.860  26.284  25.170  1.00  0.00    -0.331 N 
ATOM     13  C   UNL A   1      32.146  26.429  26.425  1.00  0.00     0.262 C 
ATOM     14  C   UNL A   1      32.696  24.947  24.592  1.00  0.00     0.265 C 
ATOM     15  H   UNL A   1      33.822  26.379  25.495  1.00  0.00     0.348 HD
ATOM     16  C   UNL A   1      30.660  26.138  26.303  1.00  0.00     0.062 C 
ATOM     17  C   UNL A   1      30.448  24.721  25.804  1.00  0.00     0.015 C 
BRANCH  12  18
ATOM     18  C   UNL A   1      33.023  27.411  24.231  1.00  0.00     0.196 C 
ATOM     19  C   UNL A   1      34.034  28.203  22.037  1.00  0.00     0.026 C 
ATOM     20  C   UNL A   1      33.248  27.094  22.731  1.00  0.00     0.101 C 
ATOM     21  S   UNL A   1      31.774  26.720  21.726  1.00  0.00    -0.153 SA
ATOM     22  C   UNL A   1      30.465  27.708  22.490  1.00  0.00     0.070 C 
ATOM     23  C   UNL A   1      32.029  28.577  24.408  1.00  0.00     0.067 C 
ATOM     24  C   UNL A   1      30.635  28.416  23.822  1.00  0.00     0.017 C 
ENDBRANCH  12  18
ENDBRANCH  10  11
ENDBRANCH   9  10
ENDBRANCH   7   9
ENDBRANCH   6   7
ENDBRANCH   5   6
ENDBRANCH   4   5
ENDBRANCH   3   4
ENDBRANCH   2   3
ENDBRANCH   1   2
BRANCH   1  25
ATOM     25  O   UNL A   1      35.935  23.253  26.493  1.00  0.00    -0.377 OA
BRANCH  25  26
ATOM     26  C   UNL A   1      36.007  23.587  25.111  1.00  0.00     0.188 C 
BRANCH  26  27
ATOM     27  C   UNL A   1      35.842  22.469  24.061  1.00  0.00     0.188 C 
BRANCH  27  28
ATOM     28  O   UNL A   1      37.022  21.722  23.819  1.00  0.00    -0.376 OA
BRANCH  28  29
ATOM     29  C   UNL A   1      37.265  20.598  24.650  1.00  0.00     0.202 C 
BRANCH  29  30
ATOM     30  C   UNL A   1      38.541  20.582  25.507  1.00  0.00     0.261 C 
BRANCH  30  31
ATOM     31  O   UNL A   1      38.931  21.829  26.112  1.00  0.00    -0.460 OA
BRANCH  31  32
ATOM     32  C   UNL A   1      40.040  21.851  26.879  1.00  0.00     0.338 C 
ATOM     33  O   UNL A   1      40.815  20.934  27.096  1.00  0.00    -0.246 OA
BRANCH  32  34
ATOM     34  C   UNL A   1      40.243  23.247  27.314  1.00  0.00     0.060 A 
ATOM     35  C   UNL A   1      39.412  24.264  26.826  1.00  0.00     0.016 A 
ATOM     36  C   UNL A   1      41.251  23.540  28.233  1.00  0.00     0.016 A 
ATOM     37  C   UNL A   1      39.586  25.584  27.257  1.00  0.00     0.010 A 
ATOM     38  C   UNL A   1      41.425  24.861  28.658  1.00  0.00     0.010 A 
ATOM     39  C   UNL A   1      40.608  25.898  28.161  1.00  0.00    -0.014 A 
BRANCH  39  40
ATOM     40  C   UNL A   1      40.964  27.315  28.450  1.00  0.00     0.031 A 
ATOM     41  C   UNL A   1      42.411  27.705  28.334  1.00  0.00     0.074 A 
ATOM     42  C   UNL A   1      40.052  28.245  28.794  1.00  0.00     0.049 A 
ATOM     43  N   UNL A   1      42.996  28.838  28.625  1.00  0.00    -0.248 NA
ATOM     44  C   UNL A   1      43.325  26.670  27.823  1.00  0.00     0.031 C 
ATOM     45  C   UNL A   1      38.610  28.039  28.858  1.00  0.00     0.029 A 
ATOM     46  N   UNL A   1      40.214  29.562  29.167  1.00  0.00    -0.354 N 
ATOM     47  C   UNL A   1      44.341  28.644  28.346  1.00  0.00     0.074 A 
ATOM     48  C   UNL A   1      44.499  27.274  27.917  1.00  0.00     0.031 C 
ATOM     49  C   UNL A   1      38.020  29.176  29.269  1.00  0.00     0.029 A 
ATOM     50  C   UNL A   1      39.044  30.177  29.548  1.00  0.00     0.049 A 
ATOM     51  H   UNL A   1      41.085  30.020  29.160  1.00  0.00     0.167 HD
ATOM     52  C   UNL A   1      45.353  29.538  28.413  1.00  0.00     0.037 A 
ATOM     53  C   UNL A   1      38.824  31.394  30.087  1.00  0.00     0.037 A 
ATOM     54  C   UNL A   1      45.193  30.912  28.802  1.00  0.00     0.049 A 
ATOM     55  C   UNL A   1      39.989  32.340  30.253  1.00  0.00     0.074 A 
ATOM     56  C   UNL A   1      46.151  31.908  28.845  1.00  0.00     0.029 A 
ATOM     57  N   UNL A   1      44.001  31.480  29.222  1.00  0.00    -0.354 N 
ATOM     58  N   UNL A   1      41.249  32.164  29.939  1.00  0.00    -0.248 NA
ATOM     59  C   UNL A   1      39.698  33.664  30.822  1.00  0.00     0.031 C 
ATOM     60  C   UNL A   1      45.555  33.062  29.360  1.00  0.00     0.029 A 
ATOM     61  C   UNL A   1      44.208  32.805  29.567  1.00  0.00     0.049 A 
ATOM     62  H   UNL A   1      43.136  31.012  29.267  1.00  0.00     0.167 HD
ATOM     63  C   UNL A   1      41.885  33.368  30.214  1.00  0.00     0.074 A 
ATOM     64  C   UNL A   1      40.872  34.269  30.720  1.00  0.00     0.031 C 
ATOM     65  C   UNL A   1      43.189  33.700  30.050  1.00  0.00     0.037 A 
BRANCH  52  66
ATOM     66  C   UNL A   1      46.730  29.049  28.080  1.00  0.00     0.064 A 
ATOM     67  C   UNL A   1      47.193  28.973  26.758  1.00  0.00     0.173 A 
ATOM     68  C   UNL A   1      47.610  28.681  29.107  1.00  0.00     0.173 A 
ATOM     69  F   UNL A   1      46.383  29.294  25.738  1.00  0.00    -0.203 F 
ATOM     70  C   UNL A   1      48.481  28.524  26.477  1.00  0.00     0.198 A 
ATOM     71  C   UNL A   1      48.907  28.265  28.825  1.00  0.00     0.198 A 
ATOM     72  F   UNL A   1      47.213  28.732  30.389  1.00  0.00    -0.203 F 
ATOM     73  F   UNL A   1      48.885  28.411  25.204  1.00  0.00    -0.200 F 
ATOM     74  C   UNL A   1      49.339  28.181  27.510  1.00  0.00     0.200 A 
ATOM     75  F   UNL A   1      49.739  27.946  29.826  1.00  0.00    -0.200 F 
ATOM     76  F   UNL A   1      50.582  27.762  27.238  1.00  0.00    -0.200 F 
ENDBRANCH  52  66
BRANCH  53  77
ATOM     77  C   UNL A   1      37.461  31.803  30.532  1.00  0.00     0.064 A 
ATOM     78  C   UNL A   1      36.500  32.258  29.616  1.00  0.00     0.173 A 
ATOM     79  C   UNL A   1      37.119  31.830  31.893  1.00  0.00     0.173 A 
ATOM     80  F   UNL A   1      36.783  32.280  28.305  1.00  0.00    -0.203 F 
ATOM     81  C   UNL A   1      35.272  32.762  30.045  1.00  0.00     0.198 A 
ATOM     82  C   UNL A   1      35.878  32.305  32.318  1.00  0.00     0.198 A 
ATOM     83  F   UNL A   1      37.996  31.410  32.816  1.00  0.00    -0.203 F 
ATOM     84  F   UNL A   1      34.406  33.260  29.151  1.00  0.00    -0.200 F 
ATOM     85  C   UNL A   1      34.962  32.785  31.396  1.00  0.00     0.200 A 
ATOM     86  F   UNL A   1      35.580  32.316  33.625  1.00  0.00    -0.200 F 
ATOM     87  F   UNL A   1      33.789  33.285  31.809  1.00  0.00    -0.200 F 
ENDBRANCH  53  77
BRANCH  65  88
ATOM     88  C   UNL A   1      43.591  35.114  30.357  1.00  0.00     0.064 A 
ATOM     89  C   UNL A   1      43.510  36.135  29.400  1.00  0.00     0.173 A 
ATOM     90  C   UNL A   1      44.021  35.459  31.649  1.00  0.00     0.173 A 
ATOM     91  F   UNL A   1      43.118  35.856  28.147  1.00  0.00    -0.203 F 
ATOM     92  C   UNL A   1      43.871  37.442  29.715  1.00  0.00     0.198 A 
ATOM     93  C   UNL A   1      44.343  36.774  31.971  1.00  0.00     0.198 A 
ATOM     94  F   UNL A   1      44.109  34.523  32.606  1.00  0.00    -0.203 F 
ATOM     95  F   UNL A   1      43.836  38.391  28.769  1.00  0.00    -0.200 F 
ATOM     96  C   UNL A   1      44.276  37.762  31.002  1.00  0.00     0.200 A 
ATOM     97  F   UNL A   1      44.716  37.084  33.220  1.00  0.00    -0.200 F 
ATOM     98  F   UNL A   1      44.611  39.024  31.307  1.00  0.00    -0.200 F 
ENDBRANCH  65  88
ENDBRANCH  39  40
ENDBRANCH  32  34
ENDBRANCH  31  32
ENDBRANCH  30  31
ENDBRANCH  29  30
ENDBRANCH  28  29
ENDBRANCH  27  28
ENDBRANCH  26  27
ENDBRANCH  25  26
ENDBRANCH   1  25
TORSDOF 23
ENDMDL
