MODEL 1
REMARK VINA RESULT:     -10.3      0.000      0.000
REMARK SMILES O=C(OCCOCCOCCOCCOC(=O)c1ccc(C(F)(F)F)nc1NC[C@@H]1CCOC1)c1ccc(-c2c3nc(c(-c4c(F)c(F)c(F)c(F)c4F)c4ccc([nH]4)c(-c4c(F)c(F)c(F)c(F)c4F)c4nc(c(-c5c(F)c(F)c(F)c(F)c5F)c5ccc2[nH]5)C=C4)C=C3)cc1
REMARK SMILES IDX 10 1 9 2 8 3 7 4 6 5 5 6 4 7 3 8 2 9 1 10 35 11 36 12 97 13
REMARK SMILES IDX 37 14 96 15 38 16 39 17 40 18 90 19 41 20 95 21 89 22 91 23
REMARK SMILES IDX 42 24 94 25 88 26 87 27 43 29 75 30 55 31 74 32 56 33 59 34
REMARK SMILES IDX 73 35 92 36 57 37 58 38 72 40 93 41 60 42 44 43 45 44 53 45
REMARK SMILES IDX 46 46 47 47 51 48 54 49 48 50 49 51 52 52 50 53 76 54 77 55
REMARK SMILES IDX 85 56 78 57 79 58 83 59 86 60 80 61 81 62 84 63 82 64 61 65
REMARK SMILES IDX 62 66 70 67 63 68 64 69 68 70 71 71 65 72 66 73 69 74 67 75
REMARK SMILES IDX 11 76 12 77 13 78 14 79 15 80 16 81 17 82 18 83 19 84 27 85
REMARK SMILES IDX 20 86 26 87 21 88 28 89 29 91 30 92 31 93 34 94 32 95 33 96
REMARK SMILES IDX 22 97 23 98 24 99 25 100
REMARK H PARENT 91 28 59 39 28 90
REMARK Flexibility Score: inf
ROOT
ATOM      1  C   UNL A   1      30.588  25.941  26.172  1.00  0.00     0.188 C 
ENDROOT
BRANCH   1   2
ATOM      2  O   UNL A   1      30.898  27.318  25.977  1.00  0.00    -0.377 OA
BRANCH   2   3
ATOM      3  C   UNL A   1      32.191  27.744  26.393  1.00  0.00     0.188 C 
BRANCH   3   4
ATOM      4  C   UNL A   1      33.054  28.299  25.266  1.00  0.00     0.188 C 
BRANCH   4   5
ATOM      5  O   UNL A   1      32.980  29.728  25.226  1.00  0.00    -0.376 OA
BRANCH   5   6
ATOM      6  C   UNL A   1      31.655  30.258  25.164  1.00  0.00     0.202 C 
BRANCH   6   7
ATOM      7  C   UNL A   1      31.431  31.451  26.092  1.00  0.00     0.261 C 
BRANCH   7   8
ATOM      8  O   UNL A   1      32.282  31.414  27.247  1.00  0.00    -0.460 OA
BRANCH   8   9
ATOM      9  C   UNL A   1      33.434  32.095  27.468  1.00  0.00     0.338 C 
ATOM     10  O   UNL A   1      33.425  33.313  27.288  1.00  0.00    -0.246 OA
BRANCH   9  11
ATOM     11  C   UNL A   1      34.717  31.478  27.947  1.00  0.00     0.060 A 
ATOM     12  C   UNL A   1      34.937  30.124  28.207  1.00  0.00     0.016 A 
ATOM     13  C   UNL A   1      35.802  32.357  28.131  1.00  0.00     0.016 A 
ATOM     14  C   UNL A   1      36.139  29.664  28.723  1.00  0.00     0.010 A 
ATOM     15  C   UNL A   1      37.026  31.905  28.637  1.00  0.00     0.010 A 
ATOM     16  C   UNL A   1      37.169  30.561  28.984  1.00  0.00    -0.014 A 
BRANCH  16  17
ATOM     17  C   UNL A   1      38.256  30.089  29.859  1.00  0.00     0.031 A 
ATOM     18  C   UNL A   1      39.289  29.193  29.244  1.00  0.00     0.074 A 
ATOM     19  C   UNL A   1      38.407  30.610  31.088  1.00  0.00     0.049 A 
ATOM     20  N   UNL A   1      40.348  28.649  29.778  1.00  0.00    -0.248 NA
ATOM     21  C   UNL A   1      39.117  28.890  27.811  1.00  0.00     0.031 C 
ATOM     22  C   UNL A   1      37.532  31.618  31.689  1.00  0.00     0.029 A 
ATOM     23  N   UNL A   1      39.375  30.398  32.030  1.00  0.00    -0.354 N 
ATOM     24  C   UNL A   1      40.941  27.912  28.760  1.00  0.00     0.074 A 
ATOM     25  C   UNL A   1      40.136  28.081  27.575  1.00  0.00     0.031 C 
ATOM     26  C   UNL A   1      38.021  31.958  32.893  1.00  0.00     0.029 A 
ATOM     27  C   UNL A   1      39.199  31.142  33.171  1.00  0.00     0.049 A 
ATOM     28  H   UNL A   1      40.125  29.774  31.903  1.00  0.00     0.167 HD
ATOM     29  C   UNL A   1      42.059  27.154  28.824  1.00  0.00     0.037 A 
ATOM     30  C   UNL A   1      39.906  31.128  34.317  1.00  0.00     0.037 A 
ATOM     31  C   UNL A   1      42.838  27.015  30.023  1.00  0.00     0.049 A 
ATOM     32  C   UNL A   1      41.081  30.188  34.400  1.00  0.00     0.074 A 
ATOM     33  C   UNL A   1      43.945  26.224  30.255  1.00  0.00     0.029 A 
ATOM     34  N   UNL A   1      42.573  27.700  31.204  1.00  0.00    -0.354 N 
ATOM     35  N   UNL A   1      41.596  29.421  33.466  1.00  0.00    -0.248 NA
ATOM     36  C   UNL A   1      41.761  30.096  35.696  1.00  0.00     0.031 C 
ATOM     37  C   UNL A   1      44.322  26.394  31.593  1.00  0.00     0.029 A 
ATOM     38  C   UNL A   1      43.485  27.335  32.177  1.00  0.00     0.049 A 
ATOM     39  H   UNL A   1      41.844  28.349  31.328  1.00  0.00     0.167 HD
ATOM     40  C   UNL A   1      42.671  28.770  34.053  1.00  0.00     0.074 A 
ATOM     41  C   UNL A   1      42.745  29.250  35.420  1.00  0.00     0.031 C 
ATOM     42  C   UNL A   1      43.522  27.856  33.522  1.00  0.00     0.037 A 
BRANCH  29  43
ATOM     43  C   UNL A   1      42.415  26.364  27.600  1.00  0.00     0.064 A 
ATOM     44  C   UNL A   1      41.827  25.123  27.310  1.00  0.00     0.173 A 
ATOM     45  C   UNL A   1      43.422  26.827  26.739  1.00  0.00     0.173 A 
ATOM     46  F   UNL A   1      40.886  24.616  28.120  1.00  0.00    -0.203 F 
ATOM     47  C   UNL A   1      42.263  24.358  26.229  1.00  0.00     0.198 A 
ATOM     48  C   UNL A   1      43.834  26.074  25.643  1.00  0.00     0.198 A 
ATOM     49  F   UNL A   1      44.025  28.001  26.975  1.00  0.00    -0.203 F 
ATOM     50  F   UNL A   1      41.740  23.142  26.016  1.00  0.00    -0.200 F 
ATOM     51  C   UNL A   1      43.264  24.834  25.395  1.00  0.00     0.200 A 
ATOM     52  F   UNL A   1      44.802  26.537  24.839  1.00  0.00    -0.200 F 
ATOM     53  F   UNL A   1      43.694  24.091  24.367  1.00  0.00    -0.200 F 
ENDBRANCH  29  43
BRANCH  30  54
ATOM     54  C   UNL A   1      39.501  31.980  35.467  1.00  0.00     0.064 A 
ATOM     55  C   UNL A   1      38.597  31.520  36.435  1.00  0.00     0.173 A 
ATOM     56  C   UNL A   1      39.995  33.287  35.615  1.00  0.00     0.173 A 
ATOM     57  F   UNL A   1      38.075  30.289  36.331  1.00  0.00    -0.203 F 
ATOM     58  C   UNL A   1      38.194  32.335  37.493  1.00  0.00     0.198 A 
ATOM     59  C   UNL A   1      39.616  34.089  36.688  1.00  0.00     0.198 A 
ATOM     60  F   UNL A   1      40.855  33.786  34.714  1.00  0.00    -0.203 F 
ATOM     61  F   UNL A   1      37.291  31.886  38.376  1.00  0.00    -0.200 F 
ATOM     62  C   UNL A   1      38.708  33.616  37.623  1.00  0.00     0.200 A 
ATOM     63  F   UNL A   1      40.126  35.322  36.813  1.00  0.00    -0.200 F 
ATOM     64  F   UNL A   1      38.321  34.399  38.639  1.00  0.00    -0.200 F 
ENDBRANCH  30  54
BRANCH  42  65
ATOM     65  C   UNL A   1      44.621  27.360  34.411  1.00  0.00     0.064 A 
ATOM     66  C   UNL A   1      45.882  27.973  34.433  1.00  0.00     0.173 A 
ATOM     67  C   UNL A   1      44.390  26.286  35.283  1.00  0.00     0.173 A 
ATOM     68  F   UNL A   1      46.151  28.994  33.605  1.00  0.00    -0.203 F 
ATOM     69  C   UNL A   1      46.882  27.509  35.281  1.00  0.00     0.198 A 
ATOM     70  C   UNL A   1      45.382  25.847  36.152  1.00  0.00     0.198 A 
ATOM     71  F   UNL A   1      43.196  25.675  35.302  1.00  0.00    -0.203 F 
ATOM     72  F   UNL A   1      48.097  28.076  35.252  1.00  0.00    -0.200 F 
ATOM     73  C   UNL A   1      46.630  26.454  36.144  1.00  0.00     0.200 A 
ATOM     74  F   UNL A   1      45.131  24.838  36.997  1.00  0.00    -0.200 F 
ATOM     75  F   UNL A   1      47.592  26.015  36.967  1.00  0.00    -0.200 F 
ENDBRANCH  42  65
ENDBRANCH  16  17
ENDBRANCH   9  11
ENDBRANCH   8   9
ENDBRANCH   7   8
ENDBRANCH   6   7
ENDBRANCH   5   6
ENDBRANCH   4   5
ENDBRANCH   3   4
ENDBRANCH   2   3
ENDBRANCH   1   2
BRANCH   1  76
ATOM     76  C   UNL A   1      31.751  24.981  26.498  1.00  0.00     0.188 C 
BRANCH  76  77
ATOM     77  O   UNL A   1      31.358  23.878  27.302  1.00  0.00    -0.376 OA
BRANCH  77  78
ATOM     78  C   UNL A   1      30.773  22.789  26.607  1.00  0.00     0.202 C 
BRANCH  78  79
ATOM     79  C   UNL A   1      31.132  22.651  25.120  1.00  0.00     0.261 C 
BRANCH  79  80
ATOM     80  O   UNL A   1      31.822  21.453  24.716  1.00  0.00    -0.460 OA
BRANCH  80  81
ATOM     81  C   UNL A   1      32.750  21.498  23.732  1.00  0.00     0.341 C 
ATOM     82  O   UNL A   1      32.565  21.299  22.544  1.00  0.00    -0.246 OA
BRANCH  81  83
ATOM     83  C   UNL A   1      34.021  21.958  24.343  1.00  0.00     0.102 A 
ATOM     84  C   UNL A   1      34.532  23.210  23.963  1.00  0.00     0.022 A 
ATOM     85  C   UNL A   1      34.788  21.135  25.178  1.00  0.00     0.141 A 
ATOM     86  C   UNL A   1      35.765  23.635  24.449  1.00  0.00     0.034 A 
ATOM     87  N   UNL A   1      35.986  21.569  25.644  1.00  0.00    -0.226 NA
ATOM     88  C   UNL A   1      36.464  22.801  25.312  1.00  0.00     0.146 A 
BRANCH  85  89
ATOM     89  N   UNL A   1      34.464  19.813  25.449  1.00  0.00    -0.369 N 
ATOM     90  H   UNL A   1      33.806  19.603  26.151  1.00  0.00     0.162 HD
BRANCH  89  91
ATOM     91  C   UNL A   1      35.096  18.734  24.695  1.00  0.00     0.120 C 
BRANCH  91  92
ATOM     92  C   UNL A   1      34.277  17.433  24.592  1.00  0.00     0.036 C 
ATOM     93  C   UNL A   1      34.018  16.997  23.162  1.00  0.00     0.036 C 
ATOM     94  C   UNL A   1      32.862  17.524  25.124  1.00  0.00     0.165 C 
ATOM     95  C   UNL A   1      32.709  17.672  22.809  1.00  0.00     0.160 C 
ATOM     96  O   UNL A   1      32.089  18.068  24.042  1.00  0.00    -0.381 OA
ENDBRANCH  91  92
ENDBRANCH  89  91
ENDBRANCH  85  89
BRANCH  88  97
ATOM     97  C   UNL A   1      37.798  23.236  25.903  1.00  0.00     0.433 C 
ATOM     98  F   UNL A   1      37.757  23.392  27.258  1.00  0.00    -0.165 F 
ATOM     99  F   UNL A   1      38.805  22.348  25.659  1.00  0.00    -0.165 F 
ATOM    100  F   UNL A   1      38.240  24.434  25.415  1.00  0.00    -0.165 F 
ENDBRANCH  88  97
ENDBRANCH  81  83
ENDBRANCH  80  81
ENDBRANCH  79  80
ENDBRANCH  78  79
ENDBRANCH  77  78
ENDBRANCH  76  77
ENDBRANCH   1  76
TORSDOF 24
ENDMDL
MODEL 2
REMARK VINA RESULT:     -10.2      5.099      8.679
REMARK SMILES O=C(OCCOCCOCCOCCOC(=O)c1ccc(C(F)(F)F)nc1NC[C@@H]1CCOC1)c1ccc(-c2c3nc(c(-c4c(F)c(F)c(F)c(F)c4F)c4ccc([nH]4)c(-c4c(F)c(F)c(F)c(F)c4F)c4nc(c(-c5c(F)c(F)c(F)c(F)c5F)c5ccc2[nH]5)C=C4)C=C3)cc1
REMARK SMILES IDX 10 1 9 2 8 3 7 4 6 5 5 6 4 7 3 8 2 9 1 10 35 11 36 12 97 13
REMARK SMILES IDX 37 14 96 15 38 16 39 17 40 18 90 19 41 20 95 21 89 22 91 23
REMARK SMILES IDX 42 24 94 25 88 26 87 27 43 29 75 30 55 31 74 32 56 33 59 34
REMARK SMILES IDX 73 35 92 36 57 37 58 38 72 40 93 41 60 42 44 43 45 44 53 45
REMARK SMILES IDX 46 46 47 47 51 48 54 49 48 50 49 51 52 52 50 53 76 54 77 55
REMARK SMILES IDX 85 56 78 57 79 58 83 59 86 60 80 61 81 62 84 63 82 64 61 65
REMARK SMILES IDX 62 66 70 67 63 68 64 69 68 70 71 71 65 72 66 73 69 74 67 75
REMARK SMILES IDX 11 76 12 77 13 78 14 79 15 80 16 81 17 82 18 83 19 84 27 85
REMARK SMILES IDX 20 86 26 87 21 88 28 89 29 91 30 92 31 93 34 94 32 95 33 96
REMARK SMILES IDX 22 97 23 98 24 99 25 100
REMARK H PARENT 91 28 59 39 28 90
REMARK Flexibility Score: inf
ROOT
ATOM      1  C   UNL A   1      34.803  23.593  24.760  1.00  0.00     0.188 C 
ENDROOT
BRANCH   1   2
ATOM      2  O   UNL A   1      35.606  23.894  25.898  1.00  0.00    -0.377 OA
BRANCH   2   3
ATOM      3  C   UNL A   1      36.998  23.618  25.786  1.00  0.00     0.188 C 
BRANCH   3   4
ATOM      4  C   UNL A   1      37.323  22.417  24.904  1.00  0.00     0.188 C 
BRANCH   4   5
ATOM      5  O   UNL A   1      37.738  21.301  25.700  1.00  0.00    -0.376 OA
BRANCH   5   6
ATOM      6  C   UNL A   1      38.055  20.122  24.959  1.00  0.00     0.202 C 
BRANCH   6   7
ATOM      7  C   UNL A   1      39.080  19.224  25.650  1.00  0.00     0.261 C 
BRANCH   7   8
ATOM      8  O   UNL A   1      40.402  19.781  25.621  1.00  0.00    -0.460 OA
BRANCH   8   9
ATOM      9  C   UNL A   1      41.136  20.267  26.653  1.00  0.00     0.338 C 
ATOM     10  O   UNL A   1      41.831  19.473  27.288  1.00  0.00    -0.246 OA
BRANCH   9  11
ATOM     11  C   UNL A   1      41.190  21.711  27.063  1.00  0.00     0.060 A 
ATOM     12  C   UNL A   1      40.654  22.791  26.359  1.00  0.00     0.016 A 
ATOM     13  C   UNL A   1      41.831  21.990  28.286  1.00  0.00     0.016 A 
ATOM     14  C   UNL A   1      40.826  24.100  26.784  1.00  0.00     0.010 A 
ATOM     15  C   UNL A   1      42.000  23.304  28.735  1.00  0.00     0.010 A 
ATOM     16  C   UNL A   1      41.540  24.362  27.948  1.00  0.00    -0.014 A 
BRANCH  16  17
ATOM     17  C   UNL A   1      42.005  25.745  28.145  1.00  0.00     0.031 A 
ATOM     18  C   UNL A   1      43.302  26.129  27.498  1.00  0.00     0.074 A 
ATOM     19  C   UNL A   1      41.194  26.655  28.709  1.00  0.00     0.049 A 
ATOM     20  N   UNL A   1      43.931  27.273  27.501  1.00  0.00    -0.248 NA
ATOM     21  C   UNL A   1      43.973  25.079  26.710  1.00  0.00     0.031 C 
ATOM     22  C   UNL A   1      39.845  26.387  29.209  1.00  0.00     0.029 A 
ATOM     23  N   UNL A   1      41.369  27.997  28.912  1.00  0.00    -0.354 N 
ATOM     24  C   UNL A   1      45.082  27.066  26.752  1.00  0.00     0.074 A 
ATOM     25  C   UNL A   1      45.069  25.695  26.302  1.00  0.00     0.031 C 
ATOM     26  C   UNL A   1      39.303  27.538  29.640  1.00  0.00     0.029 A 
ATOM     27  C   UNL A   1      40.291  28.603  29.508  1.00  0.00     0.049 A 
ATOM     28  H   UNL A   1      42.188  28.479  28.658  1.00  0.00     0.167 HD
ATOM     29  C   UNL A   1      46.067  27.951  26.478  1.00  0.00     0.037 A 
ATOM     30  C   UNL A   1      40.149  29.877  29.920  1.00  0.00     0.037 A 
ATOM     31  C   UNL A   1      46.044  29.311  26.940  1.00  0.00     0.049 A 
ATOM     32  C   UNL A   1      41.309  30.814  29.704  1.00  0.00     0.074 A 
ATOM     33  C   UNL A   1      47.004  30.294  26.805  1.00  0.00     0.029 A 
ATOM     34  N   UNL A   1      44.981  29.874  27.639  1.00  0.00    -0.354 N 
ATOM     35  N   UNL A   1      42.441  30.600  29.073  1.00  0.00    -0.248 NA
ATOM     36  C   UNL A   1      41.183  32.161  30.271  1.00  0.00     0.031 C 
ATOM     37  C   UNL A   1      46.541  31.439  27.465  1.00  0.00     0.029 A 
ATOM     38  C   UNL A   1      45.269  31.187  27.960  1.00  0.00     0.049 A 
ATOM     39  H   UNL A   1      44.146  29.406  27.869  1.00  0.00     0.167 HD
ATOM     40  C   UNL A   1      43.154  31.786  29.148  1.00  0.00     0.074 A 
ATOM     41  C   UNL A   1      42.315  32.724  29.871  1.00  0.00     0.031 C 
ATOM     42  C   UNL A   1      44.390  32.083  28.672  1.00  0.00     0.037 A 
BRANCH  29  43
ATOM     43  C   UNL A   1      47.265  27.428  25.742  1.00  0.00     0.064 A 
ATOM     44  C   UNL A   1      48.363  26.854  26.403  1.00  0.00     0.173 A 
ATOM     45  C   UNL A   1      47.346  27.575  24.348  1.00  0.00     0.173 A 
ATOM     46  F   UNL A   1      48.353  26.724  27.738  1.00  0.00    -0.203 F 
ATOM     47  C   UNL A   1      49.509  26.485  25.702  1.00  0.00     0.198 A 
ATOM     48  C   UNL A   1      48.482  27.178  23.647  1.00  0.00     0.198 A 
ATOM     49  F   UNL A   1      46.331  28.127  23.667  1.00  0.00    -0.203 F 
ATOM     50  F   UNL A   1      50.574  26.010  26.364  1.00  0.00    -0.200 F 
ATOM     51  C   UNL A   1      49.568  26.646  24.325  1.00  0.00     0.200 A 
ATOM     52  F   UNL A   1      48.535  27.334  22.317  1.00  0.00    -0.200 F 
ATOM     53  F   UNL A   1      50.677  26.307  23.655  1.00  0.00    -0.200 F 
ENDBRANCH  29  43
BRANCH  30  54
ATOM     54  C   UNL A   1      38.904  30.317  30.607  1.00  0.00     0.064 A 
ATOM     55  C   UNL A   1      38.807  30.332  32.005  1.00  0.00     0.173 A 
ATOM     56  C   UNL A   1      37.771  30.714  29.877  1.00  0.00     0.173 A 
ATOM     57  F   UNL A   1      39.849  29.939  32.752  1.00  0.00    -0.203 F 
ATOM     58  C   UNL A   1      37.626  30.711  32.644  1.00  0.00     0.198 A 
ATOM     59  C   UNL A   1      36.603  31.123  30.515  1.00  0.00     0.198 A 
ATOM     60  F   UNL A   1      37.802  30.711  28.536  1.00  0.00    -0.203 F 
ATOM     61  F   UNL A   1      37.546  30.669  33.981  1.00  0.00    -0.200 F 
ATOM     62  C   UNL A   1      36.527  31.113  31.900  1.00  0.00     0.200 A 
ATOM     63  F   UNL A   1      35.549  31.521  29.790  1.00  0.00    -0.200 F 
ATOM     64  F   UNL A   1      35.394  31.478  32.513  1.00  0.00    -0.200 F 
ENDBRANCH  30  54
BRANCH  42  65
ATOM     65  C   UNL A   1      44.876  33.484  28.881  1.00  0.00     0.064 A 
ATOM     66  C   UNL A   1      45.656  33.834  29.993  1.00  0.00     0.173 A 
ATOM     67  C   UNL A   1      44.593  34.477  27.931  1.00  0.00     0.173 A 
ATOM     68  F   UNL A   1      45.938  32.920  30.934  1.00  0.00    -0.203 F 
ATOM     69  C   UNL A   1      46.113  35.137  30.158  1.00  0.00     0.198 A 
ATOM     70  C   UNL A   1      45.080  35.770  28.084  1.00  0.00     0.198 A 
ATOM     71  F   UNL A   1      43.858  34.185  26.847  1.00  0.00    -0.203 F 
ATOM     72  F   UNL A   1      46.815  35.464  31.252  1.00  0.00    -0.200 F 
ATOM     73  C   UNL A   1      45.833  36.100  29.201  1.00  0.00     0.200 A 
ATOM     74  F   UNL A   1      44.822  36.694  27.149  1.00  0.00    -0.200 F 
ATOM     75  F   UNL A   1      46.283  37.353  29.357  1.00  0.00    -0.200 F 
ENDBRANCH  42  65
ENDBRANCH  16  17
ENDBRANCH   9  11
ENDBRANCH   8   9
ENDBRANCH   7   8
ENDBRANCH   6   7
ENDBRANCH   5   6
ENDBRANCH   4   5
ENDBRANCH   3   4
ENDBRANCH   2   3
ENDBRANCH   1   2
BRANCH   1  76
ATOM     76  C   UNL A   1      33.452  24.326  24.619  1.00  0.00     0.188 C 
BRANCH  76  77
ATOM     77  O   UNL A   1      32.694  23.888  23.501  1.00  0.00    -0.376 OA
BRANCH  77  78
ATOM     78  C   UNL A   1      32.968  24.548  22.276  1.00  0.00     0.202 C 
BRANCH  78  79
ATOM     79  C   UNL A   1      31.892  25.516  21.762  1.00  0.00     0.261 C 
BRANCH  79  80
ATOM     80  O   UNL A   1      31.589  26.661  22.582  1.00  0.00    -0.460 OA
BRANCH  80  81
ATOM     81  C   UNL A   1      30.553  26.622  23.452  1.00  0.00     0.341 C 
ATOM     82  O   UNL A   1      30.264  25.707  24.203  1.00  0.00    -0.246 OA
BRANCH  81  83
ATOM     83  C   UNL A   1      29.896  27.952  23.417  1.00  0.00     0.102 A 
ATOM     84  C   UNL A   1      28.525  28.013  23.120  1.00  0.00     0.022 A 
ATOM     85  C   UNL A   1      30.620  29.145  23.540  1.00  0.00     0.141 A 
ATOM     86  C   UNL A   1      27.895  29.248  22.993  1.00  0.00     0.034 A 
ATOM     87  N   UNL A   1      29.987  30.339  23.416  1.00  0.00    -0.226 NA
ATOM     88  C   UNL A   1      28.647  30.401  23.171  1.00  0.00     0.146 A 
BRANCH  85  89
ATOM     89  N   UNL A   1      32.003  29.189  23.637  1.00  0.00    -0.369 N 
ATOM     90  H   UNL A   1      32.542  29.451  22.854  1.00  0.00     0.162 HD
BRANCH  89  91
ATOM     91  C   UNL A   1      32.662  28.849  24.894  1.00  0.00     0.120 C 
BRANCH  91  92
ATOM     92  C   UNL A   1      31.916  29.284  26.170  1.00  0.00     0.036 C 
ATOM     93  C   UNL A   1      31.984  30.777  26.428  1.00  0.00     0.036 C 
ATOM     94  C   UNL A   1      32.492  28.744  27.463  1.00  0.00     0.165 C 
ATOM     95  C   UNL A   1      33.227  30.942  27.278  1.00  0.00     0.160 C 
ATOM     96  O   UNL A   1      33.555  29.647  27.805  1.00  0.00    -0.381 OA
ENDBRANCH  91  92
ENDBRANCH  89  91
ENDBRANCH  85  89
BRANCH  88  97
ATOM     97  C   UNL A   1      27.998  31.775  23.081  1.00  0.00     0.433 C 
ATOM     98  F   UNL A   1      27.751  32.166  21.797  1.00  0.00    -0.165 F 
ATOM     99  F   UNL A   1      26.799  31.843  23.730  1.00  0.00    -0.165 F 
ATOM    100  F   UNL A   1      28.762  32.770  23.621  1.00  0.00    -0.165 F 
ENDBRANCH  88  97
ENDBRANCH  81  83
ENDBRANCH  80  81
ENDBRANCH  79  80
ENDBRANCH  78  79
ENDBRANCH  77  78
ENDBRANCH  76  77
ENDBRANCH   1  76
TORSDOF 24
ENDMDL
MODEL 3
REMARK VINA RESULT:     -10.2      0.940      2.120
REMARK SMILES O=C(OCCOCCOCCOCCOC(=O)c1ccc(C(F)(F)F)nc1NC[C@@H]1CCOC1)c1ccc(-c2c3nc(c(-c4c(F)c(F)c(F)c(F)c4F)c4ccc([nH]4)c(-c4c(F)c(F)c(F)c(F)c4F)c4nc(c(-c5c(F)c(F)c(F)c(F)c5F)c5ccc2[nH]5)C=C4)C=C3)cc1
REMARK SMILES IDX 10 1 9 2 8 3 7 4 6 5 5 6 4 7 3 8 2 9 1 10 35 11 36 12 97 13
REMARK SMILES IDX 37 14 96 15 38 16 39 17 40 18 90 19 41 20 95 21 89 22 91 23
REMARK SMILES IDX 42 24 94 25 88 26 87 27 43 29 75 30 55 31 74 32 56 33 59 34
REMARK SMILES IDX 73 35 92 36 57 37 58 38 72 40 93 41 60 42 44 43 45 44 53 45
REMARK SMILES IDX 46 46 47 47 51 48 54 49 48 50 49 51 52 52 50 53 76 54 77 55
REMARK SMILES IDX 85 56 78 57 79 58 83 59 86 60 80 61 81 62 84 63 82 64 61 65
REMARK SMILES IDX 62 66 70 67 63 68 64 69 68 70 71 71 65 72 66 73 69 74 67 75
REMARK SMILES IDX 11 76 12 77 13 78 14 79 15 80 16 81 17 82 18 83 19 84 27 85
REMARK SMILES IDX 20 86 26 87 21 88 28 89 29 91 30 92 31 93 34 94 32 95 33 96
REMARK SMILES IDX 22 97 23 98 24 99 25 100
REMARK H PARENT 91 28 59 39 28 90
REMARK Flexibility Score: inf
ROOT
ATOM      1  C   UNL A   1      32.023  25.772  22.164  1.00  0.00     0.188 C 
ENDROOT
BRANCH   1   2
ATOM      2  O   UNL A   1      32.100  26.780  23.168  1.00  0.00    -0.377 OA
BRANCH   2   3
ATOM      3  C   UNL A   1      31.721  26.395  24.485  1.00  0.00     0.188 C 
BRANCH   3   4
ATOM      4  C   UNL A   1      31.290  27.558  25.372  1.00  0.00     0.188 C 
BRANCH   4   5
ATOM      5  O   UNL A   1      31.670  28.809  24.788  1.00  0.00    -0.376 OA
BRANCH   5   6
ATOM      6  C   UNL A   1      32.446  29.656  25.636  1.00  0.00     0.202 C 
BRANCH   6   7
ATOM      7  C   UNL A   1      31.756  30.977  25.977  1.00  0.00     0.261 C 
BRANCH   7   8
ATOM      8  O   UNL A   1      32.160  31.492  27.253  1.00  0.00    -0.460 OA
BRANCH   8   9
ATOM      9  C   UNL A   1      33.285  32.182  27.567  1.00  0.00     0.338 C 
ATOM     10  O   UNL A   1      33.248  33.410  27.484  1.00  0.00    -0.246 OA
BRANCH   9  11
ATOM     11  C   UNL A   1      34.570  31.561  28.038  1.00  0.00     0.060 A 
ATOM     12  C   UNL A   1      34.785  30.208  28.305  1.00  0.00     0.016 A 
ATOM     13  C   UNL A   1      35.661  32.436  28.207  1.00  0.00     0.016 A 
ATOM     14  C   UNL A   1      35.989  29.744  28.813  1.00  0.00     0.010 A 
ATOM     15  C   UNL A   1      36.886  31.981  28.706  1.00  0.00     0.010 A 
ATOM     16  C   UNL A   1      37.026  30.638  29.060  1.00  0.00    -0.014 A 
BRANCH  16  17
ATOM     17  C   UNL A   1      38.117  30.166  29.929  1.00  0.00     0.031 A 
ATOM     18  C   UNL A   1      39.153  29.279  29.304  1.00  0.00     0.074 A 
ATOM     19  C   UNL A   1      38.270  30.680  31.160  1.00  0.00     0.049 A 
ATOM     20  N   UNL A   1      40.216  28.736  29.832  1.00  0.00    -0.248 NA
ATOM     21  C   UNL A   1      38.978  28.983  27.870  1.00  0.00     0.031 C 
ATOM     22  C   UNL A   1      37.393  31.681  31.770  1.00  0.00     0.029 A 
ATOM     23  N   UNL A   1      39.243  30.468  32.098  1.00  0.00    -0.354 N 
ATOM     24  C   UNL A   1      40.809  28.009  28.807  1.00  0.00     0.074 A 
ATOM     25  C   UNL A   1      39.999  28.180  27.626  1.00  0.00     0.031 C 
ATOM     26  C   UNL A   1      37.885  32.015  32.974  1.00  0.00     0.029 A 
ATOM     27  C   UNL A   1      39.067  31.203  33.243  1.00  0.00     0.049 A 
ATOM     28  H   UNL A   1      39.995  29.847  31.964  1.00  0.00     0.167 HD
ATOM     29  C   UNL A   1      41.931  27.255  28.863  1.00  0.00     0.037 A 
ATOM     30  C   UNL A   1      39.778  31.186  34.387  1.00  0.00     0.037 A 
ATOM     31  C   UNL A   1      42.715  27.112  30.058  1.00  0.00     0.049 A 
ATOM     32  C   UNL A   1      40.958  30.251  34.460  1.00  0.00     0.074 A 
ATOM     33  C   UNL A   1      43.826  26.325  30.282  1.00  0.00     0.029 A 
ATOM     34  N   UNL A   1      42.451  27.789  31.245  1.00  0.00    -0.354 N 
ATOM     35  N   UNL A   1      41.473  29.492  33.520  1.00  0.00    -0.248 NA
ATOM     36  C   UNL A   1      41.643  30.155  35.753  1.00  0.00     0.031 C 
ATOM     37  C   UNL A   1      44.206  26.489  31.619  1.00  0.00     0.029 A 
ATOM     38  C   UNL A   1      43.368  27.423  32.212  1.00  0.00     0.049 A 
ATOM     39  H   UNL A   1      41.719  28.434  31.375  1.00  0.00     0.167 HD
ATOM     40  C   UNL A   1      42.553  28.843  34.099  1.00  0.00     0.074 A 
ATOM     41  C   UNL A   1      42.629  29.315  35.469  1.00  0.00     0.031 C 
ATOM     42  C   UNL A   1      43.406  27.935  33.560  1.00  0.00     0.037 A 
BRANCH  29  43
ATOM     43  C   UNL A   1      42.286  26.474  27.633  1.00  0.00     0.064 A 
ATOM     44  C   UNL A   1      41.706  25.230  27.339  1.00  0.00     0.173 A 
ATOM     45  C   UNL A   1      43.286  26.948  26.769  1.00  0.00     0.173 A 
ATOM     46  F   UNL A   1      40.771  24.713  28.151  1.00  0.00    -0.203 F 
ATOM     47  C   UNL A   1      42.141  24.475  26.252  1.00  0.00     0.198 A 
ATOM     48  C   UNL A   1      43.698  26.204  25.667  1.00  0.00     0.198 A 
ATOM     49  F   UNL A   1      43.883  28.125  27.009  1.00  0.00    -0.203 F 
ATOM     50  F   UNL A   1      41.625  23.256  26.034  1.00  0.00    -0.200 F 
ATOM     51  C   UNL A   1      43.135  24.962  25.416  1.00  0.00     0.200 A 
ATOM     52  F   UNL A   1      44.659  26.678  24.862  1.00  0.00    -0.200 F 
ATOM     53  F   UNL A   1      43.565  24.227  24.381  1.00  0.00    -0.200 F 
ENDBRANCH  29  43
BRANCH  30  54
ATOM     54  C   UNL A   1      39.373  32.029  35.543  1.00  0.00     0.064 A 
ATOM     55  C   UNL A   1      39.885  33.323  35.720  1.00  0.00     0.173 A 
ATOM     56  C   UNL A   1      38.478  31.552  36.514  1.00  0.00     0.173 A 
ATOM     57  F   UNL A   1      40.764  33.820  34.837  1.00  0.00    -0.203 F 
ATOM     58  C   UNL A   1      39.530  34.096  36.825  1.00  0.00     0.198 A 
ATOM     59  C   UNL A   1      38.099  32.336  37.601  1.00  0.00     0.198 A 
ATOM     60  F   UNL A   1      37.962  30.318  36.404  1.00  0.00    -0.203 F 
ATOM     61  F   UNL A   1      40.073  35.310  36.994  1.00  0.00    -0.200 F 
ATOM     62  C   UNL A   1      38.632  33.606  37.761  1.00  0.00     0.200 A 
ATOM     63  F   UNL A   1      37.222  31.860  38.495  1.00  0.00    -0.200 F 
ATOM     64  F   UNL A   1      38.290  34.349  38.822  1.00  0.00    -0.200 F 
ENDBRANCH  30  54
BRANCH  42  65
ATOM     65  C   UNL A   1      44.511  27.440  34.442  1.00  0.00     0.064 A 
ATOM     66  C   UNL A   1      44.376  26.269  35.203  1.00  0.00     0.173 A 
ATOM     67  C   UNL A   1      45.735  28.123  34.488  1.00  0.00     0.173 A 
ATOM     68  F   UNL A   1      43.217  25.592  35.200  1.00  0.00    -0.203 F 
ATOM     69  C   UNL A   1      45.422  25.816  36.000  1.00  0.00     0.198 A 
ATOM     70  C   UNL A   1      46.788  27.648  35.260  1.00  0.00     0.198 A 
ATOM     71  F   UNL A   1      45.912  29.242  33.769  1.00  0.00    -0.203 F 
ATOM     72  F   UNL A   1      45.257  24.724  36.759  1.00  0.00    -0.200 F 
ATOM     73  C   UNL A   1      46.628  26.500  36.022  1.00  0.00     0.200 A 
ATOM     74  F   UNL A   1      47.959  28.301  35.266  1.00  0.00    -0.200 F 
ATOM     75  F   UNL A   1      47.637  26.056  36.783  1.00  0.00    -0.200 F 
ENDBRANCH  42  65
ENDBRANCH  16  17
ENDBRANCH   9  11
ENDBRANCH   8   9
ENDBRANCH   7   8
ENDBRANCH   6   7
ENDBRANCH   5   6
ENDBRANCH   4   5
ENDBRANCH   3   4
ENDBRANCH   2   3
ENDBRANCH   1   2
BRANCH   1  76
ATOM     76  C   UNL A   1      33.290  24.938  21.883  1.00  0.00     0.188 C 
BRANCH  76  77
ATOM     77  O   UNL A   1      33.005  23.606  21.481  1.00  0.00    -0.376 OA
BRANCH  77  78
ATOM     78  C   UNL A   1      33.046  22.631  22.510  1.00  0.00     0.202 C 
BRANCH  78  79
ATOM     79  C   UNL A   1      31.787  22.495  23.379  1.00  0.00     0.261 C 
BRANCH  79  80
ATOM     80  O   UNL A   1      31.928  21.827  24.647  1.00  0.00    -0.460 OA
BRANCH  80  81
ATOM     81  C   UNL A   1      32.181  22.540  25.770  1.00  0.00     0.341 C 
ATOM     82  O   UNL A   1      31.369  22.904  26.601  1.00  0.00    -0.246 OA
BRANCH  81  83
ATOM     83  C   UNL A   1      33.653  22.695  25.873  1.00  0.00     0.102 A 
ATOM     84  C   UNL A   1      34.204  23.976  25.703  1.00  0.00     0.022 A 
ATOM     85  C   UNL A   1      34.512  21.596  26.001  1.00  0.00     0.141 A 
ATOM     86  C   UNL A   1      35.585  24.145  25.707  1.00  0.00     0.034 A 
ATOM     87  N   UNL A   1      35.856  21.782  26.005  1.00  0.00    -0.226 NA
ATOM     88  C   UNL A   1      36.392  23.030  25.885  1.00  0.00     0.146 A 
BRANCH  85  89
ATOM     89  N   UNL A   1      34.073  20.280  25.976  1.00  0.00    -0.369 N 
ATOM     90  H   UNL A   1      33.603  19.904  26.756  1.00  0.00     0.162 HD
BRANCH  89  91
ATOM     91  C   UNL A   1      34.305  19.452  24.796  1.00  0.00     0.120 C 
BRANCH  91  92
ATOM     92  C   UNL A   1      33.148  18.510  24.411  1.00  0.00     0.036 C 
ATOM     93  C   UNL A   1      32.696  17.615  25.550  1.00  0.00     0.036 C 
ATOM     94  C   UNL A   1      33.487  17.480  23.354  1.00  0.00     0.165 C 
ATOM     95  C   UNL A   1      33.556  16.377  25.399  1.00  0.00     0.160 C 
ATOM     96  O   UNL A   1      34.099  16.396  24.070  1.00  0.00    -0.381 OA
ENDBRANCH  91  92
ENDBRANCH  89  91
ENDBRANCH  85  89
BRANCH  88  97
ATOM     97  C   UNL A   1      37.907  23.166  25.936  1.00  0.00     0.433 C 
ATOM     98  F   UNL A   1      38.559  22.045  25.511  1.00  0.00    -0.165 F 
ATOM     99  F   UNL A   1      38.378  24.188  25.163  1.00  0.00    -0.165 F 
ATOM    100  F   UNL A   1      38.386  23.408  27.192  1.00  0.00    -0.165 F 
ENDBRANCH  88  97
ENDBRANCH  81  83
ENDBRANCH  80  81
ENDBRANCH  79  80
ENDBRANCH  78  79
ENDBRANCH  77  78
ENDBRANCH  76  77
ENDBRANCH   1  76
TORSDOF 24
ENDMDL
