MODEL 1
REMARK VINA RESULT:     -10.7      0.000      0.000
REMARK SMILES Cc1cc(C(=O)N[C@H]2C=C[C@H](C(=O)OCCOCCOCCOCCOC(=O)c3ccc(-c4c5nc(c(-c6c(F)c(F)c(F)c(F)c6F)c6ccc([nH]6)c(-c6c(F)c(F)c(F)c(F)c6F)c6nc(c(-c7c(F)c(F)c(F)c(F)c7F)c7ccc4[nH]7)C=C6)C=C5)cc3)C2)ccc1F
REMARK SMILES IDX 20 1 19 2 18 3 17 4 16 5 15 6 14 7 12 8 13 9 11 10 8 11 9 12
REMARK SMILES IDX 92 13 10 14 7 15 5 16 6 17 4 19 1 20 2 21 3 22 95 23 94 24
REMARK SMILES IDX 96 25 93 26 21 27 22 28 23 29 24 30 25 31 26 32 27 33 28 34
REMARK SMILES IDX 29 35 30 36 91 37 31 38 90 39 32 40 33 41 34 42 84 43 35 44
REMARK SMILES IDX 89 45 83 46 85 47 36 48 88 49 82 50 81 51 37 53 69 54 49 55
REMARK SMILES IDX 68 56 50 57 53 58 67 59 86 60 51 61 52 62 66 64 87 65 54 66
REMARK SMILES IDX 38 67 39 68 47 69 40 70 41 71 45 72 48 73 42 74 43 75 46 76
REMARK SMILES IDX 44 77 70 78 71 79 79 80 72 81 73 82 77 83 80 84 74 85 75 86
REMARK SMILES IDX 78 87 76 88 55 89 56 90 64 91 57 92 58 93 62 94 65 95 59 96
REMARK SMILES IDX 60 97 63 98 61 99
REMARK H PARENT 7 18 85 52 53 63
REMARK Flexibility Score: inf
ROOT
ATOM      1  O   UNL A   1      33.988  35.584  30.492  1.00  0.00    -0.377 OA
ENDROOT
BRANCH   1   2
ATOM      2  C   UNL A   1      33.451  35.958  29.230  1.00  0.00     0.188 C 
BRANCH   2   3
ATOM      3  C   UNL A   1      33.024  34.846  28.250  1.00  0.00     0.188 C 
BRANCH   3   4
ATOM      4  O   UNL A   1      33.438  33.537  28.586  1.00  0.00    -0.376 OA
BRANCH   4   5
ATOM      5  C   UNL A   1      33.718  32.570  27.586  1.00  0.00     0.202 C 
BRANCH   5   6
ATOM      6  C   UNL A   1      32.842  31.326  27.327  1.00  0.00     0.261 C 
BRANCH   6   7
ATOM      7  O   UNL A   1      33.545  30.088  27.203  1.00  0.00    -0.463 OA
BRANCH   7   8
ATOM      8  C   UNL A   1      33.222  29.302  26.150  1.00  0.00     0.312 C 
ATOM      9  O   UNL A   1      34.041  28.863  25.353  1.00  0.00    -0.252 OA
BRANCH   8  10
ATOM     10  C   UNL A   1      31.739  28.903  26.201  1.00  0.00     0.124 C 
ATOM     11  C   UNL A   1      31.972  26.536  26.361  1.00  0.00     0.106 C 
ATOM     12  C   UNL A   1      31.296  26.893  25.074  1.00  0.00    -0.006 C 
ATOM     13  C   UNL A   1      31.579  27.751  27.203  1.00  0.00     0.048 C 
ATOM     14  C   UNL A   1      31.238  28.230  24.956  1.00  0.00    -0.014 C 
BRANCH  11  15
ATOM     15  N   UNL A   1      31.586  25.283  26.920  1.00  0.00    -0.346 N 
ATOM     16  C   UNL A   1      32.047  24.016  26.631  1.00  0.00     0.251 C 
ATOM     17  O   UNL A   1      31.449  23.080  27.167  1.00  0.00    -0.269 OA
ATOM     18  H   UNL A   1      30.889  25.329  27.614  1.00  0.00     0.164 HD
BRANCH  16  19
ATOM     19  C   UNL A   1      33.250  23.697  25.774  1.00  0.00     0.040 A 
ATOM     20  C   UNL A   1      37.072  23.647  25.664  1.00  0.00     0.047 C 
ATOM     21  C   UNL A   1      35.642  23.512  25.243  1.00  0.00    -0.015 A 
ATOM     22  C   UNL A   1      34.595  23.955  26.077  1.00  0.00     0.020 A 
ATOM     23  C   UNL A   1      35.330  22.861  24.055  1.00  0.00     0.126 A 
ATOM     24  C   UNL A   1      34.010  22.657  23.687  1.00  0.00     0.040 A 
ATOM     25  F   UNL A   1      36.310  22.419  23.254  1.00  0.00    -0.207 F 
ATOM     26  C   UNL A   1      32.981  23.064  24.545  1.00  0.00     0.017 A 
ENDBRANCH  16  19
ENDBRANCH  11  15
ENDBRANCH   8  10
ENDBRANCH   7   8
ENDBRANCH   6   7
ENDBRANCH   5   6
ENDBRANCH   4   5
ENDBRANCH   3   4
ENDBRANCH   2   3
ENDBRANCH   1   2
BRANCH   1  27
ATOM     27  C   UNL A   1      33.241  35.906  31.665  1.00  0.00     0.188 C 
BRANCH  27  28
ATOM     28  C   UNL A   1      33.296  34.997  32.920  1.00  0.00     0.188 C 
BRANCH  28  29
ATOM     29  O   UNL A   1      34.563  34.410  33.195  1.00  0.00    -0.376 OA
BRANCH  29  30
ATOM     30  C   UNL A   1      34.734  33.020  32.973  1.00  0.00     0.202 C 
BRANCH  30  31
ATOM     31  C   UNL A   1      34.779  32.484  31.524  1.00  0.00     0.261 C 
BRANCH  31  32
ATOM     32  O   UNL A   1      35.661  31.407  31.204  1.00  0.00    -0.460 OA
BRANCH  32  33
ATOM     33  C   UNL A   1      36.263  31.508  30.008  1.00  0.00     0.338 C 
ATOM     34  O   UNL A   1      36.562  32.530  29.430  1.00  0.00    -0.246 OA
BRANCH  33  35
ATOM     35  C   UNL A   1      36.477  30.204  29.349  1.00  0.00     0.060 A 
ATOM     36  C   UNL A   1      36.682  29.201  30.321  1.00  0.00     0.016 A 
ATOM     37  C   UNL A   1      37.287  30.331  28.230  1.00  0.00     0.016 A 
ATOM     38  C   UNL A   1      37.959  28.726  30.471  1.00  0.00     0.010 A 
ATOM     39  C   UNL A   1      38.559  29.855  28.370  1.00  0.00     0.010 A 
ATOM     40  C   UNL A   1      38.896  29.163  29.545  1.00  0.00    -0.014 A 
BRANCH  40  41
ATOM     41  C   UNL A   1      40.274  28.789  29.647  1.00  0.00     0.031 A 
ATOM     42  C   UNL A   1      40.571  27.434  29.171  1.00  0.00     0.074 A 
ATOM     43  C   UNL A   1      41.169  29.722  30.032  1.00  0.00     0.049 A 
ATOM     44  N   UNL A   1      41.587  26.748  29.543  1.00  0.00    -0.248 NA
ATOM     45  C   UNL A   1      39.649  26.681  28.315  1.00  0.00     0.031 C 
ATOM     46  C   UNL A   1      42.591  29.732  29.745  1.00  0.00     0.029 A 
ATOM     47  N   UNL A   1      40.962  30.856  30.838  1.00  0.00    -0.354 N 
ATOM     48  C   UNL A   1      41.638  25.644  28.720  1.00  0.00     0.074 A 
ATOM     49  C   UNL A   1      40.343  25.562  28.096  1.00  0.00     0.031 C 
ATOM     50  C   UNL A   1      43.184  30.667  30.507  1.00  0.00     0.029 A 
ATOM     51  C   UNL A   1      42.197  31.171  31.448  1.00  0.00     0.049 A 
ATOM     52  H   UNL A   1      40.114  31.341  30.956  1.00  0.00     0.167 HD
ATOM     53  C   UNL A   1      42.850  25.060  28.513  1.00  0.00     0.037 A 
ATOM     54  C   UNL A   1      42.371  31.115  32.809  1.00  0.00     0.037 A 
ATOM     55  C   UNL A   1      43.866  25.762  29.293  1.00  0.00     0.049 A 
ATOM     56  C   UNL A   1      43.229  29.974  33.250  1.00  0.00     0.074 A 
ATOM     57  C   UNL A   1      44.683  26.835  28.971  1.00  0.00     0.029 A 
ATOM     58  N   UNL A   1      43.820  25.703  30.681  1.00  0.00    -0.354 N 
ATOM     59  N   UNL A   1      43.475  28.933  32.510  1.00  0.00    -0.248 NA
ATOM     60  C   UNL A   1      43.857  29.915  34.561  1.00  0.00     0.031 C 
ATOM     61  C   UNL A   1      45.089  27.453  30.181  1.00  0.00     0.029 A 
ATOM     62  C   UNL A   1      44.542  26.744  31.237  1.00  0.00     0.049 A 
ATOM     63  H   UNL A   1      43.339  25.017  31.198  1.00  0.00     0.167 HD
ATOM     64  C   UNL A   1      44.273  28.074  33.205  1.00  0.00     0.074 A 
ATOM     65  C   UNL A   1      44.504  28.742  34.473  1.00  0.00     0.031 C 
ATOM     66  C   UNL A   1      44.665  26.879  32.681  1.00  0.00     0.037 A 
BRANCH  53  67
ATOM     67  C   UNL A   1      43.154  24.132  27.365  1.00  0.00     0.064 A 
ATOM     68  C   UNL A   1      42.790  22.770  27.441  1.00  0.00     0.173 A 
ATOM     69  C   UNL A   1      43.822  24.503  26.182  1.00  0.00     0.173 A 
ATOM     70  F   UNL A   1      42.099  22.286  28.480  1.00  0.00    -0.203 F 
ATOM     71  C   UNL A   1      43.127  21.845  26.451  1.00  0.00     0.198 A 
ATOM     72  C   UNL A   1      44.200  23.567  25.212  1.00  0.00     0.198 A 
ATOM     73  F   UNL A   1      44.087  25.785  25.904  1.00  0.00    -0.203 F 
ATOM     74  F   UNL A   1      42.748  20.567  26.583  1.00  0.00    -0.200 F 
ATOM     75  C   UNL A   1      43.852  22.238  25.348  1.00  0.00     0.200 A 
ATOM     76  F   UNL A   1      44.898  23.967  24.139  1.00  0.00    -0.200 F 
ATOM     77  F   UNL A   1      44.195  21.346  24.408  1.00  0.00    -0.200 F 
ENDBRANCH  53  67
BRANCH  54  78
ATOM     78  C   UNL A   1      41.256  31.661  33.631  1.00  0.00     0.064 A 
ATOM     79  C   UNL A   1      41.162  33.056  33.556  1.00  0.00     0.173 A 
ATOM     80  C   UNL A   1      40.077  30.907  33.669  1.00  0.00     0.173 A 
ATOM     81  F   UNL A   1      42.258  33.818  33.677  1.00  0.00    -0.203 F 
ATOM     82  C   UNL A   1      40.007  33.621  33.062  1.00  0.00     0.198 A 
ATOM     83  C   UNL A   1      38.909  31.475  33.185  1.00  0.00     0.198 A 
ATOM     84  F   UNL A   1      40.119  29.594  33.943  1.00  0.00    -0.203 F 
ATOM     85  F   UNL A   1      39.988  34.904  32.676  1.00  0.00    -0.200 F 
ATOM     86  C   UNL A   1      38.924  32.811  32.791  1.00  0.00     0.200 A 
ATOM     87  F   UNL A   1      37.841  30.692  32.982  1.00  0.00    -0.200 F 
ATOM     88  F   UNL A   1      37.958  33.349  32.051  1.00  0.00    -0.200 F 
ENDBRANCH  54  78
BRANCH  66  89
ATOM     89  C   UNL A   1      45.303  25.769  33.466  1.00  0.00     0.064 A 
ATOM     90  C   UNL A   1      44.583  24.837  34.227  1.00  0.00     0.173 A 
ATOM     91  C   UNL A   1      46.695  25.534  33.365  1.00  0.00     0.173 A 
ATOM     92  F   UNL A   1      43.244  24.848  34.270  1.00  0.00    -0.203 F 
ATOM     93  C   UNL A   1      45.218  23.812  34.925  1.00  0.00     0.198 A 
ATOM     94  C   UNL A   1      47.312  24.455  33.987  1.00  0.00     0.198 A 
ATOM     95  F   UNL A   1      47.497  26.325  32.636  1.00  0.00    -0.203 F 
ATOM     96  F   UNL A   1      44.494  22.998  35.706  1.00  0.00    -0.200 F 
ATOM     97  C   UNL A   1      46.579  23.613  34.795  1.00  0.00     0.200 A 
ATOM     98  F   UNL A   1      48.617  24.231  33.785  1.00  0.00    -0.200 F 
ATOM     99  F   UNL A   1      47.178  22.597  35.428  1.00  0.00    -0.200 F 
ENDBRANCH  66  89
ENDBRANCH  40  41
ENDBRANCH  33  35
ENDBRANCH  32  33
ENDBRANCH  31  32
ENDBRANCH  30  31
ENDBRANCH  29  30
ENDBRANCH  28  29
ENDBRANCH  27  28
ENDBRANCH   1  27
TORSDOF 22
ENDMDL
MODEL 2
REMARK VINA RESULT:     -10.6      3.667      9.802
REMARK SMILES Cc1cc(C(=O)N[C@H]2C=C[C@H](C(=O)OCCOCCOCCOCCOC(=O)c3ccc(-c4c5nc(c(-c6c(F)c(F)c(F)c(F)c6F)c6ccc([nH]6)c(-c6c(F)c(F)c(F)c(F)c6F)c6nc(c(-c7c(F)c(F)c(F)c(F)c7F)c7ccc4[nH]7)C=C6)C=C5)cc3)C2)ccc1F
REMARK SMILES IDX 20 1 19 2 18 3 17 4 16 5 15 6 14 7 12 8 13 9 11 10 8 11 9 12
REMARK SMILES IDX 92 13 10 14 7 15 5 16 6 17 4 19 1 20 2 21 3 22 95 23 94 24
REMARK SMILES IDX 96 25 93 26 21 27 22 28 23 29 24 30 25 31 26 32 27 33 28 34
REMARK SMILES IDX 29 35 30 36 91 37 31 38 90 39 32 40 33 41 34 42 84 43 35 44
REMARK SMILES IDX 89 45 83 46 85 47 36 48 88 49 82 50 81 51 37 53 69 54 49 55
REMARK SMILES IDX 68 56 50 57 53 58 67 59 86 60 51 61 52 62 66 64 87 65 54 66
REMARK SMILES IDX 38 67 39 68 47 69 40 70 41 71 45 72 48 73 42 74 43 75 46 76
REMARK SMILES IDX 44 77 70 78 71 79 79 80 72 81 73 82 77 83 80 84 74 85 75 86
REMARK SMILES IDX 78 87 76 88 55 89 56 90 64 91 57 92 58 93 62 94 65 95 59 96
REMARK SMILES IDX 60 97 63 98 61 99
REMARK H PARENT 7 18 85 52 53 63
REMARK Flexibility Score: inf
ROOT
ATOM      1  O   UNL A   1      33.987  21.066  24.404  1.00  0.00    -0.377 OA
ENDROOT
BRANCH   1   2
ATOM      2  C   UNL A   1      32.878  21.530  25.164  1.00  0.00     0.188 C 
BRANCH   2   3
ATOM      3  C   UNL A   1      32.696  23.051  25.351  1.00  0.00     0.188 C 
BRANCH   3   4
ATOM      4  O   UNL A   1      31.880  23.695  24.395  1.00  0.00    -0.376 OA
BRANCH   4   5
ATOM      5  C   UNL A   1      32.031  23.450  23.005  1.00  0.00     0.202 C 
BRANCH   5   6
ATOM      6  C   UNL A   1      33.303  23.807  22.206  1.00  0.00     0.261 C 
BRANCH   6   7
ATOM      7  O   UNL A   1      34.030  24.945  22.675  1.00  0.00    -0.463 OA
BRANCH   7   8
ATOM      8  C   UNL A   1      33.714  26.141  22.129  1.00  0.00     0.312 C 
ATOM      9  O   UNL A   1      33.238  26.273  21.009  1.00  0.00    -0.252 OA
BRANCH   8  10
ATOM     10  C   UNL A   1      33.867  27.270  23.161  1.00  0.00     0.124 C 
ATOM     11  C   UNL A   1      31.892  26.903  24.444  1.00  0.00     0.106 C 
ATOM     12  C   UNL A   1      31.816  28.236  23.767  1.00  0.00    -0.006 C 
ATOM     13  C   UNL A   1      33.410  26.744  24.529  1.00  0.00     0.048 C 
ATOM     14  C   UNL A   1      32.896  28.402  22.985  1.00  0.00    -0.014 C 
BRANCH  11  15
ATOM     15  N   UNL A   1      31.220  26.823  25.699  1.00  0.00    -0.346 N 
ATOM     16  C   UNL A   1      31.387  27.589  26.833  1.00  0.00     0.251 C 
ATOM     17  O   UNL A   1      30.768  27.226  27.836  1.00  0.00    -0.269 OA
ATOM     18  H   UNL A   1      30.536  26.118  25.765  1.00  0.00     0.164 HD
BRANCH  16  19
ATOM     19  C   UNL A   1      32.207  28.856  26.919  1.00  0.00     0.040 A 
ATOM     20  C   UNL A   1      32.043  32.675  26.970  1.00  0.00     0.047 C 
ATOM     21  C   UNL A   1      32.589  31.283  26.975  1.00  0.00    -0.015 A 
ATOM     22  C   UNL A   1      31.747  30.172  26.764  1.00  0.00     0.020 A 
ATOM     23  C   UNL A   1      33.928  31.066  27.280  1.00  0.00     0.126 A 
ATOM     24  C   UNL A   1      34.434  29.780  27.367  1.00  0.00     0.040 A 
ATOM     25  F   UNL A   1      34.743  32.108  27.498  1.00  0.00    -0.207 F 
ATOM     26  C   UNL A   1      33.577  28.686  27.196  1.00  0.00     0.017 A 
ENDBRANCH  16  19
ENDBRANCH  11  15
ENDBRANCH   8  10
ENDBRANCH   7   8
ENDBRANCH   6   7
ENDBRANCH   5   6
ENDBRANCH   4   5
ENDBRANCH   3   4
ENDBRANCH   2   3
ENDBRANCH   1   2
BRANCH   1  27
ATOM     27  C   UNL A   1      34.974  20.276  25.065  1.00  0.00     0.188 C 
BRANCH  27  28
ATOM     28  C   UNL A   1      36.485  20.569  24.880  1.00  0.00     0.188 C 
BRANCH  28  29
ATOM     29  O   UNL A   1      37.066  21.427  25.857  1.00  0.00    -0.376 OA
BRANCH  29  30
ATOM     30  C   UNL A   1      38.263  22.115  25.535  1.00  0.00     0.202 C 
BRANCH  30  31
ATOM     31  C   UNL A   1      39.599  21.643  26.153  1.00  0.00     0.261 C 
BRANCH  31  32
ATOM     32  O   UNL A   1      40.109  22.311  27.307  1.00  0.00    -0.460 OA
BRANCH  32  33
ATOM     33  C   UNL A   1      40.741  23.469  27.055  1.00  0.00     0.338 C 
ATOM     34  O   UNL A   1      41.936  23.667  27.093  1.00  0.00    -0.246 OA
BRANCH  33  35
ATOM     35  C   UNL A   1      39.821  24.593  26.793  1.00  0.00     0.060 A 
ATOM     36  C   UNL A   1      40.511  25.640  26.145  1.00  0.00     0.016 A 
ATOM     37  C   UNL A   1      38.975  24.816  27.871  1.00  0.00     0.016 A 
ATOM     38  C   UNL A   1      40.799  26.755  26.889  1.00  0.00     0.010 A 
ATOM     39  C   UNL A   1      39.253  25.928  28.613  1.00  0.00     0.010 A 
ATOM     40  C   UNL A   1      40.245  26.813  28.159  1.00  0.00    -0.014 A 
BRANCH  40  41
ATOM     41  C   UNL A   1      40.537  27.895  29.050  1.00  0.00     0.031 A 
ATOM     42  C   UNL A   1      39.563  28.991  29.012  1.00  0.00     0.074 A 
ATOM     43  C   UNL A   1      41.567  27.763  29.911  1.00  0.00     0.049 A 
ATOM     44  N   UNL A   1      39.819  30.195  29.368  1.00  0.00    -0.248 NA
ATOM     45  C   UNL A   1      38.226  28.834  28.430  1.00  0.00     0.031 C 
ATOM     46  C   UNL A   1      41.740  28.459  31.172  1.00  0.00     0.029 A 
ATOM     47  N   UNL A   1      42.730  26.983  29.775  1.00  0.00    -0.354 N 
ATOM     48  C   UNL A   1      38.614  30.859  29.402  1.00  0.00     0.074 A 
ATOM     49  C   UNL A   1      37.692  30.035  28.664  1.00  0.00     0.031 C 
ATOM     50  C   UNL A   1      42.995  28.264  31.610  1.00  0.00     0.029 A 
ATOM     51  C   UNL A   1      43.737  27.588  30.559  1.00  0.00     0.049 A 
ATOM     52  H   UNL A   1      42.825  26.167  29.233  1.00  0.00     0.167 HD
ATOM     53  C   UNL A   1      38.500  31.929  30.236  1.00  0.00     0.037 A 
ATOM     54  C   UNL A   1      44.879  28.108  30.002  1.00  0.00     0.037 A 
ATOM     55  C   UNL A   1      39.776  32.156  30.910  1.00  0.00     0.049 A 
ATOM     56  C   UNL A   1      44.924  29.601  30.030  1.00  0.00     0.074 A 
ATOM     57  C   UNL A   1      40.271  31.672  32.112  1.00  0.00     0.029 A 
ATOM     58  N   UNL A   1      40.876  32.565  30.165  1.00  0.00    -0.354 N 
ATOM     59  N   UNL A   1      43.873  30.348  30.199  1.00  0.00    -0.248 NA
ATOM     60  C   UNL A   1      46.152  30.361  29.852  1.00  0.00     0.031 C 
ATOM     61  C   UNL A   1      41.686  31.749  32.063  1.00  0.00     0.029 A 
ATOM     62  C   UNL A   1      42.051  32.300  30.847  1.00  0.00     0.049 A 
ATOM     63  H   UNL A   1      40.827  32.984  29.276  1.00  0.00     0.167 HD
ATOM     64  C   UNL A   1      44.248  31.658  30.160  1.00  0.00     0.074 A 
ATOM     65  C   UNL A   1      45.686  31.615  29.964  1.00  0.00     0.031 C 
ATOM     66  C   UNL A   1      43.340  32.666  30.280  1.00  0.00     0.037 A 
BRANCH  53  67
ATOM     67  C   UNL A   1      37.185  32.505  30.695  1.00  0.00     0.064 A 
ATOM     68  C   UNL A   1      36.475  33.397  29.864  1.00  0.00     0.173 A 
ATOM     69  C   UNL A   1      36.583  32.249  31.943  1.00  0.00     0.173 A 
ATOM     70  F   UNL A   1      36.896  33.689  28.627  1.00  0.00    -0.203 F 
ATOM     71  C   UNL A   1      35.301  34.033  30.271  1.00  0.00     0.198 A 
ATOM     72  C   UNL A   1      35.431  32.921  32.369  1.00  0.00     0.198 A 
ATOM     73  F   UNL A   1      37.059  31.308  32.767  1.00  0.00    -0.203 F 
ATOM     74  F   UNL A   1      34.673  34.867  29.431  1.00  0.00    -0.200 F 
ATOM     75  C   UNL A   1      34.791  33.813  31.533  1.00  0.00     0.200 A 
ATOM     76  F   UNL A   1      34.943  32.691  33.596  1.00  0.00    -0.200 F 
ATOM     77  F   UNL A   1      33.676  34.440  31.932  1.00  0.00    -0.200 F 
ENDBRANCH  53  67
BRANCH  54  78
ATOM     78  C   UNL A   1      45.507  27.294  28.926  1.00  0.00     0.064 A 
ATOM     79  C   UNL A   1      45.281  27.820  27.647  1.00  0.00     0.173 A 
ATOM     80  C   UNL A   1      46.759  26.735  29.213  1.00  0.00     0.173 A 
ATOM     81  F   UNL A   1      44.053  28.217  27.285  1.00  0.00    -0.203 F 
ATOM     82  C   UNL A   1      46.361  28.203  26.883  1.00  0.00     0.198 A 
ATOM     83  C   UNL A   1      47.847  27.106  28.439  1.00  0.00     0.198 A 
ATOM     84  F   UNL A   1      46.950  26.044  30.347  1.00  0.00    -0.203 F 
ATOM     85  F   UNL A   1      46.191  28.989  25.812  1.00  0.00    -0.200 F 
ATOM     86  C   UNL A   1      47.636  27.928  27.333  1.00  0.00     0.200 A 
ATOM     87  F   UNL A   1      49.079  26.782  28.851  1.00  0.00    -0.200 F 
ATOM     88  F   UNL A   1      48.626  28.568  26.718  1.00  0.00    -0.200 F 
ENDBRANCH  54  78
BRANCH  66  89
ATOM     89  C   UNL A   1      43.622  34.110  29.977  1.00  0.00     0.064 A 
ATOM     90  C   UNL A   1      43.686  34.637  28.679  1.00  0.00     0.173 A 
ATOM     91  C   UNL A   1      43.710  35.055  31.027  1.00  0.00     0.173 A 
ATOM     92  F   UNL A   1      43.453  33.879  27.599  1.00  0.00    -0.203 F 
ATOM     93  C   UNL A   1      43.932  35.989  28.447  1.00  0.00     0.198 A 
ATOM     94  C   UNL A   1      43.861  36.416  30.789  1.00  0.00     0.198 A 
ATOM     95  F   UNL A   1      43.622  34.692  32.315  1.00  0.00    -0.203 F 
ATOM     96  F   UNL A   1      44.069  36.428  27.188  1.00  0.00    -0.200 F 
ATOM     97  C   UNL A   1      44.006  36.879  29.500  1.00  0.00     0.200 A 
ATOM     98  F   UNL A   1      43.850  37.273  31.819  1.00  0.00    -0.200 F 
ATOM     99  F   UNL A   1      44.193  38.185  29.271  1.00  0.00    -0.200 F 
ENDBRANCH  66  89
ENDBRANCH  40  41
ENDBRANCH  33  35
ENDBRANCH  32  33
ENDBRANCH  31  32
ENDBRANCH  30  31
ENDBRANCH  29  30
ENDBRANCH  28  29
ENDBRANCH  27  28
ENDBRANCH   1  27
TORSDOF 22
ENDMDL
MODEL 3
REMARK VINA RESULT:     -10.3      3.646      9.708
REMARK SMILES Cc1cc(C(=O)N[C@H]2C=C[C@H](C(=O)OCCOCCOCCOCCOC(=O)c3ccc(-c4c5nc(c(-c6c(F)c(F)c(F)c(F)c6F)c6ccc([nH]6)c(-c6c(F)c(F)c(F)c(F)c6F)c6nc(c(-c7c(F)c(F)c(F)c(F)c7F)c7ccc4[nH]7)C=C6)C=C5)cc3)C2)ccc1F
REMARK SMILES IDX 20 1 19 2 18 3 17 4 16 5 15 6 14 7 12 8 13 9 11 10 8 11 9 12
REMARK SMILES IDX 92 13 10 14 7 15 5 16 6 17 4 19 1 20 2 21 3 22 95 23 94 24
REMARK SMILES IDX 96 25 93 26 21 27 22 28 23 29 24 30 25 31 26 32 27 33 28 34
REMARK SMILES IDX 29 35 30 36 91 37 31 38 90 39 32 40 33 41 34 42 84 43 35 44
REMARK SMILES IDX 89 45 83 46 85 47 36 48 88 49 82 50 81 51 37 53 69 54 49 55
REMARK SMILES IDX 68 56 50 57 53 58 67 59 86 60 51 61 52 62 66 64 87 65 54 66
REMARK SMILES IDX 38 67 39 68 47 69 40 70 41 71 45 72 48 73 42 74 43 75 46 76
REMARK SMILES IDX 44 77 70 78 71 79 79 80 72 81 73 82 77 83 80 84 74 85 75 86
REMARK SMILES IDX 78 87 76 88 55 89 56 90 64 91 57 92 58 93 62 94 65 95 59 96
REMARK SMILES IDX 60 97 63 98 61 99
REMARK H PARENT 7 18 85 52 53 63
REMARK Flexibility Score: inf
ROOT
ATOM      1  O   UNL A   1      33.186  21.594  24.761  1.00  0.00    -0.377 OA
ENDROOT
BRANCH   1   2
ATOM      2  C   UNL A   1      32.179  22.265  25.506  1.00  0.00     0.188 C 
BRANCH   2   3
ATOM      3  C   UNL A   1      32.152  23.807  25.489  1.00  0.00     0.188 C 
BRANCH   3   4
ATOM      4  O   UNL A   1      31.324  24.398  24.507  1.00  0.00    -0.376 OA
BRANCH   4   5
ATOM      5  C   UNL A   1      31.536  24.167  23.123  1.00  0.00     0.202 C 
BRANCH   5   6
ATOM      6  C   UNL A   1      32.896  24.360  22.421  1.00  0.00     0.261 C 
BRANCH   6   7
ATOM      7  O   UNL A   1      33.745  25.365  22.979  1.00  0.00    -0.463 OA
BRANCH   7   8
ATOM      8  C   UNL A   1      33.709  26.587  22.401  1.00  0.00     0.312 C 
ATOM      9  O   UNL A   1      33.325  26.786  21.256  1.00  0.00    -0.252 OA
BRANCH   8  10
ATOM     10  C   UNL A   1      34.040  27.686  23.424  1.00  0.00     0.124 C 
ATOM     11  C   UNL A   1      32.037  27.642  24.715  1.00  0.00     0.106 C 
ATOM     12  C   UNL A   1      32.167  28.965  24.027  1.00  0.00    -0.006 C 
ATOM     13  C   UNL A   1      33.512  27.248  24.797  1.00  0.00     0.048 C 
ATOM     14  C   UNL A   1      33.258  28.954  23.241  1.00  0.00    -0.014 C 
BRANCH  11  15
ATOM     15  N   UNL A   1      31.366  27.677  25.971  1.00  0.00    -0.346 N 
ATOM     16  C   UNL A   1      31.725  28.315  27.139  1.00  0.00     0.251 C 
ATOM     17  O   UNL A   1      31.031  28.076  28.131  1.00  0.00    -0.269 OA
ATOM     18  H   UNL A   1      30.521  27.172  26.011  1.00  0.00     0.164 HD
BRANCH  16  19
ATOM     19  C   UNL A   1      32.847  29.319  27.278  1.00  0.00     0.040 A 
ATOM     20  C   UNL A   1      33.673  33.019  27.772  1.00  0.00     0.047 C 
ATOM     21  C   UNL A   1      33.842  31.547  27.563  1.00  0.00    -0.015 A 
ATOM     22  C   UNL A   1      32.729  30.716  27.321  1.00  0.00     0.020 A 
ATOM     23  C   UNL A   1      35.099  30.970  27.696  1.00  0.00     0.126 A 
ATOM     24  C   UNL A   1      35.263  29.599  27.584  1.00  0.00     0.040 A 
ATOM     25  F   UNL A   1      36.169  31.741  27.941  1.00  0.00    -0.207 F 
ATOM     26  C   UNL A   1      34.144  28.782  27.386  1.00  0.00     0.017 A 
ENDBRANCH  16  19
ENDBRANCH  11  15
ENDBRANCH   8  10
ENDBRANCH   7   8
ENDBRANCH   6   7
ENDBRANCH   5   6
ENDBRANCH   4   5
ENDBRANCH   3   4
ENDBRANCH   2   3
ENDBRANCH   1   2
BRANCH   1  27
ATOM     27  C   UNL A   1      34.127  20.787  25.470  1.00  0.00     0.188 C 
BRANCH  27  28
ATOM     28  C   UNL A   1      35.597  20.671  24.994  1.00  0.00     0.188 C 
BRANCH  28  29
ATOM     29  O   UNL A   1      36.565  21.282  25.840  1.00  0.00    -0.376 OA
BRANCH  29  30
ATOM     30  C   UNL A   1      37.791  21.715  25.273  1.00  0.00     0.202 C 
BRANCH  30  31
ATOM     31  C   UNL A   1      39.122  21.171  25.839  1.00  0.00     0.261 C 
BRANCH  31  32
ATOM     32  O   UNL A   1      39.728  21.827  26.952  1.00  0.00    -0.460 OA
BRANCH  32  33
ATOM     33  C   UNL A   1      40.434  22.926  26.642  1.00  0.00     0.338 C 
ATOM     34  O   UNL A   1      41.634  22.999  26.487  1.00  0.00    -0.246 OA
BRANCH  33  35
ATOM     35  C   UNL A   1      39.612  24.152  26.580  1.00  0.00     0.060 A 
ATOM     36  C   UNL A   1      40.271  25.135  25.811  1.00  0.00     0.016 A 
ATOM     37  C   UNL A   1      39.032  24.434  27.808  1.00  0.00     0.016 A 
ATOM     38  C   UNL A   1      40.827  26.190  26.486  1.00  0.00     0.010 A 
ATOM     39  C   UNL A   1      39.578  25.487  28.485  1.00  0.00     0.010 A 
ATOM     40  C   UNL A   1      40.551  26.272  27.844  1.00  0.00    -0.014 A 
BRANCH  40  41
ATOM     41  C   UNL A   1      41.136  27.289  28.663  1.00  0.00     0.031 A 
ATOM     42  C   UNL A   1      40.277  28.457  28.885  1.00  0.00     0.074 A 
ATOM     43  C   UNL A   1      42.327  27.043  29.247  1.00  0.00     0.049 A 
ATOM     44  N   UNL A   1      40.711  29.621  29.197  1.00  0.00    -0.248 NA
ATOM     45  C   UNL A   1      38.831  28.427  28.639  1.00  0.00     0.031 C 
ATOM     46  C   UNL A   1      42.853  27.670  30.445  1.00  0.00     0.029 A 
ATOM     47  N   UNL A   1      43.354  26.183  28.817  1.00  0.00    -0.354 N 
ATOM     48  C   UNL A   1      39.608  30.374  29.536  1.00  0.00     0.074 A 
ATOM     49  C   UNL A   1      38.471  29.655  29.022  1.00  0.00     0.031 C 
ATOM     50  C   UNL A   1      44.155  27.361  30.564  1.00  0.00     0.029 A 
ATOM     51  C   UNL A   1      44.566  26.676  29.349  1.00  0.00     0.049 A 
ATOM     52  H   UNL A   1      43.248  25.387  28.249  1.00  0.00     0.167 HD
ATOM     53  C   UNL A   1      39.787  31.412  30.397  1.00  0.00     0.037 A 
ATOM     54  C   UNL A   1      45.582  27.131  28.546  1.00  0.00     0.037 A 
ATOM     55  C   UNL A   1      41.201  31.513  30.749  1.00  0.00     0.049 A 
ATOM     56  C   UNL A   1      45.758  28.614  28.596  1.00  0.00     0.074 A 
ATOM     57  C   UNL A   1      41.925  30.943  31.784  1.00  0.00     0.029 A 
ATOM     58  N   UNL A   1      42.122  31.868  29.771  1.00  0.00    -0.354 N 
ATOM     59  N   UNL A   1      44.843  29.430  29.031  1.00  0.00    -0.248 NA
ATOM     60  C   UNL A   1      46.967  29.284  28.145  1.00  0.00     0.031 C 
ATOM     61  C   UNL A   1      43.289  30.914  31.398  1.00  0.00     0.029 A 
ATOM     62  C   UNL A   1      43.399  31.486  30.143  1.00  0.00     0.049 A 
ATOM     63  H   UNL A   1      41.898  32.327  28.929  1.00  0.00     0.167 HD
ATOM     64  C   UNL A   1      45.308  30.708  28.932  1.00  0.00     0.074 A 
ATOM     65  C   UNL A   1      46.649  30.565  28.395  1.00  0.00     0.031 C 
ATOM     66  C   UNL A   1      44.542  31.777  29.290  1.00  0.00     0.037 A 
BRANCH  53  67
ATOM     67  C   UNL A   1      38.672  32.067  31.172  1.00  0.00     0.064 A 
ATOM     68  C   UNL A   1      38.391  31.656  32.492  1.00  0.00     0.173 A 
ATOM     69  C   UNL A   1      37.828  33.078  30.673  1.00  0.00     0.173 A 
ATOM     70  F   UNL A   1      39.146  30.744  33.118  1.00  0.00    -0.203 F 
ATOM     71  C   UNL A   1      37.316  32.160  33.225  1.00  0.00     0.198 A 
ATOM     72  C   UNL A   1      36.723  33.551  31.390  1.00  0.00     0.198 A 
ATOM     73  F   UNL A   1      38.072  33.675  29.499  1.00  0.00    -0.203 F 
ATOM     74  F   UNL A   1      37.106  31.729  34.476  1.00  0.00    -0.200 F 
ATOM     75  C   UNL A   1      36.467  33.090  32.666  1.00  0.00     0.200 A 
ATOM     76  F   UNL A   1      35.910  34.463  30.835  1.00  0.00    -0.200 F 
ATOM     77  F   UNL A   1      35.421  33.559  33.361  1.00  0.00    -0.200 F 
ENDBRANCH  53  67
BRANCH  54  78
ATOM     78  C   UNL A   1      45.865  26.318  27.331  1.00  0.00     0.064 A 
ATOM     79  C   UNL A   1      45.436  26.939  26.152  1.00  0.00     0.173 A 
ATOM     80  C   UNL A   1      47.073  25.610  27.319  1.00  0.00     0.173 A 
ATOM     81  F   UNL A   1      44.215  27.488  26.080  1.00  0.00    -0.203 F 
ATOM     82  C   UNL A   1      46.365  27.246  25.183  1.00  0.00     0.198 A 
ATOM     83  C   UNL A   1      48.008  25.906  26.338  1.00  0.00     0.198 A 
ATOM     84  F   UNL A   1      47.419  24.838  28.360  1.00  0.00    -0.203 F 
ATOM     85  F   UNL A   1      46.065  28.108  24.202  1.00  0.00    -0.200 F 
ATOM     86  C   UNL A   1      47.665  26.809  25.334  1.00  0.00     0.200 A 
ATOM     87  F   UNL A   1      49.252  25.427  26.460  1.00  0.00    -0.200 F 
ATOM     88  F   UNL A   1      48.570  27.373  24.539  1.00  0.00    -0.200 F 
ENDBRANCH  54  78
BRANCH  66  89
ATOM     89  C   UNL A   1      44.864  33.207  28.962  1.00  0.00     0.064 A 
ATOM     90  C   UNL A   1      45.596  34.056  29.803  1.00  0.00     0.173 A 
ATOM     91  C   UNL A   1      44.540  33.735  27.689  1.00  0.00     0.173 A 
ATOM     92  F   UNL A   1      46.106  33.626  30.966  1.00  0.00    -0.203 F 
ATOM     93  C   UNL A   1      45.886  35.372  29.447  1.00  0.00     0.198 A 
ATOM     94  C   UNL A   1      44.914  35.017  27.302  1.00  0.00     0.198 A 
ATOM     95  F   UNL A   1      43.877  33.016  26.771  1.00  0.00    -0.203 F 
ATOM     96  F   UNL A   1      46.515  36.169  30.322  1.00  0.00    -0.200 F 
ATOM     97  C   UNL A   1      45.557  35.847  28.193  1.00  0.00     0.200 A 
ATOM     98  F   UNL A   1      44.657  35.432  26.054  1.00  0.00    -0.200 F 
ATOM     99  F   UNL A   1      45.882  37.096  27.836  1.00  0.00    -0.200 F 
ENDBRANCH  66  89
ENDBRANCH  40  41
ENDBRANCH  33  35
ENDBRANCH  32  33
ENDBRANCH  31  32
ENDBRANCH  30  31
ENDBRANCH  29  30
ENDBRANCH  28  29
ENDBRANCH  27  28
ENDBRANCH   1  27
TORSDOF 22
ENDMDL
