MODEL 1
REMARK VINA RESULT:     -10.6      0.000      0.000
REMARK SMILES [NH3+][C@H]1COC[C@H]1C(=O)N[C@@H]1C=C[C@@H](C(=O)OCCOCCOCCOCCOC(=O)c2ccc(-c3c4nc(c(-c5c(F)c(F)c(F)c(F)c5F)c5ccc([nH]5)c(-c5c(F)c(F)c(F)c(F)c5F)c5nc(c(-c6c(F)c(F)c(F)c(F)c6F)c6ccc3[nH]6)C=C5)C=C4)cc2)C1
REMARK SMILES IDX 21 1 20 2 19 3 18 4 17 5 16 6 14 7 15 8 13 9 10 10 11 11
REMARK SMILES IDX 94 12 12 13 9 14 7 15 8 16 6 18 2 19 3 20 4 21 5 22 1 23
REMARK SMILES IDX 22 27 23 28 24 29 25 30 26 31 27 32 28 33 29 34 30 35 31 36
REMARK SMILES IDX 32 37 93 38 33 39 92 40 34 41 35 42 36 43 86 44 37 45 91 46
REMARK SMILES IDX 85 47 87 48 38 49 90 50 84 51 83 52 39 54 71 55 51 56 70 57
REMARK SMILES IDX 52 58 55 59 69 60 88 61 53 62 54 63 68 65 89 66 56 67 40 68
REMARK SMILES IDX 41 69 49 70 42 71 43 72 47 73 50 74 44 75 45 76 48 77 46 78
REMARK SMILES IDX 72 79 73 80 81 81 74 82 75 83 79 84 82 85 76 86 77 87 80 88
REMARK SMILES IDX 78 89 57 90 58 91 66 92 59 93 60 94 64 95 67 96 61 97 62 98
REMARK SMILES IDX 65 99 63 100
REMARK H PARENT 9 17 1 24 1 25 1 26 87 53 55 64
REMARK Flexibility Score: inf
ROOT
ATOM      1  C   UNL A   1      37.123  24.056  25.516  1.00  0.00     0.188 C 
ENDROOT
BRANCH   1   2
ATOM      2  C   UNL A   1      35.607  24.163  25.724  1.00  0.00     0.188 C 
BRANCH   2   3
ATOM      3  O   UNL A   1      34.792  24.924  24.845  1.00  0.00    -0.376 OA
BRANCH   3   4
ATOM      4  C   UNL A   1      33.471  25.316  25.186  1.00  0.00     0.202 C 
BRANCH   4   5
ATOM      5  C   UNL A   1      32.294  25.239  24.203  1.00  0.00     0.261 C 
BRANCH   5   6
ATOM      6  O   UNL A   1      31.336  24.209  24.443  1.00  0.00    -0.463 OA
BRANCH   6   7
ATOM      7  C   UNL A   1      31.022  23.975  25.741  1.00  0.00     0.312 C 
ATOM      8  O   UNL A   1      30.526  24.802  26.498  1.00  0.00    -0.252 OA
BRANCH   7   9
ATOM      9  C   UNL A   1      31.440  22.586  26.199  1.00  0.00     0.124 C 
ATOM     10  C   UNL A   1      33.446  21.148  26.226  1.00  0.00     0.106 C 
ATOM     11  C   UNL A   1      33.355  22.039  27.407  1.00  0.00    -0.006 C 
ATOM     12  C   UNL A   1      32.423  21.810  25.307  1.00  0.00     0.048 C 
ATOM     13  C   UNL A   1      32.240  22.770  27.443  1.00  0.00    -0.014 C 
BRANCH  10  14
ATOM     14  N   UNL A   1      33.061  19.775  26.510  1.00  0.00    -0.349 N 
ATOM     15  C   UNL A   1      32.889  18.692  25.719  1.00  0.00     0.232 C 
ATOM     16  O   UNL A   1      32.167  17.797  26.183  1.00  0.00    -0.274 OA
ATOM     17  H   UNL A   1      32.893  19.600  27.465  1.00  0.00     0.164 HD
BRANCH  15  18
ATOM     18  C   UNL A   1      33.568  18.465  24.382  1.00  0.00     0.164 C 
ATOM     19  C   UNL A   1      34.567  17.337  24.179  1.00  0.00     0.221 C 
ATOM     20  C   UNL A   1      34.175  16.728  22.829  1.00  0.00     0.225 C 
ATOM     21  O   UNL A   1      32.940  17.296  22.385  1.00  0.00    -0.374 OA
ATOM     22  C   UNL A   1      32.577  18.384  23.238  1.00  0.00     0.180 C 
BRANCH  19  23
ATOM     23  N   UNL A   1      34.716  16.344  25.244  1.00  0.00    -0.352 N 
ATOM     24  H   UNL A   1      35.333  15.596  24.927  1.00  0.00     0.344 HD
ATOM     25  H   UNL A   1      33.802  15.956  25.477  1.00  0.00     0.344 HD
ATOM     26  H   UNL A   1      35.117  16.789  26.070  1.00  0.00     0.344 HD
ENDBRANCH  19  23
ENDBRANCH  15  18
ENDBRANCH  10  14
ENDBRANCH   7   9
ENDBRANCH   6   7
ENDBRANCH   5   6
ENDBRANCH   4   5
ENDBRANCH   3   4
ENDBRANCH   2   3
ENDBRANCH   1   2
BRANCH   1  27
ATOM     27  O   UNL A   1      37.619  22.736  25.440  1.00  0.00    -0.377 OA
BRANCH  27  28
ATOM     28  C   UNL A   1      36.979  21.879  24.500  1.00  0.00     0.188 C 
BRANCH  28  29
ATOM     29  C   UNL A   1      36.311  20.588  25.025  1.00  0.00     0.188 C 
BRANCH  29  30
ATOM     30  O   UNL A   1      37.144  19.437  25.018  1.00  0.00    -0.376 OA
BRANCH  30  31
ATOM     31  C   UNL A   1      38.521  19.566  24.693  1.00  0.00     0.202 C 
BRANCH  31  32
ATOM     32  C   UNL A   1      39.565  19.444  25.819  1.00  0.00     0.261 C 
BRANCH  32  33
ATOM     33  O   UNL A   1      40.406  20.586  26.042  1.00  0.00    -0.460 OA
BRANCH  33  34
ATOM     34  C   UNL A   1      41.144  20.610  27.168  1.00  0.00     0.338 C 
ATOM     35  O   UNL A   1      41.746  19.676  27.675  1.00  0.00    -0.246 OA
BRANCH  34  36
ATOM     36  C   UNL A   1      41.282  22.016  27.596  1.00  0.00     0.060 A 
ATOM     37  C   UNL A   1      40.550  22.998  26.916  1.00  0.00     0.016 A 
ATOM     38  C   UNL A   1      42.135  22.369  28.645  1.00  0.00     0.016 A 
ATOM     39  C   UNL A   1      40.706  24.343  27.250  1.00  0.00     0.010 A 
ATOM     40  C   UNL A   1      42.311  23.719  28.960  1.00  0.00     0.010 A 
ATOM     41  C   UNL A   1      41.631  24.713  28.234  1.00  0.00    -0.014 A 
BRANCH  41  42
ATOM     42  C   UNL A   1      42.047  26.132  28.332  1.00  0.00     0.031 A 
ATOM     43  C   UNL A   1      43.366  26.528  27.725  1.00  0.00     0.074 A 
ATOM     44  C   UNL A   1      41.257  27.061  28.898  1.00  0.00     0.049 A 
ATOM     45  N   UNL A   1      43.959  27.695  27.701  1.00  0.00    -0.248 NA
ATOM     46  C   UNL A   1      44.120  25.459  27.053  1.00  0.00     0.031 C 
ATOM     47  C   UNL A   1      39.938  26.813  29.472  1.00  0.00     0.029 A 
ATOM     48  N   UNL A   1      41.459  28.406  29.083  1.00  0.00    -0.354 N 
ATOM     49  C   UNL A   1      45.153  27.496  27.022  1.00  0.00     0.074 A 
ATOM     50  C   UNL A   1      45.221  26.092  26.681  1.00  0.00     0.031 C 
ATOM     51  C   UNL A   1      39.451  27.968  29.957  1.00  0.00     0.029 A 
ATOM     52  C   UNL A   1      40.439  29.028  29.759  1.00  0.00     0.049 A 
ATOM     53  H   UNL A   1      42.261  28.880  28.764  1.00  0.00     0.167 HD
ATOM     54  C   UNL A   1      46.105  28.404  26.701  1.00  0.00     0.037 A 
ATOM     55  C   UNL A   1      40.330  30.302  30.184  1.00  0.00     0.037 A 
ATOM     56  C   UNL A   1      46.036  29.800  27.045  1.00  0.00     0.049 A 
ATOM     57  C   UNL A   1      41.442  31.278  29.887  1.00  0.00     0.074 A 
ATOM     58  C   UNL A   1      46.941  30.805  26.756  1.00  0.00     0.029 A 
ATOM     59  N   UNL A   1      45.003  30.385  27.764  1.00  0.00    -0.354 N 
ATOM     60  N   UNL A   1      42.559  31.090  29.225  1.00  0.00    -0.248 NA
ATOM     61  C   UNL A   1      41.273  32.649  30.392  1.00  0.00     0.031 C 
ATOM     62  C   UNL A   1      46.490  31.985  27.356  1.00  0.00     0.029 A 
ATOM     63  C   UNL A   1      45.266  31.733  27.955  1.00  0.00     0.049 A 
ATOM     64  H   UNL A   1      44.203  29.914  28.089  1.00  0.00     0.167 HD
ATOM     65  C   UNL A   1      43.205  32.320  29.203  1.00  0.00     0.074 A 
ATOM     66  C   UNL A   1      42.348  33.252  29.906  1.00  0.00     0.031 C 
ATOM     67  C   UNL A   1      44.398  32.651  28.649  1.00  0.00     0.037 A 
BRANCH  54  68
ATOM     68  C   UNL A   1      47.321  27.908  25.974  1.00  0.00     0.064 A 
ATOM     69  C   UNL A   1      48.498  27.550  26.652  1.00  0.00     0.173 A 
ATOM     70  C   UNL A   1      47.301  27.761  24.579  1.00  0.00     0.173 A 
ATOM     71  F   UNL A   1      48.578  27.685  27.984  1.00  0.00    -0.203 F 
ATOM     72  C   UNL A   1      49.616  27.095  25.956  1.00  0.00     0.198 A 
ATOM     73  C   UNL A   1      48.407  27.273  23.891  1.00  0.00     0.198 A 
ATOM     74  F   UNL A   1      46.201  28.087  23.881  1.00  0.00    -0.203 F 
ATOM     75  F   UNL A   1      50.746  26.812  26.619  1.00  0.00    -0.200 F 
ATOM     76  C   UNL A   1      49.566  26.948  24.578  1.00  0.00     0.200 A 
ATOM     77  F   UNL A   1      48.352  27.119  22.561  1.00  0.00    -0.200 F 
ATOM     78  F   UNL A   1      50.640  26.501  23.911  1.00  0.00    -0.200 F 
ENDBRANCH  54  68
BRANCH  55  79
ATOM     79  C   UNL A   1      39.132  30.731  30.954  1.00  0.00     0.064 A 
ATOM     80  C   UNL A   1      39.076  30.595  32.349  1.00  0.00     0.173 A 
ATOM     81  C   UNL A   1      38.003  31.259  30.308  1.00  0.00     0.173 A 
ATOM     82  F   UNL A   1      40.118  30.072  33.012  1.00  0.00    -0.203 F 
ATOM     83  C   UNL A   1      37.931  30.945  33.062  1.00  0.00     0.198 A 
ATOM     84  C   UNL A   1      36.871  31.638  31.026  1.00  0.00     0.198 A 
ATOM     85  F   UNL A   1      38.000  31.407  28.975  1.00  0.00    -0.203 F 
ATOM     86  F   UNL A   1      37.886  30.749  34.388  1.00  0.00    -0.200 F 
ATOM     87  C   UNL A   1      36.832  31.472  32.402  1.00  0.00     0.200 A 
ATOM     88  F   UNL A   1      35.817  32.160  30.384  1.00  0.00    -0.200 F 
ATOM     89  F   UNL A   1      35.733  31.809  33.088  1.00  0.00    -0.200 F 
ENDBRANCH  55  79
BRANCH  67  90
ATOM     90  C   UNL A   1      44.828  34.090  28.734  1.00  0.00     0.064 A 
ATOM     91  C   UNL A   1      45.660  34.560  29.762  1.00  0.00     0.173 A 
ATOM     92  C   UNL A   1      44.429  35.006  27.746  1.00  0.00     0.173 A 
ATOM     93  F   UNL A   1      46.061  33.730  30.737  1.00  0.00    -0.203 F 
ATOM     94  C   UNL A   1      46.044  35.897  29.819  1.00  0.00     0.198 A 
ATOM     95  C   UNL A   1      44.847  36.333  27.785  1.00  0.00     0.198 A 
ATOM     96  F   UNL A   1      43.644  34.609  26.734  1.00  0.00    -0.203 F 
ATOM     97  F   UNL A   1      46.787  36.335  30.843  1.00  0.00    -0.200 F 
ATOM     98  C   UNL A   1      45.644  36.781  28.827  1.00  0.00     0.200 A 
ATOM     99  F   UNL A   1      44.475  37.180  26.814  1.00  0.00    -0.200 F 
ATOM    100  F   UNL A   1      46.021  38.066  28.880  1.00  0.00    -0.200 F 
ENDBRANCH  67  90
ENDBRANCH  41  42
ENDBRANCH  34  36
ENDBRANCH  33  34
ENDBRANCH  32  33
ENDBRANCH  31  32
ENDBRANCH  30  31
ENDBRANCH  29  30
ENDBRANCH  28  29
ENDBRANCH  27  28
ENDBRANCH   1  27
TORSDOF 23
ENDMDL
MODEL 2
REMARK VINA RESULT:     -10.6      4.688      7.706
REMARK SMILES [NH3+][C@H]1COC[C@H]1C(=O)N[C@@H]1C=C[C@@H](C(=O)OCCOCCOCCOCCOC(=O)c2ccc(-c3c4nc(c(-c5c(F)c(F)c(F)c(F)c5F)c5ccc([nH]5)c(-c5c(F)c(F)c(F)c(F)c5F)c5nc(c(-c6c(F)c(F)c(F)c(F)c6F)c6ccc3[nH]6)C=C5)C=C4)cc2)C1
REMARK SMILES IDX 21 1 20 2 19 3 18 4 17 5 16 6 14 7 15 8 13 9 10 10 11 11
REMARK SMILES IDX 94 12 12 13 9 14 7 15 8 16 6 18 2 19 3 20 4 21 5 22 1 23
REMARK SMILES IDX 22 27 23 28 24 29 25 30 26 31 27 32 28 33 29 34 30 35 31 36
REMARK SMILES IDX 32 37 93 38 33 39 92 40 34 41 35 42 36 43 86 44 37 45 91 46
REMARK SMILES IDX 85 47 87 48 38 49 90 50 84 51 83 52 39 54 71 55 51 56 70 57
REMARK SMILES IDX 52 58 55 59 69 60 88 61 53 62 54 63 68 65 89 66 56 67 40 68
REMARK SMILES IDX 41 69 49 70 42 71 43 72 47 73 50 74 44 75 45 76 48 77 46 78
REMARK SMILES IDX 72 79 73 80 81 81 74 82 75 83 79 84 82 85 76 86 77 87 80 88
REMARK SMILES IDX 78 89 57 90 58 91 66 92 59 93 60 94 64 95 67 96 61 97 62 98
REMARK SMILES IDX 65 99 63 100
REMARK H PARENT 9 17 1 24 1 25 1 26 87 53 55 64
REMARK Flexibility Score: inf
ROOT
ATOM      1  C   UNL A   1      43.020  19.108  26.259  1.00  0.00     0.188 C 
ENDROOT
BRANCH   1   2
ATOM      2  C   UNL A   1      41.520  18.823  26.104  1.00  0.00     0.188 C 
BRANCH   2   3
ATOM      3  O   UNL A   1      40.557  19.862  26.187  1.00  0.00    -0.376 OA
BRANCH   3   4
ATOM      4  C   UNL A   1      40.663  20.921  27.125  1.00  0.00     0.202 C 
BRANCH   4   5
ATOM      5  C   UNL A   1      40.062  22.314  26.889  1.00  0.00     0.261 C 
BRANCH   5   6
ATOM      6  O   UNL A   1      39.040  22.402  25.896  1.00  0.00    -0.463 OA
BRANCH   6   7
ATOM      7  C   UNL A   1      38.049  23.295  26.136  1.00  0.00     0.312 C 
ATOM      8  O   UNL A   1      38.168  24.295  26.837  1.00  0.00    -0.252 OA
BRANCH   7   9
ATOM      9  C   UNL A   1      36.726  22.879  25.512  1.00  0.00     0.124 C 
ATOM     10  C   UNL A   1      35.084  23.720  23.871  1.00  0.00     0.106 C 
ATOM     11  C   UNL A   1      36.179  22.939  23.248  1.00  0.00    -0.006 C 
ATOM     12  C   UNL A   1      35.688  23.983  25.249  1.00  0.00     0.048 C 
ATOM     13  C   UNL A   1      37.035  22.417  24.129  1.00  0.00    -0.014 C 
BRANCH  10  14
ATOM     14  N   UNL A   1      33.844  22.973  23.994  1.00  0.00    -0.349 N 
ATOM     15  C   UNL A   1      32.661  23.255  24.588  1.00  0.00     0.232 C 
ATOM     16  O   UNL A   1      31.960  22.276  24.882  1.00  0.00    -0.274 OA
ATOM     17  H   UNL A   1      33.868  22.089  23.560  1.00  0.00     0.164 HD
BRANCH  15  18
ATOM     18  C   UNL A   1      32.113  24.649  24.832  1.00  0.00     0.164 C 
ATOM     19  C   UNL A   1      30.904  25.171  24.072  1.00  0.00     0.221 C 
ATOM     20  C   UNL A   1      30.052  25.850  25.149  1.00  0.00     0.225 C 
ATOM     21  O   UNL A   1      30.594  25.569  26.441  1.00  0.00    -0.374 OA
ATOM     22  C   UNL A   1      31.859  24.920  26.301  1.00  0.00     0.180 C 
BRANCH  19  23
ATOM     23  N   UNL A   1      30.150  24.232  23.241  1.00  0.00    -0.352 N 
ATOM     24  H   UNL A   1      30.572  24.185  22.313  1.00  0.00     0.344 HD
ATOM     25  H   UNL A   1      29.184  24.549  23.160  1.00  0.00     0.344 HD
ATOM     26  H   UNL A   1      30.169  23.306  23.670  1.00  0.00     0.344 HD
ENDBRANCH  19  23
ENDBRANCH  15  18
ENDBRANCH  10  14
ENDBRANCH   7   9
ENDBRANCH   6   7
ENDBRANCH   5   6
ENDBRANCH   4   5
ENDBRANCH   3   4
ENDBRANCH   2   3
ENDBRANCH   1   2
BRANCH   1  27
ATOM     27  O   UNL A   1      43.854  18.394  25.372  1.00  0.00    -0.377 OA
BRANCH  27  28
ATOM     28  C   UNL A   1      45.230  18.758  25.373  1.00  0.00     0.188 C 
BRANCH  28  29
ATOM     29  C   UNL A   1      45.743  19.688  24.251  1.00  0.00     0.188 C 
BRANCH  29  30
ATOM     30  O   UNL A   1      44.730  20.394  23.549  1.00  0.00    -0.376 OA
BRANCH  30  31
ATOM     31  C   UNL A   1      44.624  21.803  23.696  1.00  0.00     0.202 C 
BRANCH  31  32
ATOM     32  C   UNL A   1      44.272  22.382  25.079  1.00  0.00     0.261 C 
BRANCH  32  33
ATOM     33  O   UNL A   1      43.471  23.574  25.092  1.00  0.00    -0.460 OA
BRANCH  33  34
ATOM     34  C   UNL A   1      44.107  24.755  25.212  1.00  0.00     0.338 C 
ATOM     35  O   UNL A   1      45.077  25.138  24.577  1.00  0.00    -0.246 OA
BRANCH  34  36
ATOM     36  C   UNL A   1      43.311  25.615  26.110  1.00  0.00     0.060 A 
ATOM     37  C   UNL A   1      43.718  26.941  26.305  1.00  0.00     0.016 A 
ATOM     38  C   UNL A   1      42.182  25.118  26.767  1.00  0.00     0.016 A 
ATOM     39  C   UNL A   1      43.029  27.760  27.197  1.00  0.00     0.010 A 
ATOM     40  C   UNL A   1      41.507  25.932  27.681  1.00  0.00     0.010 A 
ATOM     41  C   UNL A   1      41.956  27.242  27.932  1.00  0.00    -0.014 A 
BRANCH  41  42
ATOM     42  C   UNL A   1      41.464  27.990  29.113  1.00  0.00     0.031 A 
ATOM     43  C   UNL A   1      42.207  27.831  30.413  1.00  0.00     0.074 A 
ATOM     44  C   UNL A   1      40.419  28.831  29.030  1.00  0.00     0.049 A 
ATOM     45  N   UNL A   1      41.962  28.357  31.586  1.00  0.00    -0.248 NA
ATOM     46  C   UNL A   1      43.390  26.956  30.383  1.00  0.00     0.031 C 
ATOM     47  C   UNL A   1      39.653  29.110  27.819  1.00  0.00     0.029 A 
ATOM     48  N   UNL A   1      39.821  29.603  29.995  1.00  0.00    -0.354 N 
ATOM     49  C   UNL A   1      42.951  27.871  32.430  1.00  0.00     0.074 A 
ATOM     50  C   UNL A   1      43.780  26.981  31.648  1.00  0.00     0.031 C 
ATOM     51  C   UNL A   1      38.676  29.985  28.115  1.00  0.00     0.029 A 
ATOM     52  C   UNL A   1      38.729  30.299  29.543  1.00  0.00     0.049 A 
ATOM     53  H   UNL A   1      40.145  29.651  30.924  1.00  0.00     0.167 HD
ATOM     54  C   UNL A   1      43.158  28.150  33.739  1.00  0.00     0.037 A 
ATOM     55  C   UNL A   1      37.861  31.083  30.213  1.00  0.00     0.037 A 
ATOM     56  C   UNL A   1      42.330  29.035  34.515  1.00  0.00     0.049 A 
ATOM     57  C   UNL A   1      38.063  31.313  31.691  1.00  0.00     0.074 A 
ATOM     58  C   UNL A   1      42.461  29.395  35.845  1.00  0.00     0.029 A 
ATOM     59  N   UNL A   1      41.208  29.693  34.030  1.00  0.00    -0.354 N 
ATOM     60  N   UNL A   1      39.013  30.869  32.480  1.00  0.00    -0.248 NA
ATOM     61  C   UNL A   1      37.073  32.162  32.371  1.00  0.00     0.031 C 
ATOM     62  C   UNL A   1      41.381  30.217  36.182  1.00  0.00     0.029 A 
ATOM     63  C   UNL A   1      40.619  30.432  35.046  1.00  0.00     0.049 A 
ATOM     64  H   UNL A   1      40.879  29.643  33.105  1.00  0.00     0.167 HD
ATOM     65  C   UNL A   1      38.757  31.412  33.734  1.00  0.00     0.074 A 
ATOM     66  C   UNL A   1      37.570  32.230  33.597  1.00  0.00     0.031 C 
ATOM     67  C   UNL A   1      39.442  31.250  34.893  1.00  0.00     0.037 A 
BRANCH  54  68
ATOM     68  C   UNL A   1      44.302  27.461  34.423  1.00  0.00     0.064 A 
ATOM     69  C   UNL A   1      44.162  26.194  35.012  1.00  0.00     0.173 A 
ATOM     70  C   UNL A   1      45.568  28.065  34.468  1.00  0.00     0.173 A 
ATOM     71  F   UNL A   1      42.970  25.577  35.012  1.00  0.00    -0.203 F 
ATOM     72  C   UNL A   1      45.237  25.574  35.644  1.00  0.00     0.198 A 
ATOM     73  C   UNL A   1      46.648  27.428  35.069  1.00  0.00     0.198 A 
ATOM     74  F   UNL A   1      45.759  29.275  33.920  1.00  0.00    -0.203 F 
ATOM     75  F   UNL A   1      45.066  24.389  36.247  1.00  0.00    -0.200 F 
ATOM     76  C   UNL A   1      46.481  26.187  35.665  1.00  0.00     0.200 A 
ATOM     77  F   UNL A   1      47.852  28.016  35.076  1.00  0.00    -0.200 F 
ATOM     78  F   UNL A   1      47.517  25.585  36.266  1.00  0.00    -0.200 F 
ENDBRANCH  54  68
BRANCH  55  79
ATOM     79  C   UNL A   1      36.706  31.696  29.503  1.00  0.00     0.064 A 
ATOM     80  C   UNL A   1      35.632  30.915  29.052  1.00  0.00     0.173 A 
ATOM     81  C   UNL A   1      36.668  33.072  29.231  1.00  0.00     0.173 A 
ATOM     82  F   UNL A   1      35.632  29.591  29.264  1.00  0.00    -0.203 F 
ATOM     83  C   UNL A   1      34.578  31.482  28.337  1.00  0.00     0.198 A 
ATOM     84  C   UNL A   1      35.599  33.642  28.544  1.00  0.00     0.198 A 
ATOM     85  F   UNL A   1      37.671  33.864  29.635  1.00  0.00    -0.203 F 
ATOM     86  F   UNL A   1      33.594  30.702  27.869  1.00  0.00    -0.200 F 
ATOM     87  C   UNL A   1      34.560  32.845  28.089  1.00  0.00     0.200 A 
ATOM     88  F   UNL A   1      35.579  34.963  28.319  1.00  0.00    -0.200 F 
ATOM     89  F   UNL A   1      33.546  33.391  27.403  1.00  0.00    -0.200 F 
ENDBRANCH  55  79
BRANCH  67  90
ATOM     90  C   UNL A   1      38.960  32.012  36.097  1.00  0.00     0.064 A 
ATOM     91  C   UNL A   1      39.323  33.347  36.328  1.00  0.00     0.173 A 
ATOM     92  C   UNL A   1      38.087  31.403  37.015  1.00  0.00     0.173 A 
ATOM     93  F   UNL A   1      40.162  33.973  35.489  1.00  0.00    -0.203 F 
ATOM     94  C   UNL A   1      38.863  34.031  37.451  1.00  0.00     0.198 A 
ATOM     95  C   UNL A   1      37.599  32.102  38.114  1.00  0.00     0.198 A 
ATOM     96  F   UNL A   1      37.698  30.132  36.837  1.00  0.00    -0.203 F 
ATOM     97  F   UNL A   1      39.272  35.285  37.683  1.00  0.00    -0.200 F 
ATOM     98  C   UNL A   1      37.995  33.412  38.339  1.00  0.00     0.200 A 
ATOM     99  F   UNL A   1      36.745  31.507  38.960  1.00  0.00    -0.200 F 
ATOM    100  F   UNL A   1      37.549  34.074  39.414  1.00  0.00    -0.200 F 
ENDBRANCH  67  90
ENDBRANCH  41  42
ENDBRANCH  34  36
ENDBRANCH  33  34
ENDBRANCH  32  33
ENDBRANCH  31  32
ENDBRANCH  30  31
ENDBRANCH  29  30
ENDBRANCH  28  29
ENDBRANCH  27  28
ENDBRANCH   1  27
TORSDOF 23
ENDMDL
MODEL 3
REMARK VINA RESULT:     -10.5      2.152      3.399
REMARK SMILES [NH3+][C@H]1COC[C@H]1C(=O)N[C@@H]1C=C[C@@H](C(=O)OCCOCCOCCOCCOC(=O)c2ccc(-c3c4nc(c(-c5c(F)c(F)c(F)c(F)c5F)c5ccc([nH]5)c(-c5c(F)c(F)c(F)c(F)c5F)c5nc(c(-c6c(F)c(F)c(F)c(F)c6F)c6ccc3[nH]6)C=C5)C=C4)cc2)C1
REMARK SMILES IDX 21 1 20 2 19 3 18 4 17 5 16 6 14 7 15 8 13 9 10 10 11 11
REMARK SMILES IDX 94 12 12 13 9 14 7 15 8 16 6 18 2 19 3 20 4 21 5 22 1 23
REMARK SMILES IDX 22 27 23 28 24 29 25 30 26 31 27 32 28 33 29 34 30 35 31 36
REMARK SMILES IDX 32 37 93 38 33 39 92 40 34 41 35 42 36 43 86 44 37 45 91 46
REMARK SMILES IDX 85 47 87 48 38 49 90 50 84 51 83 52 39 54 71 55 51 56 70 57
REMARK SMILES IDX 52 58 55 59 69 60 88 61 53 62 54 63 68 65 89 66 56 67 40 68
REMARK SMILES IDX 41 69 49 70 42 71 43 72 47 73 50 74 44 75 45 76 48 77 46 78
REMARK SMILES IDX 72 79 73 80 81 81 74 82 75 83 79 84 82 85 76 86 77 87 80 88
REMARK SMILES IDX 78 89 57 90 58 91 66 92 59 93 60 94 64 95 67 96 61 97 62 98
REMARK SMILES IDX 65 99 63 100
REMARK H PARENT 9 17 1 24 1 25 1 26 87 53 55 64
REMARK Flexibility Score: inf
ROOT
ATOM      1  C   UNL A   1      37.366  23.858  26.075  1.00  0.00     0.188 C 
ENDROOT
BRANCH   1   2
ATOM      2  C   UNL A   1      36.021  23.753  25.345  1.00  0.00     0.188 C 
BRANCH   2   3
ATOM      3  O   UNL A   1      35.033  24.766  25.465  1.00  0.00    -0.376 OA
BRANCH   3   4
ATOM      4  C   UNL A   1      34.191  25.134  24.384  1.00  0.00     0.202 C 
BRANCH   4   5
ATOM      5  C   UNL A   1      32.707  25.489  24.559  1.00  0.00     0.261 C 
BRANCH   5   6
ATOM      6  O   UNL A   1      31.819  24.396  24.793  1.00  0.00    -0.463 OA
BRANCH   6   7
ATOM      7  C   UNL A   1      31.541  24.119  26.091  1.00  0.00     0.312 C 
ATOM      8  O   UNL A   1      31.154  24.944  26.911  1.00  0.00    -0.252 OA
BRANCH   7   9
ATOM      9  C   UNL A   1      31.850  22.676  26.456  1.00  0.00     0.124 C 
ATOM     10  C   UNL A   1      33.714  21.064  26.302  1.00  0.00     0.106 C 
ATOM     11  C   UNL A   1      33.765  21.894  27.530  1.00  0.00    -0.006 C 
ATOM     12  C   UNL A   1      32.712  21.864  25.474  1.00  0.00     0.048 C 
ATOM     13  C   UNL A   1      32.725  22.720  27.662  1.00  0.00    -0.014 C 
BRANCH  10  14
ATOM     14  N   UNL A   1      33.218  19.718  26.540  1.00  0.00    -0.349 N 
ATOM     15  C   UNL A   1      32.979  18.673  25.715  1.00  0.00     0.232 C 
ATOM     16  O   UNL A   1      32.181  17.825  26.138  1.00  0.00    -0.274 OA
ATOM     17  H   UNL A   1      33.016  19.531  27.485  1.00  0.00     0.164 HD
BRANCH  15  18
ATOM     18  C   UNL A   1      33.668  18.431  24.385  1.00  0.00     0.164 C 
ATOM     19  C   UNL A   1      34.643  17.280  24.193  1.00  0.00     0.221 C 
ATOM     20  C   UNL A   1      34.252  16.680  22.839  1.00  0.00     0.225 C 
ATOM     21  O   UNL A   1      33.036  17.276  22.382  1.00  0.00    -0.374 OA
ATOM     22  C   UNL A   1      32.688  18.373  23.230  1.00  0.00     0.180 C 
BRANCH  19  23
ATOM     23  N   UNL A   1      34.757  16.284  25.259  1.00  0.00    -0.352 N 
ATOM     24  H   UNL A   1      34.457  16.696  26.143  1.00  0.00     0.344 HD
ATOM     25  H   UNL A   1      35.728  15.979  25.338  1.00  0.00     0.344 HD
ATOM     26  H   UNL A   1      34.166  15.482  25.040  1.00  0.00     0.344 HD
ENDBRANCH  19  23
ENDBRANCH  15  18
ENDBRANCH  10  14
ENDBRANCH   7   9
ENDBRANCH   6   7
ENDBRANCH   5   6
ENDBRANCH   4   5
ENDBRANCH   3   4
ENDBRANCH   2   3
ENDBRANCH   1   2
BRANCH   1  27
ATOM     27  O   UNL A   1      38.382  23.019  25.568  1.00  0.00    -0.377 OA
BRANCH  27  28
ATOM     28  C   UNL A   1      39.317  22.519  26.519  1.00  0.00     0.188 C 
BRANCH  28  29
ATOM     29  C   UNL A   1      39.980  21.151  26.243  1.00  0.00     0.188 C 
BRANCH  29  30
ATOM     30  O   UNL A   1      40.625  20.562  27.363  1.00  0.00    -0.376 OA
BRANCH  30  31
ATOM     31  C   UNL A   1      41.908  19.971  27.207  1.00  0.00     0.202 C 
BRANCH  31  32
ATOM     32  C   UNL A   1      42.357  19.529  25.802  1.00  0.00     0.261 C 
BRANCH  32  33
ATOM     33  O   UNL A   1      43.758  19.271  25.627  1.00  0.00    -0.460 OA
BRANCH  33  34
ATOM     34  C   UNL A   1      44.357  19.778  24.532  1.00  0.00     0.338 C 
ATOM     35  O   UNL A   1      44.389  19.287  23.415  1.00  0.00    -0.246 OA
BRANCH  34  36
ATOM     36  C   UNL A   1      44.806  21.148  24.850  1.00  0.00     0.060 A 
ATOM     37  C   UNL A   1      45.357  21.396  26.114  1.00  0.00     0.016 A 
ATOM     38  C   UNL A   1      44.675  22.182  23.920  1.00  0.00     0.016 A 
ATOM     39  C   UNL A   1      45.730  22.691  26.471  1.00  0.00     0.010 A 
ATOM     40  C   UNL A   1      45.025  23.484  24.289  1.00  0.00     0.010 A 
ATOM     41  C   UNL A   1      45.512  23.749  25.581  1.00  0.00    -0.014 A 
BRANCH  41  42
ATOM     42  C   UNL A   1      45.575  25.141  26.088  1.00  0.00     0.031 A 
ATOM     43  C   UNL A   1      46.899  25.855  26.039  1.00  0.00     0.074 A 
ATOM     44  C   UNL A   1      44.479  25.779  26.533  1.00  0.00     0.049 A 
ATOM     45  N   UNL A   1      47.215  27.060  26.441  1.00  0.00    -0.248 NA
ATOM     46  C   UNL A   1      48.022  25.104  25.456  1.00  0.00     0.031 C 
ATOM     47  C   UNL A   1      43.133  25.215  26.581  1.00  0.00     0.029 A 
ATOM     48  N   UNL A   1      44.332  27.048  27.035  1.00  0.00    -0.354 N 
ATOM     49  C   UNL A   1      48.568  27.205  26.167  1.00  0.00     0.074 A 
ATOM     50  C   UNL A   1      49.024  25.956  25.598  1.00  0.00     0.031 C 
ATOM     51  C   UNL A   1      42.296  26.132  27.096  1.00  0.00     0.029 A 
ATOM     52  C   UNL A   1      43.053  27.333  27.445  1.00  0.00     0.049 A 
ATOM     53  H   UNL A   1      45.074  27.693  27.097  1.00  0.00     0.167 HD
ATOM     54  C   UNL A   1      49.359  28.286  26.362  1.00  0.00     0.037 A 
ATOM     55  C   UNL A   1      42.561  28.431  28.053  1.00  0.00     0.037 A 
ATOM     56  C   UNL A   1      48.902  29.527  26.931  1.00  0.00     0.049 A 
ATOM     57  C   UNL A   1      43.481  29.593  28.336  1.00  0.00     0.074 A 
ATOM     58  C   UNL A   1      49.620  30.687  27.160  1.00  0.00     0.029 A 
ATOM     59  N   UNL A   1      47.607  29.764  27.370  1.00  0.00    -0.354 N 
ATOM     60  N   UNL A   1      44.755  29.734  28.055  1.00  0.00    -0.248 NA
ATOM     61  C   UNL A   1      42.890  30.755  29.016  1.00  0.00     0.031 C 
ATOM     62  C   UNL A   1      48.778  31.603  27.798  1.00  0.00     0.029 A 
ATOM     63  C   UNL A   1      47.515  31.043  27.899  1.00  0.00     0.049 A 
ATOM     64  H   UNL A   1      46.865  29.120  27.315  1.00  0.00     0.167 HD
ATOM     65  C   UNL A   1      45.106  31.007  28.489  1.00  0.00     0.074 A 
ATOM     66  C   UNL A   1      43.908  31.603  29.039  1.00  0.00     0.031 C 
ATOM     67  C   UNL A   1      46.311  31.628  28.435  1.00  0.00     0.037 A 
BRANCH  54  68
ATOM     68  C   UNL A   1      50.809  28.162  25.993  1.00  0.00     0.064 A 
ATOM     69  C   UNL A   1      51.804  27.936  26.957  1.00  0.00     0.173 A 
ATOM     70  C   UNL A   1      51.207  28.243  24.650  1.00  0.00     0.173 A 
ATOM     71  F   UNL A   1      51.482  27.866  28.258  1.00  0.00    -0.203 F 
ATOM     72  C   UNL A   1      53.145  27.826  26.592  1.00  0.00     0.198 A 
ATOM     73  C   UNL A   1      52.542  28.098  24.285  1.00  0.00     0.198 A 
ATOM     74  F   UNL A   1      50.296  28.457  23.687  1.00  0.00    -0.203 F 
ATOM     75  F   UNL A   1      54.083  27.665  27.536  1.00  0.00    -0.200 F 
ATOM     76  C   UNL A   1      53.510  27.898  25.257  1.00  0.00     0.200 A 
ATOM     77  F   UNL A   1      52.891  28.154  22.993  1.00  0.00    -0.200 F 
ATOM     78  F   UNL A   1      54.799  27.784  24.906  1.00  0.00    -0.200 F 
ENDBRANCH  54  68
BRANCH  55  79
ATOM     79  C   UNL A   1      41.130  28.483  28.454  1.00  0.00     0.064 A 
ATOM     80  C   UNL A   1      40.151  29.002  27.593  1.00  0.00     0.173 A 
ATOM     81  C   UNL A   1      40.714  28.045  29.721  1.00  0.00     0.173 A 
ATOM     82  F   UNL A   1      40.501  29.458  26.382  1.00  0.00    -0.203 F 
ATOM     83  C   UNL A   1      38.820  29.103  27.993  1.00  0.00     0.198 A 
ATOM     84  C   UNL A   1      39.377  28.117  30.106  1.00  0.00     0.198 A 
ATOM     85  F   UNL A   1      41.608  27.545  30.586  1.00  0.00    -0.203 F 
ATOM     86  F   UNL A   1      37.918  29.656  27.170  1.00  0.00    -0.200 F 
ATOM     87  C   UNL A   1      38.433  28.655  29.246  1.00  0.00     0.200 A 
ATOM     88  F   UNL A   1      39.006  27.670  31.314  1.00  0.00    -0.200 F 
ATOM     89  F   UNL A   1      37.153  28.751  29.629  1.00  0.00    -0.200 F 
ENDBRANCH  55  79
BRANCH  67  90
ATOM     90  C   UNL A   1      46.386  33.043  28.937  1.00  0.00     0.064 A 
ATOM     91  C   UNL A   1      46.786  33.349  30.247  1.00  0.00     0.173 A 
ATOM     92  C   UNL A   1      46.088  34.115  28.078  1.00  0.00     0.173 A 
ATOM     93  F   UNL A   1      47.072  32.364  31.112  1.00  0.00    -0.203 F 
ATOM     94  C   UNL A   1      46.847  34.668  30.689  1.00  0.00     0.198 A 
ATOM     95  C   UNL A   1      46.188  35.433  28.512  1.00  0.00     0.198 A 
ATOM     96  F   UNL A   1      45.712  33.881  26.812  1.00  0.00    -0.203 F 
ATOM     97  F   UNL A   1      47.172  34.931  31.961  1.00  0.00    -0.200 F 
ATOM     98  C   UNL A   1      46.556  35.709  29.819  1.00  0.00     0.200 A 
ATOM     99  F   UNL A   1      45.925  36.438  27.664  1.00  0.00    -0.200 F 
ATOM    100  F   UNL A   1      46.623  36.978  30.245  1.00  0.00    -0.200 F 
ENDBRANCH  67  90
ENDBRANCH  41  42
ENDBRANCH  34  36
ENDBRANCH  33  34
ENDBRANCH  32  33
ENDBRANCH  31  32
ENDBRANCH  30  31
ENDBRANCH  29  30
ENDBRANCH  28  29
ENDBRANCH  27  28
ENDBRANCH   1  27
TORSDOF 23
ENDMDL
