MODEL 1
REMARK VINA RESULT:      -7.8      0.000      0.000
REMARK SMILES O=C(COc1cc(-c2ccccc2)nc(Nc2ccccc2Br)n1)OCCOCCOCCOCCOC(=O)c1ccc(-c2c3nc(c(-c4c(F)c(F)c(F)c(F)c4F)c4ccc([nH]4)c(-c4c(F)c(F)c(F)c(F)c4F)c4nc(c(-c5c(F)c(F)c(F)c(F)c5F)c5ccc2[nH]5)C=C4)C=C3)cc1
REMARK SMILES IDX 30 1 29 2 28 3 27 4 26 5 25 6 2 7 1 8 3 9 4 10 5 11 6 12
REMARK SMILES IDX 24 13 7 14 15 15 14 16 8 17 9 18 13 19 10 20 12 21 11 22
REMARK SMILES IDX 16 23 17 25 18 26 22 27 19 28 21 29 23 30 20 31 31 32 32 33
REMARK SMILES IDX 33 34 34 35 35 36 36 37 37 38 38 39 39 40 40 41 41 42 102 43
REMARK SMILES IDX 42 44 101 45 43 46 44 47 45 48 95 49 46 50 100 51 94 52
REMARK SMILES IDX 96 53 47 54 99 55 93 56 92 57 48 59 80 60 60 61 79 62 61 63
REMARK SMILES IDX 64 64 78 65 97 66 62 67 63 68 77 70 98 71 65 72 49 73 50 74
REMARK SMILES IDX 58 75 51 76 52 77 56 78 59 79 53 80 54 81 57 82 55 83 81 84
REMARK SMILES IDX 82 85 90 86 83 87 84 88 88 89 91 90 85 91 86 92 89 93 87 94
REMARK SMILES IDX 66 95 67 96 75 97 68 98 69 99 73 100 76 101 70 102 71 103
REMARK SMILES IDX 74 104 72 105
REMARK H PARENT 16 24 96 58 64 69
REMARK Flexibility Score: inf
ROOT
ATOM      1  C   UNL A   1      36.687  31.297  30.336  1.00  0.00     0.188 C 
ENDROOT
BRANCH   1   2
ATOM      2  C   UNL A   1      37.007  29.819  30.608  1.00  0.00     0.188 C 
BRANCH   2   3
ATOM      3  O   UNL A   1      37.097  28.971  29.478  1.00  0.00    -0.376 OA
BRANCH   3   4
ATOM      4  C   UNL A   1      37.914  29.146  28.342  1.00  0.00     0.202 C 
BRANCH   4   5
ATOM      5  C   UNL A   1      39.429  29.319  28.460  1.00  0.00     0.261 C 
BRANCH   5   6
ATOM      6  O   UNL A   1      40.142  28.369  29.274  1.00  0.00    -0.461 OA
BRANCH   6   7
ATOM      7  C   UNL A   1      41.273  27.708  28.938  1.00  0.00     0.344 C 
ATOM      8  O   UNL A   1      42.365  28.205  29.198  1.00  0.00    -0.248 OA
BRANCH   7   9
ATOM      9  C   UNL A   1      41.145  26.375  28.213  1.00  0.00     0.353 C 
BRANCH   9  10
ATOM     10  O   UNL A   1      41.857  25.326  28.867  1.00  0.00    -0.466 OA
BRANCH  10  11
ATOM     11  C   UNL A   1      42.739  24.818  27.966  1.00  0.00     0.219 A 
ATOM     12  C   UNL A   1      43.923  25.447  27.737  1.00  0.00     0.097 A 
ATOM     13  N   UNL A   1      42.238  23.857  27.219  1.00  0.00    -0.177 NA
ATOM     14  C   UNL A   1      44.501  25.171  26.524  1.00  0.00     0.080 A 
ATOM     15  C   UNL A   1      42.912  23.538  26.118  1.00  0.00     0.231 A 
ATOM     16  N   UNL A   1      44.022  24.191  25.711  1.00  0.00    -0.212 NA
BRANCH  14  17
ATOM     17  C   UNL A   1      45.528  26.113  26.030  1.00  0.00     0.000 A 
ATOM     18  C   UNL A   1      46.563  25.682  25.186  1.00  0.00     0.010 A 
ATOM     19  C   UNL A   1      45.390  27.506  26.227  1.00  0.00     0.010 A 
ATOM     20  C   UNL A   1      47.409  26.602  24.554  1.00  0.00     0.001 A 
ATOM     21  C   UNL A   1      46.227  28.426  25.590  1.00  0.00     0.001 A 
ATOM     22  C   UNL A   1      47.237  27.972  24.752  1.00  0.00     0.000 A 
ENDBRANCH  14  17
BRANCH  15  23
ATOM     23  N   UNL A   1      42.422  22.444  25.399  1.00  0.00    -0.323 N 
ATOM     24  H   UNL A   1      41.869  22.619  24.605  1.00  0.00     0.170 HD
BRANCH  23  25
ATOM     25  C   UNL A   1      42.677  21.099  25.753  1.00  0.00     0.055 A 
ATOM     26  C   UNL A   1      41.675  20.374  26.416  1.00  0.00     0.027 A 
ATOM     27  C   UNL A   1      43.814  20.387  25.308  1.00  0.00     0.041 A 
ATOM     28  C   UNL A   1      41.801  18.996  26.636  1.00  0.00     0.002 A 
ATOM     29  C   UNL A   1      43.943  19.010  25.537  1.00  0.00     0.018 A 
ATOM     30  Br  UNL A   1      45.263  21.246  24.415  1.00  0.00    -0.049 Br
ATOM     31  C   UNL A   1      42.935  18.315  26.199  1.00  0.00     0.001 A 
ENDBRANCH  23  25
ENDBRANCH  15  23
ENDBRANCH  10  11
ENDBRANCH   9  10
ENDBRANCH   7   9
ENDBRANCH   6   7
ENDBRANCH   5   6
ENDBRANCH   4   5
ENDBRANCH   3   4
ENDBRANCH   2   3
ENDBRANCH   1   2
BRANCH   1  32
ATOM     32  O   UNL A   1      35.310  31.655  30.335  1.00  0.00    -0.377 OA
BRANCH  32  33
ATOM     33  C   UNL A   1      34.988  32.792  31.116  1.00  0.00     0.188 C 
BRANCH  33  34
ATOM     34  C   UNL A   1      36.170  33.755  31.350  1.00  0.00     0.188 C 
BRANCH  34  35
ATOM     35  O   UNL A   1      36.072  34.817  32.278  1.00  0.00    -0.376 OA
BRANCH  35  36
ATOM     36  C   UNL A   1      35.701  34.630  33.631  1.00  0.00     0.202 C 
BRANCH  36  37
ATOM     37  C   UNL A   1      35.991  33.383  34.486  1.00  0.00     0.261 C 
BRANCH  37  38
ATOM     38  O   UNL A   1      37.155  32.619  34.193  1.00  0.00    -0.460 OA
BRANCH  38  39
ATOM     39  C   UNL A   1      37.789  32.079  35.251  1.00  0.00     0.338 C 
ATOM     40  O   UNL A   1      37.403  32.028  36.408  1.00  0.00    -0.246 OA
BRANCH  39  41
ATOM     41  C   UNL A   1      38.961  31.348  34.731  1.00  0.00     0.060 A 
ATOM     42  C   UNL A   1      40.223  31.642  35.265  1.00  0.00     0.016 A 
ATOM     43  C   UNL A   1      38.811  30.355  33.759  1.00  0.00     0.016 A 
ATOM     44  C   UNL A   1      41.347  30.961  34.815  1.00  0.00     0.010 A 
ATOM     45  C   UNL A   1      39.944  29.707  33.270  1.00  0.00     0.010 A 
ATOM     46  C   UNL A   1      41.216  30.038  33.772  1.00  0.00    -0.014 A 
BRANCH  46  47
ATOM     47  C   UNL A   1      42.427  29.634  33.028  1.00  0.00     0.031 A 
ATOM     48  C   UNL A   1      43.177  28.434  33.529  1.00  0.00     0.074 A 
ATOM     49  C   UNL A   1      42.825  30.287  31.924  1.00  0.00     0.049 A 
ATOM     50  N   UNL A   1      44.292  27.907  33.096  1.00  0.00    -0.248 NA
ATOM     51  C   UNL A   1      42.587  27.732  34.683  1.00  0.00     0.031 C 
ATOM     52  C   UNL A   1      42.138  31.422  31.318  1.00  0.00     0.029 A 
ATOM     53  N   UNL A   1      43.919  30.082  31.123  1.00  0.00    -0.354 N 
ATOM     54  C   UNL A   1      44.539  26.823  33.927  1.00  0.00     0.074 A 
ATOM     55  C   UNL A   1      43.479  26.782  34.908  1.00  0.00     0.031 C 
ATOM     56  C   UNL A   1      42.840  31.831  30.245  1.00  0.00     0.029 A 
ATOM     57  C   UNL A   1      44.041  31.007  30.117  1.00  0.00     0.049 A 
ATOM     58  H   UNL A   1      44.556  29.344  31.258  1.00  0.00     0.167 HD
ATOM     59  C   UNL A   1      45.560  25.937  33.871  1.00  0.00     0.037 A 
ATOM     60  C   UNL A   1      45.031  31.177  29.220  1.00  0.00     0.037 A 
ATOM     61  C   UNL A   1      46.614  25.993  32.897  1.00  0.00     0.049 A 
ATOM     62  C   UNL A   1      46.206  30.230  29.234  1.00  0.00     0.074 A 
ATOM     63  C   UNL A   1      47.693  25.143  32.743  1.00  0.00     0.029 A 
ATOM     64  N   UNL A   1      46.726  26.966  31.913  1.00  0.00    -0.354 N 
ATOM     65  N   UNL A   1      46.429  29.196  30.008  1.00  0.00    -0.248 NA
ATOM     66  C   UNL A   1      47.266  30.476  28.247  1.00  0.00     0.031 C 
ATOM     67  C   UNL A   1      48.493  25.638  31.710  1.00  0.00     0.029 A 
ATOM     68  C   UNL A   1      47.874  26.755  31.169  1.00  0.00     0.049 A 
ATOM     69  H   UNL A   1      46.084  27.698  31.767  1.00  0.00     0.167 HD
ATOM     70  C   UNL A   1      47.631  28.647  29.579  1.00  0.00     0.074 A 
ATOM     71  C   UNL A   1      48.085  29.458  28.469  1.00  0.00     0.031 C 
ATOM     72  C   UNL A   1      48.301  27.567  30.057  1.00  0.00     0.037 A 
BRANCH  59  73
ATOM     73  C   UNL A   1      45.603  24.863  34.919  1.00  0.00     0.064 A 
ATOM     74  C   UNL A   1      46.103  25.103  36.208  1.00  0.00     0.173 A 
ATOM     75  C   UNL A   1      45.116  23.579  34.633  1.00  0.00     0.173 A 
ATOM     76  F   UNL A   1      46.599  26.308  36.527  1.00  0.00    -0.203 F 
ATOM     77  C   UNL A   1      46.140  24.089  37.162  1.00  0.00     0.198 A 
ATOM     78  C   UNL A   1      45.121  22.578  35.600  1.00  0.00     0.198 A 
ATOM     79  F   UNL A   1      44.628  23.296  33.416  1.00  0.00    -0.203 F 
ATOM     80  F   UNL A   1      46.671  24.327  38.369  1.00  0.00    -0.200 F 
ATOM     81  C   UNL A   1      45.641  22.831  36.860  1.00  0.00     0.200 A 
ATOM     82  F   UNL A   1      44.627  21.367  35.310  1.00  0.00    -0.200 F 
ATOM     83  F   UNL A   1      45.666  21.859  37.783  1.00  0.00    -0.200 F 
ENDBRANCH  59  73
BRANCH  60  84
ATOM     84  C   UNL A   1      44.967  32.297  28.243  1.00  0.00     0.064 A 
ATOM     85  C   UNL A   1      44.341  32.139  26.999  1.00  0.00     0.173 A 
ATOM     86  C   UNL A   1      45.557  33.540  28.522  1.00  0.00     0.173 A 
ATOM     87  F   UNL A   1      43.785  30.964  26.673  1.00  0.00    -0.203 F 
ATOM     88  C   UNL A   1      44.327  33.172  26.063  1.00  0.00     0.198 A 
ATOM     89  C   UNL A   1      45.512  34.583  27.599  1.00  0.00     0.198 A 
ATOM     90  F   UNL A   1      46.169  33.745  29.697  1.00  0.00    -0.203 F 
ATOM     91  F   UNL A   1      43.769  32.976  24.860  1.00  0.00    -0.200 F 
ATOM     92  C   UNL A   1      44.907  34.395  26.367  1.00  0.00     0.200 A 
ATOM     93  F   UNL A   1      46.060  35.767  27.904  1.00  0.00    -0.200 F 
ATOM     94  F   UNL A   1      44.889  35.389  25.467  1.00  0.00    -0.200 F 
ENDBRANCH  60  84
BRANCH  72  95
ATOM     95  C   UNL A   1      49.565  27.165  29.351  1.00  0.00     0.064 A 
ATOM     96  C   UNL A   1      49.557  26.297  28.251  1.00  0.00     0.173 A 
ATOM     97  C   UNL A   1      50.799  27.703  29.753  1.00  0.00     0.173 A 
ATOM     98  F   UNL A   1      48.407  25.746  27.834  1.00  0.00    -0.203 F 
ATOM     99  C   UNL A   1      50.740  25.956  27.599  1.00  0.00     0.198 A 
ATOM    100  C   UNL A   1      51.974  27.391  29.076  1.00  0.00     0.198 A 
ATOM    101  F   UNL A   1      50.862  28.548  30.793  1.00  0.00    -0.203 F 
ATOM    102  F   UNL A   1      50.715  25.082  26.584  1.00  0.00    -0.200 F 
ATOM    103  C   UNL A   1      51.945  26.510  28.006  1.00  0.00     0.200 A 
ATOM    104  F   UNL A   1      53.134  27.943  29.459  1.00  0.00    -0.200 F 
ATOM    105  F   UNL A   1      53.080  26.191  27.369  1.00  0.00    -0.200 F 
ENDBRANCH  72  95
ENDBRANCH  46  47
ENDBRANCH  39  41
ENDBRANCH  38  39
ENDBRANCH  37  38
ENDBRANCH  36  37
ENDBRANCH  35  36
ENDBRANCH  34  35
ENDBRANCH  33  34
ENDBRANCH  32  33
ENDBRANCH   1  32
TORSDOF 25
ENDMDL
MODEL 2
REMARK VINA RESULT:      -7.4      4.642     10.387
REMARK SMILES O=C(COc1cc(-c2ccccc2)nc(Nc2ccccc2Br)n1)OCCOCCOCCOCCOC(=O)c1ccc(-c2c3nc(c(-c4c(F)c(F)c(F)c(F)c4F)c4ccc([nH]4)c(-c4c(F)c(F)c(F)c(F)c4F)c4nc(c(-c5c(F)c(F)c(F)c(F)c5F)c5ccc2[nH]5)C=C4)C=C3)cc1
REMARK SMILES IDX 30 1 29 2 28 3 27 4 26 5 25 6 2 7 1 8 3 9 4 10 5 11 6 12
REMARK SMILES IDX 24 13 7 14 15 15 14 16 8 17 9 18 13 19 10 20 12 21 11 22
REMARK SMILES IDX 16 23 17 25 18 26 22 27 19 28 21 29 23 30 20 31 31 32 32 33
REMARK SMILES IDX 33 34 34 35 35 36 36 37 37 38 38 39 39 40 40 41 41 42 102 43
REMARK SMILES IDX 42 44 101 45 43 46 44 47 45 48 95 49 46 50 100 51 94 52
REMARK SMILES IDX 96 53 47 54 99 55 93 56 92 57 48 59 80 60 60 61 79 62 61 63
REMARK SMILES IDX 64 64 78 65 97 66 62 67 63 68 77 70 98 71 65 72 49 73 50 74
REMARK SMILES IDX 58 75 51 76 52 77 56 78 59 79 53 80 54 81 57 82 55 83 81 84
REMARK SMILES IDX 82 85 90 86 83 87 84 88 88 89 91 90 85 91 86 92 89 93 87 94
REMARK SMILES IDX 66 95 67 96 75 97 68 98 69 99 73 100 76 101 70 102 71 103
REMARK SMILES IDX 74 104 72 105
REMARK H PARENT 16 24 96 58 64 69
REMARK Flexibility Score: inf
ROOT
ATOM      1  C   UNL A   1      44.035  41.872  29.507  1.00  0.00     0.188 C 
ENDROOT
BRANCH   1   2
ATOM      2  C   UNL A   1      43.785  40.857  28.381  1.00  0.00     0.188 C 
BRANCH   2   3
ATOM      3  O   UNL A   1      43.555  39.516  28.774  1.00  0.00    -0.376 OA
BRANCH   3   4
ATOM      4  C   UNL A   1      43.473  38.384  27.937  1.00  0.00     0.202 C 
BRANCH   4   5
ATOM      5  C   UNL A   1      44.200  37.081  28.273  1.00  0.00     0.261 C 
BRANCH   5   6
ATOM      6  O   UNL A   1      43.432  35.864  28.228  1.00  0.00    -0.461 OA
BRANCH   6   7
ATOM      7  C   UNL A   1      42.490  35.538  27.314  1.00  0.00     0.344 C 
ATOM      8  O   UNL A   1      42.801  35.445  26.130  1.00  0.00    -0.248 OA
BRANCH   7   9
ATOM      9  C   UNL A   1      41.058  35.331  27.790  1.00  0.00     0.353 C 
BRANCH   9  10
ATOM     10  O   UNL A   1      40.874  35.712  29.153  1.00  0.00    -0.466 OA
BRANCH  10  11
ATOM     11  C   UNL A   1      40.221  34.690  29.768  1.00  0.00     0.219 A 
ATOM     12  C   UNL A   1      39.068  34.198  29.242  1.00  0.00     0.097 A 
ATOM     13  N   UNL A   1      40.673  34.425  30.976  1.00  0.00    -0.177 NA
ATOM     14  C   UNL A   1      38.253  33.551  30.136  1.00  0.00     0.080 A 
ATOM     15  C   UNL A   1      39.899  33.679  31.758  1.00  0.00     0.231 A 
ATOM     16  N   UNL A   1      38.668  33.254  31.397  1.00  0.00    -0.212 NA
BRANCH  14  17
ATOM     17  C   UNL A   1      36.834  33.375  29.758  1.00  0.00     0.000 A 
ATOM     18  C   UNL A   1      35.803  33.597  30.684  1.00  0.00     0.010 A 
ATOM     19  C   UNL A   1      36.462  33.173  28.410  1.00  0.00     0.010 A 
ATOM     20  C   UNL A   1      34.463  33.634  30.277  1.00  0.00     0.001 A 
ATOM     21  C   UNL A   1      35.127  33.220  28.000  1.00  0.00     0.001 A 
ATOM     22  C   UNL A   1      34.127  33.451  28.936  1.00  0.00     0.000 A 
ENDBRANCH  14  17
BRANCH  15  23
ATOM     23  N   UNL A   1      40.445  33.319  32.993  1.00  0.00    -0.323 N 
ATOM     24  H   UNL A   1      41.403  33.098  33.031  1.00  0.00     0.170 HD
BRANCH  23  25
ATOM     25  C   UNL A   1      39.696  33.255  34.189  1.00  0.00     0.055 A 
ATOM     26  C   UNL A   1      39.460  34.441  34.903  1.00  0.00     0.027 A 
ATOM     27  C   UNL A   1      39.011  32.092  34.609  1.00  0.00     0.041 A 
ATOM     28  C   UNL A   1      38.583  34.469  35.995  1.00  0.00     0.002 A 
ATOM     29  C   UNL A   1      38.142  32.119  35.708  1.00  0.00     0.018 A 
ATOM     30  Br  UNL A   1      39.254  30.408  33.751  1.00  0.00    -0.049 Br
ATOM     31  C   UNL A   1      37.927  33.309  36.399  1.00  0.00     0.001 A 
ENDBRANCH  23  25
ENDBRANCH  15  23
ENDBRANCH  10  11
ENDBRANCH   9  10
ENDBRANCH   7   9
ENDBRANCH   6   7
ENDBRANCH   5   6
ENDBRANCH   4   5
ENDBRANCH   3   4
ENDBRANCH   2   3
ENDBRANCH   1   2
BRANCH   1  32
ATOM     32  O   UNL A   1      43.068  41.909  30.549  1.00  0.00    -0.377 OA
BRANCH  32  33
ATOM     33  C   UNL A   1      43.602  41.907  31.861  1.00  0.00     0.188 C 
BRANCH  33  34
ATOM     34  C   UNL A   1      43.169  40.702  32.720  1.00  0.00     0.188 C 
BRANCH  34  35
ATOM     35  O   UNL A   1      44.117  39.769  33.200  1.00  0.00    -0.376 OA
BRANCH  35  36
ATOM     36  C   UNL A   1      44.983  39.040  32.350  1.00  0.00     0.202 C 
BRANCH  36  37
ATOM     37  C   UNL A   1      45.125  37.508  32.297  1.00  0.00     0.261 C 
BRANCH  37  38
ATOM     38  O   UNL A   1      46.226  36.956  31.584  1.00  0.00    -0.460 OA
BRANCH  38  39
ATOM     39  C   UNL A   1      46.826  35.894  32.155  1.00  0.00     0.338 C 
ATOM     40  O   UNL A   1      47.554  35.883  33.134  1.00  0.00    -0.246 OA
BRANCH  39  41
ATOM     41  C   UNL A   1      46.271  34.685  31.516  1.00  0.00     0.060 A 
ATOM     42  C   UNL A   1      45.859  33.625  32.335  1.00  0.00     0.016 A 
ATOM     43  C   UNL A   1      46.117  34.616  30.129  1.00  0.00     0.016 A 
ATOM     44  C   UNL A   1      45.314  32.479  31.772  1.00  0.00     0.010 A 
ATOM     45  C   UNL A   1      45.617  33.446  29.558  1.00  0.00     0.010 A 
ATOM     46  C   UNL A   1      45.251  32.364  30.379  1.00  0.00    -0.014 A 
BRANCH  46  47
ATOM     47  C   UNL A   1      45.068  31.023  29.787  1.00  0.00     0.031 A 
ATOM     48  C   UNL A   1      43.659  30.552  29.564  1.00  0.00     0.074 A 
ATOM     49  C   UNL A   1      46.116  30.265  29.424  1.00  0.00     0.049 A 
ATOM     50  N   UNL A   1      43.226  29.404  29.114  1.00  0.00    -0.248 NA
ATOM     51  C   UNL A   1      42.592  31.511  29.899  1.00  0.00     0.031 C 
ATOM     52  C   UNL A   1      47.519  30.649  29.538  1.00  0.00     0.029 A 
ATOM     53  N   UNL A   1      46.150  29.002  28.890  1.00  0.00    -0.354 N 
ATOM     54  C   UNL A   1      41.841  29.501  29.122  1.00  0.00     0.074 A 
ATOM     55  C   UNL A   1      41.503  30.805  29.647  1.00  0.00     0.031 C 
ATOM     56  C   UNL A   1      48.283  29.631  29.105  1.00  0.00     0.029 A 
ATOM     57  C   UNL A   1      47.420  28.515  28.720  1.00  0.00     0.049 A 
ATOM     58  H   UNL A   1      45.340  28.494  28.654  1.00  0.00     0.167 HD
ATOM     59  C   UNL A   1      40.932  28.583  28.720  1.00  0.00     0.037 A 
ATOM     60  C   UNL A   1      47.828  27.293  28.326  1.00  0.00     0.037 A 
ATOM     61  C   UNL A   1      41.279  27.286  28.208  1.00  0.00     0.049 A 
ATOM     62  C   UNL A   1      46.794  26.254  27.968  1.00  0.00     0.074 A 
ATOM     63  C   UNL A   1      40.440  26.281  27.765  1.00  0.00     0.029 A 
ATOM     64  N   UNL A   1      42.578  26.811  28.083  1.00  0.00    -0.354 N 
ATOM     65  N   UNL A   1      45.486  26.353  27.958  1.00  0.00    -0.248 NA
ATOM     66  C   UNL A   1      47.295  24.933  27.565  1.00  0.00     0.031 C 
ATOM     67  C   UNL A   1      41.226  25.174  27.433  1.00  0.00     0.029 A 
ATOM     68  C   UNL A   1      42.560  25.514  27.598  1.00  0.00     0.049 A 
ATOM     69  H   UNL A   1      43.390  27.321  28.306  1.00  0.00     0.167 HD
ATOM     70  C   UNL A   1      45.011  25.124  27.514  1.00  0.00     0.074 A 
ATOM     71  C   UNL A   1      46.173  24.300  27.255  1.00  0.00     0.031 C 
ATOM     72  C   UNL A   1      43.730  24.714  27.334  1.00  0.00     0.037 A 
BRANCH  59  73
ATOM     73  C   UNL A   1      39.481  28.938  28.861  1.00  0.00     0.064 A 
ATOM     74  C   UNL A   1      38.711  29.364  27.767  1.00  0.00     0.173 A 
ATOM     75  C   UNL A   1      38.845  28.829  30.106  1.00  0.00     0.173 A 
ATOM     76  F   UNL A   1      39.275  29.504  26.558  1.00  0.00    -0.203 F 
ATOM     77  C   UNL A   1      37.367  29.695  27.922  1.00  0.00     0.198 A 
ATOM     78  C   UNL A   1      37.493  29.126  30.251  1.00  0.00     0.198 A 
ATOM     79  F   UNL A   1      39.534  28.428  31.185  1.00  0.00    -0.203 F 
ATOM     80  F   UNL A   1      36.667  30.151  26.875  1.00  0.00    -0.200 F 
ATOM     81  C   UNL A   1      36.758  29.567  29.161  1.00  0.00     0.200 A 
ATOM     82  F   UNL A   1      36.903  28.989  31.446  1.00  0.00    -0.200 F 
ATOM     83  F   UNL A   1      35.461  29.875  29.307  1.00  0.00    -0.200 F 
ENDBRANCH  59  73
BRANCH  60  84
ATOM     84  C   UNL A   1      49.280  26.975  28.263  1.00  0.00     0.064 A 
ATOM     85  C   UNL A   1      49.974  26.991  27.046  1.00  0.00     0.173 A 
ATOM     86  C   UNL A   1      49.997  26.621  29.417  1.00  0.00     0.173 A 
ATOM     87  F   UNL A   1      49.330  27.298  25.912  1.00  0.00    -0.203 F 
ATOM     88  C   UNL A   1      51.322  26.643  26.980  1.00  0.00     0.198 A 
ATOM     89  C   UNL A   1      51.353  26.306  29.356  1.00  0.00     0.198 A 
ATOM     90  F   UNL A   1      49.382  26.590  30.608  1.00  0.00    -0.203 F 
ATOM     91  F   UNL A   1      51.948  26.613  25.796  1.00  0.00    -0.200 F 
ATOM     92  C   UNL A   1      52.012  26.307  28.136  1.00  0.00     0.200 A 
ATOM     93  F   UNL A   1      52.018  25.998  30.477  1.00  0.00    -0.200 F 
ATOM     94  F   UNL A   1      53.309  25.976  28.073  1.00  0.00    -0.200 F 
ENDBRANCH  60  84
BRANCH  72  95
ATOM     95  C   UNL A   1      43.514  23.334  26.782  1.00  0.00     0.064 A 
ATOM     96  C   UNL A   1      43.960  22.966  25.505  1.00  0.00     0.173 A 
ATOM     97  C   UNL A   1      42.895  22.348  27.569  1.00  0.00     0.173 A 
ATOM     98  F   UNL A   1      44.547  23.872  24.708  1.00  0.00    -0.203 F 
ATOM     99  C   UNL A   1      43.768  21.673  25.024  1.00  0.00     0.198 A 
ATOM    100  C   UNL A   1      42.738  21.047  27.100  1.00  0.00     0.198 A 
ATOM    101  F   UNL A   1      42.459  22.643  28.803  1.00  0.00    -0.203 F 
ATOM    102  F   UNL A   1      44.154  21.359  23.780  1.00  0.00    -0.200 F 
ATOM    103  C   UNL A   1      43.166  20.714  25.824  1.00  0.00     0.200 A 
ATOM    104  F   UNL A   1      42.174  20.117  27.883  1.00  0.00    -0.200 F 
ATOM    105  F   UNL A   1      42.993  19.467  25.364  1.00  0.00    -0.200 F 
ENDBRANCH  72  95
ENDBRANCH  46  47
ENDBRANCH  39  41
ENDBRANCH  38  39
ENDBRANCH  37  38
ENDBRANCH  36  37
ENDBRANCH  35  36
ENDBRANCH  34  35
ENDBRANCH  33  34
ENDBRANCH  32  33
ENDBRANCH   1  32
TORSDOF 25
ENDMDL
MODEL 3
REMARK VINA RESULT:      -7.4      5.108      9.346
REMARK SMILES O=C(COc1cc(-c2ccccc2)nc(Nc2ccccc2Br)n1)OCCOCCOCCOCCOC(=O)c1ccc(-c2c3nc(c(-c4c(F)c(F)c(F)c(F)c4F)c4ccc([nH]4)c(-c4c(F)c(F)c(F)c(F)c4F)c4nc(c(-c5c(F)c(F)c(F)c(F)c5F)c5ccc2[nH]5)C=C4)C=C3)cc1
REMARK SMILES IDX 30 1 29 2 28 3 27 4 26 5 25 6 2 7 1 8 3 9 4 10 5 11 6 12
REMARK SMILES IDX 24 13 7 14 15 15 14 16 8 17 9 18 13 19 10 20 12 21 11 22
REMARK SMILES IDX 16 23 17 25 18 26 22 27 19 28 21 29 23 30 20 31 31 32 32 33
REMARK SMILES IDX 33 34 34 35 35 36 36 37 37 38 38 39 39 40 40 41 41 42 102 43
REMARK SMILES IDX 42 44 101 45 43 46 44 47 45 48 95 49 46 50 100 51 94 52
REMARK SMILES IDX 96 53 47 54 99 55 93 56 92 57 48 59 80 60 60 61 79 62 61 63
REMARK SMILES IDX 64 64 78 65 97 66 62 67 63 68 77 70 98 71 65 72 49 73 50 74
REMARK SMILES IDX 58 75 51 76 52 77 56 78 59 79 53 80 54 81 57 82 55 83 81 84
REMARK SMILES IDX 82 85 90 86 83 87 84 88 88 89 91 90 85 91 86 92 89 93 87 94
REMARK SMILES IDX 66 95 67 96 75 97 68 98 69 99 73 100 76 101 70 102 71 103
REMARK SMILES IDX 74 104 72 105
REMARK H PARENT 16 24 96 58 64 69
REMARK Flexibility Score: inf
ROOT
ATOM      1  C   UNL A   1      40.183  26.396  29.088  1.00  0.00     0.188 C 
ENDROOT
BRANCH   1   2
ATOM      2  C   UNL A   1      39.014  27.360  28.842  1.00  0.00     0.188 C 
BRANCH   2   3
ATOM      3  O   UNL A   1      39.321  28.578  28.189  1.00  0.00    -0.376 OA
BRANCH   3   4
ATOM      4  C   UNL A   1      38.417  29.583  27.786  1.00  0.00     0.202 C 
BRANCH   4   5
ATOM      5  C   UNL A   1      37.638  30.417  28.803  1.00  0.00     0.261 C 
BRANCH   5   6
ATOM      6  O   UNL A   1      36.224  30.170  28.918  1.00  0.00    -0.461 OA
BRANCH   6   7
ATOM      7  C   UNL A   1      35.241  30.768  28.208  1.00  0.00     0.344 C 
ATOM      8  O   UNL A   1      34.873  31.898  28.515  1.00  0.00    -0.248 OA
BRANCH   7   9
ATOM      9  C   UNL A   1      34.598  29.994  27.065  1.00  0.00     0.353 C 
BRANCH   9  10
ATOM     10  O   UNL A   1      33.223  29.702  27.305  1.00  0.00    -0.466 OA
BRANCH  10  11
ATOM     11  C   UNL A   1      32.789  28.937  26.269  1.00  0.00     0.219 A 
ATOM     12  C   UNL A   1      32.005  29.480  25.298  1.00  0.00     0.097 A 
ATOM     13  N   UNL A   1      32.996  27.649  26.439  1.00  0.00    -0.177 NA
ATOM     14  C   UNL A   1      31.239  28.579  24.602  1.00  0.00     0.080 A 
ATOM     15  C   UNL A   1      32.325  26.821  25.643  1.00  0.00     0.231 A 
ATOM     16  N   UNL A   1      31.410  27.237  24.741  1.00  0.00    -0.212 NA
BRANCH  14  17
ATOM     17  C   UNL A   1      30.078  29.109  23.855  1.00  0.00     0.000 A 
ATOM     18  C   UNL A   1      29.157  28.248  23.238  1.00  0.00     0.010 A 
ATOM     19  C   UNL A   1      29.747  30.483  23.906  1.00  0.00     0.010 A 
ATOM     20  C   UNL A   1      27.954  28.736  22.712  1.00  0.00     0.001 A 
ATOM     21  C   UNL A   1      28.543  30.969  23.391  1.00  0.00     0.001 A 
ATOM     22  C   UNL A   1      27.645  30.093  22.794  1.00  0.00     0.000 A 
ENDBRANCH  14  17
BRANCH  15  23
ATOM     23  N   UNL A   1      32.642  25.466  25.767  1.00  0.00    -0.323 N 
ATOM     24  H   UNL A   1      32.893  25.125  26.655  1.00  0.00     0.170 HD
BRANCH  23  25
ATOM     25  C   UNL A   1      32.624  24.557  24.684  1.00  0.00     0.055 A 
ATOM     26  C   UNL A   1      33.494  24.777  23.603  1.00  0.00     0.027 A 
ATOM     27  C   UNL A   1      31.914  23.336  24.714  1.00  0.00     0.041 A 
ATOM     28  C   UNL A   1      33.645  23.824  22.588  1.00  0.00     0.002 A 
ATOM     29  C   UNL A   1      32.060  22.387  23.692  1.00  0.00     0.018 A 
ATOM     30  Br  UNL A   1      30.682  22.913  26.106  1.00  0.00    -0.049 Br
ATOM     31  C   UNL A   1      32.927  22.631  22.631  1.00  0.00     0.001 A 
ENDBRANCH  23  25
ENDBRANCH  15  23
ENDBRANCH  10  11
ENDBRANCH   9  10
ENDBRANCH   7   9
ENDBRANCH   6   7
ENDBRANCH   5   6
ENDBRANCH   4   5
ENDBRANCH   3   4
ENDBRANCH   2   3
ENDBRANCH   1   2
BRANCH   1  32
ATOM     32  O   UNL A   1      41.025  26.126  27.972  1.00  0.00    -0.377 OA
BRANCH  32  33
ATOM     33  C   UNL A   1      40.853  24.846  27.390  1.00  0.00     0.188 C 
BRANCH  33  34
ATOM     34  C   UNL A   1      41.722  23.741  28.024  1.00  0.00     0.188 C 
BRANCH  34  35
ATOM     35  O   UNL A   1      41.479  22.375  27.750  1.00  0.00    -0.376 OA
BRANCH  35  36
ATOM     36  C   UNL A   1      41.694  21.791  26.478  1.00  0.00     0.202 C 
BRANCH  36  37
ATOM     37  C   UNL A   1      42.998  21.851  25.662  1.00  0.00     0.261 C 
BRANCH  37  38
ATOM     38  O   UNL A   1      43.099  22.818  24.622  1.00  0.00    -0.460 OA
BRANCH  38  39
ATOM     39  C   UNL A   1      44.344  23.236  24.323  1.00  0.00     0.338 C 
ATOM     40  O   UNL A   1      45.055  22.868  23.403  1.00  0.00    -0.246 OA
BRANCH  39  41
ATOM     41  C   UNL A   1      44.632  24.397  25.187  1.00  0.00     0.060 A 
ATOM     42  C   UNL A   1      45.870  24.452  25.843  1.00  0.00     0.016 A 
ATOM     43  C   UNL A   1      43.711  25.440  25.314  1.00  0.00     0.016 A 
ATOM     44  C   UNL A   1      46.186  25.538  26.648  1.00  0.00     0.010 A 
ATOM     45  C   UNL A   1      44.005  26.507  26.162  1.00  0.00     0.010 A 
ATOM     46  C   UNL A   1      45.228  26.536  26.858  1.00  0.00    -0.014 A 
BRANCH  46  47
ATOM     47  C   UNL A   1      45.396  27.448  28.008  1.00  0.00     0.031 A 
ATOM     48  C   UNL A   1      45.332  26.846  29.383  1.00  0.00     0.074 A 
ATOM     49  C   UNL A   1      45.637  28.758  27.837  1.00  0.00     0.049 A 
ATOM     50  N   UNL A   1      45.393  27.429  30.551  1.00  0.00    -0.248 NA
ATOM     51  C   UNL A   1      45.173  25.383  29.446  1.00  0.00     0.031 C 
ATOM     52  C   UNL A   1      45.780  29.432  26.551  1.00  0.00     0.029 A 
ATOM     53  N   UNL A   1      45.794  29.755  28.765  1.00  0.00    -0.354 N 
ATOM     54  C   UNL A   1      45.271  26.407  31.483  1.00  0.00     0.074 A 
ATOM     55  C   UNL A   1      45.103  25.173  30.750  1.00  0.00     0.031 C 
ATOM     56  C   UNL A   1      45.986  30.743  26.770  1.00  0.00     0.029 A 
ATOM     57  C   UNL A   1      45.950  31.000  28.209  1.00  0.00     0.049 A 
ATOM     58  H   UNL A   1      45.793  29.594  29.736  1.00  0.00     0.167 HD
ATOM     59  C   UNL A   1      45.303  26.493  32.832  1.00  0.00     0.037 A 
ATOM     60  C   UNL A   1      46.024  32.206  28.805  1.00  0.00     0.037 A 
ATOM     61  C   UNL A   1      45.462  27.727  33.551  1.00  0.00     0.049 A 
ATOM     62  C   UNL A   1      45.967  32.286  30.311  1.00  0.00     0.074 A 
ATOM     63  C   UNL A   1      45.516  27.929  34.918  1.00  0.00     0.029 A 
ATOM     64  N   UNL A   1      45.581  28.976  32.956  1.00  0.00    -0.354 N 
ATOM     65  N   UNL A   1      45.870  31.318  31.190  1.00  0.00    -0.248 NA
ATOM     66  C   UNL A   1      46.031  33.628  30.905  1.00  0.00     0.031 C 
ATOM     67  C   UNL A   1      45.602  29.304  35.151  1.00  0.00     0.029 A 
ATOM     68  C   UNL A   1      45.677  29.955  33.929  1.00  0.00     0.049 A 
ATOM     69  H   UNL A   1      45.595  29.139  31.985  1.00  0.00     0.167 HD
ATOM     70  C   UNL A   1      45.899  31.929  32.438  1.00  0.00     0.074 A 
ATOM     71  C   UNL A   1      46.033  33.351  32.201  1.00  0.00     0.031 C 
ATOM     72  C   UNL A   1      45.824  31.366  33.671  1.00  0.00     0.037 A 
BRANCH  59  73
ATOM     73  C   UNL A   1      45.120  25.224  33.611  1.00  0.00     0.064 A 
ATOM     74  C   UNL A   1      43.877  24.856  34.151  1.00  0.00     0.173 A 
ATOM     75  C   UNL A   1      46.201  24.351  33.804  1.00  0.00     0.173 A 
ATOM     76  F   UNL A   1      42.815  25.664  34.013  1.00  0.00    -0.203 F 
ATOM     77  C   UNL A   1      43.732  23.676  34.876  1.00  0.00     0.198 A 
ATOM     78  C   UNL A   1      46.045  23.156  34.499  1.00  0.00     0.198 A 
ATOM     79  F   UNL A   1      47.411  24.655  33.311  1.00  0.00    -0.203 F 
ATOM     80  F   UNL A   1      42.549  23.373  35.427  1.00  0.00    -0.200 F 
ATOM     81  C   UNL A   1      44.813  22.824  35.042  1.00  0.00     0.200 A 
ATOM     82  F   UNL A   1      47.087  22.327  34.646  1.00  0.00    -0.200 F 
ATOM     83  F   UNL A   1      44.669  21.683  35.731  1.00  0.00    -0.200 F 
ENDBRANCH  59  73
BRANCH  60  84
ATOM     84  C   UNL A   1      46.143  33.438  27.981  1.00  0.00     0.064 A 
ATOM     85  C   UNL A   1      45.005  34.120  27.526  1.00  0.00     0.173 A 
ATOM     86  C   UNL A   1      47.397  33.945  27.607  1.00  0.00     0.173 A 
ATOM     87  F   UNL A   1      43.784  33.663  27.835  1.00  0.00    -0.203 F 
ATOM     88  C   UNL A   1      45.117  35.245  26.711  1.00  0.00     0.198 A 
ATOM     89  C   UNL A   1      47.508  35.090  26.820  1.00  0.00     0.198 A 
ATOM     90  F   UNL A   1      48.519  33.332  28.014  1.00  0.00    -0.203 F 
ATOM     91  F   UNL A   1      44.012  35.844  26.246  1.00  0.00    -0.200 F 
ATOM     92  C   UNL A   1      46.368  35.732  26.364  1.00  0.00     0.200 A 
ATOM     93  F   UNL A   1      48.719  35.566  26.501  1.00  0.00    -0.200 F 
ATOM     94  F   UNL A   1      46.474  36.817  25.584  1.00  0.00    -0.200 F 
ENDBRANCH  60  84
BRANCH  72  95
ATOM     95  C   UNL A   1      45.940  32.278  34.859  1.00  0.00     0.064 A 
ATOM     96  C   UNL A   1      47.175  32.572  35.452  1.00  0.00     0.173 A 
ATOM     97  C   UNL A   1      44.797  32.909  35.379  1.00  0.00     0.173 A 
ATOM     98  F   UNL A   1      48.296  31.988  35.002  1.00  0.00    -0.203 F 
ATOM     99  C   UNL A   1      47.260  33.439  36.539  1.00  0.00     0.198 A 
ATOM    100  C   UNL A   1      44.890  33.804  36.441  1.00  0.00     0.198 A 
ATOM    101  F   UNL A   1      43.590  32.671  34.842  1.00  0.00    -0.203 F 
ATOM    102  F   UNL A   1      48.444  33.664  37.124  1.00  0.00    -0.200 F 
ATOM    103  C   UNL A   1      46.119  34.060  37.026  1.00  0.00     0.200 A 
ATOM    104  F   UNL A   1      43.789  34.417  36.896  1.00  0.00    -0.200 F 
ATOM    105  F   UNL A   1      46.205  34.904  38.064  1.00  0.00    -0.200 F 
ENDBRANCH  72  95
ENDBRANCH  46  47
ENDBRANCH  39  41
ENDBRANCH  38  39
ENDBRANCH  37  38
ENDBRANCH  36  37
ENDBRANCH  35  36
ENDBRANCH  34  35
ENDBRANCH  33  34
ENDBRANCH  32  33
ENDBRANCH   1  32
TORSDOF 25
ENDMDL
