MODEL 1
REMARK VINA RESULT:     -11.2      0.000      0.000
REMARK SMILES O=C(COc1ccc(/C=C2/C(=O)[NH+]=C(O)N=C2O)cc1Cl)OCCOCCOCCOCCOC(=O)c1ccc(-c2c3nc(c(-c4c(F)c(F)c(F)c(F)c4F)c4ccc([nH]4)c(-c4c(F)c(F)c(F)c(F)c4F)c4nc(c(-c5c(F)c(F)c(F)c(F)c5F)c5ccc2[nH]5)C=C4)C=C3)cc1
REMARK SMILES IDX 27 1 26 2 25 3 24 4 23 5 22 6 2 7 1 8 3 9 4 10 5 11 6 12
REMARK SMILES IDX 20 13 7 14 19 15 21 16 8 17 9 18 10 19 11 20 17 21 12 22
REMARK SMILES IDX 13 23 16 24 14 25 18 27 15 29 28 31 29 32 30 33 31 34 32 35
REMARK SMILES IDX 33 36 34 37 35 38 36 39 37 40 38 41 99 42 39 43 98 44 40 45
REMARK SMILES IDX 41 46 42 47 92 48 43 49 97 50 91 51 93 52 44 53 96 54 90 55
REMARK SMILES IDX 89 56 45 58 77 59 57 60 76 61 58 62 61 63 75 64 94 65 59 66
REMARK SMILES IDX 60 67 74 69 95 70 62 71 46 72 47 73 55 74 48 75 49 76 53 77
REMARK SMILES IDX 56 78 50 79 51 80 54 81 52 82 78 83 79 84 87 85 80 86 81 87
REMARK SMILES IDX 85 88 88 89 82 90 83 91 86 92 84 93 63 94 64 95 72 96 65 97
REMARK SMILES IDX 66 98 70 99 73 100 67 101 68 102 71 103 69 104
REMARK H PARENT 13 26 18 28 15 30 93 57 61 68
REMARK Flexibility Score: inf
ROOT
ATOM      1  C   UNL A   1      40.801  20.332  26.349  1.00  0.00     0.188 C 
ENDROOT
BRANCH   1   2
ATOM      2  C   UNL A   1      40.375  21.545  27.193  1.00  0.00     0.188 C 
BRANCH   2   3
ATOM      3  O   UNL A   1      39.494  22.458  26.552  1.00  0.00    -0.376 OA
BRANCH   3   4
ATOM      4  C   UNL A   1      38.414  22.082  25.723  1.00  0.00     0.202 C 
BRANCH   4   5
ATOM      5  C   UNL A   1      37.167  22.964  25.592  1.00  0.00     0.261 C 
BRANCH   5   6
ATOM      6  O   UNL A   1      36.713  23.279  24.258  1.00  0.00    -0.461 OA
BRANCH   6   7
ATOM      7  C   UNL A   1      35.476  23.674  23.888  1.00  0.00     0.344 C 
ATOM      8  O   UNL A   1      35.054  23.406  22.763  1.00  0.00    -0.248 OA
BRANCH   7   9
ATOM      9  C   UNL A   1      34.660  24.493  24.860  1.00  0.00     0.352 C 
BRANCH   9  10
ATOM     10  O   UNL A   1      33.527  23.796  25.369  1.00  0.00    -0.480 OA
BRANCH  10  11
ATOM     11  C   UNL A   1      32.368  24.451  25.113  1.00  0.00     0.138 A 
ATOM     12  C   UNL A   1      32.105  25.523  25.959  1.00  0.00     0.048 A 
ATOM     13  C   UNL A   1      31.478  24.116  24.092  1.00  0.00     0.083 A 
ATOM     14  C   UNL A   1      31.024  26.351  25.692  1.00  0.00     0.012 A 
ATOM     15  C   UNL A   1      30.460  24.996  23.776  1.00  0.00     0.032 A 
ATOM     16  Cl  UNL A   1      31.521  22.636  23.216  1.00  0.00    -0.080 Cl
ATOM     17  C   UNL A   1      30.263  26.152  24.536  1.00  0.00    -0.023 A 
BRANCH  17  18
ATOM     18  C   UNL A   1      29.205  27.050  24.085  1.00  0.00     0.032 C 
ATOM     19  C   UNL A   1      29.215  27.989  23.125  1.00  0.00     0.154 C 
ATOM     20  C   UNL A   1      27.987  28.815  23.019  1.00  0.00     0.349 C 
ATOM     21  C   UNL A   1      30.275  28.441  22.231  1.00  0.00     0.345 C 
ATOM     22  O   UNL A   1      26.880  28.350  23.271  1.00  0.00    -0.240 OA
ATOM     23  N   UNL A   1      28.205  30.122  22.699  1.00  0.00    -0.168 N 
ATOM     24  N   UNL A   1      30.328  29.632  21.758  1.00  0.00     0.036 NA
ATOM     25  C   UNL A   1      29.310  30.439  22.132  1.00  0.00     0.500 C 
ATOM     26  H   UNL A   1      27.529  30.807  22.900  1.00  0.00     0.319 HD
BRANCH  21  27
ATOM     27  O   UNL A   1      31.195  27.552  21.830  1.00  0.00    -0.474 OA
ATOM     28  H   UNL A   1      31.923  27.348  22.383  1.00  0.00     0.297 HD
ENDBRANCH  21  27
BRANCH  25  29
ATOM     29  O   UNL A   1      29.525  31.725  21.848  1.00  0.00    -0.443 OA
ATOM     30  H   UNL A   1      29.026  32.390  22.279  1.00  0.00     0.301 HD
ENDBRANCH  25  29
ENDBRANCH  17  18
ENDBRANCH  10  11
ENDBRANCH   9  10
ENDBRANCH   7   9
ENDBRANCH   6   7
ENDBRANCH   5   6
ENDBRANCH   4   5
ENDBRANCH   3   4
ENDBRANCH   2   3
ENDBRANCH   1   2
BRANCH   1  31
ATOM     31  O   UNL A   1      42.094  20.390  25.753  1.00  0.00    -0.377 OA
BRANCH  31  32
ATOM     32  C   UNL A   1      42.805  19.161  25.696  1.00  0.00     0.188 C 
BRANCH  32  33
ATOM     33  C   UNL A   1      44.227  19.299  25.119  1.00  0.00     0.188 C 
BRANCH  33  34
ATOM     34  O   UNL A   1      44.551  20.616  24.687  1.00  0.00    -0.376 OA
BRANCH  34  35
ATOM     35  C   UNL A   1      45.577  21.297  25.401  1.00  0.00     0.202 C 
BRANCH  35  36
ATOM     36  C   UNL A   1      45.740  22.805  25.136  1.00  0.00     0.261 C 
BRANCH  36  37
ATOM     37  O   UNL A   1      44.894  23.672  25.915  1.00  0.00    -0.460 OA
BRANCH  37  38
ATOM     38  C   UNL A   1      43.708  24.034  25.392  1.00  0.00     0.338 C 
ATOM     39  O   UNL A   1      43.145  23.552  24.426  1.00  0.00    -0.246 OA
BRANCH  38  40
ATOM     40  C   UNL A   1      43.066  24.976  26.336  1.00  0.00     0.060 A 
ATOM     41  C   UNL A   1      43.561  26.285  26.396  1.00  0.00     0.016 A 
ATOM     42  C   UNL A   1      41.970  24.598  27.119  1.00  0.00     0.016 A 
ATOM     43  C   UNL A   1      42.997  27.205  27.275  1.00  0.00     0.010 A 
ATOM     44  C   UNL A   1      41.423  25.511  28.025  1.00  0.00     0.010 A 
ATOM     45  C   UNL A   1      41.967  26.803  28.135  1.00  0.00    -0.014 A 
BRANCH  45  46
ATOM     46  C   UNL A   1      41.677  27.650  29.315  1.00  0.00     0.031 A 
ATOM     47  C   UNL A   1      40.470  28.546  29.243  1.00  0.00     0.074 A 
ATOM     48  C   UNL A   1      42.399  27.566  30.445  1.00  0.00     0.049 A 
ATOM     49  N   UNL A   1      39.941  29.310  30.164  1.00  0.00    -0.248 NA
ATOM     50  C   UNL A   1      39.754  28.573  27.956  1.00  0.00     0.031 C 
ATOM     51  C   UNL A   1      43.571  26.717  30.640  1.00  0.00     0.029 A 
ATOM     52  N   UNL A   1      42.239  28.206  31.647  1.00  0.00    -0.354 N 
ATOM     53  C   UNL A   1      38.822  29.883  29.577  1.00  0.00     0.074 A 
ATOM     54  C   UNL A   1      38.772  29.423  28.207  1.00  0.00     0.031 C 
ATOM     55  C   UNL A   1      44.032  26.895  31.891  1.00  0.00     0.029 A 
ATOM     56  C   UNL A   1      43.193  27.876  32.579  1.00  0.00     0.049 A 
ATOM     57  H   UNL A   1      41.508  28.842  31.827  1.00  0.00     0.167 HD
ATOM     58  C   UNL A   1      37.902  30.704  30.134  1.00  0.00     0.037 A 
ATOM     59  C   UNL A   1      43.362  28.325  33.838  1.00  0.00     0.037 A 
ATOM     60  C   UNL A   1      37.968  31.187  31.485  1.00  0.00     0.049 A 
ATOM     61  C   UNL A   1      42.363  29.299  34.413  1.00  0.00     0.074 A 
ATOM     62  C   UNL A   1      37.103  32.045  32.140  1.00  0.00     0.029 A 
ATOM     63  N   UNL A   1      38.969  30.858  32.388  1.00  0.00    -0.354 N 
ATOM     64  N   UNL A   1      41.289  29.811  33.863  1.00  0.00    -0.248 NA
ATOM     65  C   UNL A   1      42.595  29.744  35.796  1.00  0.00     0.031 C 
ATOM     66  C   UNL A   1      37.604  32.269  33.427  1.00  0.00     0.029 A 
ATOM     67  C   UNL A   1      38.752  31.508  33.590  1.00  0.00     0.049 A 
ATOM     68  H   UNL A   1      39.722  30.251  32.201  1.00  0.00     0.167 HD
ATOM     69  C   UNL A   1      40.705  30.616  34.833  1.00  0.00     0.074 A 
ATOM     70  C   UNL A   1      41.532  30.505  36.017  1.00  0.00     0.031 C 
ATOM     71  C   UNL A   1      39.588  31.382  34.756  1.00  0.00     0.037 A 
BRANCH  58  72
ATOM     72  C   UNL A   1      36.758  31.137  29.267  1.00  0.00     0.064 A 
ATOM     73  C   UNL A   1      36.653  32.457  28.801  1.00  0.00     0.173 A 
ATOM     74  C   UNL A   1      35.764  30.224  28.888  1.00  0.00     0.173 A 
ATOM     75  F   UNL A   1      37.567  33.374  29.156  1.00  0.00    -0.203 F 
ATOM     76  C   UNL A   1      35.582  32.852  28.004  1.00  0.00     0.198 A 
ATOM     77  C   UNL A   1      34.709  30.615  28.067  1.00  0.00     0.198 A 
ATOM     78  F   UNL A   1      35.816  28.953  29.310  1.00  0.00    -0.203 F 
ATOM     79  F   UNL A   1      35.477  34.128  27.608  1.00  0.00    -0.200 F 
ATOM     80  C   UNL A   1      34.615  31.929  27.631  1.00  0.00     0.200 A 
ATOM     81  F   UNL A   1      33.779  29.722  27.702  1.00  0.00    -0.200 F 
ATOM     82  F   UNL A   1      33.588  32.308  26.859  1.00  0.00    -0.200 F 
ENDBRANCH  58  72
BRANCH  59  83
ATOM     83  C   UNL A   1      44.526  27.868  34.644  1.00  0.00     0.064 A 
ATOM     84  C   UNL A   1      44.404  26.839  35.587  1.00  0.00     0.173 A 
ATOM     85  C   UNL A   1      45.779  28.486  34.513  1.00  0.00     0.173 A 
ATOM     86  F   UNL A   1      43.222  26.233  35.768  1.00  0.00    -0.203 F 
ATOM     87  C   UNL A   1      45.483  26.462  36.385  1.00  0.00     0.198 A 
ATOM     88  C   UNL A   1      46.864  28.089  35.292  1.00  0.00     0.198 A 
ATOM     89  F   UNL A   1      45.949  29.479  33.628  1.00  0.00    -0.203 F 
ATOM     90  F   UNL A   1      45.324  25.512  37.318  1.00  0.00    -0.200 F 
ATOM     91  C   UNL A   1      46.712  27.084  36.234  1.00  0.00     0.200 A 
ATOM     92  F   UNL A   1      48.053  28.686  35.134  1.00  0.00    -0.200 F 
ATOM     93  F   UNL A   1      47.749  26.723  37.005  1.00  0.00    -0.200 F 
ENDBRANCH  59  83
BRANCH  71  94
ATOM     94  C   UNL A   1      39.185  32.135  35.991  1.00  0.00     0.064 A 
ATOM     95  C   UNL A   1      38.315  31.580  36.941  1.00  0.00     0.173 A 
ATOM     96  C   UNL A   1      39.697  33.418  36.239  1.00  0.00     0.173 A 
ATOM     97  F   UNL A   1      37.791  30.361  36.746  1.00  0.00    -0.203 F 
ATOM     98  C   UNL A   1      37.944  32.296  38.076  1.00  0.00     0.198 A 
ATOM     99  C   UNL A   1      39.350  34.118  37.391  1.00  0.00     0.198 A 
ATOM    100  F   UNL A   1      40.541  33.991  35.368  1.00  0.00    -0.203 F 
ATOM    101  F   UNL A   1      37.067  31.769  38.941  1.00  0.00    -0.200 F 
ATOM    102  C   UNL A   1      38.465  33.562  38.303  1.00  0.00     0.200 A 
ATOM    103  F   UNL A   1      39.866  35.334  37.616  1.00  0.00    -0.200 F 
ATOM    104  F   UNL A   1      38.107  34.249  39.396  1.00  0.00    -0.200 F 
ENDBRANCH  71  94
ENDBRANCH  45  46
ENDBRANCH  38  40
ENDBRANCH  37  38
ENDBRANCH  36  37
ENDBRANCH  35  36
ENDBRANCH  34  35
ENDBRANCH  33  34
ENDBRANCH  32  33
ENDBRANCH  31  32
ENDBRANCH   1  31
TORSDOF 25
ENDMDL
MODEL 2
REMARK VINA RESULT:     -10.9      1.253      2.323
REMARK SMILES O=C(COc1ccc(/C=C2/C(=O)[NH+]=C(O)N=C2O)cc1Cl)OCCOCCOCCOCCOC(=O)c1ccc(-c2c3nc(c(-c4c(F)c(F)c(F)c(F)c4F)c4ccc([nH]4)c(-c4c(F)c(F)c(F)c(F)c4F)c4nc(c(-c5c(F)c(F)c(F)c(F)c5F)c5ccc2[nH]5)C=C4)C=C3)cc1
REMARK SMILES IDX 27 1 26 2 25 3 24 4 23 5 22 6 2 7 1 8 3 9 4 10 5 11 6 12
REMARK SMILES IDX 20 13 7 14 19 15 21 16 8 17 9 18 10 19 11 20 17 21 12 22
REMARK SMILES IDX 13 23 16 24 14 25 18 27 15 29 28 31 29 32 30 33 31 34 32 35
REMARK SMILES IDX 33 36 34 37 35 38 36 39 37 40 38 41 99 42 39 43 98 44 40 45
REMARK SMILES IDX 41 46 42 47 92 48 43 49 97 50 91 51 93 52 44 53 96 54 90 55
REMARK SMILES IDX 89 56 45 58 77 59 57 60 76 61 58 62 61 63 75 64 94 65 59 66
REMARK SMILES IDX 60 67 74 69 95 70 62 71 46 72 47 73 55 74 48 75 49 76 53 77
REMARK SMILES IDX 56 78 50 79 51 80 54 81 52 82 78 83 79 84 87 85 80 86 81 87
REMARK SMILES IDX 85 88 88 89 82 90 83 91 86 92 84 93 63 94 64 95 72 96 65 97
REMARK SMILES IDX 66 98 70 99 73 100 67 101 68 102 71 103 69 104
REMARK H PARENT 13 26 18 28 15 30 93 57 61 68
REMARK Flexibility Score: inf
ROOT
ATOM      1  C   UNL A   1      40.550  20.777  26.487  1.00  0.00     0.188 C 
ENDROOT
BRANCH   1   2
ATOM      2  C   UNL A   1      40.082  22.174  26.929  1.00  0.00     0.188 C 
BRANCH   2   3
ATOM      3  O   UNL A   1      38.843  22.605  26.382  1.00  0.00    -0.376 OA
BRANCH   3   4
ATOM      4  C   UNL A   1      38.040  21.836  25.511  1.00  0.00     0.202 C 
BRANCH   4   5
ATOM      5  C   UNL A   1      36.516  21.781  25.675  1.00  0.00     0.261 C 
BRANCH   5   6
ATOM      6  O   UNL A   1      35.821  20.679  25.053  1.00  0.00    -0.461 OA
BRANCH   6   7
ATOM      7  C   UNL A   1      34.504  20.393  25.134  1.00  0.00     0.344 C 
ATOM      8  O   UNL A   1      34.062  19.368  24.616  1.00  0.00    -0.248 OA
BRANCH   7   9
ATOM      9  C   UNL A   1      33.593  21.384  25.821  1.00  0.00     0.352 C 
BRANCH   9  10
ATOM     10  O   UNL A   1      32.218  21.200  25.497  1.00  0.00    -0.480 OA
BRANCH  10  11
ATOM     11  C   UNL A   1      31.677  22.303  24.922  1.00  0.00     0.138 A 
ATOM     12  C   UNL A   1      31.054  23.175  25.808  1.00  0.00     0.048 A 
ATOM     13  C   UNL A   1      31.720  22.587  23.557  1.00  0.00     0.083 A 
ATOM     14  C   UNL A   1      30.601  24.404  25.349  1.00  0.00     0.012 A 
ATOM     15  C   UNL A   1      31.353  23.847  23.123  1.00  0.00     0.032 A 
ATOM     16  Cl  UNL A   1      32.152  21.447  22.344  1.00  0.00    -0.080 Cl
ATOM     17  C   UNL A   1      30.848  24.786  24.026  1.00  0.00    -0.023 A 
BRANCH  17  18
ATOM     18  C   UNL A   1      30.549  26.108  23.486  1.00  0.00     0.032 C 
ATOM     19  C   UNL A   1      31.140  27.292  23.714  1.00  0.00     0.154 C 
ATOM     20  C   UNL A   1      30.489  28.469  23.086  1.00  0.00     0.349 C 
ATOM     21  C   UNL A   1      32.253  27.662  24.582  1.00  0.00     0.345 C 
ATOM     22  O   UNL A   1      29.915  28.381  22.005  1.00  0.00    -0.240 OA
ATOM     23  N   UNL A   1      30.522  29.606  23.838  1.00  0.00    -0.168 N 
ATOM     24  N   UNL A   1      32.376  28.830  25.098  1.00  0.00     0.036 NA
ATOM     25  C   UNL A   1      31.406  29.708  24.760  1.00  0.00     0.500 C 
ATOM     26  H   UNL A   1      29.879  30.333  23.675  1.00  0.00     0.319 HD
BRANCH  21  27
ATOM     27  O   UNL A   1      33.226  26.764  24.790  1.00  0.00    -0.474 OA
ATOM     28  H   UNL A   1      33.111  25.875  24.515  1.00  0.00     0.297 HD
ENDBRANCH  21  27
BRANCH  25  29
ATOM     29  O   UNL A   1      31.411  30.813  25.507  1.00  0.00    -0.443 OA
ATOM     30  H   UNL A   1      30.604  31.170  25.822  1.00  0.00     0.301 HD
ENDBRANCH  25  29
ENDBRANCH  17  18
ENDBRANCH  10  11
ENDBRANCH   9  10
ENDBRANCH   7   9
ENDBRANCH   6   7
ENDBRANCH   5   6
ENDBRANCH   4   5
ENDBRANCH   3   4
ENDBRANCH   2   3
ENDBRANCH   1   2
BRANCH   1  31
ATOM     31  O   UNL A   1      41.788  20.709  25.784  1.00  0.00    -0.377 OA
BRANCH  31  32
ATOM     32  C   UNL A   1      42.423  19.438  25.767  1.00  0.00     0.188 C 
BRANCH  32  33
ATOM     33  C   UNL A   1      43.889  19.488  25.294  1.00  0.00     0.188 C 
BRANCH  33  34
ATOM     34  O   UNL A   1      44.293  20.759  24.796  1.00  0.00    -0.376 OA
BRANCH  34  35
ATOM     35  C   UNL A   1      45.318  21.438  25.512  1.00  0.00     0.202 C 
BRANCH  35  36
ATOM     36  C   UNL A   1      45.568  22.915  25.157  1.00  0.00     0.261 C 
BRANCH  36  37
ATOM     37  O   UNL A   1      44.777  23.875  25.883  1.00  0.00    -0.460 OA
BRANCH  37  38
ATOM     38  C   UNL A   1      43.597  24.251  25.354  1.00  0.00     0.338 C 
ATOM     39  O   UNL A   1      43.041  23.785  24.376  1.00  0.00    -0.246 OA
BRANCH  38  40
ATOM     40  C   UNL A   1      42.952  25.184  26.304  1.00  0.00     0.060 A 
ATOM     41  C   UNL A   1      43.464  26.485  26.398  1.00  0.00     0.016 A 
ATOM     42  C   UNL A   1      41.838  24.806  27.061  1.00  0.00     0.016 A 
ATOM     43  C   UNL A   1      42.897  27.395  27.285  1.00  0.00     0.010 A 
ATOM     44  C   UNL A   1      41.287  25.710  27.975  1.00  0.00     0.010 A 
ATOM     45  C   UNL A   1      41.847  26.991  28.120  1.00  0.00    -0.014 A 
BRANCH  45  46
ATOM     46  C   UNL A   1      41.548  27.820  29.310  1.00  0.00     0.031 A 
ATOM     47  C   UNL A   1      40.344  28.719  29.242  1.00  0.00     0.074 A 
ATOM     48  C   UNL A   1      42.259  27.716  30.445  1.00  0.00     0.049 A 
ATOM     49  N   UNL A   1      39.808  29.469  30.171  1.00  0.00    -0.248 NA
ATOM     50  C   UNL A   1      39.640  28.770  27.949  1.00  0.00     0.031 C 
ATOM     51  C   UNL A   1      43.428  26.861  30.637  1.00  0.00     0.029 A 
ATOM     52  N   UNL A   1      42.090  28.336  31.657  1.00  0.00    -0.354 N 
ATOM     53  C   UNL A   1      38.695  30.055  29.582  1.00  0.00     0.074 A 
ATOM     54  C   UNL A   1      38.657  29.618  28.205  1.00  0.00     0.031 C 
ATOM     55  C   UNL A   1      43.878  27.017  31.895  1.00  0.00     0.029 A 
ATOM     56  C   UNL A   1      43.034  27.989  32.591  1.00  0.00     0.049 A 
ATOM     57  H   UNL A   1      41.359  28.971  31.839  1.00  0.00     0.167 HD
ATOM     58  C   UNL A   1      37.772  30.869  30.145  1.00  0.00     0.037 A 
ATOM     59  C   UNL A   1      43.194  28.417  33.858  1.00  0.00     0.037 A 
ATOM     60  C   UNL A   1      37.827  31.330  31.504  1.00  0.00     0.049 A 
ATOM     61  C   UNL A   1      42.192  29.384  34.441  1.00  0.00     0.074 A 
ATOM     62  C   UNL A   1      36.958  32.178  32.165  1.00  0.00     0.029 A 
ATOM     63  N   UNL A   1      38.819  30.983  32.410  1.00  0.00    -0.354 N 
ATOM     64  N   UNL A   1      41.123  29.907  33.889  1.00  0.00    -0.248 NA
ATOM     65  C   UNL A   1      42.411  29.805  35.833  1.00  0.00     0.031 C 
ATOM     66  C   UNL A   1      37.448  32.381  33.460  1.00  0.00     0.029 A 
ATOM     67  C   UNL A   1      38.593  31.615  33.621  1.00  0.00     0.049 A 
ATOM     68  H   UNL A   1      39.572  30.378  32.220  1.00  0.00     0.167 HD
ATOM     69  C   UNL A   1      40.533  30.697  34.867  1.00  0.00     0.074 A 
ATOM     70  C   UNL A   1      41.348  30.565  36.056  1.00  0.00     0.031 C 
ATOM     71  C   UNL A   1      39.418  31.467  34.792  1.00  0.00     0.037 A 
BRANCH  58  72
ATOM     72  C   UNL A   1      36.637  31.319  29.275  1.00  0.00     0.064 A 
ATOM     73  C   UNL A   1      35.601  30.444  28.914  1.00  0.00     0.173 A 
ATOM     74  C   UNL A   1      36.576  32.639  28.807  1.00  0.00     0.173 A 
ATOM     75  F   UNL A   1      35.626  29.164  29.317  1.00  0.00    -0.203 F 
ATOM     76  C   UNL A   1      34.556  30.869  28.099  1.00  0.00     0.198 A 
ATOM     77  C   UNL A   1      35.515  33.069  28.015  1.00  0.00     0.198 A 
ATOM     78  F   UNL A   1      37.543  33.513  29.120  1.00  0.00    -0.203 F 
ATOM     79  F   UNL A   1      33.601  30.004  27.729  1.00  0.00    -0.200 F 
ATOM     80  C   UNL A   1      34.509  32.183  27.656  1.00  0.00     0.200 A 
ATOM     81  F   UNL A   1      35.466  34.340  27.594  1.00  0.00    -0.200 F 
ATOM     82  F   UNL A   1      33.500  32.593  26.877  1.00  0.00    -0.200 F 
ENDBRANCH  58  72
BRANCH  59  83
ATOM     83  C   UNL A   1      44.349  27.944  34.668  1.00  0.00     0.064 A 
ATOM     84  C   UNL A   1      45.564  28.642  34.686  1.00  0.00     0.173 A 
ATOM     85  C   UNL A   1      44.269  26.755  35.409  1.00  0.00     0.173 A 
ATOM     86  F   UNL A   1      45.699  29.770  33.974  1.00  0.00    -0.203 F 
ATOM     87  C   UNL A   1      46.663  28.157  35.394  1.00  0.00     0.198 A 
ATOM     88  C   UNL A   1      45.360  26.287  36.140  1.00  0.00     0.198 A 
ATOM     89  F   UNL A   1      43.131  26.047  35.423  1.00  0.00    -0.203 F 
ATOM     90  F   UNL A   1      47.829  28.816  35.349  1.00  0.00    -0.200 F 
ATOM     91  C   UNL A   1      46.558  26.983  36.123  1.00  0.00     0.200 A 
ATOM     92  F   UNL A   1      45.250  25.157  36.851  1.00  0.00    -0.200 F 
ATOM     93  F   UNL A   1      47.616  26.515  36.801  1.00  0.00    -0.200 F 
ENDBRANCH  59  83
BRANCH  71  94
ATOM     94  C   UNL A   1      39.005  32.201  36.036  1.00  0.00     0.064 A 
ATOM     95  C   UNL A   1      39.394  33.527  36.273  1.00  0.00     0.173 A 
ATOM     96  C   UNL A   1      38.185  31.577  36.989  1.00  0.00     0.173 A 
ATOM     97  F   UNL A   1      40.186  34.165  35.398  1.00  0.00    -0.203 F 
ATOM     98  C   UNL A   1      39.010  34.189  37.436  1.00  0.00     0.198 A 
ATOM     99  C   UNL A   1      37.775  32.252  38.135  1.00  0.00     0.198 A 
ATOM    100  F   UNL A   1      37.774  30.312  36.806  1.00  0.00    -0.203 F 
ATOM    101  F   UNL A   1      39.442  35.436  37.669  1.00  0.00    -0.200 F 
ATOM    102  C   UNL A   1      38.197  33.553  38.363  1.00  0.00     0.200 A 
ATOM    103  F   UNL A   1      36.977  31.642  39.021  1.00  0.00    -0.200 F 
ATOM    104  F   UNL A   1      37.827  34.192  39.481  1.00  0.00    -0.200 F 
ENDBRANCH  71  94
ENDBRANCH  45  46
ENDBRANCH  38  40
ENDBRANCH  37  38
ENDBRANCH  36  37
ENDBRANCH  35  36
ENDBRANCH  34  35
ENDBRANCH  33  34
ENDBRANCH  32  33
ENDBRANCH  31  32
ENDBRANCH   1  31
TORSDOF 25
ENDMDL
MODEL 3
REMARK VINA RESULT:     -10.5      4.485      9.069
REMARK SMILES O=C(COc1ccc(/C=C2/C(=O)[NH+]=C(O)N=C2O)cc1Cl)OCCOCCOCCOCCOC(=O)c1ccc(-c2c3nc(c(-c4c(F)c(F)c(F)c(F)c4F)c4ccc([nH]4)c(-c4c(F)c(F)c(F)c(F)c4F)c4nc(c(-c5c(F)c(F)c(F)c(F)c5F)c5ccc2[nH]5)C=C4)C=C3)cc1
REMARK SMILES IDX 27 1 26 2 25 3 24 4 23 5 22 6 2 7 1 8 3 9 4 10 5 11 6 12
REMARK SMILES IDX 20 13 7 14 19 15 21 16 8 17 9 18 10 19 11 20 17 21 12 22
REMARK SMILES IDX 13 23 16 24 14 25 18 27 15 29 28 31 29 32 30 33 31 34 32 35
REMARK SMILES IDX 33 36 34 37 35 38 36 39 37 40 38 41 99 42 39 43 98 44 40 45
REMARK SMILES IDX 41 46 42 47 92 48 43 49 97 50 91 51 93 52 44 53 96 54 90 55
REMARK SMILES IDX 89 56 45 58 77 59 57 60 76 61 58 62 61 63 75 64 94 65 59 66
REMARK SMILES IDX 60 67 74 69 95 70 62 71 46 72 47 73 55 74 48 75 49 76 53 77
REMARK SMILES IDX 56 78 50 79 51 80 54 81 52 82 78 83 79 84 87 85 80 86 81 87
REMARK SMILES IDX 85 88 88 89 82 90 83 91 86 92 84 93 63 94 64 95 72 96 65 97
REMARK SMILES IDX 66 98 70 99 73 100 67 101 68 102 71 103 69 104
REMARK H PARENT 13 26 18 28 15 30 93 57 61 68
REMARK Flexibility Score: inf
ROOT
ATOM      1  C   UNL A   1      34.937  24.297  25.478  1.00  0.00     0.188 C 
ENDROOT
BRANCH   1   2
ATOM      2  C   UNL A   1      33.924  23.884  26.560  1.00  0.00     0.188 C 
BRANCH   2   3
ATOM      3  O   UNL A   1      34.176  22.634  27.189  1.00  0.00    -0.376 OA
BRANCH   3   4
ATOM      4  C   UNL A   1      33.652  21.397  26.753  1.00  0.00     0.202 C 
BRANCH   4   5
ATOM      5  C   UNL A   1      34.262  20.650  25.562  1.00  0.00     0.261 C 
BRANCH   5   6
ATOM      6  O   UNL A   1      33.929  21.124  24.240  1.00  0.00    -0.461 OA
BRANCH   6   7
ATOM      7  C   UNL A   1      32.750  20.988  23.596  1.00  0.00     0.344 C 
ATOM      8  O   UNL A   1      32.130  19.927  23.661  1.00  0.00    -0.248 OA
BRANCH   7   9
ATOM      9  C   UNL A   1      32.250  22.141  22.757  1.00  0.00     0.352 C 
BRANCH   9  10
ATOM     10  O   UNL A   1      31.022  22.688  23.229  1.00  0.00    -0.480 OA
BRANCH  10  11
ATOM     11  C   UNL A   1      31.174  23.951  23.699  1.00  0.00     0.138 A 
ATOM     12  C   UNL A   1      31.726  24.848  22.790  1.00  0.00     0.048 A 
ATOM     13  C   UNL A   1      30.816  24.368  24.982  1.00  0.00     0.083 A 
ATOM     14  C   UNL A   1      31.785  26.196  23.115  1.00  0.00     0.012 A 
ATOM     15  C   UNL A   1      30.791  25.721  25.263  1.00  0.00     0.032 A 
ATOM     16  Cl  UNL A   1      30.450  23.300  26.280  1.00  0.00    -0.080 Cl
ATOM     17  C   UNL A   1      31.218  26.650  24.310  1.00  0.00    -0.023 A 
BRANCH  17  18
ATOM     18  C   UNL A   1      31.093  28.057  24.677  1.00  0.00     0.032 C 
ATOM     19  C   UNL A   1      32.004  28.905  25.180  1.00  0.00     0.154 C 
ATOM     20  C   UNL A   1      31.494  30.247  25.559  1.00  0.00     0.349 C 
ATOM     21  C   UNL A   1      33.403  28.711  25.547  1.00  0.00     0.345 C 
ATOM     22  O   UNL A   1      30.581  30.782  24.940  1.00  0.00    -0.240 OA
ATOM     23  N   UNL A   1      32.068  30.779  26.675  1.00  0.00    -0.168 N 
ATOM     24  N   UNL A   1      33.985  29.397  26.461  1.00  0.00     0.036 NA
ATOM     25  C   UNL A   1      33.212  30.336  27.049  1.00  0.00     0.500 C 
ATOM     26  H   UNL A   1      31.613  31.489  27.183  1.00  0.00     0.319 HD
BRANCH  21  27
ATOM     27  O   UNL A   1      34.130  27.826  24.849  1.00  0.00    -0.474 OA
ATOM     28  H   UNL A   1      34.118  26.920  25.086  1.00  0.00     0.297 HD
ENDBRANCH  21  27
BRANCH  25  29
ATOM     29  O   UNL A   1      33.751  30.846  28.158  1.00  0.00    -0.443 OA
ATOM     30  H   UNL A   1      34.093  31.718  28.155  1.00  0.00     0.301 HD
ENDBRANCH  25  29
ENDBRANCH  17  18
ENDBRANCH  10  11
ENDBRANCH   9  10
ENDBRANCH   7   9
ENDBRANCH   6   7
ENDBRANCH   5   6
ENDBRANCH   4   5
ENDBRANCH   3   4
ENDBRANCH   2   3
ENDBRANCH   1   2
BRANCH   1  31
ATOM     31  O   UNL A   1      36.304  23.984  25.729  1.00  0.00    -0.377 OA
BRANCH  31  32
ATOM     32  C   UNL A   1      36.957  23.212  24.730  1.00  0.00     0.188 C 
BRANCH  32  33
ATOM     33  C   UNL A   1      37.760  22.025  25.296  1.00  0.00     0.188 C 
BRANCH  33  34
ATOM     34  O   UNL A   1      37.488  20.784  24.655  1.00  0.00    -0.376 OA
BRANCH  34  35
ATOM     35  C   UNL A   1      38.335  19.688  24.981  1.00  0.00     0.202 C 
BRANCH  35  36
ATOM     36  C   UNL A   1      39.597  19.992  25.809  1.00  0.00     0.261 C 
BRANCH  36  37
ATOM     37  O   UNL A   1      40.847  19.598  25.212  1.00  0.00    -0.460 OA
BRANCH  37  38
ATOM     38  C   UNL A   1      41.873  19.302  26.031  1.00  0.00     0.338 C 
ATOM     39  O   UNL A   1      42.346  18.204  26.260  1.00  0.00    -0.246 OA
BRANCH  38  40
ATOM     40  C   UNL A   1      42.505  20.575  26.443  1.00  0.00     0.060 A 
ATOM     41  C   UNL A   1      42.432  20.939  27.794  1.00  0.00     0.016 A 
ATOM     42  C   UNL A   1      43.195  21.380  25.530  1.00  0.00     0.016 A 
ATOM     43  C   UNL A   1      43.002  22.132  28.227  1.00  0.00     0.010 A 
ATOM     44  C   UNL A   1      43.741  22.594  25.957  1.00  0.00     0.010 A 
ATOM     45  C   UNL A   1      43.605  22.992  27.299  1.00  0.00    -0.014 A 
BRANCH  45  46
ATOM     46  C   UNL A   1      43.826  24.400  27.699  1.00  0.00     0.031 A 
ATOM     47  C   UNL A   1      45.241  24.912  27.680  1.00  0.00     0.074 A 
ATOM     48  C   UNL A   1      42.804  25.227  27.981  1.00  0.00     0.049 A 
ATOM     49  N   UNL A   1      45.694  26.121  27.890  1.00  0.00    -0.248 NA
ATOM     50  C   UNL A   1      46.287  23.923  27.370  1.00  0.00     0.031 C 
ATOM     51  C   UNL A   1      41.393  24.853  28.005  1.00  0.00     0.029 A 
ATOM     52  N   UNL A   1      42.807  26.563  28.294  1.00  0.00    -0.354 N 
ATOM     53  C   UNL A   1      47.068  26.040  27.711  1.00  0.00     0.074 A 
ATOM     54  C   UNL A   1      47.385  24.659  27.426  1.00  0.00     0.031 C 
ATOM     55  C   UNL A   1      40.662  25.935  28.326  1.00  0.00     0.029 A 
ATOM     56  C   UNL A   1      41.556  27.074  28.538  1.00  0.00     0.049 A 
ATOM     57  H   UNL A   1      43.628  27.104  28.339  1.00  0.00     0.167 HD
ATOM     58  C   UNL A   1      47.986  27.033  27.757  1.00  0.00     0.037 A 
ATOM     59  C   UNL A   1      41.186  28.319  28.895  1.00  0.00     0.037 A 
ATOM     60  C   UNL A   1      47.678  28.401  28.071  1.00  0.00     0.049 A 
ATOM     61  C   UNL A   1      42.238  29.395  29.013  1.00  0.00     0.074 A 
ATOM     62  C   UNL A   1      48.536  29.480  28.172  1.00  0.00     0.029 A 
ATOM     63  N   UNL A   1      46.402  28.873  28.346  1.00  0.00    -0.354 N 
ATOM     64  N   UNL A   1      43.532  29.318  28.810  1.00  0.00    -0.248 NA
ATOM     65  C   UNL A   1      41.772  30.736  29.395  1.00  0.00     0.031 C 
ATOM     66  C   UNL A   1      47.786  30.599  28.552  1.00  0.00     0.029 A 
ATOM     67  C   UNL A   1      46.453  30.227  28.634  1.00  0.00     0.049 A 
ATOM     68  H   UNL A   1      45.583  28.327  28.339  1.00  0.00     0.167 HD
ATOM     69  C   UNL A   1      44.029  30.599  29.014  1.00  0.00     0.074 A 
ATOM     70  C   UNL A   1      42.894  31.439  29.334  1.00  0.00     0.031 C 
ATOM     71  C   UNL A   1      45.310  31.044  28.948  1.00  0.00     0.037 A 
BRANCH  58  72
ATOM     72  C   UNL A   1      49.411  26.662  27.474  1.00  0.00     0.064 A 
ATOM     73  C   UNL A   1      49.894  26.564  26.160  1.00  0.00     0.173 A 
ATOM     74  C   UNL A   1      50.306  26.413  28.524  1.00  0.00     0.173 A 
ATOM     75  F   UNL A   1      49.071  26.771  25.120  1.00  0.00    -0.203 F 
ATOM     76  C   UNL A   1      51.217  26.210  25.907  1.00  0.00     0.198 A 
ATOM     77  C   UNL A   1      51.635  26.086  28.269  1.00  0.00     0.198 A 
ATOM     78  F   UNL A   1      49.892  26.488  29.797  1.00  0.00    -0.203 F 
ATOM     79  F   UNL A   1      51.645  26.078  24.645  1.00  0.00    -0.200 F 
ATOM     80  C   UNL A   1      52.087  25.978  26.962  1.00  0.00     0.200 A 
ATOM     81  F   UNL A   1      52.478  25.869  29.288  1.00  0.00    -0.200 F 
ATOM     82  F   UNL A   1      53.362  25.644  26.718  1.00  0.00    -0.200 F 
ENDBRANCH  58  72
BRANCH  59  83
ATOM     83  C   UNL A   1      39.757  28.623  29.176  1.00  0.00     0.064 A 
ATOM     84  C   UNL A   1      38.913  29.147  28.189  1.00  0.00     0.173 A 
ATOM     85  C   UNL A   1      39.220  28.433  30.458  1.00  0.00     0.173 A 
ATOM     86  F   UNL A   1      39.385  29.371  26.954  1.00  0.00    -0.203 F 
ATOM     87  C   UNL A   1      37.593  29.492  28.477  1.00  0.00     0.198 A 
ATOM     88  C   UNL A   1      37.892  28.751  30.739  1.00  0.00     0.198 A 
ATOM     89  F   UNL A   1      39.986  27.938  31.441  1.00  0.00    -0.203 F 
ATOM     90  F   UNL A   1      36.823  30.042  27.528  1.00  0.00    -0.200 F 
ATOM     91  C   UNL A   1      37.083  29.289  29.750  1.00  0.00     0.200 A 
ATOM     92  F   UNL A   1      37.401  28.543  31.968  1.00  0.00    -0.200 F 
ATOM     93  F   UNL A   1      35.815  29.625  30.029  1.00  0.00    -0.200 F 
ENDBRANCH  59  83
BRANCH  71  94
ATOM     94  C   UNL A   1      45.543  32.506  29.200  1.00  0.00     0.064 A 
ATOM     95  C   UNL A   1      45.644  33.428  28.149  1.00  0.00     0.173 A 
ATOM     96  C   UNL A   1      45.640  32.993  30.513  1.00  0.00     0.173 A 
ATOM     97  F   UNL A   1      45.568  33.011  26.876  1.00  0.00    -0.203 F 
ATOM     98  C   UNL A   1      45.869  34.778  28.400  1.00  0.00     0.198 A 
ATOM     99  C   UNL A   1      45.833  34.349  30.762  1.00  0.00     0.198 A 
ATOM    100  F   UNL A   1      45.540  32.155  31.556  1.00  0.00    -0.203 F 
ATOM    101  F   UNL A   1      46.020  35.632  27.378  1.00  0.00    -0.200 F 
ATOM    102  C   UNL A   1      45.959  35.239  29.706  1.00  0.00     0.200 A 
ATOM    103  F   UNL A   1      45.904  34.793  32.024  1.00  0.00    -0.200 F 
ATOM    104  F   UNL A   1      46.176  36.539  29.946  1.00  0.00    -0.200 F 
ENDBRANCH  71  94
ENDBRANCH  45  46
ENDBRANCH  38  40
ENDBRANCH  37  38
ENDBRANCH  36  37
ENDBRANCH  35  36
ENDBRANCH  34  35
ENDBRANCH  33  34
ENDBRANCH  32  33
ENDBRANCH  31  32
ENDBRANCH   1  31
TORSDOF 25
ENDMDL
