MODEL 1
REMARK VINA RESULT:     -11.3      0.000      0.000
REMARK SMILES CC(=O)NS(=O)(=O)c1cc(-c2ccn(C(F)F)c(=O)c2)ccc1C(=O)OCCOCCOCCOCCOC(=O)c1ccc(-c2c3nc(c(-c4c(F)c(F)c(F)c(F)c4F)c4ccc([nH]4)c(-c4c(F)c(F)c(F)c(F)c4F)c4nc(c(-c5c(F)c(F)c(F)c(F)c5F)c5ccc2[nH]5)C=C4)C=C3)cc1
REMARK SMILES IDX 32 1 31 2 30 3 29 4 28 5 27 6 26 7 24 8 25 9 23 10 8 11 9 12
REMARK SMILES IDX 10 13 22 14 21 15 5 16 6 17 7 18 4 19 1 20 2 21 3 22 11 24
REMARK SMILES IDX 12 25 20 26 13 27 18 28 14 29 19 30 15 31 16 32 17 33 33 34
REMARK SMILES IDX 34 35 35 36 36 37 37 38 38 39 39 40 40 41 41 42 42 43 103 44
REMARK SMILES IDX 43 45 102 46 44 47 45 48 46 49 96 50 47 51 101 52 95 53
REMARK SMILES IDX 97 54 48 55 100 56 94 57 93 58 49 60 81 61 61 62 80 63 62 64
REMARK SMILES IDX 65 65 79 66 98 67 63 68 64 69 78 71 99 72 66 73 50 74 51 75
REMARK SMILES IDX 59 76 52 77 53 78 57 79 60 80 54 81 55 82 58 83 56 84 82 85
REMARK SMILES IDX 83 86 91 87 84 88 85 89 89 90 92 91 86 92 87 93 90 94 88 95
REMARK SMILES IDX 67 96 68 97 76 98 69 99 70 100 74 101 77 102 71 103 72 104
REMARK SMILES IDX 75 105 73 106
REMARK H PARENT 4 23 97 59 65 70
REMARK Flexibility Score: inf
ROOT
ATOM      1  O   UNL A   1      33.150  28.138  27.210  1.00  0.00    -0.377 OA
ENDROOT
BRANCH   1   2
ATOM      2  C   UNL A   1      33.612  27.614  25.975  1.00  0.00     0.188 C 
BRANCH   2   3
ATOM      3  C   UNL A   1      32.665  27.451  24.757  1.00  0.00     0.188 C 
BRANCH   3   4
ATOM      4  O   UNL A   1      31.421  26.843  25.036  1.00  0.00    -0.376 OA
BRANCH   4   5
ATOM      5  C   UNL A   1      31.032  25.628  24.422  1.00  0.00     0.202 C 
BRANCH   5   6
ATOM      6  C   UNL A   1      31.860  24.970  23.312  1.00  0.00     0.261 C 
BRANCH   6   7
ATOM      7  O   UNL A   1      32.283  23.646  23.622  1.00  0.00    -0.460 OA
BRANCH   7   8
ATOM      8  C   UNL A   1      33.171  23.068  22.809  1.00  0.00     0.339 C 
ATOM      9  O   UNL A   1      33.185  23.074  21.587  1.00  0.00    -0.246 OA
BRANCH   8  10
ATOM     10  C   UNL A   1      34.320  22.609  23.609  1.00  0.00     0.080 A 
ATOM     11  C   UNL A   1      34.302  21.570  24.544  1.00  0.00     0.103 A 
ATOM     12  C   UNL A   1      35.515  21.178  25.150  1.00  0.00     0.032 A 
ATOM     13  C   UNL A   1      36.732  21.773  24.794  1.00  0.00    -0.017 A 
ATOM     14  C   UNL A   1      35.538  23.260  23.316  1.00  0.00     0.018 A 
ATOM     15  C   UNL A   1      36.732  22.850  23.908  1.00  0.00     0.010 A 
BRANCH  11  16
ATOM     16  S   UNL A   1      32.862  20.659  25.021  1.00  0.00     0.264 S 
ATOM     17  O   UNL A   1      33.188  19.663  26.011  1.00  0.00    -0.201 OA
ATOM     18  O   UNL A   1      32.201  20.245  23.800  1.00  0.00    -0.201 OA
BRANCH  16  19
ATOM     19  N   UNL A   1      31.813  21.677  25.780  1.00  0.00    -0.249 N 
ATOM     20  C   UNL A   1      32.995  22.562  27.822  1.00  0.00     0.115 C 
ATOM     21  C   UNL A   1      31.807  22.479  26.920  1.00  0.00     0.230 C 
ATOM     22  O   UNL A   1      30.773  23.082  27.184  1.00  0.00    -0.274 OA
ATOM     23  H   UNL A   1      30.957  21.735  25.297  1.00  0.00     0.183 HD
ENDBRANCH  16  19
ENDBRANCH  11  16
BRANCH  13  24
ATOM     24  C   UNL A   1      38.005  21.163  25.207  1.00  0.00    -0.011 A 
ATOM     25  C   UNL A   1      38.336  19.763  25.055  1.00  0.00     0.027 A 
ATOM     26  C   UNL A   1      38.878  21.987  25.812  1.00  0.00     0.080 A 
ATOM     27  C   UNL A   1      39.497  19.293  25.534  1.00  0.00     0.095 A 
ATOM     28  C   UNL A   1      40.172  21.482  26.338  1.00  0.00     0.255 A 
ATOM     29  N   UNL A   1      40.400  20.128  26.171  1.00  0.00    -0.258 N 
ATOM     30  O   UNL A   1      40.925  22.280  26.886  1.00  0.00    -0.269 OA
BRANCH  29  31
ATOM     31  C   UNL A   1      41.625  19.609  26.722  1.00  0.00     0.451 C 
ATOM     32  F   UNL A   1      41.518  19.419  28.060  1.00  0.00    -0.185 F 
ATOM     33  F   UNL A   1      41.942  18.421  26.153  1.00  0.00    -0.185 F 
ENDBRANCH  29  31
ENDBRANCH  13  24
ENDBRANCH   8  10
ENDBRANCH   7   8
ENDBRANCH   6   7
ENDBRANCH   5   6
ENDBRANCH   4   5
ENDBRANCH   3   4
ENDBRANCH   2   3
ENDBRANCH   1   2
BRANCH   1  34
ATOM     34  C   UNL A   1      32.207  29.204  27.221  1.00  0.00     0.188 C 
BRANCH  34  35
ATOM     35  C   UNL A   1      32.525  30.535  26.501  1.00  0.00     0.188 C 
BRANCH  35  36
ATOM     36  O   UNL A   1      31.398  31.364  26.273  1.00  0.00    -0.376 OA
BRANCH  36  37
ATOM     37  C   UNL A   1      31.491  32.723  26.666  1.00  0.00     0.202 C 
BRANCH  37  38
ATOM     38  C   UNL A   1      32.626  33.112  27.625  1.00  0.00     0.261 C 
BRANCH  38  39
ATOM     39  O   UNL A   1      33.067  34.476  27.568  1.00  0.00    -0.460 OA
BRANCH  39  40
ATOM     40  C   UNL A   1      33.156  35.149  28.735  1.00  0.00     0.338 C 
ATOM     41  O   UNL A   1      32.371  35.964  29.182  1.00  0.00    -0.246 OA
BRANCH  40  42
ATOM     42  C   UNL A   1      34.301  34.587  29.480  1.00  0.00     0.060 A 
ATOM     43  C   UNL A   1      35.581  34.642  28.913  1.00  0.00     0.016 A 
ATOM     44  C   UNL A   1      34.103  34.011  30.736  1.00  0.00     0.016 A 
ATOM     45  C   UNL A   1      36.666  34.088  29.592  1.00  0.00     0.010 A 
ATOM     46  C   UNL A   1      35.187  33.437  31.404  1.00  0.00     0.010 A 
ATOM     47  C   UNL A   1      36.465  33.443  30.819  1.00  0.00    -0.014 A 
BRANCH  47  48
ATOM     48  C   UNL A   1      37.540  32.599  31.393  1.00  0.00     0.031 A 
ATOM     49  C   UNL A   1      38.069  32.952  32.755  1.00  0.00     0.074 A 
ATOM     50  C   UNL A   1      38.029  31.537  30.730  1.00  0.00     0.049 A 
ATOM     51  N   UNL A   1      39.045  32.412  33.439  1.00  0.00    -0.248 NA
ATOM     52  C   UNL A   1      37.406  34.077  33.436  1.00  0.00     0.031 C 
ATOM     53  C   UNL A   1      37.569  31.070  29.425  1.00  0.00     0.029 A 
ATOM     54  N   UNL A   1      39.036  30.667  31.067  1.00  0.00    -0.354 N 
ATOM     55  C   UNL A   1      39.119  33.136  34.622  1.00  0.00     0.074 A 
ATOM     56  C   UNL A   1      38.114  34.173  34.551  1.00  0.00     0.031 C 
ATOM     57  C   UNL A   1      38.302  30.004  29.063  1.00  0.00     0.029 A 
ATOM     58  C   UNL A   1      39.307  29.739  30.093  1.00  0.00     0.049 A 
ATOM     59  H   UNL A   1      39.517  30.705  31.925  1.00  0.00     0.167 HD
ATOM     60  C   UNL A   1      39.948  32.945  35.676  1.00  0.00     0.037 A 
ATOM     61  C   UNL A   1      40.276  28.804  30.032  1.00  0.00     0.037 A 
ATOM     62  C   UNL A   1      40.950  31.915  35.737  1.00  0.00     0.049 A 
ATOM     63  C   UNL A   1      41.241  28.663  31.184  1.00  0.00     0.074 A 
ATOM     64  C   UNL A   1      41.829  31.627  36.766  1.00  0.00     0.029 A 
ATOM     65  N   UNL A   1      41.216  31.013  34.718  1.00  0.00    -0.354 N 
ATOM     66  N   UNL A   1      41.290  29.330  32.312  1.00  0.00    -0.248 NA
ATOM     67  C   UNL A   1      42.282  27.634  31.054  1.00  0.00     0.031 C 
ATOM     68  C   UNL A   1      42.669  30.593  36.344  1.00  0.00     0.029 A 
ATOM     69  C   UNL A   1      42.268  30.186  35.081  1.00  0.00     0.049 A 
ATOM     70  H   UNL A   1      40.730  30.966  33.863  1.00  0.00     0.167 HD
ATOM     71  C   UNL A   1      42.342  28.782  33.037  1.00  0.00     0.074 A 
ATOM     72  C   UNL A   1      42.896  27.719  32.225  1.00  0.00     0.031 C 
ATOM     73  C   UNL A   1      42.804  29.124  34.266  1.00  0.00     0.037 A 
BRANCH  60  74
ATOM     74  C   UNL A   1      39.826  33.899  36.830  1.00  0.00     0.064 A 
ATOM     75  C   UNL A   1      39.026  33.616  37.947  1.00  0.00     0.173 A 
ATOM     76  C   UNL A   1      40.537  35.110  36.825  1.00  0.00     0.173 A 
ATOM     77  F   UNL A   1      38.314  32.480  37.998  1.00  0.00    -0.203 F 
ATOM     78  C   UNL A   1      38.915  34.523  38.999  1.00  0.00     0.198 A 
ATOM     79  C   UNL A   1      40.452  35.997  37.893  1.00  0.00     0.198 A 
ATOM     80  F   UNL A   1      41.319  35.431  35.783  1.00  0.00    -0.203 F 
ATOM     81  F   UNL A   1      38.098  34.256  40.027  1.00  0.00    -0.200 F 
ATOM     82  C   UNL A   1      39.633  35.709  38.974  1.00  0.00     0.200 A 
ATOM     83  F   UNL A   1      41.158  37.136  37.874  1.00  0.00    -0.200 F 
ATOM     84  F   UNL A   1      39.530  36.578  39.989  1.00  0.00    -0.200 F 
ENDBRANCH  60  74
BRANCH  61  85
ATOM     85  C   UNL A   1      40.391  27.932  28.833  1.00  0.00     0.064 A 
ATOM     86  C   UNL A   1      39.731  26.697  28.768  1.00  0.00     0.173 A 
ATOM     87  C   UNL A   1      41.178  28.307  27.734  1.00  0.00     0.173 A 
ATOM     88  F   UNL A   1      38.989  26.279  29.805  1.00  0.00    -0.203 F 
ATOM     89  C   UNL A   1      39.867  25.864  27.659  1.00  0.00     0.198 A 
ATOM     90  C   UNL A   1      41.288  27.488  26.611  1.00  0.00     0.198 A 
ATOM     91  F   UNL A   1      41.835  29.476  27.745  1.00  0.00    -0.203 F 
ATOM     92  F   UNL A   1      39.265  24.667  27.645  1.00  0.00    -0.200 F 
ATOM     93  C   UNL A   1      40.638  26.264  26.578  1.00  0.00     0.200 A 
ATOM     94  F   UNL A   1      42.024  27.884  25.565  1.00  0.00    -0.200 F 
ATOM     95  F   UNL A   1      40.765  25.465  25.511  1.00  0.00    -0.200 F 
ENDBRANCH  61  85
BRANCH  73  96
ATOM     96  C   UNL A   1      43.934  28.313  34.836  1.00  0.00     0.064 A 
ATOM     97  C   UNL A   1      43.709  27.156  35.597  1.00  0.00     0.173 A 
ATOM     98  C   UNL A   1      45.265  28.674  34.570  1.00  0.00     0.173 A 
ATOM     99  F   UNL A   1      42.457  26.773  35.890  1.00  0.00    -0.203 F 
ATOM    100  C   UNL A   1      44.774  26.409  36.096  1.00  0.00     0.198 A 
ATOM    101  C   UNL A   1      46.326  27.904  35.040  1.00  0.00     0.198 A 
ATOM    102  F   UNL A   1      45.538  29.764  33.839  1.00  0.00    -0.203 F 
ATOM    103  F   UNL A   1      44.535  25.337  36.864  1.00  0.00    -0.200 F 
ATOM    104  C   UNL A   1      46.080  26.777  35.809  1.00  0.00     0.200 A 
ATOM    105  F   UNL A   1      47.586  28.251  34.745  1.00  0.00    -0.200 F 
ATOM    106  F   UNL A   1      47.101  26.050  36.280  1.00  0.00    -0.200 F 
ENDBRANCH  73  96
ENDBRANCH  47  48
ENDBRANCH  40  42
ENDBRANCH  39  40
ENDBRANCH  38  39
ENDBRANCH  37  38
ENDBRANCH  36  37
ENDBRANCH  35  36
ENDBRANCH  34  35
ENDBRANCH   1  34
TORSDOF 24
ENDMDL
MODEL 2
REMARK VINA RESULT:     -11.1      1.281      6.914
REMARK SMILES CC(=O)NS(=O)(=O)c1cc(-c2ccn(C(F)F)c(=O)c2)ccc1C(=O)OCCOCCOCCOCCOC(=O)c1ccc(-c2c3nc(c(-c4c(F)c(F)c(F)c(F)c4F)c4ccc([nH]4)c(-c4c(F)c(F)c(F)c(F)c4F)c4nc(c(-c5c(F)c(F)c(F)c(F)c5F)c5ccc2[nH]5)C=C4)C=C3)cc1
REMARK SMILES IDX 32 1 31 2 30 3 29 4 28 5 27 6 26 7 24 8 25 9 23 10 8 11 9 12
REMARK SMILES IDX 10 13 22 14 21 15 5 16 6 17 7 18 4 19 1 20 2 21 3 22 11 24
REMARK SMILES IDX 12 25 20 26 13 27 18 28 14 29 19 30 15 31 16 32 17 33 33 34
REMARK SMILES IDX 34 35 35 36 36 37 37 38 38 39 39 40 40 41 41 42 42 43 103 44
REMARK SMILES IDX 43 45 102 46 44 47 45 48 46 49 96 50 47 51 101 52 95 53
REMARK SMILES IDX 97 54 48 55 100 56 94 57 93 58 49 60 81 61 61 62 80 63 62 64
REMARK SMILES IDX 65 65 79 66 98 67 63 68 64 69 78 71 99 72 66 73 50 74 51 75
REMARK SMILES IDX 59 76 52 77 53 78 57 79 60 80 54 81 55 82 58 83 56 84 82 85
REMARK SMILES IDX 83 86 91 87 84 88 85 89 89 90 92 91 86 92 87 93 90 94 88 95
REMARK SMILES IDX 67 96 68 97 76 98 69 99 70 100 74 101 77 102 71 103 72 104
REMARK SMILES IDX 75 105 73 106
REMARK H PARENT 4 23 97 59 65 70
REMARK Flexibility Score: inf
ROOT
ATOM      1  O   UNL A   1      32.819  27.793  27.130  1.00  0.00    -0.377 OA
ENDROOT
BRANCH   1   2
ATOM      2  C   UNL A   1      33.257  27.193  25.921  1.00  0.00     0.188 C 
BRANCH   2   3
ATOM      3  C   UNL A   1      32.250  26.660  24.869  1.00  0.00     0.188 C 
BRANCH   3   4
ATOM      4  O   UNL A   1      31.128  25.982  25.396  1.00  0.00    -0.376 OA
BRANCH   4   5
ATOM      5  C   UNL A   1      30.920  24.600  25.169  1.00  0.00     0.202 C 
BRANCH   5   6
ATOM      6  C   UNL A   1      31.677  23.825  24.083  1.00  0.00     0.261 C 
BRANCH   6   7
ATOM      7  O   UNL A   1      31.837  22.440  24.376  1.00  0.00    -0.460 OA
BRANCH   7   8
ATOM      8  C   UNL A   1      32.580  21.708  23.541  1.00  0.00     0.339 C 
ATOM      9  O   UNL A   1      32.373  21.477  22.359  1.00  0.00    -0.246 OA
BRANCH   8  10
ATOM     10  C   UNL A   1      33.866  21.404  24.191  1.00  0.00     0.080 A 
ATOM     11  C   UNL A   1      34.269  20.150  24.659  1.00  0.00     0.103 A 
ATOM     12  C   UNL A   1      35.580  19.999  25.162  1.00  0.00     0.032 A 
ATOM     13  C   UNL A   1      36.490  21.063  25.150  1.00  0.00    -0.017 A 
ATOM     14  C   UNL A   1      34.762  22.493  24.261  1.00  0.00     0.018 A 
ATOM     15  C   UNL A   1      36.060  22.326  24.742  1.00  0.00     0.010 A 
BRANCH  11  16
ATOM     16  S   UNL A   1      33.267  18.692  24.645  1.00  0.00     0.264 S 
ATOM     17  O   UNL A   1      32.695  18.474  23.339  1.00  0.00    -0.201 OA
ATOM     18  O   UNL A   1      32.386  18.774  25.792  1.00  0.00    -0.201 OA
BRANCH  16  19
ATOM     19  N   UNL A   1      34.228  17.381  24.906  1.00  0.00    -0.249 N 
ATOM     20  C   UNL A   1      32.700  15.415  25.295  1.00  0.00     0.115 C 
ATOM     21  C   UNL A   1      34.059  16.023  25.176  1.00  0.00     0.230 C 
ATOM     22  O   UNL A   1      35.068  15.352  25.358  1.00  0.00    -0.274 OA
ATOM     23  H   UNL A   1      35.182  17.621  24.859  1.00  0.00     0.183 HD
ENDBRANCH  16  19
ENDBRANCH  11  16
BRANCH  13  24
ATOM     24  C   UNL A   1      37.919  20.819  25.397  1.00  0.00    -0.011 A 
ATOM     25  C   UNL A   1      38.580  19.545  25.222  1.00  0.00     0.027 A 
ATOM     26  C   UNL A   1      38.618  21.867  25.867  1.00  0.00     0.080 A 
ATOM     27  C   UNL A   1      39.874  19.410  25.546  1.00  0.00     0.095 A 
ATOM     28  C   UNL A   1      40.055  21.735  26.221  1.00  0.00     0.255 A 
ATOM     29  N   UNL A   1      40.603  20.477  26.043  1.00  0.00    -0.258 N 
ATOM     30  O   UNL A   1      40.638  22.724  26.651  1.00  0.00    -0.269 OA
BRANCH  29  31
ATOM     31  C   UNL A   1      41.980  20.316  26.432  1.00  0.00     0.451 C 
ATOM     32  F   UNL A   1      42.085  20.005  27.747  1.00  0.00    -0.185 F 
ATOM     33  F   UNL A   1      42.567  19.324  25.718  1.00  0.00    -0.185 F 
ENDBRANCH  29  31
ENDBRANCH  13  24
ENDBRANCH   8  10
ENDBRANCH   7   8
ENDBRANCH   6   7
ENDBRANCH   5   6
ENDBRANCH   4   5
ENDBRANCH   3   4
ENDBRANCH   2   3
ENDBRANCH   1   2
BRANCH   1  34
ATOM     34  C   UNL A   1      31.933  28.906  27.091  1.00  0.00     0.188 C 
BRANCH  34  35
ATOM     35  C   UNL A   1      32.361  30.221  26.401  1.00  0.00     0.188 C 
BRANCH  35  36
ATOM     36  O   UNL A   1      31.329  31.186  26.281  1.00  0.00    -0.376 OA
BRANCH  36  37
ATOM     37  C   UNL A   1      31.611  32.508  26.708  1.00  0.00     0.202 C 
BRANCH  37  38
ATOM     38  C   UNL A   1      32.838  32.720  27.608  1.00  0.00     0.261 C 
BRANCH  38  39
ATOM     39  O   UNL A   1      33.428  34.028  27.580  1.00  0.00    -0.460 OA
BRANCH  39  40
ATOM     40  C   UNL A   1      33.383  34.753  28.718  1.00  0.00     0.338 C 
ATOM     41  O   UNL A   1      32.489  35.489  29.091  1.00  0.00    -0.246 OA
BRANCH  40  42
ATOM     42  C   UNL A   1      34.545  34.358  29.538  1.00  0.00     0.060 A 
ATOM     43  C   UNL A   1      35.836  34.493  29.007  1.00  0.00     0.016 A 
ATOM     44  C   UNL A   1      34.355  33.861  30.828  1.00  0.00     0.016 A 
ATOM     45  C   UNL A   1      36.941  34.097  29.759  1.00  0.00     0.010 A 
ATOM     46  C   UNL A   1      35.462  33.443  31.571  1.00  0.00     0.010 A 
ATOM     47  C   UNL A   1      36.755  33.527  31.025  1.00  0.00    -0.014 A 
BRANCH  47  48
ATOM     48  C   UNL A   1      37.881  32.834  31.695  1.00  0.00     0.031 A 
ATOM     49  C   UNL A   1      38.502  31.654  31.002  1.00  0.00     0.074 A 
ATOM     50  C   UNL A   1      38.351  33.246  32.885  1.00  0.00     0.049 A 
ATOM     51  N   UNL A   1      39.448  30.847  31.409  1.00  0.00    -0.248 NA
ATOM     52  C   UNL A   1      37.975  31.338  29.663  1.00  0.00     0.031 C 
ATOM     53  C   UNL A   1      37.862  34.400  33.634  1.00  0.00     0.029 A 
ATOM     54  N   UNL A   1      39.344  32.723  33.676  1.00  0.00    -0.354 N 
ATOM     55  C   UNL A   1      39.621  29.926  30.384  1.00  0.00     0.074 A 
ATOM     56  C   UNL A   1      38.663  30.250  29.352  1.00  0.00     0.031 C 
ATOM     57  C   UNL A   1      38.547  34.491  34.787  1.00  0.00     0.029 A 
ATOM     58  C   UNL A   1      39.495  33.379  34.872  1.00  0.00     0.049 A 
ATOM     59  H   UNL A   1      39.894  31.951  33.412  1.00  0.00     0.167 HD
ATOM     60  C   UNL A   1      40.507  28.904  30.311  1.00  0.00     0.037 A 
ATOM     61  C   UNL A   1      40.289  33.095  35.923  1.00  0.00     0.037 A 
ATOM     62  C   UNL A   1      41.454  28.582  31.345  1.00  0.00     0.049 A 
ATOM     63  C   UNL A   1      41.211  31.903  35.852  1.00  0.00     0.074 A 
ATOM     64  C   UNL A   1      42.406  27.579  31.361  1.00  0.00     0.029 A 
ATOM     65  N   UNL A   1      41.557  29.252  32.556  1.00  0.00    -0.354 N 
ATOM     66  N   UNL A   1      41.393  31.050  34.871  1.00  0.00    -0.248 NA
ATOM     67  C   UNL A   1      42.043  31.636  37.034  1.00  0.00     0.031 C 
ATOM     68  C   UNL A   1      43.041  27.600  32.606  1.00  0.00     0.029 A 
ATOM     69  C   UNL A   1      42.537  28.663  33.340  1.00  0.00     0.049 A 
ATOM     70  H   UNL A   1      41.015  30.030  32.819  1.00  0.00     0.167 HD
ATOM     71  C   UNL A   1      42.378  30.171  35.303  1.00  0.00     0.074 A 
ATOM     72  C   UNL A   1      42.765  30.600  36.631  1.00  0.00     0.031 C 
ATOM     73  C   UNL A   1      42.918  29.107  34.657  1.00  0.00     0.037 A 
BRANCH  60  74
ATOM     74  C   UNL A   1      40.463  28.039  29.083  1.00  0.00     0.064 A 
ATOM     75  C   UNL A   1      39.667  26.886  29.015  1.00  0.00     0.173 A 
ATOM     76  C   UNL A   1      41.218  28.381  27.950  1.00  0.00     0.173 A 
ATOM     77  F   UNL A   1      38.936  26.505  30.074  1.00  0.00    -0.203 F 
ATOM     78  C   UNL A   1      39.655  26.090  27.872  1.00  0.00     0.198 A 
ATOM     79  C   UNL A   1      41.176  27.603  26.797  1.00  0.00     0.198 A 
ATOM     80  F   UNL A   1      41.996  29.475  27.959  1.00  0.00    -0.203 F 
ATOM     81  F   UNL A   1      38.932  24.961  27.851  1.00  0.00    -0.200 F 
ATOM     82  C   UNL A   1      40.403  26.452  26.763  1.00  0.00     0.200 A 
ATOM     83  F   UNL A   1      41.889  27.963  25.721  1.00  0.00    -0.200 F 
ATOM     84  F   UNL A   1      40.386  25.688  25.661  1.00  0.00    -0.200 F 
ENDBRANCH  60  74
BRANCH  61  85
ATOM     85  C   UNL A   1      40.241  33.947  37.141  1.00  0.00     0.064 A 
ATOM     86  C   UNL A   1      39.310  33.702  38.161  1.00  0.00     0.173 A 
ATOM     87  C   UNL A   1      41.112  35.035  37.302  1.00  0.00     0.173 A 
ATOM     88  F   UNL A   1      38.436  32.691  38.042  1.00  0.00    -0.203 F 
ATOM     89  C   UNL A   1      39.242  34.522  39.286  1.00  0.00     0.198 A 
ATOM     90  C   UNL A   1      41.064  35.835  38.443  1.00  0.00     0.198 A 
ATOM     91  F   UNL A   1      42.017  35.317  36.355  1.00  0.00    -0.203 F 
ATOM     92  F   UNL A   1      38.311  34.294  40.222  1.00  0.00    -0.200 F 
ATOM     93  C   UNL A   1      40.124  35.582  39.430  1.00  0.00     0.200 A 
ATOM     94  F   UNL A   1      41.926  36.851  38.583  1.00  0.00    -0.200 F 
ATOM     95  F   UNL A   1      40.061  36.367  40.514  1.00  0.00    -0.200 F 
ENDBRANCH  61  85
BRANCH  73  96
ATOM     96  C   UNL A   1      44.022  28.358  35.351  1.00  0.00     0.064 A 
ATOM     97  C   UNL A   1      43.774  27.212  36.120  1.00  0.00     0.173 A 
ATOM     98  C   UNL A   1      45.356  28.770  35.200  1.00  0.00     0.173 A 
ATOM     99  F   UNL A   1      42.516  26.782  36.307  1.00  0.00    -0.203 F 
ATOM    100  C   UNL A   1      44.816  26.522  36.736  1.00  0.00     0.198 A 
ATOM    101  C   UNL A   1      46.398  28.057  35.788  1.00  0.00     0.198 A 
ATOM    102  F   UNL A   1      45.652  29.852  34.468  1.00  0.00    -0.203 F 
ATOM    103  F   UNL A   1      44.549  25.460  37.509  1.00  0.00    -0.200 F 
ATOM    104  C   UNL A   1      46.127  26.940  36.561  1.00  0.00     0.200 A 
ATOM    105  F   UNL A   1      47.666  28.451  35.602  1.00  0.00    -0.200 F 
ATOM    106  F   UNL A   1      47.128  26.268  37.146  1.00  0.00    -0.200 F 
ENDBRANCH  73  96
ENDBRANCH  47  48
ENDBRANCH  40  42
ENDBRANCH  39  40
ENDBRANCH  38  39
ENDBRANCH  37  38
ENDBRANCH  36  37
ENDBRANCH  35  36
ENDBRANCH  34  35
ENDBRANCH   1  34
TORSDOF 24
ENDMDL
MODEL 3
REMARK VINA RESULT:     -11.0      1.165      2.140
REMARK SMILES CC(=O)NS(=O)(=O)c1cc(-c2ccn(C(F)F)c(=O)c2)ccc1C(=O)OCCOCCOCCOCCOC(=O)c1ccc(-c2c3nc(c(-c4c(F)c(F)c(F)c(F)c4F)c4ccc([nH]4)c(-c4c(F)c(F)c(F)c(F)c4F)c4nc(c(-c5c(F)c(F)c(F)c(F)c5F)c5ccc2[nH]5)C=C4)C=C3)cc1
REMARK SMILES IDX 32 1 31 2 30 3 29 4 28 5 27 6 26 7 24 8 25 9 23 10 8 11 9 12
REMARK SMILES IDX 10 13 22 14 21 15 5 16 6 17 7 18 4 19 1 20 2 21 3 22 11 24
REMARK SMILES IDX 12 25 20 26 13 27 18 28 14 29 19 30 15 31 16 32 17 33 33 34
REMARK SMILES IDX 34 35 35 36 36 37 37 38 38 39 39 40 40 41 41 42 42 43 103 44
REMARK SMILES IDX 43 45 102 46 44 47 45 48 46 49 96 50 47 51 101 52 95 53
REMARK SMILES IDX 97 54 48 55 100 56 94 57 93 58 49 60 81 61 61 62 80 63 62 64
REMARK SMILES IDX 65 65 79 66 98 67 63 68 64 69 78 71 99 72 66 73 50 74 51 75
REMARK SMILES IDX 59 76 52 77 53 78 57 79 60 80 54 81 55 82 58 83 56 84 82 85
REMARK SMILES IDX 83 86 91 87 84 88 85 89 89 90 92 91 86 92 87 93 90 94 88 95
REMARK SMILES IDX 67 96 68 97 76 98 69 99 70 100 74 101 77 102 71 103 72 104
REMARK SMILES IDX 75 105 73 106
REMARK H PARENT 4 23 97 59 65 70
REMARK Flexibility Score: inf
ROOT
ATOM      1  O   UNL A   1      32.915  27.839  26.989  1.00  0.00    -0.377 OA
ENDROOT
BRANCH   1   2
ATOM      2  C   UNL A   1      32.903  27.279  25.685  1.00  0.00     0.188 C 
BRANCH   2   3
ATOM      3  C   UNL A   1      31.623  26.636  25.091  1.00  0.00     0.188 C 
BRANCH   3   4
ATOM      4  O   UNL A   1      30.931  25.759  25.954  1.00  0.00    -0.376 OA
BRANCH   4   5
ATOM      5  C   UNL A   1      30.734  24.395  25.628  1.00  0.00     0.202 C 
BRANCH   5   6
ATOM      6  C   UNL A   1      31.325  23.762  24.363  1.00  0.00     0.261 C 
BRANCH   6   7
ATOM      7  O   UNL A   1      32.101  22.594  24.616  1.00  0.00    -0.460 OA
BRANCH   7   8
ATOM      8  C   UNL A   1      32.950  22.191  23.667  1.00  0.00     0.339 C 
ATOM      9  O   UNL A   1      32.839  22.321  22.457  1.00  0.00    -0.246 OA
BRANCH   8  10
ATOM     10  C   UNL A   1      34.210  21.772  24.303  1.00  0.00     0.080 A 
ATOM     11  C   UNL A   1      34.522  20.475  24.723  1.00  0.00     0.103 A 
ATOM     12  C   UNL A   1      35.818  20.211  25.217  1.00  0.00     0.032 A 
ATOM     13  C   UNL A   1      36.802  21.207  25.244  1.00  0.00    -0.017 A 
ATOM     14  C   UNL A   1      35.182  22.789  24.412  1.00  0.00     0.018 A 
ATOM     15  C   UNL A   1      36.464  22.512  24.884  1.00  0.00     0.010 A 
BRANCH  11  16
ATOM     16  S   UNL A   1      33.417  19.094  24.656  1.00  0.00     0.264 S 
ATOM     17  O   UNL A   1      32.790  19.000  23.361  1.00  0.00    -0.201 OA
ATOM     18  O   UNL A   1      32.581  19.165  25.837  1.00  0.00    -0.201 OA
BRANCH  16  19
ATOM     19  N   UNL A   1      34.289  17.705  24.802  1.00  0.00    -0.249 N 
ATOM     20  C   UNL A   1      32.641  15.838  25.186  1.00  0.00     0.115 C 
ATOM     21  C   UNL A   1      34.033  16.352  25.018  1.00  0.00     0.230 C 
ATOM     22  O   UNL A   1      34.997  15.601  25.112  1.00  0.00    -0.274 OA
ATOM     23  H   UNL A   1      35.255  17.877  24.712  1.00  0.00     0.183 HD
ENDBRANCH  16  19
ENDBRANCH  11  16
BRANCH  13  24
ATOM     24  C   UNL A   1      38.210  20.852  25.479  1.00  0.00    -0.011 A 
ATOM     25  C   UNL A   1      38.752  19.516  25.371  1.00  0.00     0.027 A 
ATOM     26  C   UNL A   1      39.009  21.860  25.870  1.00  0.00     0.080 A 
ATOM     27  C   UNL A   1      40.036  19.286  25.680  1.00  0.00     0.095 A 
ATOM     28  C   UNL A   1      40.437  21.622  26.205  1.00  0.00     0.255 A 
ATOM     29  N   UNL A   1      40.868  20.312  26.095  1.00  0.00    -0.258 N 
ATOM     30  O   UNL A   1      41.115  22.579  26.561  1.00  0.00    -0.269 OA
BRANCH  29  31
ATOM     31  C   UNL A   1      42.235  20.052  26.468  1.00  0.00     0.451 C 
ATOM     32  F   UNL A   1      42.312  19.054  27.381  1.00  0.00    -0.185 F 
ATOM     33  F   UNL A   1      42.965  19.689  25.386  1.00  0.00    -0.185 F 
ENDBRANCH  29  31
ENDBRANCH  13  24
ENDBRANCH   8  10
ENDBRANCH   7   8
ENDBRANCH   6   7
ENDBRANCH   5   6
ENDBRANCH   4   5
ENDBRANCH   3   4
ENDBRANCH   2   3
ENDBRANCH   1   2
BRANCH   1  34
ATOM     34  C   UNL A   1      32.077  28.947  27.294  1.00  0.00     0.188 C 
BRANCH  34  35
ATOM     35  C   UNL A   1      32.351  30.332  26.663  1.00  0.00     0.188 C 
BRANCH  35  36
ATOM     36  O   UNL A   1      31.232  31.203  26.647  1.00  0.00    -0.376 OA
BRANCH  36  37
ATOM     37  C   UNL A   1      31.481  32.594  26.763  1.00  0.00     0.202 C 
BRANCH  37  38
ATOM     38  C   UNL A   1      32.658  33.037  27.644  1.00  0.00     0.261 C 
BRANCH  38  39
ATOM     39  O   UNL A   1      33.048  34.414  27.538  1.00  0.00    -0.460 OA
BRANCH  39  40
ATOM     40  C   UNL A   1      33.164  35.116  28.685  1.00  0.00     0.338 C 
ATOM     41  O   UNL A   1      32.396  35.953  29.122  1.00  0.00    -0.246 OA
BRANCH  40  42
ATOM     42  C   UNL A   1      34.312  34.559  29.428  1.00  0.00     0.060 A 
ATOM     43  C   UNL A   1      35.585  34.583  28.840  1.00  0.00     0.016 A 
ATOM     44  C   UNL A   1      34.127  34.020  30.701  1.00  0.00     0.016 A 
ATOM     45  C   UNL A   1      36.673  34.034  29.517  1.00  0.00     0.010 A 
ATOM     46  C   UNL A   1      35.213  33.449  31.368  1.00  0.00     0.010 A 
ATOM     47  C   UNL A   1      36.483  33.423  30.764  1.00  0.00    -0.014 A 
BRANCH  47  48
ATOM     48  C   UNL A   1      37.555  32.581  31.345  1.00  0.00     0.031 A 
ATOM     49  C   UNL A   1      38.060  32.921  32.719  1.00  0.00     0.074 A 
ATOM     50  C   UNL A   1      38.063  31.532  30.676  1.00  0.00     0.049 A 
ATOM     51  N   UNL A   1      39.030  32.380  33.411  1.00  0.00    -0.248 NA
ATOM     52  C   UNL A   1      37.377  34.031  33.403  1.00  0.00     0.031 C 
ATOM     53  C   UNL A   1      37.627  31.078  29.358  1.00  0.00     0.029 A 
ATOM     54  N   UNL A   1      39.072  30.665  31.018  1.00  0.00    -0.354 N 
ATOM     55  C   UNL A   1      39.079  33.090  34.604  1.00  0.00     0.074 A 
ATOM     56  C   UNL A   1      38.067  34.119  34.530  1.00  0.00     0.031 C 
ATOM     57  C   UNL A   1      38.375  30.021  28.994  1.00  0.00     0.029 A 
ATOM     58  C   UNL A   1      39.366  29.752  30.036  1.00  0.00     0.049 A 
ATOM     59  H   UNL A   1      39.540  30.697  31.883  1.00  0.00     0.167 HD
ATOM     60  C   UNL A   1      39.893  32.893  35.668  1.00  0.00     0.037 A 
ATOM     61  C   UNL A   1      40.343  28.826  29.979  1.00  0.00     0.037 A 
ATOM     62  C   UNL A   1      40.903  31.870  35.732  1.00  0.00     0.049 A 
ATOM     63  C   UNL A   1      41.291  28.678  31.144  1.00  0.00     0.074 A 
ATOM     64  C   UNL A   1      41.768  31.576  36.771  1.00  0.00     0.029 A 
ATOM     65  N   UNL A   1      41.192  30.983  34.706  1.00  0.00    -0.354 N 
ATOM     66  N   UNL A   1      41.318  29.331  32.281  1.00  0.00    -0.248 NA
ATOM     67  C   UNL A   1      42.343  27.660  31.017  1.00  0.00     0.031 C 
ATOM     68  C   UNL A   1      42.624  30.554  36.349  1.00  0.00     0.029 A 
ATOM     69  C   UNL A   1      42.245  30.160  35.076  1.00  0.00     0.049 A 
ATOM     70  H   UNL A   1      40.720  30.942  33.843  1.00  0.00     0.167 HD
ATOM     71  C   UNL A   1      42.362  28.782  33.015  1.00  0.00     0.074 A 
ATOM     72  C   UNL A   1      42.938  27.734  32.199  1.00  0.00     0.031 C 
ATOM     73  C   UNL A   1      42.802  29.113  34.256  1.00  0.00     0.037 A 
BRANCH  60  74
ATOM     74  C   UNL A   1      39.746  33.831  36.833  1.00  0.00     0.064 A 
ATOM     75  C   UNL A   1      40.404  35.069  36.877  1.00  0.00     0.173 A 
ATOM     76  C   UNL A   1      38.918  33.491  37.914  1.00  0.00     0.173 A 
ATOM     77  F   UNL A   1      41.220  35.438  35.877  1.00  0.00    -0.203 F 
ATOM     78  C   UNL A   1      40.267  35.915  37.975  1.00  0.00     0.198 A 
ATOM     79  C   UNL A   1      38.754  34.355  38.992  1.00  0.00     0.198 A 
ATOM     80  F   UNL A   1      38.262  32.321  37.923  1.00  0.00    -0.203 F 
ATOM     81  F   UNL A   1      40.952  37.066  38.021  1.00  0.00    -0.200 F 
ATOM     82  C   UNL A   1      39.437  35.561  39.027  1.00  0.00     0.200 A 
ATOM     83  F   UNL A   1      37.940  34.018  40.002  1.00  0.00    -0.200 F 
ATOM     84  F   UNL A   1      39.301  36.380  40.080  1.00  0.00    -0.200 F 
ENDBRANCH  60  74
BRANCH  61  85
ATOM     85  C   UNL A   1      40.484  27.970  28.771  1.00  0.00     0.064 A 
ATOM     86  C   UNL A   1      41.211  28.406  27.654  1.00  0.00     0.173 A 
ATOM     87  C   UNL A   1      39.880  26.706  28.701  1.00  0.00     0.173 A 
ATOM     88  F   UNL A   1      41.784  29.619  27.661  1.00  0.00    -0.203 F 
ATOM     89  C   UNL A   1      41.314  27.619  26.509  1.00  0.00     0.198 A 
ATOM     90  C   UNL A   1      40.010  25.906  27.567  1.00  0.00     0.198 A 
ATOM     91  F   UNL A   1      39.168  26.242  29.738  1.00  0.00    -0.203 F 
ATOM     92  F   UNL A   1      41.974  28.081  25.438  1.00  0.00    -0.200 F 
ATOM     93  C   UNL A   1      40.721  26.366  26.469  1.00  0.00     0.200 A 
ATOM     94  F   UNL A   1      39.445  24.691  27.538  1.00  0.00    -0.200 F 
ATOM     95  F   UNL A   1      40.824  25.608  25.369  1.00  0.00    -0.200 F 
ENDBRANCH  61  85
BRANCH  73  96
ATOM     96  C   UNL A   1      43.930  28.303  34.833  1.00  0.00     0.064 A 
ATOM     97  C   UNL A   1      43.707  27.107  35.530  1.00  0.00     0.173 A 
ATOM     98  C   UNL A   1      45.261  28.709  34.639  1.00  0.00     0.173 A 
ATOM     99  F   UNL A   1      42.454  26.680  35.754  1.00  0.00    -0.203 F 
ATOM    100  C   UNL A   1      44.770  26.363  36.037  1.00  0.00     0.198 A 
ATOM    101  C   UNL A   1      46.322  27.944  35.115  1.00  0.00     0.198 A 
ATOM    102  F   UNL A   1      45.533  29.839  33.970  1.00  0.00    -0.203 F 
ATOM    103  F   UNL A   1      44.529  25.251  36.745  1.00  0.00    -0.200 F 
ATOM    104  C   UNL A   1      46.076  26.777  35.820  1.00  0.00     0.200 A 
ATOM    105  F   UNL A   1      47.584  28.336  34.888  1.00  0.00    -0.200 F 
ATOM    106  F   UNL A   1      47.097  26.054  36.299  1.00  0.00    -0.200 F 
ENDBRANCH  73  96
ENDBRANCH  47  48
ENDBRANCH  40  42
ENDBRANCH  39  40
ENDBRANCH  38  39
ENDBRANCH  37  38
ENDBRANCH  36  37
ENDBRANCH  35  36
ENDBRANCH  34  35
ENDBRANCH   1  34
TORSDOF 24
ENDMDL
