MODEL 1
REMARK VINA RESULT:     -10.4      0.000      0.000
REMARK SMILES O=C(OCCOCCOCCOCCOC(=O)[C@H]1CSCN1C(=O)Nc1ccc(F)cc1F)c1ccc(-c2c3nc(c(-c4c(F)c(F)c(F)c(F)c4F)c4ccc([nH]4)c(-c4c(F)c(F)c(F)c(F)c4F)c4nc(c(-c5c(F)c(F)c(F)c(F)c5F)c5ccc2[nH]5)C=C4)C=C3)cc1
REMARK SMILES IDX 9 1 8 2 7 3 6 4 5 5 4 6 3 7 2 8 1 9 34 10 35 11 96 12 36 13
REMARK SMILES IDX 95 14 37 15 38 16 39 17 89 18 40 19 94 20 88 21 90 22 41 23
REMARK SMILES IDX 93 24 87 25 86 26 42 28 74 29 54 30 73 31 55 32 58 33 72 34
REMARK SMILES IDX 91 35 56 36 57 37 71 39 92 40 59 41 43 42 44 43 52 44 45 45
REMARK SMILES IDX 46 46 50 47 53 48 47 49 48 50 51 51 49 52 75 53 76 54 84 55
REMARK SMILES IDX 77 56 78 57 82 58 85 59 79 60 80 61 83 62 81 63 60 64 61 65
REMARK SMILES IDX 69 66 62 67 63 68 67 69 70 70 64 71 65 72 68 73 66 74 10 75
REMARK SMILES IDX 11 76 12 77 13 78 14 79 15 80 16 81 17 82 18 83 19 84 22 85
REMARK SMILES IDX 20 86 21 87 23 88 24 89 25 90 26 92 27 93 32 94 28 95 31 96
REMARK SMILES IDX 33 97 29 98 30 99
REMARK H PARENT 90 27 58 38 25 91
REMARK Flexibility Score: inf
ROOT
ATOM      1  O   UNL A   1      39.936  22.220  26.148  1.00  0.00    -0.377 OA
ENDROOT
BRANCH   1   2
ATOM      2  C   UNL A   1      40.425  21.556  27.314  1.00  0.00     0.188 C 
BRANCH   2   3
ATOM      3  C   UNL A   1      41.750  20.841  27.110  1.00  0.00     0.188 C 
BRANCH   3   4
ATOM      4  O   UNL A   1      42.829  21.714  27.431  1.00  0.00    -0.376 OA
BRANCH   4   5
ATOM      5  C   UNL A   1      43.877  21.763  26.465  1.00  0.00     0.202 C 
BRANCH   5   6
ATOM      6  C   UNL A   1      43.393  22.040  25.048  1.00  0.00     0.261 C 
BRANCH   6   7
ATOM      7  O   UNL A   1      42.904  23.375  24.863  1.00  0.00    -0.460 OA
BRANCH   7   8
ATOM      8  C   UNL A   1      43.497  24.558  25.158  1.00  0.00     0.338 C 
ATOM      9  O   UNL A   1      44.542  24.837  24.588  1.00  0.00    -0.246 OA
BRANCH   8  10
ATOM     10  C   UNL A   1      42.956  25.572  26.122  1.00  0.00     0.060 A 
ATOM     11  C   UNL A   1      43.139  26.955  26.061  1.00  0.00     0.016 A 
ATOM     12  C   UNL A   1      42.093  25.074  27.113  1.00  0.00     0.016 A 
ATOM     13  C   UNL A   1      42.510  27.821  26.946  1.00  0.00     0.010 A 
ATOM     14  C   UNL A   1      41.470  25.930  28.024  1.00  0.00     0.010 A 
ATOM     15  C   UNL A   1      41.700  27.306  27.948  1.00  0.00    -0.014 A 
BRANCH  15  16
ATOM     16  C   UNL A   1      41.316  28.200  29.049  1.00  0.00     0.031 A 
ATOM     17  C   UNL A   1      42.223  28.224  30.240  1.00  0.00     0.074 A 
ATOM     18  C   UNL A   1      40.279  29.042  28.924  1.00  0.00     0.049 A 
ATOM     19  N   UNL A   1      42.039  28.753  31.415  1.00  0.00    -0.248 NA
ATOM     20  C   UNL A   1      43.534  27.565  30.074  1.00  0.00     0.031 C 
ATOM     21  C   UNL A   1      39.471  29.216  27.715  1.00  0.00     0.029 A 
ATOM     22  N   UNL A   1      39.739  29.925  29.819  1.00  0.00    -0.354 N 
ATOM     23  C   UNL A   1      43.186  28.455  32.138  1.00  0.00     0.074 A 
ATOM     24  C   UNL A   1      44.072  27.714  31.274  1.00  0.00     0.031 C 
ATOM     25  C   UNL A   1      38.532  30.151  27.949  1.00  0.00     0.029 A 
ATOM     26  C   UNL A   1      38.625  30.571  29.343  1.00  0.00     0.049 A 
ATOM     27  H   UNL A   1      40.113  30.081  30.716  1.00  0.00     0.167 HD
ATOM     28  C   UNL A   1      43.450  28.770  33.425  1.00  0.00     0.037 A 
ATOM     29  C   UNL A   1      37.757  31.364  30.000  1.00  0.00     0.037 A 
ATOM     30  C   UNL A   1      42.531  29.511  34.240  1.00  0.00     0.049 A 
ATOM     31  C   UNL A   1      38.007  31.592  31.470  1.00  0.00     0.074 A 
ATOM     32  C   UNL A   1      42.599  29.801  35.588  1.00  0.00     0.029 A 
ATOM     33  N   UNL A   1      41.365  30.093  33.756  1.00  0.00    -0.354 N 
ATOM     34  N   UNL A   1      39.013  31.187  32.212  1.00  0.00    -0.248 NA
ATOM     35  C   UNL A   1      36.992  32.356  32.203  1.00  0.00     0.031 C 
ATOM     36  C   UNL A   1      41.457  30.537  35.924  1.00  0.00     0.029 A 
ATOM     37  C   UNL A   1      40.704  30.745  34.777  1.00  0.00     0.049 A 
ATOM     38  H   UNL A   1      41.057  30.047  32.822  1.00  0.00     0.167 HD
ATOM     39  C   UNL A   1      38.763  31.658  33.491  1.00  0.00     0.074 A 
ATOM     40  C   UNL A   1      37.521  32.405  33.418  1.00  0.00     0.031 C 
ATOM     41  C   UNL A   1      39.476  31.486  34.634  1.00  0.00     0.037 A 
BRANCH  28  42
ATOM     42  C   UNL A   1      44.727  28.262  34.018  1.00  0.00     0.064 A 
ATOM     43  C   UNL A   1      44.781  26.982  34.588  1.00  0.00     0.173 A 
ATOM     44  C   UNL A   1      45.898  29.035  34.027  1.00  0.00     0.173 A 
ATOM     45  F   UNL A   1      43.695  26.195  34.585  1.00  0.00    -0.203 F 
ATOM     46  C   UNL A   1      45.954  26.500  35.164  1.00  0.00     0.198 A 
ATOM     47  C   UNL A   1      47.076  28.541  34.584  1.00  0.00     0.198 A 
ATOM     48  F   UNL A   1      45.910  30.249  33.459  1.00  0.00    -0.203 F 
ATOM     49  F   UNL A   1      45.975  25.279  35.716  1.00  0.00    -0.200 F 
ATOM     50  C   UNL A   1      47.100  27.280  35.160  1.00  0.00     0.200 A 
ATOM     51  F   UNL A   1      48.193  29.282  34.551  1.00  0.00    -0.200 F 
ATOM     52  F   UNL A   1      48.233  26.810  35.703  1.00  0.00    -0.200 F 
ENDBRANCH  28  42
BRANCH  29  53
ATOM     53  C   UNL A   1      36.556  31.922  29.317  1.00  0.00     0.064 A 
ATOM     54  C   UNL A   1      35.477  31.103  28.944  1.00  0.00     0.173 A 
ATOM     55  C   UNL A   1      36.445  33.293  29.050  1.00  0.00     0.173 A 
ATOM     56  F   UNL A   1      35.519  29.783  29.180  1.00  0.00    -0.203 F 
ATOM     57  C   UNL A   1      34.346  31.631  28.323  1.00  0.00     0.198 A 
ATOM     58  C   UNL A   1      35.297  33.826  28.460  1.00  0.00     0.198 A 
ATOM     59  F   UNL A   1      37.434  34.127  29.405  1.00  0.00    -0.203 F 
ATOM     60  F   UNL A   1      33.345  30.819  27.956  1.00  0.00    -0.200 F 
ATOM     61  C   UNL A   1      34.252  32.993  28.091  1.00  0.00     0.200 A 
ATOM     62  F   UNL A   1      35.197  35.149  28.269  1.00  0.00    -0.200 F 
ATOM     63  F   UNL A   1      33.151  33.506  27.525  1.00  0.00    -0.200 F 
ENDBRANCH  29  53
BRANCH  41  64
ATOM     64  C   UNL A   1      38.943  32.150  35.865  1.00  0.00     0.064 A 
ATOM     65  C   UNL A   1      39.262  33.488  36.137  1.00  0.00     0.173 A 
ATOM     66  C   UNL A   1      38.167  31.447  36.797  1.00  0.00     0.173 A 
ATOM     67  F   UNL A   1      40.013  34.193  35.278  1.00  0.00    -0.203 F 
ATOM     68  C   UNL A   1      38.825  34.099  37.305  1.00  0.00     0.198 A 
ATOM     69  C   UNL A   1      37.703  32.073  37.948  1.00  0.00     0.198 A 
ATOM     70  F   UNL A   1      37.829  30.168  36.568  1.00  0.00    -0.203 F 
ATOM     71  F   UNL A   1      39.165  35.369  37.562  1.00  0.00    -0.200 F 
ATOM     72  C   UNL A   1      38.039  33.394  38.205  1.00  0.00     0.200 A 
ATOM     73  F   UNL A   1      36.921  31.400  38.803  1.00  0.00    -0.200 F 
ATOM     74  F   UNL A   1      37.599  33.991  39.322  1.00  0.00    -0.200 F 
ENDBRANCH  41  64
ENDBRANCH  15  16
ENDBRANCH   8  10
ENDBRANCH   7   8
ENDBRANCH   6   7
ENDBRANCH   5   6
ENDBRANCH   4   5
ENDBRANCH   3   4
ENDBRANCH   2   3
ENDBRANCH   1   2
BRANCH   1  75
ATOM     75  C   UNL A   1      38.585  21.992  25.749  1.00  0.00     0.188 C 
BRANCH  75  76
ATOM     76  C   UNL A   1      37.608  23.181  25.756  1.00  0.00     0.188 C 
BRANCH  76  77
ATOM     77  O   UNL A   1      36.243  22.786  25.827  1.00  0.00    -0.376 OA
BRANCH  77  78
ATOM     78  C   UNL A   1      35.936  21.566  25.151  1.00  0.00     0.202 C 
BRANCH  78  79
ATOM     79  C   UNL A   1      34.530  21.440  24.515  1.00  0.00     0.261 C 
BRANCH  79  80
ATOM     80  O   UNL A   1      33.894  22.714  24.354  1.00  0.00    -0.462 OA
BRANCH  80  81
ATOM     81  C   UNL A   1      33.893  23.321  23.137  1.00  0.00     0.329 C 
ATOM     82  O   UNL A   1      34.859  23.388  22.397  1.00  0.00    -0.250 OA
BRANCH  81  83
ATOM     83  C   UNL A   1      32.454  23.789  22.817  1.00  0.00     0.207 C 
ATOM     84  C   UNL A   1      31.443  23.207  23.819  1.00  0.00     0.108 C 
ATOM     85  N   UNL A   1      32.271  25.231  22.793  1.00  0.00    -0.301 N 
ATOM     86  S   UNL A   1      30.256  24.517  24.227  1.00  0.00    -0.138 SA
ATOM     87  C   UNL A   1      30.872  25.585  22.924  1.00  0.00     0.192 C 
BRANCH  85  88
ATOM     88  C   UNL A   1      33.108  26.002  22.024  1.00  0.00     0.323 C 
ATOM     89  O   UNL A   1      33.377  25.707  20.861  1.00  0.00    -0.248 OA
ATOM     90  N   UNL A   1      33.604  27.144  22.594  1.00  0.00    -0.305 N 
ATOM     91  H   UNL A   1      34.122  27.735  22.002  1.00  0.00     0.171 HD
BRANCH  90  92
ATOM     92  C   UNL A   1      33.457  27.571  23.928  1.00  0.00     0.079 A 
ATOM     93  C   UNL A   1      34.043  26.901  25.011  1.00  0.00     0.032 A 
ATOM     94  C   UNL A   1      32.518  28.575  24.168  1.00  0.00     0.149 A 
ATOM     95  C   UNL A   1      33.548  27.107  26.299  1.00  0.00     0.041 A 
ATOM     96  C   UNL A   1      32.018  28.780  25.445  1.00  0.00     0.080 A 
ATOM     97  F   UNL A   1      31.972  29.234  23.135  1.00  0.00    -0.205 F 
ATOM     98  C   UNL A   1      32.513  28.015  26.494  1.00  0.00     0.126 A 
ATOM     99  F   UNL A   1      31.961  28.130  27.708  1.00  0.00    -0.207 F 
ENDBRANCH  90  92
ENDBRANCH  85  88
ENDBRANCH  81  83
ENDBRANCH  80  81
ENDBRANCH  79  80
ENDBRANCH  78  79
ENDBRANCH  77  78
ENDBRANCH  76  77
ENDBRANCH  75  76
ENDBRANCH   1  75
TORSDOF 22
ENDMDL
MODEL 2
REMARK VINA RESULT:     -10.4      4.970      7.705
REMARK SMILES O=C(OCCOCCOCCOCCOC(=O)[C@H]1CSCN1C(=O)Nc1ccc(F)cc1F)c1ccc(-c2c3nc(c(-c4c(F)c(F)c(F)c(F)c4F)c4ccc([nH]4)c(-c4c(F)c(F)c(F)c(F)c4F)c4nc(c(-c5c(F)c(F)c(F)c(F)c5F)c5ccc2[nH]5)C=C4)C=C3)cc1
REMARK SMILES IDX 9 1 8 2 7 3 6 4 5 5 4 6 3 7 2 8 1 9 34 10 35 11 96 12 36 13
REMARK SMILES IDX 95 14 37 15 38 16 39 17 89 18 40 19 94 20 88 21 90 22 41 23
REMARK SMILES IDX 93 24 87 25 86 26 42 28 74 29 54 30 73 31 55 32 58 33 72 34
REMARK SMILES IDX 91 35 56 36 57 37 71 39 92 40 59 41 43 42 44 43 52 44 45 45
REMARK SMILES IDX 46 46 50 47 53 48 47 49 48 50 51 51 49 52 75 53 76 54 84 55
REMARK SMILES IDX 77 56 78 57 82 58 85 59 79 60 80 61 83 62 81 63 60 64 61 65
REMARK SMILES IDX 69 66 62 67 63 68 67 69 70 70 64 71 65 72 68 73 66 74 10 75
REMARK SMILES IDX 11 76 12 77 13 78 14 79 15 80 16 81 17 82 18 83 19 84 22 85
REMARK SMILES IDX 20 86 21 87 23 88 24 89 25 90 26 92 27 93 32 94 28 95 31 96
REMARK SMILES IDX 33 97 29 98 30 99
REMARK H PARENT 90 27 58 38 25 91
REMARK Flexibility Score: inf
ROOT
ATOM      1  O   UNL A   1      40.191  22.298  25.778  1.00  0.00    -0.377 OA
ENDROOT
BRANCH   1   2
ATOM      2  C   UNL A   1      41.354  21.564  26.162  1.00  0.00     0.188 C 
BRANCH   2   3
ATOM      3  C   UNL A   1      41.182  20.749  27.433  1.00  0.00     0.188 C 
BRANCH   3   4
ATOM      4  O   UNL A   1      42.021  19.599  27.391  1.00  0.00    -0.376 OA
BRANCH   4   5
ATOM      5  C   UNL A   1      42.236  19.054  26.091  1.00  0.00     0.202 C 
BRANCH   5   6
ATOM      6  C   UNL A   1      43.506  18.220  25.977  1.00  0.00     0.261 C 
BRANCH   6   7
ATOM      7  O   UNL A   1      44.152  18.337  24.703  1.00  0.00    -0.460 OA
BRANCH   7   8
ATOM      8  C   UNL A   1      45.003  19.291  24.252  1.00  0.00     0.338 C 
ATOM      9  O   UNL A   1      45.884  18.956  23.474  1.00  0.00    -0.246 OA
BRANCH   8  10
ATOM     10  C   UNL A   1      44.935  20.744  24.619  1.00  0.00     0.060 A 
ATOM     11  C   UNL A   1      44.443  21.778  23.821  1.00  0.00     0.016 A 
ATOM     12  C   UNL A   1      45.304  21.060  25.937  1.00  0.00     0.016 A 
ATOM     13  C   UNL A   1      44.328  23.081  24.290  1.00  0.00     0.010 A 
ATOM     14  C   UNL A   1      45.214  22.368  26.418  1.00  0.00     0.010 A 
ATOM     15  C   UNL A   1      44.743  23.382  25.580  1.00  0.00    -0.014 A 
BRANCH  15  16
ATOM     16  C   UNL A   1      44.913  24.798  25.934  1.00  0.00     0.031 A 
ATOM     17  C   UNL A   1      46.245  25.408  25.633  1.00  0.00     0.074 A 
ATOM     18  C   UNL A   1      43.877  25.525  26.380  1.00  0.00     0.049 A 
ATOM     19  N   UNL A   1      46.739  26.554  26.007  1.00  0.00    -0.248 NA
ATOM     20  C   UNL A   1      47.147  24.615  24.774  1.00  0.00     0.031 C 
ATOM     21  C   UNL A   1      42.499  25.047  26.509  1.00  0.00     0.029 A 
ATOM     22  N   UNL A   1      43.819  26.830  26.789  1.00  0.00    -0.354 N 
ATOM     23  C   UNL A   1      48.017  26.599  25.467  1.00  0.00     0.074 A 
ATOM     24  C   UNL A   1      48.226  25.380  24.725  1.00  0.00     0.031 C 
ATOM     25  C   UNL A   1      41.731  26.049  26.971  1.00  0.00     0.029 A 
ATOM     26  C   UNL A   1      42.580  27.203  27.247  1.00  0.00     0.049 A 
ATOM     27  H   UNL A   1      44.590  27.440  26.757  1.00  0.00     0.167 HD
ATOM     28  C   UNL A   1      48.932  27.583  25.607  1.00  0.00     0.037 A 
ATOM     29  C   UNL A   1      42.212  28.337  27.873  1.00  0.00     0.037 A 
ATOM     30  C   UNL A   1      48.670  28.777  26.357  1.00  0.00     0.049 A 
ATOM     31  C   UNL A   1      43.288  29.364  28.131  1.00  0.00     0.074 A 
ATOM     32  C   UNL A   1      49.531  29.803  26.691  1.00  0.00     0.029 A 
ATOM     33  N   UNL A   1      47.425  29.102  26.882  1.00  0.00    -0.354 N 
ATOM     34  N   UNL A   1      44.547  29.355  27.759  1.00  0.00    -0.248 NA
ATOM     35  C   UNL A   1      42.904  30.540  28.918  1.00  0.00     0.031 C 
ATOM     36  C   UNL A   1      48.810  30.737  27.444  1.00  0.00     0.029 A 
ATOM     37  C   UNL A   1      47.490  30.316  27.536  1.00  0.00     0.049 A 
ATOM     38  H   UNL A   1      46.615  28.548  26.799  1.00  0.00     0.167 HD
ATOM     39  C   UNL A   1      45.103  30.525  28.252  1.00  0.00     0.074 A 
ATOM     40  C   UNL A   1      44.032  31.235  28.927  1.00  0.00     0.031 C 
ATOM     41  C   UNL A   1      46.381  30.978  28.175  1.00  0.00     0.037 A 
BRANCH  28  42
ATOM     42  C   UNL A   1      50.284  27.368  25.000  1.00  0.00     0.064 A 
ATOM     43  C   UNL A   1      50.494  27.618  23.636  1.00  0.00     0.173 A 
ATOM     44  C   UNL A   1      51.373  26.916  25.760  1.00  0.00     0.173 A 
ATOM     45  F   UNL A   1      49.491  28.074  22.871  1.00  0.00    -0.203 F 
ATOM     46  C   UNL A   1      51.739  27.404  23.050  1.00  0.00     0.198 A 
ATOM     47  C   UNL A   1      52.623  26.724  25.175  1.00  0.00     0.198 A 
ATOM     48  F   UNL A   1      51.235  26.701  27.077  1.00  0.00    -0.203 F 
ATOM     49  F   UNL A   1      51.910  27.636  21.741  1.00  0.00    -0.200 F 
ATOM     50  C   UNL A   1      52.802  26.959  23.820  1.00  0.00     0.200 A 
ATOM     51  F   UNL A   1      53.659  26.325  25.926  1.00  0.00    -0.200 F 
ATOM     52  F   UNL A   1      54.003  26.766  23.257  1.00  0.00    -0.200 F 
ENDBRANCH  28  42
BRANCH  29  53
ATOM     53  C   UNL A   1      40.818  28.528  28.361  1.00  0.00     0.064 A 
ATOM     54  C   UNL A   1      39.813  29.048  27.528  1.00  0.00     0.173 A 
ATOM     55  C   UNL A   1      40.448  28.165  29.664  1.00  0.00     0.173 A 
ATOM     56  F   UNL A   1      40.101  29.405  26.267  1.00  0.00    -0.203 F 
ATOM     57  C   UNL A   1      38.503  29.206  27.981  1.00  0.00     0.198 A 
ATOM     58  C   UNL A   1      39.130  28.292  30.105  1.00  0.00     0.198 A 
ATOM     59  F   UNL A   1      41.360  27.642  30.497  1.00  0.00    -0.203 F 
ATOM     60  F   UNL A   1      37.575  29.729  27.169  1.00  0.00    -0.200 F 
ATOM     61  C   UNL A   1      38.161  28.819  29.265  1.00  0.00     0.200 A 
ATOM     62  F   UNL A   1      38.796  27.884  31.337  1.00  0.00    -0.200 F 
ATOM     63  F   UNL A   1      36.896  28.940  29.690  1.00  0.00    -0.200 F 
ENDBRANCH  29  53
BRANCH  41  64
ATOM     64  C   UNL A   1      46.661  32.309  28.799  1.00  0.00     0.064 A 
ATOM     65  C   UNL A   1      46.999  32.392  30.158  1.00  0.00     0.173 A 
ATOM     66  C   UNL A   1      46.543  33.499  28.069  1.00  0.00     0.173 A 
ATOM     67  F   UNL A   1      47.110  31.278  30.897  1.00  0.00    -0.203 F 
ATOM     68  C   UNL A   1      47.203  33.624  30.766  1.00  0.00     0.198 A 
ATOM     69  C   UNL A   1      46.782  34.728  28.673  1.00  0.00     0.198 A 
ATOM     70  F   UNL A   1      46.234  33.463  26.763  1.00  0.00    -0.203 F 
ATOM     71  F   UNL A   1      47.495  33.684  32.072  1.00  0.00    -0.200 F 
ATOM     72  C   UNL A   1      47.103  34.790  30.021  1.00  0.00     0.200 A 
ATOM     73  F   UNL A   1      46.712  35.852  27.946  1.00  0.00    -0.200 F 
ATOM     74  F   UNL A   1      47.321  35.977  30.603  1.00  0.00    -0.200 F 
ENDBRANCH  41  64
ENDBRANCH  15  16
ENDBRANCH   8  10
ENDBRANCH   7   8
ENDBRANCH   6   7
ENDBRANCH   5   6
ENDBRANCH   4   5
ENDBRANCH   3   4
ENDBRANCH   2   3
ENDBRANCH   1   2
BRANCH   1  75
ATOM     75  C   UNL A   1      38.911  21.801  26.167  1.00  0.00     0.188 C 
BRANCH  75  76
ATOM     76  C   UNL A   1      37.853  21.565  25.076  1.00  0.00     0.188 C 
BRANCH  76  77
ATOM     77  O   UNL A   1      37.273  22.767  24.585  1.00  0.00    -0.376 OA
BRANCH  77  78
ATOM     78  C   UNL A   1      36.074  23.169  25.250  1.00  0.00     0.202 C 
BRANCH  78  79
ATOM     79  C   UNL A   1      34.736  22.931  24.509  1.00  0.00     0.261 C 
BRANCH  79  80
ATOM     80  O   UNL A   1      33.685  23.768  25.009  1.00  0.00    -0.462 OA
BRANCH  80  81
ATOM     81  C   UNL A   1      32.772  24.294  24.149  1.00  0.00     0.329 C 
ATOM     82  O   UNL A   1      32.220  23.668  23.261  1.00  0.00    -0.250 OA
BRANCH  81  83
ATOM     83  C   UNL A   1      32.479  25.754  24.568  1.00  0.00     0.207 C 
ATOM     84  C   UNL A   1      32.917  26.016  26.017  1.00  0.00     0.108 C 
ATOM     85  N   UNL A   1      33.099  26.767  23.730  1.00  0.00    -0.301 N 
ATOM     86  S   UNL A   1      33.690  27.657  26.072  1.00  0.00    -0.138 SA
ATOM     87  C   UNL A   1      33.152  28.047  24.405  1.00  0.00     0.192 C 
BRANCH  85  88
ATOM     88  C   UNL A   1      32.924  26.713  22.368  1.00  0.00     0.323 C 
ATOM     89  O   UNL A   1      33.838  26.396  21.608  1.00  0.00    -0.248 OA
ATOM     90  N   UNL A   1      31.673  26.989  21.888  1.00  0.00    -0.305 N 
ATOM     91  H   UNL A   1      31.538  26.853  20.923  1.00  0.00     0.171 HD
BRANCH  90  92
ATOM     92  C   UNL A   1      30.556  27.444  22.615  1.00  0.00     0.079 A 
ATOM     93  C   UNL A   1      29.709  26.586  23.329  1.00  0.00     0.032 A 
ATOM     94  C   UNL A   1      30.182  28.776  22.425  1.00  0.00     0.149 A 
ATOM     95  C   UNL A   1      28.427  27.011  23.675  1.00  0.00     0.041 A 
ATOM     96  C   UNL A   1      28.906  29.204  22.762  1.00  0.00     0.080 A 
ATOM     97  F   UNL A   1      30.999  29.607  21.762  1.00  0.00    -0.205 F 
ATOM     98  C   UNL A   1      28.027  28.303  23.351  1.00  0.00     0.126 A 
ATOM     99  F   UNL A   1      26.761  28.675  23.580  1.00  0.00    -0.207 F 
ENDBRANCH  90  92
ENDBRANCH  85  88
ENDBRANCH  81  83
ENDBRANCH  80  81
ENDBRANCH  79  80
ENDBRANCH  78  79
ENDBRANCH  77  78
ENDBRANCH  76  77
ENDBRANCH  75  76
ENDBRANCH   1  75
TORSDOF 22
ENDMDL
MODEL 3
REMARK VINA RESULT:     -10.3      4.809      7.493
REMARK SMILES O=C(OCCOCCOCCOCCOC(=O)[C@H]1CSCN1C(=O)Nc1ccc(F)cc1F)c1ccc(-c2c3nc(c(-c4c(F)c(F)c(F)c(F)c4F)c4ccc([nH]4)c(-c4c(F)c(F)c(F)c(F)c4F)c4nc(c(-c5c(F)c(F)c(F)c(F)c5F)c5ccc2[nH]5)C=C4)C=C3)cc1
REMARK SMILES IDX 9 1 8 2 7 3 6 4 5 5 4 6 3 7 2 8 1 9 34 10 35 11 96 12 36 13
REMARK SMILES IDX 95 14 37 15 38 16 39 17 89 18 40 19 94 20 88 21 90 22 41 23
REMARK SMILES IDX 93 24 87 25 86 26 42 28 74 29 54 30 73 31 55 32 58 33 72 34
REMARK SMILES IDX 91 35 56 36 57 37 71 39 92 40 59 41 43 42 44 43 52 44 45 45
REMARK SMILES IDX 46 46 50 47 53 48 47 49 48 50 51 51 49 52 75 53 76 54 84 55
REMARK SMILES IDX 77 56 78 57 82 58 85 59 79 60 80 61 83 62 81 63 60 64 61 65
REMARK SMILES IDX 69 66 62 67 63 68 67 69 70 70 64 71 65 72 68 73 66 74 10 75
REMARK SMILES IDX 11 76 12 77 13 78 14 79 15 80 16 81 17 82 18 83 19 84 22 85
REMARK SMILES IDX 20 86 21 87 23 88 24 89 25 90 26 92 27 93 32 94 28 95 31 96
REMARK SMILES IDX 33 97 29 98 30 99
REMARK H PARENT 90 27 58 38 25 91
REMARK Flexibility Score: inf
ROOT
ATOM      1  O   UNL A   1      40.033  22.483  26.107  1.00  0.00    -0.377 OA
ENDROOT
BRANCH   1   2
ATOM      2  C   UNL A   1      40.765  21.353  26.582  1.00  0.00     0.188 C 
BRANCH   2   3
ATOM      3  C   UNL A   1      40.219  20.016  26.109  1.00  0.00     0.188 C 
BRANCH   3   4
ATOM      4  O   UNL A   1      41.266  19.238  25.536  1.00  0.00    -0.376 OA
BRANCH   4   5
ATOM      5  C   UNL A   1      42.307  18.868  26.437  1.00  0.00     0.202 C 
BRANCH   5   6
ATOM      6  C   UNL A   1      43.189  17.737  25.924  1.00  0.00     0.261 C 
BRANCH   6   7
ATOM      7  O   UNL A   1      44.428  18.190  25.362  1.00  0.00    -0.460 OA
BRANCH   7   8
ATOM      8  C   UNL A   1      44.657  19.187  24.472  1.00  0.00     0.338 C 
ATOM      9  O   UNL A   1      44.896  18.880  23.313  1.00  0.00    -0.246 OA
BRANCH   8  10
ATOM     10  C   UNL A   1      44.617  20.651  24.794  1.00  0.00     0.060 A 
ATOM     11  C   UNL A   1      44.245  21.681  23.929  1.00  0.00     0.016 A 
ATOM     12  C   UNL A   1      44.879  20.990  26.133  1.00  0.00     0.016 A 
ATOM     13  C   UNL A   1      44.143  23.000  24.353  1.00  0.00     0.010 A 
ATOM     14  C   UNL A   1      44.802  22.313  26.571  1.00  0.00     0.010 A 
ATOM     15  C   UNL A   1      44.452  23.321  25.667  1.00  0.00    -0.014 A 
BRANCH  15  16
ATOM     16  C   UNL A   1      44.649  24.739  26.001  1.00  0.00     0.031 A 
ATOM     17  C   UNL A   1      45.990  25.322  25.680  1.00  0.00     0.074 A 
ATOM     18  C   UNL A   1      43.630  25.490  26.444  1.00  0.00     0.049 A 
ATOM     19  N   UNL A   1      46.506  26.464  26.035  1.00  0.00    -0.248 NA
ATOM     20  C   UNL A   1      46.871  24.501  24.826  1.00  0.00     0.031 C 
ATOM     21  C   UNL A   1      42.245  25.038  26.591  1.00  0.00     0.029 A 
ATOM     22  N   UNL A   1      43.598  26.801  26.835  1.00  0.00    -0.354 N 
ATOM     23  C   UNL A   1      47.781  26.479  25.484  1.00  0.00     0.074 A 
ATOM     24  C   UNL A   1      47.963  25.246  24.758  1.00  0.00     0.031 C 
ATOM     25  C   UNL A   1      41.498  26.060  27.045  1.00  0.00     0.029 A 
ATOM     26  C   UNL A   1      42.369  27.202  27.298  1.00  0.00     0.049 A 
ATOM     27  H   UNL A   1      44.379  27.398  26.788  1.00  0.00     0.167 HD
ATOM     28  C   UNL A   1      48.714  27.448  25.602  1.00  0.00     0.037 A 
ATOM     29  C   UNL A   1      42.026  28.351  27.911  1.00  0.00     0.037 A 
ATOM     30  C   UNL A   1      48.478  28.658  26.338  1.00  0.00     0.049 A 
ATOM     31  C   UNL A   1      43.121  29.362  28.146  1.00  0.00     0.074 A 
ATOM     32  C   UNL A   1      49.359  29.673  26.651  1.00  0.00     0.029 A 
ATOM     33  N   UNL A   1      47.243  29.011  26.868  1.00  0.00    -0.354 N 
ATOM     34  N   UNL A   1      44.377  29.326  27.764  1.00  0.00    -0.248 NA
ATOM     35  C   UNL A   1      42.764  30.556  28.919  1.00  0.00     0.031 C 
ATOM     36  C   UNL A   1      48.661  30.630  27.396  1.00  0.00     0.029 A 
ATOM     37  C   UNL A   1      47.335  30.233  27.505  1.00  0.00     0.049 A 
ATOM     38  H   UNL A   1      46.423  28.470  26.799  1.00  0.00     0.167 HD
ATOM     39  C   UNL A   1      44.958  30.494  28.236  1.00  0.00     0.074 A 
ATOM     40  C   UNL A   1      43.905  31.231  28.909  1.00  0.00     0.031 C 
ATOM     41  C   UNL A   1      46.242  30.923  28.142  1.00  0.00     0.037 A 
BRANCH  28  42
ATOM     42  C   UNL A   1      50.056  27.201  24.989  1.00  0.00     0.064 A 
ATOM     43  C   UNL A   1      50.273  27.475  23.630  1.00  0.00     0.173 A 
ATOM     44  C   UNL A   1      51.131  26.696  25.736  1.00  0.00     0.173 A 
ATOM     45  F   UNL A   1      49.285  27.982  22.877  1.00  0.00    -0.203 F 
ATOM     46  C   UNL A   1      51.509  27.233  23.037  1.00  0.00     0.198 A 
ATOM     47  C   UNL A   1      52.372  26.475  25.144  1.00  0.00     0.198 A 
ATOM     48  F   UNL A   1      50.987  26.456  27.047  1.00  0.00    -0.203 F 
ATOM     49  F   UNL A   1      51.686  27.488  21.733  1.00  0.00    -0.200 F 
ATOM     50  C   UNL A   1      52.558  26.734  23.794  1.00  0.00     0.200 A 
ATOM     51  F   UNL A   1      53.396  26.024  25.884  1.00  0.00    -0.200 F 
ATOM     52  F   UNL A   1      53.751  26.513  23.225  1.00  0.00    -0.200 F 
ENDBRANCH  28  42
BRANCH  29  53
ATOM     53  C   UNL A   1      40.639  28.573  28.407  1.00  0.00     0.064 A 
ATOM     54  C   UNL A   1      39.631  29.079  27.568  1.00  0.00     0.173 A 
ATOM     55  C   UNL A   1      40.280  28.255  29.724  1.00  0.00     0.173 A 
ATOM     56  F   UNL A   1      39.910  29.394  26.295  1.00  0.00    -0.203 F 
ATOM     57  C   UNL A   1      38.329  29.266  28.030  1.00  0.00     0.198 A 
ATOM     58  C   UNL A   1      38.968  28.410  30.175  1.00  0.00     0.198 A 
ATOM     59  F   UNL A   1      41.194  27.747  30.563  1.00  0.00    -0.203 F 
ATOM     60  F   UNL A   1      37.398  29.775  27.212  1.00  0.00    -0.200 F 
ATOM     61  C   UNL A   1      37.996  28.922  29.329  1.00  0.00     0.200 A 
ATOM     62  F   UNL A   1      38.642  28.044  31.422  1.00  0.00    -0.200 F 
ATOM     63  F   UNL A   1      36.736  29.071  29.763  1.00  0.00    -0.200 F 
ENDBRANCH  29  53
BRANCH  41  64
ATOM     64  C   UNL A   1      46.551  32.258  28.746  1.00  0.00     0.064 A 
ATOM     65  C   UNL A   1      46.457  33.420  27.967  1.00  0.00     0.173 A 
ATOM     66  C   UNL A   1      46.988  32.377  30.071  1.00  0.00     0.173 A 
ATOM     67  F   UNL A   1      46.054  33.349  26.689  1.00  0.00    -0.203 F 
ATOM     68  C   UNL A   1      46.797  34.659  28.496  1.00  0.00     0.198 A 
ATOM     69  C   UNL A   1      47.295  33.623  30.607  1.00  0.00     0.198 A 
ATOM     70  F   UNL A   1      47.080  31.291  30.854  1.00  0.00    -0.203 F 
ATOM     71  F   UNL A   1      46.730  35.754  27.727  1.00  0.00    -0.200 F 
ATOM     72  C   UNL A   1      47.208  34.760  29.817  1.00  0.00     0.200 A 
ATOM     73  F   UNL A   1      47.665  33.724  31.891  1.00  0.00    -0.200 F 
ATOM     74  F   UNL A   1      47.515  35.958  30.333  1.00  0.00    -0.200 F 
ENDBRANCH  41  64
ENDBRANCH  15  16
ENDBRANCH   8  10
ENDBRANCH   7   8
ENDBRANCH   6   7
ENDBRANCH   5   6
ENDBRANCH   4   5
ENDBRANCH   3   4
ENDBRANCH   2   3
ENDBRANCH   1   2
BRANCH   1  75
ATOM     75  C   UNL A   1      38.610  22.394  26.035  1.00  0.00     0.188 C 
BRANCH  75  76
ATOM     76  C   UNL A   1      37.790  23.693  26.115  1.00  0.00     0.188 C 
BRANCH  76  77
ATOM     77  O   UNL A   1      36.398  23.492  25.903  1.00  0.00    -0.376 OA
BRANCH  77  78
ATOM     78  C   UNL A   1      36.075  22.638  24.805  1.00  0.00     0.202 C 
BRANCH  78  79
ATOM     79  C   UNL A   1      35.388  23.285  23.578  1.00  0.00     0.261 C 
BRANCH  79  80
ATOM     80  O   UNL A   1      34.381  24.232  23.960  1.00  0.00    -0.462 OA
BRANCH  80  81
ATOM     81  C   UNL A   1      33.632  24.845  23.005  1.00  0.00     0.329 C 
ATOM     82  O   UNL A   1      34.080  25.327  21.980  1.00  0.00    -0.250 OA
BRANCH  81  83
ATOM     83  C   UNL A   1      32.138  24.715  23.387  1.00  0.00     0.207 C 
ATOM     84  C   UNL A   1      31.971  24.049  24.762  1.00  0.00     0.108 C 
ATOM     85  N   UNL A   1      31.402  25.968  23.411  1.00  0.00    -0.301 N 
ATOM     86  S   UNL A   1      30.652  24.929  25.644  1.00  0.00    -0.138 SA
ATOM     87  C   UNL A   1      30.177  25.842  24.174  1.00  0.00     0.192 C 
BRANCH  85  88
ATOM     88  C   UNL A   1      31.450  26.798  22.317  1.00  0.00     0.323 C 
ATOM     89  O   UNL A   1      31.091  26.424  21.202  1.00  0.00    -0.248 OA
ATOM     90  N   UNL A   1      31.879  28.080  22.525  1.00  0.00    -0.305 N 
ATOM     91  H   UNL A   1      31.818  28.689  21.755  1.00  0.00     0.171 HD
BRANCH  90  92
ATOM     92  C   UNL A   1      32.399  28.630  23.714  1.00  0.00     0.079 A 
ATOM     93  C   UNL A   1      33.689  28.349  24.183  1.00  0.00     0.032 A 
ATOM     94  C   UNL A   1      31.500  29.307  24.539  1.00  0.00     0.149 A 
ATOM     95  C   UNL A   1      34.000  28.573  25.524  1.00  0.00     0.041 A 
ATOM     96  C   UNL A   1      31.800  29.527  25.875  1.00  0.00     0.080 A 
ATOM     97  F   UNL A   1      30.271  29.598  24.086  1.00  0.00    -0.205 F 
ATOM     98  C   UNL A   1      33.036  29.122  26.364  1.00  0.00     0.126 A 
ATOM     99  F   UNL A   1      33.293  29.233  27.674  1.00  0.00    -0.207 F 
ENDBRANCH  90  92
ENDBRANCH  85  88
ENDBRANCH  81  83
ENDBRANCH  80  81
ENDBRANCH  79  80
ENDBRANCH  78  79
ENDBRANCH  77  78
ENDBRANCH  76  77
ENDBRANCH  75  76
ENDBRANCH   1  75
TORSDOF 22
ENDMDL
