MODEL 1
REMARK VINA RESULT:     -10.4      0.000      0.000
REMARK SMILES O=C(OCCOCCOCCOCCOC(=O)[C@@H]1C[C@@H]2CC[C@H]1N2C(=O)c1ccncc1Cl)c1ccc(-c2c3nc(c(-c4c(F)c(F)c(F)c(F)c4F)c4ccc([nH]4)c(-c4c(F)c(F)c(F)c(F)c4F)c4nc(c(-c5c(F)c(F)c(F)c(F)c5F)c5ccc2[nH]5)C=C4)C=C3)cc1
REMARK SMILES IDX 9 1 8 2 7 3 6 4 5 5 4 6 3 7 2 8 1 9 34 10 35 11 96 12 36 13
REMARK SMILES IDX 95 14 37 15 38 16 39 17 89 18 40 19 94 20 88 21 90 22 41 23
REMARK SMILES IDX 93 24 87 25 86 26 42 28 74 29 54 30 73 31 55 32 58 33 72 34
REMARK SMILES IDX 91 35 56 36 57 37 71 39 92 40 59 41 43 42 44 43 52 44 45 45
REMARK SMILES IDX 46 46 50 47 53 48 47 49 48 50 51 51 49 52 75 53 76 54 84 55
REMARK SMILES IDX 77 56 78 57 82 58 85 59 79 60 80 61 83 62 81 63 60 64 61 65
REMARK SMILES IDX 69 66 62 67 63 68 67 69 70 70 64 71 65 72 68 73 66 74 10 75
REMARK SMILES IDX 11 76 12 77 13 78 14 79 15 80 16 81 17 82 18 83 19 84 23 85
REMARK SMILES IDX 20 86 22 87 24 88 21 89 25 90 26 91 27 92 28 93 32 94 29 95
REMARK SMILES IDX 31 96 33 97 30 98
REMARK H PARENT 90 27 58 38
REMARK Flexibility Score: inf
ROOT
ATOM      1  O   UNL A   1      34.002  28.310  25.724  1.00  0.00    -0.377 OA
ENDROOT
BRANCH   1   2
ATOM      2  C   UNL A   1      33.505  29.380  26.510  1.00  0.00     0.188 C 
BRANCH   2   3
ATOM      3  C   UNL A   1      34.543  30.046  27.415  1.00  0.00     0.188 C 
BRANCH   3   4
ATOM      4  O   UNL A   1      34.187  31.409  27.687  1.00  0.00    -0.376 OA
BRANCH   4   5
ATOM      5  C   UNL A   1      32.792  31.716  27.556  1.00  0.00     0.202 C 
BRANCH   5   6
ATOM      6  C   UNL A   1      32.500  33.096  26.971  1.00  0.00     0.261 C 
BRANCH   6   7
ATOM      7  O   UNL A   1      32.148  34.062  27.968  1.00  0.00    -0.460 OA
BRANCH   7   8
ATOM      8  C   UNL A   1      32.969  34.829  28.728  1.00  0.00     0.338 C 
ATOM      9  O   UNL A   1      32.712  36.030  28.806  1.00  0.00    -0.246 OA
BRANCH   8  10
ATOM     10  C   UNL A   1      34.204  34.340  29.434  1.00  0.00     0.060 A 
ATOM     11  C   UNL A   1      35.516  34.430  28.962  1.00  0.00     0.016 A 
ATOM     12  C   UNL A   1      34.017  33.788  30.716  1.00  0.00     0.016 A 
ATOM     13  C   UNL A   1      36.601  34.030  29.718  1.00  0.00     0.010 A 
ATOM     14  C   UNL A   1      35.097  33.322  31.469  1.00  0.00     0.010 A 
ATOM     15  C   UNL A   1      36.390  33.431  30.950  1.00  0.00    -0.014 A 
BRANCH  15  16
ATOM     16  C   UNL A   1      37.522  32.672  31.490  1.00  0.00     0.031 A 
ATOM     17  C   UNL A   1      37.957  33.021  32.879  1.00  0.00     0.074 A 
ATOM     18  C   UNL A   1      37.965  31.581  30.846  1.00  0.00     0.049 A 
ATOM     19  N   UNL A   1      38.940  32.546  33.589  1.00  0.00    -0.248 NA
ATOM     20  C   UNL A   1      37.142  34.033  33.582  1.00  0.00     0.031 C 
ATOM     21  C   UNL A   1      37.421  31.063  29.589  1.00  0.00     0.029 A 
ATOM     22  N   UNL A   1      38.945  30.690  31.183  1.00  0.00    -0.354 N 
ATOM     23  C   UNL A   1      38.883  33.223  34.799  1.00  0.00     0.074 A 
ATOM     24  C   UNL A   1      37.768  34.136  34.742  1.00  0.00     0.031 C 
ATOM     25  C   UNL A   1      38.083  29.941  29.258  1.00  0.00     0.029 A 
ATOM     26  C   UNL A   1      39.138  29.713  30.239  1.00  0.00     0.049 A 
ATOM     27  H   UNL A   1      39.462  30.746  32.019  1.00  0.00     0.167 HD
ATOM     28  C   UNL A   1      39.712  33.091  35.858  1.00  0.00     0.037 A 
ATOM     29  C   UNL A   1      40.104  28.780  30.174  1.00  0.00     0.037 A 
ATOM     30  C   UNL A   1      40.814  32.172  35.857  1.00  0.00     0.049 A 
ATOM     31  C   UNL A   1      41.115  28.758  31.291  1.00  0.00     0.074 A 
ATOM     32  C   UNL A   1      41.803  31.996  36.804  1.00  0.00     0.029 A 
ATOM     33  N   UNL A   1      41.066  31.266  34.831  1.00  0.00    -0.354 N 
ATOM     34  N   UNL A   1      41.148  29.475  32.392  1.00  0.00    -0.248 NA
ATOM     35  C   UNL A   1      42.232  27.819  31.155  1.00  0.00     0.031 C 
ATOM     36  C   UNL A   1      42.685  31.021  36.323  1.00  0.00     0.029 A 
ATOM     37  C   UNL A   1      42.207  30.540  35.109  1.00  0.00     0.049 A 
ATOM     38  H   UNL A   1      40.511  31.158  34.025  1.00  0.00     0.167 HD
ATOM     39  C   UNL A   1      42.269  29.061  33.091  1.00  0.00     0.074 A 
ATOM     40  C   UNL A   1      42.882  28.014  32.293  1.00  0.00     0.031 C 
ATOM     41  C   UNL A   1      42.760  29.497  34.279  1.00  0.00     0.037 A 
BRANCH  28  42
ATOM     42  C   UNL A   1      39.504  34.028  37.010  1.00  0.00     0.064 A 
ATOM     43  C   UNL A   1      40.054  35.319  37.036  1.00  0.00     0.173 A 
ATOM     44  C   UNL A   1      38.796  33.596  38.142  1.00  0.00     0.173 A 
ATOM     45  F   UNL A   1      40.775  35.767  35.998  1.00  0.00    -0.203 F 
ATOM     46  C   UNL A   1      39.929  36.129  38.165  1.00  0.00     0.198 A 
ATOM     47  C   UNL A   1      38.648  34.419  39.256  1.00  0.00     0.198 A 
ATOM     48  F   UNL A   1      38.267  32.365  38.179  1.00  0.00    -0.203 F 
ATOM     49  F   UNL A   1      40.524  37.330  38.194  1.00  0.00    -0.200 F 
ATOM     50  C   UNL A   1      39.224  35.680  39.270  1.00  0.00     0.200 A 
ATOM     51  F   UNL A   1      37.967  33.981  40.324  1.00  0.00    -0.200 F 
ATOM     52  F   UNL A   1      39.115  36.454  40.359  1.00  0.00    -0.200 F 
ENDBRANCH  28  42
BRANCH  29  53
ATOM     53  C   UNL A   1      40.202  27.868  29.003  1.00  0.00     0.064 A 
ATOM     54  C   UNL A   1      40.907  28.233  27.848  1.00  0.00     0.173 A 
ATOM     55  C   UNL A   1      39.567  26.613  29.002  1.00  0.00     0.173 A 
ATOM     56  F   UNL A   1      41.513  29.428  27.784  1.00  0.00    -0.203 F 
ATOM     57  C   UNL A   1      40.957  27.393  26.736  1.00  0.00     0.198 A 
ATOM     58  C   UNL A   1      39.646  25.760  27.903  1.00  0.00     0.198 A 
ATOM     59  F   UNL A   1      38.871  26.210  30.075  1.00  0.00    -0.203 F 
ATOM     60  F   UNL A   1      41.594  27.791  25.626  1.00  0.00    -0.200 F 
ATOM     61  C   UNL A   1      40.332  26.155  26.766  1.00  0.00     0.200 A 
ATOM     62  F   UNL A   1      39.050  24.561  27.944  1.00  0.00    -0.200 F 
ATOM     63  F   UNL A   1      40.379  25.350  25.696  1.00  0.00    -0.200 F 
ENDBRANCH  29  53
BRANCH  41  64
ATOM     64  C   UNL A   1      43.984  28.807  34.798  1.00  0.00     0.064 A 
ATOM     65  C   UNL A   1      43.901  27.646  35.577  1.00  0.00     0.173 A 
ATOM     66  C   UNL A   1      45.256  29.285  34.452  1.00  0.00     0.173 A 
ATOM     67  F   UNL A   1      42.704  27.161  35.944  1.00  0.00    -0.203 F 
ATOM     68  C   UNL A   1      45.052  26.999  36.012  1.00  0.00     0.198 A 
ATOM     69  C   UNL A   1      46.404  28.615  34.856  1.00  0.00     0.198 A 
ATOM     70  F   UNL A   1      45.383  30.388  33.698  1.00  0.00    -0.203 F 
ATOM     71  F   UNL A   1      44.953  25.917  36.797  1.00  0.00    -0.200 F 
ATOM     72  C   UNL A   1      46.301  27.476  35.642  1.00  0.00     0.200 A 
ATOM     73  F   UNL A   1      47.608  29.065  34.479  1.00  0.00    -0.200 F 
ATOM     74  F   UNL A   1      47.409  26.841  36.048  1.00  0.00    -0.200 F 
ENDBRANCH  41  64
ENDBRANCH  15  16
ENDBRANCH   8  10
ENDBRANCH   7   8
ENDBRANCH   6   7
ENDBRANCH   5   6
ENDBRANCH   4   5
ENDBRANCH   3   4
ENDBRANCH   2   3
ENDBRANCH   1   2
BRANCH   1  75
ATOM     75  C   UNL A   1      33.531  28.267  24.398  1.00  0.00     0.188 C 
BRANCH  75  76
ATOM     76  C   UNL A   1      32.263  29.011  23.955  1.00  0.00     0.188 C 
BRANCH  76  77
ATOM     77  O   UNL A   1      31.610  28.663  22.757  1.00  0.00    -0.376 OA
BRANCH  77  78
ATOM     78  C   UNL A   1      30.659  27.616  22.784  1.00  0.00     0.202 C 
BRANCH  78  79
ATOM     79  C   UNL A   1      29.890  27.275  24.084  1.00  0.00     0.261 C 
BRANCH  79  80
ATOM     80  O   UNL A   1      30.135  26.001  24.741  1.00  0.00    -0.463 OA
BRANCH  80  81
ATOM     81  C   UNL A   1      30.969  25.983  25.820  1.00  0.00     0.311 C 
ATOM     82  O   UNL A   1      30.750  26.600  26.857  1.00  0.00    -0.252 OA
BRANCH  81  83
ATOM     83  C   UNL A   1      32.239  25.145  25.642  1.00  0.00     0.124 C 
ATOM     84  C   UNL A   1      32.839  24.759  24.265  1.00  0.00     0.042 C 
ATOM     85  C   UNL A   1      32.198  23.770  26.357  1.00  0.00     0.100 C 
ATOM     86  C   UNL A   1      33.264  23.279  24.470  1.00  0.00     0.086 C 
ATOM     87  C   UNL A   1      31.277  22.729  25.677  1.00  0.00     0.028 C 
ATOM     88  N   UNL A   1      33.464  23.205  25.902  1.00  0.00    -0.332 N 
ATOM     89  C   UNL A   1      32.023  22.385  24.358  1.00  0.00     0.027 C 
BRANCH  88  90
ATOM     90  C   UNL A   1      34.205  22.217  26.511  1.00  0.00     0.256 C 
ATOM     91  O   UNL A   1      33.813  21.551  27.473  1.00  0.00    -0.269 OA
BRANCH  90  92
ATOM     92  C   UNL A   1      35.518  21.926  25.928  1.00  0.00     0.061 A 
ATOM     93  C   UNL A   1      36.518  22.874  26.151  1.00  0.00     0.035 A 
ATOM     94  C   UNL A   1      35.789  20.760  25.215  1.00  0.00     0.072 A 
ATOM     95  C   UNL A   1      37.784  22.594  25.680  1.00  0.00     0.112 A 
ATOM     96  C   UNL A   1      37.101  20.562  24.821  1.00  0.00     0.132 A 
ATOM     97  Cl  UNL A   1      34.608  19.582  24.802  1.00  0.00    -0.082 Cl
ATOM     98  N   UNL A   1      38.105  21.448  25.042  1.00  0.00    -0.263 NA
ENDBRANCH  90  92
ENDBRANCH  88  90
ENDBRANCH  81  83
ENDBRANCH  80  81
ENDBRANCH  79  80
ENDBRANCH  78  79
ENDBRANCH  77  78
ENDBRANCH  76  77
ENDBRANCH  75  76
ENDBRANCH   1  75
TORSDOF 22
ENDMDL
MODEL 2
REMARK VINA RESULT:     -10.2      1.661      2.982
REMARK SMILES O=C(OCCOCCOCCOCCOC(=O)[C@@H]1C[C@@H]2CC[C@H]1N2C(=O)c1ccncc1Cl)c1ccc(-c2c3nc(c(-c4c(F)c(F)c(F)c(F)c4F)c4ccc([nH]4)c(-c4c(F)c(F)c(F)c(F)c4F)c4nc(c(-c5c(F)c(F)c(F)c(F)c5F)c5ccc2[nH]5)C=C4)C=C3)cc1
REMARK SMILES IDX 9 1 8 2 7 3 6 4 5 5 4 6 3 7 2 8 1 9 34 10 35 11 96 12 36 13
REMARK SMILES IDX 95 14 37 15 38 16 39 17 89 18 40 19 94 20 88 21 90 22 41 23
REMARK SMILES IDX 93 24 87 25 86 26 42 28 74 29 54 30 73 31 55 32 58 33 72 34
REMARK SMILES IDX 91 35 56 36 57 37 71 39 92 40 59 41 43 42 44 43 52 44 45 45
REMARK SMILES IDX 46 46 50 47 53 48 47 49 48 50 51 51 49 52 75 53 76 54 84 55
REMARK SMILES IDX 77 56 78 57 82 58 85 59 79 60 80 61 83 62 81 63 60 64 61 65
REMARK SMILES IDX 69 66 62 67 63 68 67 69 70 70 64 71 65 72 68 73 66 74 10 75
REMARK SMILES IDX 11 76 12 77 13 78 14 79 15 80 16 81 17 82 18 83 19 84 23 85
REMARK SMILES IDX 20 86 22 87 24 88 21 89 25 90 26 91 27 92 28 93 32 94 29 95
REMARK SMILES IDX 31 96 33 97 30 98
REMARK H PARENT 90 27 58 38
REMARK Flexibility Score: inf
ROOT
ATOM      1  O   UNL A   1      34.429  32.244  28.884  1.00  0.00    -0.377 OA
ENDROOT
BRANCH   1   2
ATOM      2  C   UNL A   1      33.899  33.556  28.793  1.00  0.00     0.188 C 
BRANCH   2   3
ATOM      3  C   UNL A   1      34.705  34.514  27.916  1.00  0.00     0.188 C 
BRANCH   3   4
ATOM      4  O   UNL A   1      34.415  35.879  28.246  1.00  0.00    -0.376 OA
BRANCH   4   5
ATOM      5  C   UNL A   1      33.116  36.111  28.808  1.00  0.00     0.202 C 
BRANCH   5   6
ATOM      6  C   UNL A   1      33.108  37.029  30.029  1.00  0.00     0.261 C 
BRANCH   6   7
ATOM      7  O   UNL A   1      32.239  36.566  31.068  1.00  0.00    -0.460 OA
BRANCH   7   8
ATOM      8  C   UNL A   1      32.546  35.813  32.153  1.00  0.00     0.338 C 
ATOM      9  O   UNL A   1      31.814  35.909  33.138  1.00  0.00    -0.246 OA
BRANCH   8  10
ATOM     10  C   UNL A   1      33.746  34.913  32.272  1.00  0.00     0.060 A 
ATOM     11  C   UNL A   1      33.756  33.611  32.778  1.00  0.00     0.016 A 
ATOM     12  C   UNL A   1      34.962  35.419  31.773  1.00  0.00     0.016 A 
ATOM     13  C   UNL A   1      34.892  32.824  32.770  1.00  0.00     0.010 A 
ATOM     14  C   UNL A   1      36.134  34.660  31.813  1.00  0.00     0.010 A 
ATOM     15  C   UNL A   1      36.091  33.365  32.334  1.00  0.00    -0.014 A 
BRANCH  15  16
ATOM     16  C   UNL A   1      37.299  32.638  32.737  1.00  0.00     0.031 A 
ATOM     17  C   UNL A   1      37.808  32.906  34.119  1.00  0.00     0.074 A 
ATOM     18  C   UNL A   1      37.759  31.629  31.980  1.00  0.00     0.049 A 
ATOM     19  N   UNL A   1      38.864  32.440  34.723  1.00  0.00    -0.248 NA
ATOM     20  C   UNL A   1      36.987  33.808  34.952  1.00  0.00     0.031 C 
ATOM     21  C   UNL A   1      37.160  31.177  30.723  1.00  0.00     0.029 A 
ATOM     22  N   UNL A   1      38.809  30.778  32.181  1.00  0.00    -0.354 N 
ATOM     23  C   UNL A   1      38.851  33.017  35.986  1.00  0.00     0.074 A 
ATOM     24  C   UNL A   1      37.684  33.860  36.074  1.00  0.00     0.031 C 
ATOM     25  C   UNL A   1      37.861  30.127  30.261  1.00  0.00     0.029 A 
ATOM     26  C   UNL A   1      38.992  29.891  31.150  1.00  0.00     0.049 A 
ATOM     27  H   UNL A   1      39.378  30.801  32.984  1.00  0.00     0.167 HD
ATOM     28  C   UNL A   1      39.757  32.856  36.975  1.00  0.00     0.037 A 
ATOM     29  C   UNL A   1      40.003  29.027  30.948  1.00  0.00     0.037 A 
ATOM     30  C   UNL A   1      40.908  32.010  36.829  1.00  0.00     0.049 A 
ATOM     31  C   UNL A   1      41.088  28.982  31.993  1.00  0.00     0.074 A 
ATOM     32  C   UNL A   1      41.967  31.824  37.693  1.00  0.00     0.029 A 
ATOM     33  N   UNL A   1      41.139  31.203  35.720  1.00  0.00    -0.354 N 
ATOM     34  N   UNL A   1      41.155  29.614  33.144  1.00  0.00    -0.248 NA
ATOM     35  C   UNL A   1      42.245  28.128  31.710  1.00  0.00     0.031 C 
ATOM     36  C   UNL A   1      42.868  30.946  37.080  1.00  0.00     0.029 A 
ATOM     37  C   UNL A   1      42.337  30.531  35.865  1.00  0.00     0.049 A 
ATOM     38  H   UNL A   1      40.537  31.123  34.945  1.00  0.00     0.167 HD
ATOM     39  C   UNL A   1      42.344  29.217  33.734  1.00  0.00     0.074 A 
ATOM     40  C   UNL A   1      42.959  28.275  32.816  1.00  0.00     0.031 C 
ATOM     41  C   UNL A   1      42.889  29.591  34.920  1.00  0.00     0.037 A 
BRANCH  28  42
ATOM     42  C   UNL A   1      39.576  33.687  38.210  1.00  0.00     0.064 A 
ATOM     43  C   UNL A   1      38.751  33.283  39.272  1.00  0.00     0.173 A 
ATOM     44  C   UNL A   1      40.188  34.946  38.301  1.00  0.00     0.173 A 
ATOM     45  F   UNL A   1      38.109  32.107  39.218  1.00  0.00    -0.203 F 
ATOM     46  C   UNL A   1      38.521  34.124  40.361  1.00  0.00     0.198 A 
ATOM     47  C   UNL A   1      39.980  35.770  39.404  1.00  0.00     0.198 A 
ATOM     48  F   UNL A   1      40.971  35.390  37.306  1.00  0.00    -0.203 F 
ATOM     49  F   UNL A   1      37.673  33.748  41.328  1.00  0.00    -0.200 F 
ATOM     50  C   UNL A   1      39.139  35.364  40.427  1.00  0.00     0.200 A 
ATOM     51  F   UNL A   1      40.577  36.969  39.464  1.00  0.00    -0.200 F 
ATOM     52  F   UNL A   1      38.908  36.175  41.469  1.00  0.00    -0.200 F 
ENDBRANCH  28  42
BRANCH  29  53
ATOM     53  C   UNL A   1      40.071  28.216  29.703  1.00  0.00     0.064 A 
ATOM     54  C   UNL A   1      40.742  28.680  28.564  1.00  0.00     0.173 A 
ATOM     55  C   UNL A   1      39.443  26.961  29.616  1.00  0.00     0.173 A 
ATOM     56  F   UNL A   1      41.341  29.879  28.582  1.00  0.00    -0.203 F 
ATOM     57  C   UNL A   1      40.764  27.934  27.385  1.00  0.00     0.198 A 
ATOM     58  C   UNL A   1      39.495  26.202  28.449  1.00  0.00     0.198 A 
ATOM     59  F   UNL A   1      38.779  26.466  30.671  1.00  0.00    -0.203 F 
ATOM     60  F   UNL A   1      41.368  28.427  26.295  1.00  0.00    -0.200 F 
ATOM     61  C   UNL A   1      40.146  26.694  27.330  1.00  0.00     0.200 A 
ATOM     62  F   UNL A   1      38.905  24.999  28.407  1.00  0.00    -0.200 F 
ATOM     63  F   UNL A   1      40.167  25.981  26.196  1.00  0.00    -0.200 F 
ENDBRANCH  29  53
BRANCH  41  64
ATOM     64  C   UNL A   1      44.184  28.940  35.302  1.00  0.00     0.064 A 
ATOM     65  C   UNL A   1      45.421  29.510  34.973  1.00  0.00     0.173 A 
ATOM     66  C   UNL A   1      44.175  27.762  36.063  1.00  0.00     0.173 A 
ATOM     67  F   UNL A   1      45.475  30.629  34.234  1.00  0.00    -0.203 F 
ATOM     68  C   UNL A   1      46.608  28.909  35.375  1.00  0.00     0.198 A 
ATOM     69  C   UNL A   1      45.363  27.186  36.496  1.00  0.00     0.198 A 
ATOM     70  F   UNL A   1      43.013  27.187  36.410  1.00  0.00    -0.203 F 
ATOM     71  F   UNL A   1      47.782  29.443  35.011  1.00  0.00    -0.200 F 
ATOM     72  C   UNL A   1      46.578  27.755  36.145  1.00  0.00     0.200 A 
ATOM     73  F   UNL A   1      45.332  26.084  37.256  1.00  0.00    -0.200 F 
ATOM     74  F   UNL A   1      47.724  27.187  36.546  1.00  0.00    -0.200 F 
ENDBRANCH  41  64
ENDBRANCH  15  16
ENDBRANCH   8  10
ENDBRANCH   7   8
ENDBRANCH   6   7
ENDBRANCH   5   6
ENDBRANCH   4   5
ENDBRANCH   3   4
ENDBRANCH   2   3
ENDBRANCH   1   2
BRANCH   1  75
ATOM     75  C   UNL A   1      34.547  31.555  27.663  1.00  0.00     0.188 C 
BRANCH  75  76
ATOM     76  C   UNL A   1      35.090  30.121  27.581  1.00  0.00     0.188 C 
BRANCH  76  77
ATOM     77  O   UNL A   1      34.289  29.080  27.075  1.00  0.00    -0.376 OA
BRANCH  77  78
ATOM     78  C   UNL A   1      32.954  28.968  27.532  1.00  0.00     0.202 C 
BRANCH  78  79
ATOM     79  C   UNL A   1      31.764  29.250  26.582  1.00  0.00     0.261 C 
BRANCH  79  80
ATOM     80  O   UNL A   1      31.428  28.276  25.557  1.00  0.00    -0.463 OA
BRANCH  80  81
ATOM     81  C   UNL A   1      31.569  26.952  25.857  1.00  0.00     0.311 C 
ATOM     82  O   UNL A   1      30.902  26.374  26.707  1.00  0.00    -0.252 OA
BRANCH  81  83
ATOM     83  C   UNL A   1      32.657  26.222  25.062  1.00  0.00     0.124 C 
ATOM     84  C   UNL A   1      33.607  26.915  24.051  1.00  0.00     0.042 C 
ATOM     85  C   UNL A   1      32.137  25.025  24.225  1.00  0.00     0.100 C 
ATOM     86  C   UNL A   1      33.671  25.900  22.877  1.00  0.00     0.086 C 
ATOM     87  C   UNL A   1      31.330  25.432  22.968  1.00  0.00     0.028 C 
ATOM     88  N   UNL A   1      33.362  24.646  23.530  1.00  0.00    -0.332 N 
ATOM     89  C   UNL A   1      32.403  26.043  22.026  1.00  0.00     0.027 C 
BRANCH  88  90
ATOM     90  C   UNL A   1      33.669  23.417  22.988  1.00  0.00     0.256 C 
ATOM     91  O   UNL A   1      34.092  23.252  21.842  1.00  0.00    -0.269 OA
BRANCH  90  92
ATOM     92  C   UNL A   1      33.519  22.255  23.870  1.00  0.00     0.061 A 
ATOM     93  C   UNL A   1      34.249  22.283  25.059  1.00  0.00     0.035 A 
ATOM     94  C   UNL A   1      32.677  21.185  23.577  1.00  0.00     0.072 A 
ATOM     95  C   UNL A   1      34.072  21.240  25.945  1.00  0.00     0.112 A 
ATOM     96  C   UNL A   1      32.544  20.211  24.552  1.00  0.00     0.132 A 
ATOM     97  Cl  UNL A   1      31.814  21.009  22.101  1.00  0.00    -0.082 Cl
ATOM     98  N   UNL A   1      33.218  20.217  25.730  1.00  0.00    -0.263 NA
ENDBRANCH  90  92
ENDBRANCH  88  90
ENDBRANCH  81  83
ENDBRANCH  80  81
ENDBRANCH  79  80
ENDBRANCH  78  79
ENDBRANCH  77  78
ENDBRANCH  76  77
ENDBRANCH  75  76
ENDBRANCH   1  75
TORSDOF 22
ENDMDL
MODEL 3
REMARK VINA RESULT:     -10.2      1.984      7.828
REMARK SMILES O=C(OCCOCCOCCOCCOC(=O)[C@@H]1C[C@@H]2CC[C@H]1N2C(=O)c1ccncc1Cl)c1ccc(-c2c3nc(c(-c4c(F)c(F)c(F)c(F)c4F)c4ccc([nH]4)c(-c4c(F)c(F)c(F)c(F)c4F)c4nc(c(-c5c(F)c(F)c(F)c(F)c5F)c5ccc2[nH]5)C=C4)C=C3)cc1
REMARK SMILES IDX 9 1 8 2 7 3 6 4 5 5 4 6 3 7 2 8 1 9 34 10 35 11 96 12 36 13
REMARK SMILES IDX 95 14 37 15 38 16 39 17 89 18 40 19 94 20 88 21 90 22 41 23
REMARK SMILES IDX 93 24 87 25 86 26 42 28 74 29 54 30 73 31 55 32 58 33 72 34
REMARK SMILES IDX 91 35 56 36 57 37 71 39 92 40 59 41 43 42 44 43 52 44 45 45
REMARK SMILES IDX 46 46 50 47 53 48 47 49 48 50 51 51 49 52 75 53 76 54 84 55
REMARK SMILES IDX 77 56 78 57 82 58 85 59 79 60 80 61 83 62 81 63 60 64 61 65
REMARK SMILES IDX 69 66 62 67 63 68 67 69 70 70 64 71 65 72 68 73 66 74 10 75
REMARK SMILES IDX 11 76 12 77 13 78 14 79 15 80 16 81 17 82 18 83 19 84 23 85
REMARK SMILES IDX 20 86 22 87 24 88 21 89 25 90 26 91 27 92 28 93 32 94 29 95
REMARK SMILES IDX 31 96 33 97 30 98
REMARK H PARENT 90 27 58 38
REMARK Flexibility Score: inf
ROOT
ATOM      1  O   UNL A   1      31.999  26.389  22.419  1.00  0.00    -0.377 OA
ENDROOT
BRANCH   1   2
ATOM      2  C   UNL A   1      33.132  27.225  22.251  1.00  0.00     0.188 C 
BRANCH   2   3
ATOM      3  C   UNL A   1      33.929  27.490  23.529  1.00  0.00     0.188 C 
BRANCH   3   4
ATOM      4  O   UNL A   1      33.066  27.913  24.593  1.00  0.00    -0.376 OA
BRANCH   4   5
ATOM      5  C   UNL A   1      33.076  29.320  24.868  1.00  0.00     0.202 C 
BRANCH   5   6
ATOM      6  C   UNL A   1      32.662  29.691  26.291  1.00  0.00     0.261 C 
BRANCH   6   7
ATOM      7  O   UNL A   1      32.706  31.101  26.534  1.00  0.00    -0.460 OA
BRANCH   7   8
ATOM      8  C   UNL A   1      33.496  31.785  27.399  1.00  0.00     0.338 C 
ATOM      9  O   UNL A   1      33.173  32.941  27.671  1.00  0.00    -0.246 OA
BRANCH   8  10
ATOM     10  C   UNL A   1      34.770  31.263  28.005  1.00  0.00     0.060 A 
ATOM     11  C   UNL A   1      35.007  29.953  28.430  1.00  0.00     0.016 A 
ATOM     12  C   UNL A   1      35.839  32.175  28.101  1.00  0.00     0.016 A 
ATOM     13  C   UNL A   1      36.239  29.541  28.899  1.00  0.00     0.010 A 
ATOM     14  C   UNL A   1      37.074  31.791  28.629  1.00  0.00     0.010 A 
ATOM     15  C   UNL A   1      37.258  30.470  29.045  1.00  0.00    -0.014 A 
BRANCH  15  16
ATOM     16  C   UNL A   1      38.366  30.066  29.916  1.00  0.00     0.031 A 
ATOM     17  C   UNL A   1      39.421  29.204  29.296  1.00  0.00     0.074 A 
ATOM     18  C   UNL A   1      38.518  30.642  31.118  1.00  0.00     0.049 A 
ATOM     19  N   UNL A   1      40.483  28.672  29.830  1.00  0.00    -0.248 NA
ATOM     20  C   UNL A   1      39.272  28.927  27.852  1.00  0.00     0.031 C 
ATOM     21  C   UNL A   1      37.633  31.664  31.682  1.00  0.00     0.029 A 
ATOM     22  N   UNL A   1      39.493  30.480  32.062  1.00  0.00    -0.354 N 
ATOM     23  C   UNL A   1      41.104  27.974  28.803  1.00  0.00     0.074 A 
ATOM     24  C   UNL A   1      40.314  28.151  27.610  1.00  0.00     0.031 C 
ATOM     25  C   UNL A   1      38.108  32.035  32.883  1.00  0.00     0.029 A 
ATOM     26  C   UNL A   1      39.280  31.224  33.195  1.00  0.00     0.049 A 
ATOM     27  H   UNL A   1      40.270  29.887  31.941  1.00  0.00     0.167 HD
ATOM     28  C   UNL A   1      42.235  27.238  28.872  1.00  0.00     0.037 A 
ATOM     29  C   UNL A   1      39.945  31.194  34.363  1.00  0.00     0.037 A 
ATOM     30  C   UNL A   1      42.978  27.088  30.091  1.00  0.00     0.049 A 
ATOM     31  C   UNL A   1      41.109  30.242  34.467  1.00  0.00     0.074 A 
ATOM     32  C   UNL A   1      44.078  26.296  30.349  1.00  0.00     0.029 A 
ATOM     33  N   UNL A   1      42.674  27.762  31.270  1.00  0.00    -0.354 N 
ATOM     34  N   UNL A   1      41.640  29.480  33.537  1.00  0.00    -0.248 NA
ATOM     35  C   UNL A   1      41.755  30.127  35.778  1.00  0.00     0.031 C 
ATOM     36  C   UNL A   1      44.405  26.449  31.701  1.00  0.00     0.029 A 
ATOM     37  C   UNL A   1      43.553  27.389  32.268  1.00  0.00     0.049 A 
ATOM     38  H   UNL A   1      41.941  28.410  31.377  1.00  0.00     0.167 HD
ATOM     39  C   UNL A   1      42.695  28.813  34.139  1.00  0.00     0.074 A 
ATOM     40  C   UNL A   1      42.737  29.277  35.515  1.00  0.00     0.031 C 
ATOM     41  C   UNL A   1      43.553  27.899  33.618  1.00  0.00     0.037 A 
BRANCH  28  42
ATOM     42  C   UNL A   1      42.636  26.483  27.640  1.00  0.00     0.064 A 
ATOM     43  C   UNL A   1      42.146  25.200  27.353  1.00  0.00     0.173 A 
ATOM     44  C   UNL A   1      43.584  27.031  26.763  1.00  0.00     0.173 A 
ATOM     45  F   UNL A   1      41.269  24.611  28.180  1.00  0.00    -0.203 F 
ATOM     46  C   UNL A   1      42.616  24.482  26.254  1.00  0.00     0.198 A 
ATOM     47  C   UNL A   1      44.028  26.324  25.649  1.00  0.00     0.198 A 
ATOM     48  F   UNL A   1      44.100  28.247  27.000  1.00  0.00    -0.203 F 
ATOM     49  F   UNL A   1      42.187  23.229  26.040  1.00  0.00    -0.200 F 
ATOM     50  C   UNL A   1      43.552  25.046  25.401  1.00  0.00     0.200 A 
ATOM     51  F   UNL A   1      44.935  26.872  24.828  1.00  0.00    -0.200 F 
ATOM     52  F   UNL A   1      44.012  24.350  24.351  1.00  0.00    -0.200 F 
ENDBRANCH  28  42
BRANCH  29  53
ATOM     53  C   UNL A   1      39.489  32.013  35.518  1.00  0.00     0.064 A 
ATOM     54  C   UNL A   1      38.554  31.522  36.439  1.00  0.00     0.173 A 
ATOM     55  C   UNL A   1      39.963  33.322  35.715  1.00  0.00     0.173 A 
ATOM     56  F   UNL A   1      38.051  30.288  36.289  1.00  0.00    -0.203 F 
ATOM     57  C   UNL A   1      38.097  32.312  37.495  1.00  0.00     0.198 A 
ATOM     58  C   UNL A   1      39.531  34.098  36.789  1.00  0.00     0.198 A 
ATOM     59  F   UNL A   1      40.854  33.851  34.863  1.00  0.00    -0.203 F 
ATOM     60  F   UNL A   1      37.162  31.835  38.329  1.00  0.00    -0.200 F 
ATOM     61  C   UNL A   1      38.589  33.596  37.672  1.00  0.00     0.200 A 
ATOM     62  F   UNL A   1      40.020  35.333  36.961  1.00  0.00    -0.200 F 
ATOM     63  F   UNL A   1      38.148  34.353  38.685  1.00  0.00    -0.200 F 
ENDBRANCH  29  53
BRANCH  41  64
ATOM     64  C   UNL A   1      44.629  27.389  34.527  1.00  0.00     0.064 A 
ATOM     65  C   UNL A   1      45.850  28.060  34.672  1.00  0.00     0.173 A 
ATOM     66  C   UNL A   1      44.401  26.247  35.308  1.00  0.00     0.173 A 
ATOM     67  F   UNL A   1      46.117  29.149  33.933  1.00  0.00    -0.203 F 
ATOM     68  C   UNL A   1      46.818  27.591  35.553  1.00  0.00     0.198 A 
ATOM     69  C   UNL A   1      45.355  25.803  36.215  1.00  0.00     0.198 A 
ATOM     70  F   UNL A   1      43.241  25.579  35.210  1.00  0.00    -0.203 F 
ATOM     71  F   UNL A   1      47.999  28.217  35.642  1.00  0.00    -0.200 F 
ATOM     72  C   UNL A   1      46.565  26.471  36.332  1.00  0.00     0.200 A 
ATOM     73  F   UNL A   1      45.100  24.734  36.982  1.00  0.00    -0.200 F 
ATOM     74  F   UNL A   1      47.492  26.030  37.193  1.00  0.00    -0.200 F 
ENDBRANCH  41  64
ENDBRANCH  15  16
ENDBRANCH   8  10
ENDBRANCH   7   8
ENDBRANCH   6   7
ENDBRANCH   5   6
ENDBRANCH   4   5
ENDBRANCH   3   4
ENDBRANCH   2   3
ENDBRANCH   1   2
BRANCH   1  75
ATOM     75  C   UNL A   1      30.757  27.050  22.417  1.00  0.00     0.188 C 
BRANCH  75  76
ATOM     76  C   UNL A   1      29.964  27.308  23.706  1.00  0.00     0.188 C 
BRANCH  76  77
ATOM     77  O   UNL A   1      29.384  26.240  24.416  1.00  0.00    -0.376 OA
BRANCH  77  78
ATOM     78  C   UNL A   1      30.155  25.587  25.406  1.00  0.00     0.202 C 
BRANCH  78  79
ATOM     79  C   UNL A   1      31.021  24.353  25.053  1.00  0.00     0.261 C 
BRANCH  79  80
ATOM     80  O   UNL A   1      31.402  23.427  26.106  1.00  0.00    -0.463 OA
BRANCH  80  81
ATOM     81  C   UNL A   1      31.912  22.215  25.744  1.00  0.00     0.311 C 
ATOM     82  O   UNL A   1      31.225  21.282  25.345  1.00  0.00    -0.252 OA
BRANCH  81  83
ATOM     83  C   UNL A   1      33.431  22.081  25.895  1.00  0.00     0.124 C 
ATOM     84  C   UNL A   1      34.260  22.783  27.003  1.00  0.00     0.042 C 
ATOM     85  C   UNL A   1      34.232  22.462  24.623  1.00  0.00     0.100 C 
ATOM     86  C   UNL A   1      35.525  23.264  26.242  1.00  0.00     0.086 C 
ATOM     87  C   UNL A   1      34.278  23.983  24.335  1.00  0.00     0.028 C 
ATOM     88  N   UNL A   1      35.594  22.340  25.130  1.00  0.00    -0.332 N 
ATOM     89  C   UNL A   1      35.183  24.543  25.466  1.00  0.00     0.027 C 
BRANCH  88  90
ATOM     90  C   UNL A   1      36.741  22.122  24.399  1.00  0.00     0.256 C 
ATOM     91  O   UNL A   1      36.927  22.553  23.258  1.00  0.00    -0.269 OA
BRANCH  90  92
ATOM     92  C   UNL A   1      37.810  21.369  25.063  1.00  0.00     0.061 A 
ATOM     93  C   UNL A   1      37.811  19.989  24.862  1.00  0.00     0.035 A 
ATOM     94  C   UNL A   1      38.801  21.978  25.830  1.00  0.00     0.072 A 
ATOM     95  C   UNL A   1      38.847  19.262  25.411  1.00  0.00     0.112 A 
ATOM     96  C   UNL A   1      39.814  21.160  26.301  1.00  0.00     0.132 A 
ATOM     97  Cl  UNL A   1      38.833  23.653  26.218  1.00  0.00    -0.082 Cl
ATOM     98  N   UNL A   1      39.862  19.819  26.105  1.00  0.00    -0.263 NA
ENDBRANCH  90  92
ENDBRANCH  88  90
ENDBRANCH  81  83
ENDBRANCH  80  81
ENDBRANCH  79  80
ENDBRANCH  78  79
ENDBRANCH  77  78
ENDBRANCH  76  77
ENDBRANCH  75  76
ENDBRANCH   1  75
TORSDOF 22
ENDMDL
