MODEL 1
REMARK VINA RESULT:      -6.5      0.000      0.000
REMARK SMILES CCCCCCNC(=O)Oc1cccc(-c2ccc([C@@H](C)C(=O)OCCOCCOCCOCCOC(=O)c3ccc(-c4c5nc(c(-c6c(F)c(F)c(F)c(F)c6F)c6ccc([nH]6)c(-c6c(F)c(F)c(F)c(F)c6F)c6nc(c(-c7c(F)c(F)c(F)c(F)c7F)c7ccc4[nH]7)C=C6)C=C5)cc3)cc2O)c1
REMARK SMILES IDX 26 1 25 2 24 3 22 4 23 5 20 6 21 7 19 8 16 9 17 10 103 11
REMARK SMILES IDX 18 12 102 13 15 14 11 15 12 16 105 17 13 18 14 19 10 20 8 21
REMARK SMILES IDX 7 22 9 24 6 25 5 26 4 27 3 28 2 29 1 30 104 31 27 33 28 34
REMARK SMILES IDX 29 35 30 36 31 37 32 38 33 39 34 40 35 41 36 42 37 43 38 44
REMARK SMILES IDX 39 45 40 46 101 47 41 48 100 49 42 50 43 51 44 52 94 53
REMARK SMILES IDX 45 54 99 55 93 56 95 57 46 58 98 59 92 60 91 61 47 63 79 64
REMARK SMILES IDX 59 65 78 66 60 67 63 68 77 69 96 70 61 71 62 72 76 74 97 75
REMARK SMILES IDX 64 76 48 77 49 78 57 79 50 80 51 81 55 82 58 83 52 84 53 85
REMARK SMILES IDX 56 86 54 87 80 88 81 89 89 90 82 91 83 92 87 93 90 94 84 95
REMARK SMILES IDX 85 96 88 97 86 98 65 99 66 100 74 101 67 102 68 103 72 104
REMARK SMILES IDX 75 105 69 106 70 107 73 108 71 109
REMARK H PARENT 7 23 104 32 95 62 63 73
REMARK Flexibility Score: inf
ROOT
ATOM      1  C   UNL A   1      44.620  36.381  34.767  1.00  0.00     0.202 C 
ENDROOT
BRANCH   1   2
ATOM      2  C   UNL A   1      43.954  35.343  33.843  1.00  0.00     0.261 C 
BRANCH   2   3
ATOM      3  O   UNL A   1      43.027  35.840  32.854  1.00  0.00    -0.463 OA
BRANCH   3   4
ATOM      4  C   UNL A   1      42.196  34.925  32.303  1.00  0.00     0.313 C 
ATOM      5  O   UNL A   1      41.233  34.444  32.901  1.00  0.00    -0.252 OA
BRANCH   4   6
ATOM      6  C   UNL A   1      42.534  34.475  30.883  1.00  0.00     0.126 C 
ATOM      7  C   UNL A   1      41.261  34.532  30.046  1.00  0.00     0.025 C 
BRANCH   6   8
ATOM      8  C   UNL A   1      43.313  33.186  30.615  1.00  0.00    -0.030 A 
ATOM      9  C   UNL A   1      44.839  30.825  29.993  1.00  0.00     0.024 A 
ATOM     10  C   UNL A   1      43.974  30.885  31.103  1.00  0.00     0.013 A 
ATOM     11  C   UNL A   1      44.923  31.982  29.203  1.00  0.00     0.123 A 
ATOM     12  C   UNL A   1      43.222  32.038  31.410  1.00  0.00     0.005 A 
ATOM     13  C   UNL A   1      44.174  33.130  29.500  1.00  0.00     0.051 A 
BRANCH   9  14
ATOM     14  C   UNL A   1      45.557  29.571  29.667  1.00  0.00    -0.011 A 
ATOM     15  C   UNL A   1      45.967  27.628  28.255  1.00  0.00     0.133 A 
ATOM     16  C   UNL A   1      46.856  27.100  29.188  1.00  0.00     0.047 A 
ATOM     17  C   UNL A   1      45.319  28.849  28.481  1.00  0.00     0.056 A 
ATOM     18  C   UNL A   1      47.119  27.810  30.354  1.00  0.00     0.004 A 
ATOM     19  C   UNL A   1      46.473  29.029  30.591  1.00  0.00     0.009 A 
BRANCH  15  20
ATOM     20  O   UNL A   1      45.644  26.804  27.161  1.00  0.00    -0.410 OA
BRANCH  20  21
ATOM     21  C   UNL A   1      46.258  25.564  27.065  1.00  0.00     0.412 C 
ATOM     22  N   UNL A   1      45.497  24.538  27.559  1.00  0.00    -0.321 N 
ATOM     23  H   UNL A   1      45.873  23.634  27.468  1.00  0.00     0.167 HD
ATOM     24  O   UNL A   1      47.373  25.352  26.602  1.00  0.00    -0.224 OA
BRANCH  22  25
ATOM     25  C   UNL A   1      44.198  24.634  28.200  1.00  0.00     0.119 C 
BRANCH  25  26
ATOM     26  C   UNL A   1      43.780  23.323  28.867  1.00  0.00     0.021 C 
BRANCH  26  27
ATOM     27  C   UNL A   1      42.322  22.908  28.630  1.00  0.00     0.002 C 
BRANCH  27  28
ATOM     28  C   UNL A   1      42.118  21.649  27.779  1.00  0.00    -0.000 C 
BRANCH  28  29
ATOM     29  C   UNL A   1      42.306  21.833  26.272  1.00  0.00    -0.003 C 
ATOM     30  C   UNL A   1      43.754  21.711  25.824  1.00  0.00     0.004 C 
ENDBRANCH  28  29
ENDBRANCH  27  28
ENDBRANCH  26  27
ENDBRANCH  25  26
ENDBRANCH  22  25
ENDBRANCH  20  21
ENDBRANCH  15  20
ENDBRANCH   9  14
BRANCH  11  31
ATOM     31  O   UNL A   1      45.712  32.070  28.085  1.00  0.00    -0.507 OA
ATOM     32  H   UNL A   1      46.571  31.694  28.087  1.00  0.00     0.293 HD
ENDBRANCH  11  31
ENDBRANCH   6   8
ENDBRANCH   4   6
ENDBRANCH   3   4
ENDBRANCH   2   3
ENDBRANCH   1   2
BRANCH   1  33
ATOM     33  O   UNL A   1      44.433  37.775  34.570  1.00  0.00    -0.376 OA
BRANCH  33  34
ATOM     34  C   UNL A   1      44.581  38.690  35.648  1.00  0.00     0.188 C 
BRANCH  34  35
ATOM     35  C   UNL A   1      44.098  38.329  37.060  1.00  0.00     0.188 C 
BRANCH  35  36
ATOM     36  O   UNL A   1      45.109  38.294  38.046  1.00  0.00    -0.377 OA
BRANCH  36  37
ATOM     37  C   UNL A   1      44.696  37.983  39.366  1.00  0.00     0.188 C 
BRANCH  37  38
ATOM     38  C   UNL A   1      44.582  36.494  39.740  1.00  0.00     0.188 C 
BRANCH  38  39
ATOM     39  O   UNL A   1      43.251  35.990  39.719  1.00  0.00    -0.376 OA
BRANCH  39  40
ATOM     40  C   UNL A   1      42.460  36.111  40.895  1.00  0.00     0.202 C 
BRANCH  40  41
ATOM     41  C   UNL A   1      41.118  35.362  40.949  1.00  0.00     0.261 C 
BRANCH  41  42
ATOM     42  O   UNL A   1      40.157  35.694  39.937  1.00  0.00    -0.460 OA
BRANCH  42  43
ATOM     43  C   UNL A   1      39.005  34.990  39.882  1.00  0.00     0.338 C 
ATOM     44  O   UNL A   1      38.074  35.037  40.654  1.00  0.00    -0.246 OA
BRANCH  43  45
ATOM     45  C   UNL A   1      38.980  34.305  38.567  1.00  0.00     0.060 A 
ATOM     46  C   UNL A   1      38.287  33.092  38.449  1.00  0.00     0.016 A 
ATOM     47  C   UNL A   1      39.621  34.860  37.459  1.00  0.00     0.016 A 
ATOM     48  C   UNL A   1      38.260  32.414  37.228  1.00  0.00     0.010 A 
ATOM     49  C   UNL A   1      39.618  34.166  36.243  1.00  0.00     0.010 A 
ATOM     50  C   UNL A   1      38.963  32.926  36.130  1.00  0.00    -0.014 A 
BRANCH  50  51
ATOM     51  C   UNL A   1      39.184  32.077  34.931  1.00  0.00     0.031 A 
ATOM     52  C   UNL A   1      40.336  31.111  34.946  1.00  0.00     0.074 A 
ATOM     53  C   UNL A   1      38.380  32.148  33.855  1.00  0.00     0.049 A 
ATOM     54  N   UNL A   1      40.785  30.328  33.998  1.00  0.00    -0.248 NA
ATOM     55  C   UNL A   1      41.087  31.018  36.209  1.00  0.00     0.031 C 
ATOM     56  C   UNL A   1      37.198  32.997  33.735  1.00  0.00     0.029 A 
ATOM     57  N   UNL A   1      38.452  31.494  32.647  1.00  0.00    -0.354 N 
ATOM     58  C   UNL A   1      41.872  29.659  34.546  1.00  0.00     0.074 A 
ATOM     59  C   UNL A   1      42.035  30.147  35.898  1.00  0.00     0.031 C 
ATOM     60  C   UNL A   1      36.665  32.827  32.513  1.00  0.00     0.029 A 
ATOM     61  C   UNL A   1      37.489  31.889  31.750  1.00  0.00     0.049 A 
ATOM     62  H   UNL A   1      39.128  30.808  32.445  1.00  0.00     0.167 HD
ATOM     63  C   UNL A   1      42.661  28.719  33.974  1.00  0.00     0.037 A 
ATOM     64  C   UNL A   1      37.318  31.555  30.456  1.00  0.00     0.037 A 
ATOM     65  C   UNL A   1      42.502  28.241  32.625  1.00  0.00     0.049 A 
ATOM     66  C   UNL A   1      38.272  30.580  29.809  1.00  0.00     0.074 A 
ATOM     67  C   UNL A   1      43.244  27.282  31.958  1.00  0.00     0.029 A 
ATOM     68  N   UNL A   1      41.541  28.697  31.735  1.00  0.00    -0.354 N 
ATOM     69  N   UNL A   1      39.287  29.937  30.335  1.00  0.00    -0.248 NA
ATOM     70  C   UNL A   1      38.057  30.287  28.383  1.00  0.00     0.031 C 
ATOM     71  C   UNL A   1      42.774  27.205  30.643  1.00  0.00     0.029 A 
ATOM     72  C   UNL A   1      41.693  28.063  30.512  1.00  0.00     0.049 A 
ATOM     73  H   UNL A   1      40.853  29.370  31.941  1.00  0.00     0.167 HD
ATOM     74  C   UNL A   1      39.806  29.140  29.320  1.00  0.00     0.074 A 
ATOM     75  C   UNL A   1      38.988  29.373  28.149  1.00  0.00     0.031 C 
ATOM     76  C   UNL A   1      40.864  28.293  29.356  1.00  0.00     0.037 A 
BRANCH  63  77
ATOM     77  C   UNL A   1      43.794  28.172  34.794  1.00  0.00     0.064 A 
ATOM     78  C   UNL A   1      43.646  27.026  35.589  1.00  0.00     0.173 A 
ATOM     79  C   UNL A   1      45.054  28.788  34.760  1.00  0.00     0.173 A 
ATOM     80  F   UNL A   1      42.459  26.406  35.669  1.00  0.00    -0.203 F 
ATOM     81  C   UNL A   1      44.711  26.534  36.342  1.00  0.00     0.198 A 
ATOM     82  C   UNL A   1      46.125  28.275  35.488  1.00  0.00     0.198 A 
ATOM     83  F   UNL A   1      45.251  29.886  34.014  1.00  0.00    -0.203 F 
ATOM     84  F   UNL A   1      44.532  25.469  37.135  1.00  0.00    -0.200 F 
ATOM     85  C   UNL A   1      45.950  27.154  36.284  1.00  0.00     0.200 A 
ATOM     86  F   UNL A   1      47.325  28.868  35.418  1.00  0.00    -0.200 F 
ATOM     87  F   UNL A   1      46.975  26.675  37.003  1.00  0.00    -0.200 F 
ENDBRANCH  63  77
BRANCH  64  88
ATOM     88  C   UNL A   1      36.213  32.165  29.666  1.00  0.00     0.064 A 
ATOM     89  C   UNL A   1      35.171  31.381  29.153  1.00  0.00     0.173 A 
ATOM     90  C   UNL A   1      36.195  33.538  29.378  1.00  0.00     0.173 A 
ATOM     91  F   UNL A   1      35.157  30.057  29.374  1.00  0.00    -0.203 F 
ATOM     92  C   UNL A   1      34.166  31.940  28.366  1.00  0.00     0.198 A 
ATOM     93  C   UNL A   1      35.172  34.103  28.619  1.00  0.00     0.198 A 
ATOM     94  F   UNL A   1      37.171  34.334  29.836  1.00  0.00    -0.203 F 
ATOM     95  F   UNL A   1      33.213  31.157  27.842  1.00  0.00    -0.200 F 
ATOM     96  C   UNL A   1      34.163  33.302  28.105  1.00  0.00     0.200 A 
ATOM     97  F   UNL A   1      35.168  35.421  28.378  1.00  0.00    -0.200 F 
ATOM     98  F   UNL A   1      33.196  33.841  27.350  1.00  0.00    -0.200 F 
ENDBRANCH  64  88
BRANCH  76  99
ATOM     99  C   UNL A   1      41.178  27.513  28.110  1.00  0.00     0.064 A 
ATOM    100  C   UNL A   1      40.633  26.242  27.874  1.00  0.00     0.173 A 
ATOM    101  C   UNL A   1      41.989  28.073  27.110  1.00  0.00     0.173 A 
ATOM    102  F   UNL A   1      39.862  25.655  28.801  1.00  0.00    -0.203 F 
ATOM    103  C   UNL A   1      40.909  25.552  26.695  1.00  0.00     0.198 A 
ATOM    104  C   UNL A   1      42.234  27.396  25.918  1.00  0.00     0.198 A 
ATOM    105  F   UNL A   1      42.528  29.290  27.279  1.00  0.00    -0.203 F 
ATOM    106  F   UNL A   1      40.415  24.320  26.513  1.00  0.00    -0.200 F 
ATOM    107  C   UNL A   1      41.699  26.133  25.715  1.00  0.00     0.200 A 
ATOM    108  F   UNL A   1      42.982  27.968  24.965  1.00  0.00    -0.200 F 
ATOM    109  F   UNL A   1      41.951  25.473  24.576  1.00  0.00    -0.200 F 
ENDBRANCH  76  99
ENDBRANCH  50  51
ENDBRANCH  43  45
ENDBRANCH  42  43
ENDBRANCH  41  42
ENDBRANCH  40  41
ENDBRANCH  39  40
ENDBRANCH  38  39
ENDBRANCH  37  38
ENDBRANCH  36  37
ENDBRANCH  35  36
ENDBRANCH  34  35
ENDBRANCH  33  34
ENDBRANCH   1  33
TORSDOF 30
ENDMDL
MODEL 2
REMARK VINA RESULT:      -6.2      4.427     11.353
REMARK SMILES CCCCCCNC(=O)Oc1cccc(-c2ccc([C@@H](C)C(=O)OCCOCCOCCOCCOC(=O)c3ccc(-c4c5nc(c(-c6c(F)c(F)c(F)c(F)c6F)c6ccc([nH]6)c(-c6c(F)c(F)c(F)c(F)c6F)c6nc(c(-c7c(F)c(F)c(F)c(F)c7F)c7ccc4[nH]7)C=C6)C=C5)cc3)cc2O)c1
REMARK SMILES IDX 26 1 25 2 24 3 22 4 23 5 20 6 21 7 19 8 16 9 17 10 103 11
REMARK SMILES IDX 18 12 102 13 15 14 11 15 12 16 105 17 13 18 14 19 10 20 8 21
REMARK SMILES IDX 7 22 9 24 6 25 5 26 4 27 3 28 2 29 1 30 104 31 27 33 28 34
REMARK SMILES IDX 29 35 30 36 31 37 32 38 33 39 34 40 35 41 36 42 37 43 38 44
REMARK SMILES IDX 39 45 40 46 101 47 41 48 100 49 42 50 43 51 44 52 94 53
REMARK SMILES IDX 45 54 99 55 93 56 95 57 46 58 98 59 92 60 91 61 47 63 79 64
REMARK SMILES IDX 59 65 78 66 60 67 63 68 77 69 96 70 61 71 62 72 76 74 97 75
REMARK SMILES IDX 64 76 48 77 49 78 57 79 50 80 51 81 55 82 58 83 52 84 53 85
REMARK SMILES IDX 56 86 54 87 80 88 81 89 89 90 82 91 83 92 87 93 90 94 84 95
REMARK SMILES IDX 85 96 88 97 86 98 65 99 66 100 74 101 67 102 68 103 72 104
REMARK SMILES IDX 75 105 69 106 70 107 73 108 71 109
REMARK H PARENT 7 23 104 32 95 62 63 73
REMARK Flexibility Score: inf
ROOT
ATOM      1  C   UNL A   1      53.264  22.695  35.070  1.00  0.00     0.202 C 
ENDROOT
BRANCH   1   2
ATOM      2  C   UNL A   1      51.859  22.079  35.220  1.00  0.00     0.261 C 
BRANCH   2   3
ATOM      3  O   UNL A   1      50.940  22.256  34.120  1.00  0.00    -0.463 OA
BRANCH   3   4
ATOM      4  C   UNL A   1      49.820  21.500  34.153  1.00  0.00     0.313 C 
ATOM      5  O   UNL A   1      49.502  20.727  33.248  1.00  0.00    -0.252 OA
BRANCH   4   6
ATOM      6  C   UNL A   1      48.921  21.677  35.376  1.00  0.00     0.126 C 
ATOM      7  C   UNL A   1      48.620  20.299  35.954  1.00  0.00     0.025 C 
BRANCH   6   8
ATOM      8  C   UNL A   1      47.660  22.541  35.325  1.00  0.00    -0.030 A 
ATOM      9  C   UNL A   1      45.212  24.051  35.181  1.00  0.00     0.024 A 
ATOM     10  C   UNL A   1      46.430  24.637  35.581  1.00  0.00     0.013 A 
ATOM     11  C   UNL A   1      45.253  22.686  34.858  1.00  0.00     0.123 A 
ATOM     12  C   UNL A   1      47.632  23.902  35.648  1.00  0.00     0.005 A 
ATOM     13  C   UNL A   1      46.446  21.952  34.919  1.00  0.00     0.051 A 
BRANCH   9  14
ATOM     14  C   UNL A   1      43.988  24.875  35.056  1.00  0.00    -0.011 A 
ATOM     15  C   UNL A   1      42.822  26.917  34.416  1.00  0.00     0.133 A 
ATOM     16  C   UNL A   1      41.640  26.458  34.992  1.00  0.00     0.047 A 
ATOM     17  C   UNL A   1      43.989  26.143  34.441  1.00  0.00     0.056 A 
ATOM     18  C   UNL A   1      41.616  25.200  35.585  1.00  0.00     0.004 A 
ATOM     19  C   UNL A   1      42.778  24.422  35.619  1.00  0.00     0.009 A 
BRANCH  15  20
ATOM     20  O   UNL A   1      42.818  28.245  33.950  1.00  0.00    -0.410 OA
BRANCH  20  21
ATOM     21  C   UNL A   1      42.661  28.467  32.590  1.00  0.00     0.412 C 
ATOM     22  N   UNL A   1      43.718  29.126  32.020  1.00  0.00    -0.321 N 
ATOM     23  H   UNL A   1      43.672  29.262  31.047  1.00  0.00     0.167 HD
ATOM     24  O   UNL A   1      41.691  28.136  31.918  1.00  0.00    -0.224 OA
BRANCH  22  25
ATOM     25  C   UNL A   1      44.898  29.644  32.687  1.00  0.00     0.119 C 
BRANCH  25  26
ATOM     26  C   UNL A   1      46.193  29.089  32.096  1.00  0.00     0.021 C 
BRANCH  26  27
ATOM     27  C   UNL A   1      46.523  27.643  32.492  1.00  0.00     0.002 C 
BRANCH  27  28
ATOM     28  C   UNL A   1      47.439  26.881  31.528  1.00  0.00    -0.000 C 
BRANCH  28  29
ATOM     29  C   UNL A   1      46.744  25.856  30.629  1.00  0.00    -0.003 C 
ATOM     30  C   UNL A   1      45.325  25.529  31.069  1.00  0.00     0.004 C 
ENDBRANCH  28  29
ENDBRANCH  27  28
ENDBRANCH  26  27
ENDBRANCH  25  26
ENDBRANCH  22  25
ENDBRANCH  20  21
ENDBRANCH  15  20
ENDBRANCH   9  14
BRANCH  11  31
ATOM     31  O   UNL A   1      44.152  21.983  34.442  1.00  0.00    -0.507 OA
ATOM     32  H   UNL A   1      43.320  22.131  34.847  1.00  0.00     0.293 HD
ENDBRANCH  11  31
ENDBRANCH   6   8
ENDBRANCH   4   6
ENDBRANCH   3   4
ENDBRANCH   2   3
ENDBRANCH   1   2
BRANCH   1  33
ATOM     33  O   UNL A   1      53.443  24.024  34.602  1.00  0.00    -0.376 OA
BRANCH  33  34
ATOM     34  C   UNL A   1      54.446  24.329  33.642  1.00  0.00     0.188 C 
BRANCH  34  35
ATOM     35  C   UNL A   1      54.072  24.668  32.192  1.00  0.00     0.188 C 
BRANCH  35  36
ATOM     36  O   UNL A   1      53.369  25.883  32.024  1.00  0.00    -0.377 OA
BRANCH  36  37
ATOM     37  C   UNL A   1      52.280  25.865  31.117  1.00  0.00     0.188 C 
BRANCH  37  38
ATOM     38  C   UNL A   1      52.419  26.700  29.830  1.00  0.00     0.188 C 
BRANCH  38  39
ATOM     39  O   UNL A   1      53.639  26.489  29.129  1.00  0.00    -0.376 OA
BRANCH  39  40
ATOM     40  C   UNL A   1      53.585  25.934  27.821  1.00  0.00     0.202 C 
BRANCH  40  41
ATOM     41  C   UNL A   1      52.688  26.618  26.776  1.00  0.00     0.261 C 
BRANCH  41  42
ATOM     42  O   UNL A   1      51.395  26.036  26.561  1.00  0.00    -0.460 OA
BRANCH  42  43
ATOM     43  C   UNL A   1      50.652  26.475  25.522  1.00  0.00     0.338 C 
ATOM     44  O   UNL A   1      50.784  26.201  24.351  1.00  0.00    -0.246 OA
BRANCH  43  45
ATOM     45  C   UNL A   1      49.483  27.186  26.096  1.00  0.00     0.060 A 
ATOM     46  C   UNL A   1      49.379  27.303  27.489  1.00  0.00     0.016 A 
ATOM     47  C   UNL A   1      48.508  27.743  25.268  1.00  0.00     0.016 A 
ATOM     48  C   UNL A   1      48.281  27.951  28.059  1.00  0.00     0.010 A 
ATOM     49  C   UNL A   1      47.393  28.367  25.841  1.00  0.00     0.010 A 
ATOM     50  C   UNL A   1      47.260  28.448  27.240  1.00  0.00    -0.014 A 
BRANCH  50  51
ATOM     51  C   UNL A   1      45.966  28.867  27.838  1.00  0.00     0.031 A 
ATOM     52  C   UNL A   1      44.836  27.875  27.855  1.00  0.00     0.074 A 
ATOM     53  C   UNL A   1      45.794  30.092  28.367  1.00  0.00     0.049 A 
ATOM     54  N   UNL A   1      43.595  28.028  28.241  1.00  0.00    -0.248 NA
ATOM     55  C   UNL A   1      45.152  26.524  27.365  1.00  0.00     0.031 C 
ATOM     56  C   UNL A   1      46.823  31.123  28.467  1.00  0.00     0.029 A 
ATOM     57  N   UNL A   1      44.675  30.676  28.910  1.00  0.00    -0.354 N 
ATOM     58  C   UNL A   1      42.982  26.798  28.032  1.00  0.00     0.074 A 
ATOM     59  C   UNL A   1      43.978  25.919  27.459  1.00  0.00     0.031 C 
ATOM     60  C   UNL A   1      46.282  32.223  29.020  1.00  0.00     0.029 A 
ATOM     61  C   UNL A   1      44.861  31.987  29.275  1.00  0.00     0.049 A 
ATOM     62  H   UNL A   1      43.821  30.200  29.027  1.00  0.00     0.167 HD
ATOM     63  C   UNL A   1      41.706  26.434  28.299  1.00  0.00     0.037 A 
ATOM     64  C   UNL A   1      43.977  32.897  29.732  1.00  0.00     0.037 A 
ATOM     65  C   UNL A   1      40.715  27.314  28.862  1.00  0.00     0.049 A 
ATOM     66  C   UNL A   1      42.534  32.496  29.926  1.00  0.00     0.074 A 
ATOM     67  C   UNL A   1      39.397  27.035  29.180  1.00  0.00     0.029 A 
ATOM     68  N   UNL A   1      40.932  28.646  29.180  1.00  0.00    -0.354 N 
ATOM     69  N   UNL A   1      41.964  31.329  29.745  1.00  0.00    -0.248 NA
ATOM     70  C   UNL A   1      41.610  33.544  30.388  1.00  0.00     0.031 C 
ATOM     71  C   UNL A   1      38.799  28.217  29.628  1.00  0.00     0.029 A 
ATOM     72  C   UNL A   1      39.761  29.213  29.658  1.00  0.00     0.049 A 
ATOM     73  H   UNL A   1      41.789  29.119  29.080  1.00  0.00     0.167 HD
ATOM     74  C   UNL A   1      40.630  31.492  30.102  1.00  0.00     0.074 A 
ATOM     75  C   UNL A   1      40.477  32.869  30.521  1.00  0.00     0.031 C 
ATOM     76  C   UNL A   1      39.624  30.583  30.084  1.00  0.00     0.037 A 
BRANCH  63  77
ATOM     77  C   UNL A   1      41.297  25.033  27.949  1.00  0.00     0.064 A 
ATOM     78  C   UNL A   1      40.355  24.765  26.944  1.00  0.00     0.173 A 
ATOM     79  C   UNL A   1      41.877  23.940  28.610  1.00  0.00     0.173 A 
ATOM     80  F   UNL A   1      39.759  25.774  26.291  1.00  0.00    -0.203 F 
ATOM     81  C   UNL A   1      39.989  23.457  26.635  1.00  0.00     0.198 A 
ATOM     82  C   UNL A   1      41.534  22.632  28.275  1.00  0.00     0.198 A 
ATOM     83  F   UNL A   1      42.786  24.138  29.578  1.00  0.00    -0.203 F 
ATOM     84  F   UNL A   1      39.049  23.228  25.708  1.00  0.00    -0.200 F 
ATOM     85  C   UNL A   1      40.585  22.393  27.294  1.00  0.00     0.200 A 
ATOM     86  F   UNL A   1      42.122  21.605  28.904  1.00  0.00    -0.200 F 
ATOM     87  F   UNL A   1      40.237  21.135  26.990  1.00  0.00    -0.200 F 
ENDBRANCH  63  77
BRANCH  64  88
ATOM     88  C   UNL A   1      44.417  34.291  30.015  1.00  0.00     0.064 A 
ATOM     89  C   UNL A   1      44.868  34.663  31.288  1.00  0.00     0.173 A 
ATOM     90  C   UNL A   1      44.361  35.287  29.028  1.00  0.00     0.173 A 
ATOM     91  F   UNL A   1      44.911  33.756  32.276  1.00  0.00    -0.203 F 
ATOM     92  C   UNL A   1      45.226  35.981  31.570  1.00  0.00     0.198 A 
ATOM     93  C   UNL A   1      44.751  36.596  29.301  1.00  0.00     0.198 A 
ATOM     94  F   UNL A   1      43.929  34.987  27.794  1.00  0.00    -0.203 F 
ATOM     95  F   UNL A   1      45.600  36.320  32.811  1.00  0.00    -0.200 F 
ATOM     96  C   UNL A   1      45.174  36.945  30.575  1.00  0.00     0.200 A 
ATOM     97  F   UNL A   1      44.709  37.522  28.333  1.00  0.00    -0.200 F 
ATOM     98  F   UNL A   1      45.520  38.211  30.845  1.00  0.00    -0.200 F 
ENDBRANCH  64  88
BRANCH  76  99
ATOM     99  C   UNL A   1      38.273  31.026  30.575  1.00  0.00     0.064 A 
ATOM    100  C   UNL A   1      37.236  31.359  29.691  1.00  0.00     0.173 A 
ATOM    101  C   UNL A   1      37.996  31.060  31.951  1.00  0.00     0.173 A 
ATOM    102  F   UNL A   1      37.450  31.355  28.367  1.00  0.00    -0.203 F 
ATOM    103  C   UNL A   1      35.981  31.732  30.167  1.00  0.00     0.198 A 
ATOM    104  C   UNL A   1      36.731  31.398  32.423  1.00  0.00     0.198 A 
ATOM    105  F   UNL A   1      38.949  30.741  32.841  1.00  0.00    -0.203 F 
ATOM    106  F   UNL A   1      35.020  32.091  29.305  1.00  0.00    -0.200 F 
ATOM    107  C   UNL A   1      35.727  31.741  31.530  1.00  0.00     0.200 A 
ATOM    108  F   UNL A   1      36.483  31.388  33.739  1.00  0.00    -0.200 F 
ATOM    109  F   UNL A   1      34.514  32.087  31.985  1.00  0.00    -0.200 F 
ENDBRANCH  76  99
ENDBRANCH  50  51
ENDBRANCH  43  45
ENDBRANCH  42  43
ENDBRANCH  41  42
ENDBRANCH  40  41
ENDBRANCH  39  40
ENDBRANCH  38  39
ENDBRANCH  37  38
ENDBRANCH  36  37
ENDBRANCH  35  36
ENDBRANCH  34  35
ENDBRANCH  33  34
ENDBRANCH   1  33
TORSDOF 30
ENDMDL
MODEL 3
REMARK VINA RESULT:      -6.1      4.740     10.202
REMARK SMILES CCCCCCNC(=O)Oc1cccc(-c2ccc([C@@H](C)C(=O)OCCOCCOCCOCCOC(=O)c3ccc(-c4c5nc(c(-c6c(F)c(F)c(F)c(F)c6F)c6ccc([nH]6)c(-c6c(F)c(F)c(F)c(F)c6F)c6nc(c(-c7c(F)c(F)c(F)c(F)c7F)c7ccc4[nH]7)C=C6)C=C5)cc3)cc2O)c1
REMARK SMILES IDX 26 1 25 2 24 3 22 4 23 5 20 6 21 7 19 8 16 9 17 10 103 11
REMARK SMILES IDX 18 12 102 13 15 14 11 15 12 16 105 17 13 18 14 19 10 20 8 21
REMARK SMILES IDX 7 22 9 24 6 25 5 26 4 27 3 28 2 29 1 30 104 31 27 33 28 34
REMARK SMILES IDX 29 35 30 36 31 37 32 38 33 39 34 40 35 41 36 42 37 43 38 44
REMARK SMILES IDX 39 45 40 46 101 47 41 48 100 49 42 50 43 51 44 52 94 53
REMARK SMILES IDX 45 54 99 55 93 56 95 57 46 58 98 59 92 60 91 61 47 63 79 64
REMARK SMILES IDX 59 65 78 66 60 67 63 68 77 69 96 70 61 71 62 72 76 74 97 75
REMARK SMILES IDX 64 76 48 77 49 78 57 79 50 80 51 81 55 82 58 83 52 84 53 85
REMARK SMILES IDX 56 86 54 87 80 88 81 89 89 90 82 91 83 92 87 93 90 94 84 95
REMARK SMILES IDX 85 96 88 97 86 98 65 99 66 100 74 101 67 102 68 103 72 104
REMARK SMILES IDX 75 105 69 106 70 107 73 108 71 109
REMARK H PARENT 7 23 104 32 95 62 63 73
REMARK Flexibility Score: inf
ROOT
ATOM      1  C   UNL A   1      47.222  27.626  32.019  1.00  0.00     0.202 C 
ENDROOT
BRANCH   1   2
ATOM      2  C   UNL A   1      45.977  28.435  31.605  1.00  0.00     0.261 C 
BRANCH   2   3
ATOM      3  O   UNL A   1      44.762  27.696  31.361  1.00  0.00    -0.463 OA
BRANCH   3   4
ATOM      4  C   UNL A   1      44.000  28.125  30.329  1.00  0.00     0.313 C 
ATOM      5  O   UNL A   1      43.065  28.914  30.465  1.00  0.00    -0.252 OA
BRANCH   4   6
ATOM      6  C   UNL A   1      44.334  27.543  28.956  1.00  0.00     0.126 C 
ATOM      7  C   UNL A   1      44.107  28.627  27.908  1.00  0.00     0.025 C 
BRANCH   6   8
ATOM      8  C   UNL A   1      43.764  26.201  28.495  1.00  0.00    -0.030 A 
ATOM      9  C   UNL A   1      42.624  23.745  27.516  1.00  0.00     0.024 A 
ATOM     10  C   UNL A   1      43.431  23.787  28.670  1.00  0.00     0.013 A 
ATOM     11  C   UNL A   1      42.405  24.967  26.862  1.00  0.00     0.123 A 
ATOM     12  C   UNL A   1      43.988  24.988  29.155  1.00  0.00     0.005 A 
ATOM     13  C   UNL A   1      42.952  26.165  27.342  1.00  0.00     0.051 A 
BRANCH   9  14
ATOM     14  C   UNL A   1      42.001  22.473  27.080  1.00  0.00    -0.011 A 
ATOM     15  C   UNL A   1      42.084  20.299  25.983  1.00  0.00     0.133 A 
ATOM     16  C   UNL A   1      40.710  20.134  26.139  1.00  0.00     0.047 A 
ATOM     17  C   UNL A   1      42.733  21.451  26.444  1.00  0.00     0.056 A 
ATOM     18  C   UNL A   1      39.976  21.124  26.784  1.00  0.00     0.004 A 
ATOM     19  C   UNL A   1      40.615  22.280  27.244  1.00  0.00     0.009 A 
BRANCH  15  20
ATOM     20  O   UNL A   1      42.748  19.328  25.210  1.00  0.00    -0.410 OA
BRANCH  20  21
ATOM     21  C   UNL A   1      43.539  18.394  25.861  1.00  0.00     0.412 C 
ATOM     22  N   UNL A   1      44.860  18.454  25.503  1.00  0.00    -0.321 N 
ATOM     23  H   UNL A   1      45.467  17.841  25.977  1.00  0.00     0.167 HD
ATOM     24  O   UNL A   1      43.146  17.568  26.676  1.00  0.00    -0.224 OA
BRANCH  22  25
ATOM     25  C   UNL A   1      45.466  19.318  24.508  1.00  0.00     0.119 C 
BRANCH  25  26
ATOM     26  C   UNL A   1      46.190  20.510  25.134  1.00  0.00     0.021 C 
BRANCH  26  27
ATOM     27  C   UNL A   1      45.901  21.867  24.477  1.00  0.00     0.002 C 
BRANCH  27  28
ATOM     28  C   UNL A   1      46.012  23.089  25.396  1.00  0.00    -0.000 C 
BRANCH  28  29
ATOM     29  C   UNL A   1      45.254  24.334  24.932  1.00  0.00    -0.003 C 
ATOM     30  C   UNL A   1      45.939  25.637  25.317  1.00  0.00     0.004 C 
ENDBRANCH  28  29
ENDBRANCH  27  28
ENDBRANCH  26  27
ENDBRANCH  25  26
ENDBRANCH  22  25
ENDBRANCH  20  21
ENDBRANCH  15  20
ENDBRANCH   9  14
BRANCH  11  31
ATOM     31  O   UNL A   1      41.633  25.086  25.736  1.00  0.00    -0.507 OA
ATOM     32  H   UNL A   1      41.682  24.435  25.062  1.00  0.00     0.293 HD
ENDBRANCH  11  31
ENDBRANCH   6   8
ENDBRANCH   4   6
ENDBRANCH   3   4
ENDBRANCH   2   3
ENDBRANCH   1   2
BRANCH   1  33
ATOM     33  O   UNL A   1      47.842  27.817  33.283  1.00  0.00    -0.376 OA
BRANCH  33  34
ATOM     34  C   UNL A   1      49.081  27.191  33.588  1.00  0.00     0.188 C 
BRANCH  34  35
ATOM     35  C   UNL A   1      49.803  26.322  32.549  1.00  0.00     0.188 C 
BRANCH  35  36
ATOM     36  O   UNL A   1      50.294  25.090  33.036  1.00  0.00    -0.377 OA
BRANCH  36  37
ATOM     37  C   UNL A   1      49.941  24.748  34.365  1.00  0.00     0.188 C 
BRANCH  37  38
ATOM     38  C   UNL A   1      50.364  23.357  34.874  1.00  0.00     0.188 C 
BRANCH  38  39
ATOM     39  O   UNL A   1      49.336  22.653  35.561  1.00  0.00    -0.376 OA
BRANCH  39  40
ATOM     40  C   UNL A   1      49.072  21.305  35.193  1.00  0.00     0.202 C 
BRANCH  40  41
ATOM     41  C   UNL A   1      47.620  20.906  34.881  1.00  0.00     0.261 C 
BRANCH  41  42
ATOM     42  O   UNL A   1      46.800  21.904  34.257  1.00  0.00    -0.460 OA
BRANCH  42  43
ATOM     43  C   UNL A   1      45.500  21.987  34.611  1.00  0.00     0.338 C 
ATOM     44  O   UNL A   1      44.689  21.090  34.663  1.00  0.00    -0.246 OA
BRANCH  43  45
ATOM     45  C   UNL A   1      45.286  23.351  35.155  1.00  0.00     0.060 A 
ATOM     46  C   UNL A   1      44.262  23.555  36.090  1.00  0.00     0.016 A 
ATOM     47  C   UNL A   1      46.098  24.414  34.757  1.00  0.00     0.016 A 
ATOM     48  C   UNL A   1      44.026  24.830  36.606  1.00  0.00     0.010 A 
ATOM     49  C   UNL A   1      45.842  25.698  35.253  1.00  0.00     0.010 A 
ATOM     50  C   UNL A   1      44.786  25.918  36.157  1.00  0.00    -0.014 A 
BRANCH  50  51
ATOM     51  C   UNL A   1      44.354  27.304  36.471  1.00  0.00     0.031 A 
ATOM     52  C   UNL A   1      44.895  27.952  37.716  1.00  0.00     0.074 A 
ATOM     53  C   UNL A   1      43.513  27.982  35.671  1.00  0.00     0.049 A 
ATOM     54  N   UNL A   1      44.606  29.113  38.248  1.00  0.00    -0.248 NA
ATOM     55  C   UNL A   1      45.900  27.180  38.465  1.00  0.00     0.031 C 
ATOM     56  C   UNL A   1      42.965  27.493  34.409  1.00  0.00     0.029 A 
ATOM     57  N   UNL A   1      42.964  29.234  35.816  1.00  0.00    -0.354 N 
ATOM     58  C   UNL A   1      45.385  29.205  39.395  1.00  0.00     0.074 A 
ATOM     59  C   UNL A   1      46.137  27.973  39.498  1.00  0.00     0.031 C 
ATOM     60  C   UNL A   1      42.141  28.427  33.902  1.00  0.00     0.029 A 
ATOM     61  C   UNL A   1      42.072  29.562  34.823  1.00  0.00     0.049 A 
ATOM     62  H   UNL A   1      43.189  29.839  36.559  1.00  0.00     0.167 HD
ATOM     63  C   UNL A   1      45.470  30.226  40.278  1.00  0.00     0.037 A 
ATOM     64  C   UNL A   1      41.272  30.639  34.694  1.00  0.00     0.037 A 
ATOM     65  C   UNL A   1      44.715  31.448  40.177  1.00  0.00     0.049 A 
ATOM     66  C   UNL A   1      41.309  31.721  35.747  1.00  0.00     0.074 A 
ATOM     67  C   UNL A   1      44.738  32.548  41.017  1.00  0.00     0.029 A 
ATOM     68  N   UNL A   1      43.791  31.724  39.180  1.00  0.00    -0.354 N 
ATOM     69  N   UNL A   1      42.059  31.812  36.819  1.00  0.00    -0.248 NA
ATOM     70  C   UNL A   1      40.383  32.851  35.571  1.00  0.00     0.031 C 
ATOM     71  C   UNL A   1      43.781  33.462  40.564  1.00  0.00     0.029 A 
ATOM     72  C   UNL A   1      43.213  32.964  39.403  1.00  0.00     0.049 A 
ATOM     73  H   UNL A   1      43.578  31.129  38.426  1.00  0.00     0.167 HD
ATOM     74  C   UNL A   1      41.723  33.019  37.422  1.00  0.00     0.074 A 
ATOM     75  C   UNL A   1      40.708  33.631  36.592  1.00  0.00     0.031 C 
ATOM     76  C   UNL A   1      42.212  33.569  38.562  1.00  0.00     0.037 A 
BRANCH  63  77
ATOM     77  C   UNL A   1      46.384  30.051  41.456  1.00  0.00     0.064 A 
ATOM     78  C   UNL A   1      47.702  30.532  41.449  1.00  0.00     0.173 A 
ATOM     79  C   UNL A   1      45.925  29.417  42.620  1.00  0.00     0.173 A 
ATOM     80  F   UNL A   1      48.196  31.134  40.356  1.00  0.00    -0.203 F 
ATOM     81  C   UNL A   1      48.533  30.360  42.553  1.00  0.00     0.198 A 
ATOM     82  C   UNL A   1      46.749  29.276  43.734  1.00  0.00     0.198 A 
ATOM     83  F   UNL A   1      44.672  28.940  42.683  1.00  0.00    -0.203 F 
ATOM     84  F   UNL A   1      49.805  30.781  42.504  1.00  0.00    -0.200 F 
ATOM     85  C   UNL A   1      48.054  29.740  43.696  1.00  0.00     0.200 A 
ATOM     86  F   UNL A   1      46.277  28.689  44.843  1.00  0.00    -0.200 F 
ATOM     87  F   UNL A   1      48.853  29.581  44.761  1.00  0.00    -0.200 F 
ENDBRANCH  63  77
BRANCH  64  88
ATOM     88  C   UNL A   1      40.341  30.744  33.537  1.00  0.00     0.064 A 
ATOM     89  C   UNL A   1      38.983  30.426  33.669  1.00  0.00     0.173 A 
ATOM     90  C   UNL A   1      40.798  31.131  32.268  1.00  0.00     0.173 A 
ATOM     91  F   UNL A   1      38.501  30.021  34.853  1.00  0.00    -0.203 F 
ATOM     92  C   UNL A   1      38.121  30.470  32.573  1.00  0.00     0.198 A 
ATOM     93  C   UNL A   1      39.930  31.207  31.181  1.00  0.00     0.198 A 
ATOM     94  F   UNL A   1      42.090  31.439  32.083  1.00  0.00    -0.203 F 
ATOM     95  F   UNL A   1      36.840  30.106  32.717  1.00  0.00    -0.200 F 
ATOM     96  C   UNL A   1      38.594  30.867  31.332  1.00  0.00     0.200 A 
ATOM     97  F   UNL A   1      40.389  31.601  29.985  1.00  0.00    -0.200 F 
ATOM     98  F   UNL A   1      37.766  30.910  30.279  1.00  0.00    -0.200 F 
ENDBRANCH  64  88
BRANCH  76  99
ATOM     99  C   UNL A   1      41.695  34.924  38.961  1.00  0.00     0.064 A 
ATOM    100  C   UNL A   1      42.401  36.101  38.670  1.00  0.00     0.173 A 
ATOM    101  C   UNL A   1      40.447  35.048  39.590  1.00  0.00     0.173 A 
ATOM    102  F   UNL A   1      43.605  36.039  38.081  1.00  0.00    -0.203 F 
ATOM    103  C   UNL A   1      41.887  37.349  39.017  1.00  0.00     0.198 A 
ATOM    104  C   UNL A   1      39.919  36.298  39.904  1.00  0.00     0.198 A 
ATOM    105  F   UNL A   1      39.725  33.955  39.882  1.00  0.00    -0.203 F 
ATOM    106  F   UNL A   1      42.600  38.456  38.771  1.00  0.00    -0.200 F 
ATOM    107  C   UNL A   1      40.644  37.447  39.623  1.00  0.00     0.200 A 
ATOM    108  F   UNL A   1      38.710  36.390  40.472  1.00  0.00    -0.200 F 
ATOM    109  F   UNL A   1      40.145  38.649  39.943  1.00  0.00    -0.200 F 
ENDBRANCH  76  99
ENDBRANCH  50  51
ENDBRANCH  43  45
ENDBRANCH  42  43
ENDBRANCH  41  42
ENDBRANCH  40  41
ENDBRANCH  39  40
ENDBRANCH  38  39
ENDBRANCH  37  38
ENDBRANCH  36  37
ENDBRANCH  35  36
ENDBRANCH  34  35
ENDBRANCH  33  34
ENDBRANCH   1  33
TORSDOF 30
ENDMDL
