MODEL 1
REMARK VINA RESULT:     -11.4      0.000      0.000
REMARK SMILES Cc1ccc(C(=O)N[C@@H]2C=C[C@H](C(=O)OCCOCCOCCOCCOC(=O)c3ccc(-c4c5nc(c(-c6c(F)c(F)c(F)c(F)c6F)c6ccc([nH]6)c(-c6c(F)c(F)c(F)c(F)c6F)c6nc(c(-c7c(F)c(F)c(F)c(F)c7F)c7ccc4[nH]7)C=C6)C=C5)cc3)C2)c(F)c1
REMARK SMILES IDX 21 1 20 2 19 3 18 4 17 5 16 6 15 7 13 8 14 9 12 10 9 11
REMARK SMILES IDX 10 12 93 13 11 14 8 15 6 16 7 17 5 19 1 20 2 21 3 22 96 23
REMARK SMILES IDX 4 24 94 25 95 26 22 27 23 28 24 29 25 30 26 31 27 32 28 33
REMARK SMILES IDX 29 34 30 35 31 36 92 37 32 38 91 39 33 40 34 41 35 42 85 43
REMARK SMILES IDX 36 44 90 45 84 46 86 47 37 48 89 49 83 50 82 51 38 53 70 54
REMARK SMILES IDX 50 55 69 56 51 57 54 58 68 59 87 60 52 61 53 62 67 64 88 65
REMARK SMILES IDX 55 66 39 67 40 68 48 69 41 70 42 71 46 72 49 73 43 74 44 75
REMARK SMILES IDX 47 76 45 77 71 78 72 79 80 80 73 81 74 82 78 83 81 84 75 85
REMARK SMILES IDX 76 86 79 87 77 88 56 89 57 90 65 91 58 92 59 93 63 94 66 95
REMARK SMILES IDX 60 96 61 97 64 98 62 99
REMARK H PARENT 8 18 86 52 54 63
REMARK Flexibility Score: inf
ROOT
ATOM      1  O   UNL A   1      33.932  35.618  30.283  1.00  0.00    -0.377 OA
ENDROOT
BRANCH   1   2
ATOM      2  C   UNL A   1      33.270  35.447  29.034  1.00  0.00     0.188 C 
BRANCH   2   3
ATOM      3  C   UNL A   1      33.833  34.355  28.100  1.00  0.00     0.188 C 
BRANCH   3   4
ATOM      4  O   UNL A   1      33.016  33.201  28.029  1.00  0.00    -0.376 OA
BRANCH   4   5
ATOM      5  C   UNL A   1      33.642  31.974  27.666  1.00  0.00     0.202 C 
BRANCH   5   6
ATOM      6  C   UNL A   1      32.789  30.829  27.079  1.00  0.00     0.261 C 
BRANCH   6   7
ATOM      7  O   UNL A   1      33.098  29.502  27.551  1.00  0.00    -0.463 OA
BRANCH   7   8
ATOM      8  C   UNL A   1      32.187  28.535  27.267  1.00  0.00     0.312 C 
ATOM      9  O   UNL A   1      31.314  28.171  28.043  1.00  0.00    -0.252 OA
BRANCH   8  10
ATOM     10  C   UNL A   1      32.446  27.945  25.877  1.00  0.00     0.124 C 
ATOM     11  C   UNL A   1      31.869  25.575  25.368  1.00  0.00     0.106 C 
ATOM     12  C   UNL A   1      33.300  25.751  25.739  1.00  0.00    -0.006 C 
ATOM     13  C   UNL A   1      31.354  27.018  25.330  1.00  0.00     0.048 C 
ATOM     14  C   UNL A   1      33.627  27.031  25.942  1.00  0.00    -0.014 C 
BRANCH  11  15
ATOM     15  N   UNL A   1      31.190  24.710  26.315  1.00  0.00    -0.346 N 
ATOM     16  C   UNL A   1      31.390  23.388  26.674  1.00  0.00     0.254 C 
ATOM     17  O   UNL A   1      30.763  22.963  27.643  1.00  0.00    -0.269 OA
ATOM     18  H   UNL A   1      30.448  25.145  26.792  1.00  0.00     0.164 HD
BRANCH  16  19
ATOM     19  C   UNL A   1      32.233  22.453  25.874  1.00  0.00     0.075 A 
ATOM     20  C   UNL A   1      34.054  18.811  24.574  1.00  0.00     0.044 C 
ATOM     21  C   UNL A   1      33.567  20.200  24.845  1.00  0.00    -0.048 A 
ATOM     22  C   UNL A   1      32.426  20.690  24.218  1.00  0.00     0.004 A 
ATOM     23  C   UNL A   1      34.150  20.960  25.857  1.00  0.00     0.043 A 
ATOM     24  C   UNL A   1      31.803  21.847  24.693  1.00  0.00     0.017 A 
ATOM     25  C   UNL A   1      33.472  22.058  26.388  1.00  0.00     0.136 A 
ATOM     26  F   UNL A   1      34.013  22.642  27.468  1.00  0.00    -0.206 F 
ENDBRANCH  16  19
ENDBRANCH  11  15
ENDBRANCH   8  10
ENDBRANCH   7   8
ENDBRANCH   6   7
ENDBRANCH   5   6
ENDBRANCH   4   5
ENDBRANCH   3   4
ENDBRANCH   2   3
ENDBRANCH   1   2
BRANCH   1  27
ATOM     27  C   UNL A   1      33.081  35.701  31.437  1.00  0.00     0.188 C 
BRANCH  27  28
ATOM     28  C   UNL A   1      33.527  34.824  32.599  1.00  0.00     0.188 C 
BRANCH  28  29
ATOM     29  O   UNL A   1      33.677  33.419  32.539  1.00  0.00    -0.376 OA
BRANCH  29  30
ATOM     30  C   UNL A   1      35.018  32.898  32.396  1.00  0.00     0.202 C 
BRANCH  30  31
ATOM     31  C   UNL A   1      35.771  32.864  31.043  1.00  0.00     0.261 C 
BRANCH  31  32
ATOM     32  O   UNL A   1      36.466  31.634  30.811  1.00  0.00    -0.460 OA
BRANCH  32  33
ATOM     33  C   UNL A   1      36.904  31.562  29.524  1.00  0.00     0.338 C 
ATOM     34  O   UNL A   1      37.654  32.347  28.995  1.00  0.00    -0.246 OA
BRANCH  33  35
ATOM     35  C   UNL A   1      36.505  30.240  28.886  1.00  0.00     0.060 A 
ATOM     36  C   UNL A   1      36.664  29.234  29.847  1.00  0.00     0.016 A 
ATOM     37  C   UNL A   1      37.069  30.116  27.631  1.00  0.00     0.016 A 
ATOM     38  C   UNL A   1      37.929  28.729  29.918  1.00  0.00     0.010 A 
ATOM     39  C   UNL A   1      38.328  29.622  27.654  1.00  0.00     0.010 A 
ATOM     40  C   UNL A   1      38.769  29.067  28.861  1.00  0.00    -0.014 A 
BRANCH  40  41
ATOM     41  C   UNL A   1      40.155  28.757  28.893  1.00  0.00     0.031 A 
ATOM     42  C   UNL A   1      40.410  27.346  28.659  1.00  0.00     0.074 A 
ATOM     43  C   UNL A   1      41.005  29.781  29.083  1.00  0.00     0.049 A 
ATOM     44  N   UNL A   1      41.325  26.668  29.242  1.00  0.00    -0.248 NA
ATOM     45  C   UNL A   1      39.472  26.513  27.892  1.00  0.00     0.031 C 
ATOM     46  C   UNL A   1      42.437  29.814  28.868  1.00  0.00     0.029 A 
ATOM     47  N   UNL A   1      40.704  31.007  29.706  1.00  0.00    -0.354 N 
ATOM     48  C   UNL A   1      41.371  25.477  28.560  1.00  0.00     0.074 A 
ATOM     49  C   UNL A   1      40.069  25.326  27.973  1.00  0.00     0.031 C 
ATOM     50  C   UNL A   1      42.949  30.841  29.571  1.00  0.00     0.029 A 
ATOM     51  C   UNL A   1      41.873  31.403  30.379  1.00  0.00     0.049 A 
ATOM     52  H   UNL A   1      39.847  31.490  29.677  1.00  0.00     0.167 HD
ATOM     53  C   UNL A   1      42.600  24.945  28.319  1.00  0.00     0.037 A 
ATOM     54  C   UNL A   1      41.886  31.441  31.741  1.00  0.00     0.037 A 
ATOM     55  C   UNL A   1      43.616  25.787  28.961  1.00  0.00     0.049 A 
ATOM     56  C   UNL A   1      42.787  30.382  32.335  1.00  0.00     0.074 A 
ATOM     57  C   UNL A   1      44.434  26.794  28.472  1.00  0.00     0.029 A 
ATOM     58  N   UNL A   1      43.575  25.958  30.341  1.00  0.00    -0.354 N 
ATOM     59  N   UNL A   1      43.070  29.241  31.763  1.00  0.00    -0.248 NA
ATOM     60  C   UNL A   1      43.492  30.574  33.594  1.00  0.00     0.031 C 
ATOM     61  C   UNL A   1      44.887  27.569  29.574  1.00  0.00     0.029 A 
ATOM     62  C   UNL A   1      44.344  27.035  30.731  1.00  0.00     0.049 A 
ATOM     63  H   UNL A   1      43.065  25.386  30.958  1.00  0.00     0.167 HD
ATOM     64  C   UNL A   1      43.999  28.566  32.522  1.00  0.00     0.074 A 
ATOM     65  C   UNL A   1      44.235  29.456  33.647  1.00  0.00     0.031 C 
ATOM     66  C   UNL A   1      44.508  27.349  32.146  1.00  0.00     0.037 A 
BRANCH  53  67
ATOM     67  C   UNL A   1      42.907  23.931  27.240  1.00  0.00     0.064 A 
ATOM     68  C   UNL A   1      42.640  22.564  27.470  1.00  0.00     0.173 A 
ATOM     69  C   UNL A   1      43.489  24.207  25.985  1.00  0.00     0.173 A 
ATOM     70  F   UNL A   1      42.014  22.151  28.580  1.00  0.00    -0.203 F 
ATOM     71  C   UNL A   1      42.999  21.563  26.564  1.00  0.00     0.198 A 
ATOM     72  C   UNL A   1      43.877  23.203  25.093  1.00  0.00     0.198 A 
ATOM     73  F   UNL A   1      43.660  25.451  25.536  1.00  0.00    -0.203 F 
ATOM     74  F   UNL A   1      42.722  20.283  26.850  1.00  0.00    -0.200 F 
ATOM     75  C   UNL A   1      43.637  21.880  25.384  1.00  0.00     0.200 A 
ATOM     76  F   UNL A   1      44.478  23.537  23.941  1.00  0.00    -0.200 F 
ATOM     77  F   UNL A   1      43.991  20.920  24.521  1.00  0.00    -0.200 F 
ENDBRANCH  53  67
BRANCH  54  78
ATOM     78  C   UNL A   1      40.654  31.991  32.373  1.00  0.00     0.064 A 
ATOM     79  C   UNL A   1      39.706  31.081  32.885  1.00  0.00     0.173 A 
ATOM     80  C   UNL A   1      40.496  33.338  32.719  1.00  0.00     0.173 A 
ATOM     81  F   UNL A   1      39.801  29.775  32.585  1.00  0.00    -0.203 F 
ATOM     82  C   UNL A   1      38.698  31.485  33.759  1.00  0.00     0.198 A 
ATOM     83  C   UNL A   1      39.468  33.746  33.581  1.00  0.00     0.198 A 
ATOM     84  F   UNL A   1      41.372  34.255  32.286  1.00  0.00    -0.203 F 
ATOM     85  F   UNL A   1      37.888  30.569  34.314  1.00  0.00    -0.200 F 
ATOM     86  C   UNL A   1      38.581  32.817  34.112  1.00  0.00     0.200 A 
ATOM     87  F   UNL A   1      39.391  35.029  33.968  1.00  0.00    -0.200 F 
ATOM     88  F   UNL A   1      37.671  33.188  35.026  1.00  0.00    -0.200 F 
ENDBRANCH  54  78
BRANCH  66  89
ATOM     89  C   UNL A   1      45.301  26.353  32.991  1.00  0.00     0.064 A 
ATOM     90  C   UNL A   1      44.758  25.512  33.974  1.00  0.00     0.173 A 
ATOM     91  C   UNL A   1      46.689  26.134  32.746  1.00  0.00     0.173 A 
ATOM     92  F   UNL A   1      43.447  25.468  34.226  1.00  0.00    -0.203 F 
ATOM     93  C   UNL A   1      45.539  24.614  34.710  1.00  0.00     0.198 A 
ATOM     94  C   UNL A   1      47.445  25.178  33.421  1.00  0.00     0.198 A 
ATOM     95  F   UNL A   1      47.376  26.816  31.822  1.00  0.00    -0.203 F 
ATOM     96  F   UNL A   1      44.969  23.894  35.686  1.00  0.00    -0.200 F 
ATOM     97  C   UNL A   1      46.878  24.438  34.427  1.00  0.00     0.200 A 
ATOM     98  F   UNL A   1      48.724  24.978  33.071  1.00  0.00    -0.200 F 
ATOM     99  F   UNL A   1      47.609  23.544  35.104  1.00  0.00    -0.200 F 
ENDBRANCH  66  89
ENDBRANCH  40  41
ENDBRANCH  33  35
ENDBRANCH  32  33
ENDBRANCH  31  32
ENDBRANCH  30  31
ENDBRANCH  29  30
ENDBRANCH  28  29
ENDBRANCH  27  28
ENDBRANCH   1  27
TORSDOF 22
ENDMDL
MODEL 2
REMARK VINA RESULT:     -11.0      1.979      2.825
REMARK SMILES Cc1ccc(C(=O)N[C@@H]2C=C[C@H](C(=O)OCCOCCOCCOCCOC(=O)c3ccc(-c4c5nc(c(-c6c(F)c(F)c(F)c(F)c6F)c6ccc([nH]6)c(-c6c(F)c(F)c(F)c(F)c6F)c6nc(c(-c7c(F)c(F)c(F)c(F)c7F)c7ccc4[nH]7)C=C6)C=C5)cc3)C2)c(F)c1
REMARK SMILES IDX 21 1 20 2 19 3 18 4 17 5 16 6 15 7 13 8 14 9 12 10 9 11
REMARK SMILES IDX 10 12 93 13 11 14 8 15 6 16 7 17 5 19 1 20 2 21 3 22 96 23
REMARK SMILES IDX 4 24 94 25 95 26 22 27 23 28 24 29 25 30 26 31 27 32 28 33
REMARK SMILES IDX 29 34 30 35 31 36 92 37 32 38 91 39 33 40 34 41 35 42 85 43
REMARK SMILES IDX 36 44 90 45 84 46 86 47 37 48 89 49 83 50 82 51 38 53 70 54
REMARK SMILES IDX 50 55 69 56 51 57 54 58 68 59 87 60 52 61 53 62 67 64 88 65
REMARK SMILES IDX 55 66 39 67 40 68 48 69 41 70 42 71 46 72 49 73 43 74 44 75
REMARK SMILES IDX 47 76 45 77 71 78 72 79 80 80 73 81 74 82 78 83 81 84 75 85
REMARK SMILES IDX 76 86 79 87 77 88 56 89 57 90 65 91 58 92 59 93 63 94 66 95
REMARK SMILES IDX 60 96 61 97 64 98 62 99
REMARK H PARENT 8 18 86 52 54 63
REMARK Flexibility Score: inf
ROOT
ATOM      1  O   UNL A   1      34.899  31.339  27.480  1.00  0.00    -0.377 OA
ENDROOT
BRANCH   1   2
ATOM      2  C   UNL A   1      34.177  30.300  26.826  1.00  0.00     0.188 C 
BRANCH   2   3
ATOM      3  C   UNL A   1      32.722  30.077  27.290  1.00  0.00     0.188 C 
BRANCH   3   4
ATOM      4  O   UNL A   1      32.227  28.786  26.986  1.00  0.00    -0.376 OA
BRANCH   4   5
ATOM      5  C   UNL A   1      32.392  28.316  25.651  1.00  0.00     0.202 C 
BRANCH   5   6
ATOM      6  C   UNL A   1      31.211  28.411  24.661  1.00  0.00     0.261 C 
BRANCH   6   7
ATOM      7  O   UNL A   1      30.951  27.233  23.871  1.00  0.00    -0.463 OA
BRANCH   7   8
ATOM      8  C   UNL A   1      30.849  27.419  22.529  1.00  0.00     0.312 C 
ATOM      9  O   UNL A   1      30.256  28.358  22.014  1.00  0.00    -0.252 OA
BRANCH   8  10
ATOM     10  C   UNL A   1      31.527  26.271  21.775  1.00  0.00     0.124 C 
ATOM     11  C   UNL A   1      32.762  24.490  23.005  1.00  0.00     0.106 C 
ATOM     12  C   UNL A   1      33.658  25.567  22.500  1.00  0.00    -0.006 C 
ATOM     13  C   UNL A   1      31.402  24.884  22.418  1.00  0.00     0.048 C 
ATOM     14  C   UNL A   1      33.007  26.485  21.779  1.00  0.00    -0.014 C 
BRANCH  11  15
ATOM     15  N   UNL A   1      32.803  24.418  24.454  1.00  0.00    -0.346 N 
ATOM     16  C   UNL A   1      33.651  23.760  25.328  1.00  0.00     0.254 C 
ATOM     17  O   UNL A   1      33.547  24.023  26.525  1.00  0.00    -0.269 OA
ATOM     18  H   UNL A   1      32.094  24.936  24.899  1.00  0.00     0.164 HD
BRANCH  16  19
ATOM     19  C   UNL A   1      34.585  22.683  24.889  1.00  0.00     0.075 A 
ATOM     20  C   UNL A   1      37.739  19.803  25.043  1.00  0.00     0.044 C 
ATOM     21  C   UNL A   1      36.616  20.742  24.735  1.00  0.00    -0.048 A 
ATOM     22  C   UNL A   1      35.293  20.363  24.944  1.00  0.00     0.004 A 
ATOM     23  C   UNL A   1      36.883  22.067  24.398  1.00  0.00     0.043 A 
ATOM     24  C   UNL A   1      34.279  21.323  24.955  1.00  0.00     0.017 A 
ATOM     25  C   UNL A   1      35.883  23.034  24.506  1.00  0.00     0.136 A 
ATOM     26  F   UNL A   1      36.251  24.311  24.328  1.00  0.00    -0.206 F 
ENDBRANCH  16  19
ENDBRANCH  11  15
ENDBRANCH   8  10
ENDBRANCH   7   8
ENDBRANCH   6   7
ENDBRANCH   5   6
ENDBRANCH   4   5
ENDBRANCH   3   4
ENDBRANCH   2   3
ENDBRANCH   1   2
BRANCH   1  27
ATOM     27  C   UNL A   1      34.105  32.393  28.047  1.00  0.00     0.188 C 
BRANCH  27  28
ATOM     28  C   UNL A   1      34.405  32.673  29.514  1.00  0.00     0.188 C 
BRANCH  28  29
ATOM     29  O   UNL A   1      35.280  33.682  29.981  1.00  0.00    -0.376 OA
BRANCH  29  30
ATOM     30  C   UNL A   1      36.382  34.056  29.124  1.00  0.00     0.202 C 
BRANCH  30  31
ATOM     31  C   UNL A   1      37.787  33.412  29.225  1.00  0.00     0.261 C 
BRANCH  31  32
ATOM     32  O   UNL A   1      37.862  32.115  28.624  1.00  0.00    -0.460 OA
BRANCH  32  33
ATOM     33  C   UNL A   1      37.815  31.139  29.572  1.00  0.00     0.338 C 
ATOM     34  O   UNL A   1      37.946  31.310  30.760  1.00  0.00    -0.246 OA
BRANCH  33  35
ATOM     35  C   UNL A   1      37.354  29.819  28.971  1.00  0.00     0.060 A 
ATOM     36  C   UNL A   1      37.347  28.862  29.992  1.00  0.00     0.016 A 
ATOM     37  C   UNL A   1      38.004  29.576  27.777  1.00  0.00     0.016 A 
ATOM     38  C   UNL A   1      38.553  28.258  30.197  1.00  0.00     0.010 A 
ATOM     39  C   UNL A   1      39.210  28.981  27.932  1.00  0.00     0.010 A 
ATOM     40  C   UNL A   1      39.501  28.464  29.199  1.00  0.00    -0.014 A 
BRANCH  40  41
ATOM     41  C   UNL A   1      40.848  28.043  29.365  1.00  0.00     0.031 A 
ATOM     42  C   UNL A   1      41.077  26.706  28.843  1.00  0.00     0.074 A 
ATOM     43  C   UNL A   1      41.699  28.924  29.918  1.00  0.00     0.049 A 
ATOM     44  N   UNL A   1      41.852  25.841  29.380  1.00  0.00    -0.248 NA
ATOM     45  C   UNL A   1      40.243  26.149  27.768  1.00  0.00     0.031 C 
ATOM     46  C   UNL A   1      43.147  28.888  29.936  1.00  0.00     0.029 A 
ATOM     47  N   UNL A   1      41.354  29.997  30.763  1.00  0.00    -0.354 N 
ATOM     48  C   UNL A   1      41.958  24.836  28.449  1.00  0.00     0.074 A 
ATOM     49  C   UNL A   1      40.765  24.929  27.654  1.00  0.00     0.031 C 
ATOM     50  C   UNL A   1      43.580  29.683  30.931  1.00  0.00     0.029 A 
ATOM     51  C   UNL A   1      42.411  30.132  31.678  1.00  0.00     0.049 A 
ATOM     52  H   UNL A   1      40.535  30.542  30.721  1.00  0.00     0.167 HD
ATOM     53  C   UNL A   1      43.185  24.275  28.276  1.00  0.00     0.037 A 
ATOM     54  C   UNL A   1      42.201  29.858  32.997  1.00  0.00     0.037 A 
ATOM     55  C   UNL A   1      44.117  24.863  29.245  1.00  0.00     0.049 A 
ATOM     56  C   UNL A   1      42.944  28.622  33.451  1.00  0.00     0.074 A 
ATOM     57  C   UNL A   1      45.048  25.886  29.138  1.00  0.00     0.029 A 
ATOM     58  N   UNL A   1      43.856  24.718  30.604  1.00  0.00    -0.354 N 
ATOM     59  N   UNL A   1      43.267  27.622  32.673  1.00  0.00    -0.248 NA
ATOM     60  C   UNL A   1      43.439  28.464  34.810  1.00  0.00     0.031 C 
ATOM     61  C   UNL A   1      45.346  26.349  30.448  1.00  0.00     0.029 A 
ATOM     62  C   UNL A   1      44.596  25.613  31.350  1.00  0.00     0.049 A 
ATOM     63  H   UNL A   1      43.226  24.064  30.983  1.00  0.00     0.167 HD
ATOM     64  C   UNL A   1      44.028  26.719  33.380  1.00  0.00     0.074 A 
ATOM     65  C   UNL A   1      44.113  27.307  34.707  1.00  0.00     0.031 C 
ATOM     66  C   UNL A   1      44.538  25.581  32.806  1.00  0.00     0.037 A 
BRANCH  53  67
ATOM     67  C   UNL A   1      43.621  23.512  27.045  1.00  0.00     0.064 A 
ATOM     68  C   UNL A   1      43.159  22.194  26.841  1.00  0.00     0.173 A 
ATOM     69  C   UNL A   1      44.506  23.978  26.052  1.00  0.00     0.173 A 
ATOM     70  F   UNL A   1      42.250  21.638  27.653  1.00  0.00    -0.203 F 
ATOM     71  C   UNL A   1      43.606  21.393  25.788  1.00  0.00     0.198 A 
ATOM     72  C   UNL A   1      44.978  23.167  25.016  1.00  0.00     0.198 A 
ATOM     73  F   UNL A   1      44.913  25.247  25.997  1.00  0.00    -0.203 F 
ATOM     74  F   UNL A   1      43.132  20.146  25.657  1.00  0.00    -0.200 F 
ATOM     75  C   UNL A   1      44.533  21.872  24.886  1.00  0.00     0.200 A 
ATOM     76  F   UNL A   1      45.864  23.662  24.138  1.00  0.00    -0.200 F 
ATOM     77  F   UNL A   1      44.970  21.100  23.883  1.00  0.00    -0.200 F 
ENDBRANCH  53  67
BRANCH  54  78
ATOM     78  C   UNL A   1      40.907  30.348  33.548  1.00  0.00     0.064 A 
ATOM     79  C   UNL A   1      40.808  31.710  33.901  1.00  0.00     0.173 A 
ATOM     80  C   UNL A   1      39.715  29.615  33.498  1.00  0.00     0.173 A 
ATOM     81  F   UNL A   1      41.916  32.466  33.970  1.00  0.00    -0.203 F 
ATOM     82  C   UNL A   1      39.576  32.325  34.120  1.00  0.00     0.198 A 
ATOM     83  C   UNL A   1      38.479  30.229  33.739  1.00  0.00     0.198 A 
ATOM     84  F   UNL A   1      39.732  28.321  33.148  1.00  0.00    -0.203 F 
ATOM     85  F   UNL A   1      39.519  33.648  34.339  1.00  0.00    -0.200 F 
ATOM     86  C   UNL A   1      38.409  31.586  34.033  1.00  0.00     0.200 A 
ATOM     87  F   UNL A   1      37.344  29.525  33.599  1.00  0.00    -0.200 F 
ATOM     88  F   UNL A   1      37.221  32.200  34.149  1.00  0.00    -0.200 F 
ENDBRANCH  54  78
BRANCH  66  89
ATOM     89  C   UNL A   1      45.135  24.358  33.501  1.00  0.00     0.064 A 
ATOM     90  C   UNL A   1      44.446  23.169  33.780  1.00  0.00     0.173 A 
ATOM     91  C   UNL A   1      46.523  24.313  33.826  1.00  0.00     0.173 A 
ATOM     92  F   UNL A   1      43.181  22.975  33.402  1.00  0.00    -0.203 F 
ATOM     93  C   UNL A   1      45.055  22.079  34.413  1.00  0.00     0.198 A 
ATOM     94  C   UNL A   1      47.145  23.194  34.376  1.00  0.00     0.198 A 
ATOM     95  F   UNL A   1      47.353  25.339  33.601  1.00  0.00    -0.203 F 
ATOM     96  F   UNL A   1      44.319  21.001  34.719  1.00  0.00    -0.200 F 
ATOM     97  C   UNL A   1      46.405  22.086  34.701  1.00  0.00     0.200 A 
ATOM     98  F   UNL A   1      48.472  23.203  34.574  1.00  0.00    -0.200 F 
ATOM     99  F   UNL A   1      46.990  21.022  35.264  1.00  0.00    -0.200 F 
ENDBRANCH  66  89
ENDBRANCH  40  41
ENDBRANCH  33  35
ENDBRANCH  32  33
ENDBRANCH  31  32
ENDBRANCH  30  31
ENDBRANCH  29  30
ENDBRANCH  28  29
ENDBRANCH  27  28
ENDBRANCH   1  27
TORSDOF 22
ENDMDL
MODEL 3
REMARK VINA RESULT:     -10.4      1.845      2.767
REMARK SMILES Cc1ccc(C(=O)N[C@@H]2C=C[C@H](C(=O)OCCOCCOCCOCCOC(=O)c3ccc(-c4c5nc(c(-c6c(F)c(F)c(F)c(F)c6F)c6ccc([nH]6)c(-c6c(F)c(F)c(F)c(F)c6F)c6nc(c(-c7c(F)c(F)c(F)c(F)c7F)c7ccc4[nH]7)C=C6)C=C5)cc3)C2)c(F)c1
REMARK SMILES IDX 21 1 20 2 19 3 18 4 17 5 16 6 15 7 13 8 14 9 12 10 9 11
REMARK SMILES IDX 10 12 93 13 11 14 8 15 6 16 7 17 5 19 1 20 2 21 3 22 96 23
REMARK SMILES IDX 4 24 94 25 95 26 22 27 23 28 24 29 25 30 26 31 27 32 28 33
REMARK SMILES IDX 29 34 30 35 31 36 92 37 32 38 91 39 33 40 34 41 35 42 85 43
REMARK SMILES IDX 36 44 90 45 84 46 86 47 37 48 89 49 83 50 82 51 38 53 70 54
REMARK SMILES IDX 50 55 69 56 51 57 54 58 68 59 87 60 52 61 53 62 67 64 88 65
REMARK SMILES IDX 55 66 39 67 40 68 48 69 41 70 42 71 46 72 49 73 43 74 44 75
REMARK SMILES IDX 47 76 45 77 71 78 72 79 80 80 73 81 74 82 78 83 81 84 75 85
REMARK SMILES IDX 76 86 79 87 77 88 56 89 57 90 65 91 58 92 59 93 63 94 66 95
REMARK SMILES IDX 60 96 61 97 64 98 62 99
REMARK H PARENT 8 18 86 52 54 63
REMARK Flexibility Score: inf
ROOT
ATOM      1  O   UNL A   1      34.529  32.108  27.682  1.00  0.00    -0.377 OA
ENDROOT
BRANCH   1   2
ATOM      2  C   UNL A   1      33.843  30.926  27.282  1.00  0.00     0.188 C 
BRANCH   2   3
ATOM      3  C   UNL A   1      32.493  31.124  26.560  1.00  0.00     0.188 C 
BRANCH   3   4
ATOM      4  O   UNL A   1      31.880  29.909  26.172  1.00  0.00    -0.376 OA
BRANCH   4   5
ATOM      5  C   UNL A   1      31.109  29.915  24.973  1.00  0.00     0.202 C 
BRANCH   5   6
ATOM      6  C   UNL A   1      31.287  28.774  23.949  1.00  0.00     0.261 C 
BRANCH   6   7
ATOM      7  O   UNL A   1      30.394  27.650  24.091  1.00  0.00    -0.463 OA
BRANCH   7   8
ATOM      8  C   UNL A   1      30.958  26.418  23.999  1.00  0.00     0.312 C 
ATOM      9  O   UNL A   1      31.041  25.783  22.956  1.00  0.00    -0.252 OA
BRANCH   8  10
ATOM     10  C   UNL A   1      31.416  25.933  25.377  1.00  0.00     0.124 C 
ATOM     11  C   UNL A   1      31.853  23.516  25.800  1.00  0.00     0.106 C 
ATOM     12  C   UNL A   1      30.488  23.934  26.220  1.00  0.00    -0.006 C 
ATOM     13  C   UNL A   1      32.494  24.842  25.377  1.00  0.00     0.048 C 
ATOM     14  C   UNL A   1      30.277  25.245  26.061  1.00  0.00    -0.014 C 
BRANCH  11  15
ATOM     15  N   UNL A   1      31.788  22.510  24.755  1.00  0.00    -0.346 N 
ATOM     16  C   UNL A   1      32.745  21.670  24.214  1.00  0.00     0.254 C 
ATOM     17  O   UNL A   1      32.359  20.789  23.447  1.00  0.00    -0.269 OA
ATOM     18  H   UNL A   1      30.894  22.407  24.356  1.00  0.00     0.164 HD
BRANCH  16  19
ATOM     19  C   UNL A   1      34.208  21.865  24.433  1.00  0.00     0.075 A 
ATOM     20  C   UNL A   1      37.868  23.694  25.668  1.00  0.00     0.044 C 
ATOM     21  C   UNL A   1      36.742  22.868  25.131  1.00  0.00    -0.048 A 
ATOM     22  C   UNL A   1      36.123  21.907  25.924  1.00  0.00     0.004 A 
ATOM     23  C   UNL A   1      36.185  23.167  23.889  1.00  0.00     0.043 A 
ATOM     24  C   UNL A   1      34.895  21.363  25.541  1.00  0.00     0.017 A 
ATOM     25  C   UNL A   1      34.915  22.695  23.558  1.00  0.00     0.136 A 
ATOM     26  F   UNL A   1      34.372  23.156  22.422  1.00  0.00    -0.206 F 
ENDBRANCH  16  19
ENDBRANCH  11  15
ENDBRANCH   8  10
ENDBRANCH   7   8
ENDBRANCH   6   7
ENDBRANCH   5   6
ENDBRANCH   4   5
ENDBRANCH   3   4
ENDBRANCH   2   3
ENDBRANCH   1   2
BRANCH   1  27
ATOM     27  C   UNL A   1      33.697  33.221  28.048  1.00  0.00     0.188 C 
BRANCH  27  28
ATOM     28  C   UNL A   1      34.412  34.283  28.872  1.00  0.00     0.188 C 
BRANCH  28  29
ATOM     29  O   UNL A   1      34.789  34.134  30.228  1.00  0.00    -0.376 OA
BRANCH  29  30
ATOM     30  C   UNL A   1      35.751  33.102  30.542  1.00  0.00     0.202 C 
BRANCH  30  31
ATOM     31  C   UNL A   1      37.172  33.056  29.927  1.00  0.00     0.261 C 
BRANCH  31  32
ATOM     32  O   UNL A   1      37.282  32.156  28.819  1.00  0.00    -0.460 OA
BRANCH  32  33
ATOM     33  C   UNL A   1      38.110  31.118  29.121  1.00  0.00     0.338 C 
ATOM     34  O   UNL A   1      38.970  31.131  29.968  1.00  0.00    -0.246 OA
BRANCH  33  35
ATOM     35  C   UNL A   1      37.675  29.849  28.403  1.00  0.00     0.060 A 
ATOM     36  C   UNL A   1      37.591  28.825  29.353  1.00  0.00     0.016 A 
ATOM     37  C   UNL A   1      38.399  29.678  27.239  1.00  0.00     0.016 A 
ATOM     38  C   UNL A   1      38.774  28.190  29.593  1.00  0.00     0.010 A 
ATOM     39  C   UNL A   1      39.585  29.055  27.429  1.00  0.00     0.010 A 
ATOM     40  C   UNL A   1      39.788  28.448  28.675  1.00  0.00    -0.014 A 
BRANCH  40  41
ATOM     41  C   UNL A   1      41.116  27.996  28.897  1.00  0.00     0.031 A 
ATOM     42  C   UNL A   1      41.303  26.613  28.493  1.00  0.00     0.074 A 
ATOM     43  C   UNL A   1      41.991  28.891  29.388  1.00  0.00     0.049 A 
ATOM     44  N   UNL A   1      42.039  25.770  29.114  1.00  0.00    -0.248 NA
ATOM     45  C   UNL A   1      40.464  25.996  27.456  1.00  0.00     0.031 C 
ATOM     46  C   UNL A   1      43.436  28.807  29.432  1.00  0.00     0.029 A 
ATOM     47  N   UNL A   1      41.673  30.043  30.133  1.00  0.00    -0.354 N 
ATOM     48  C   UNL A   1      42.121  24.687  28.273  1.00  0.00     0.074 A 
ATOM     49  C   UNL A   1      40.944  24.753  27.454  1.00  0.00     0.031 C 
ATOM     50  C   UNL A   1      43.885  29.667  30.363  1.00  0.00     0.029 A 
ATOM     51  C   UNL A   1      42.723  30.219  31.050  1.00  0.00     0.049 A 
ATOM     52  H   UNL A   1      40.876  30.611  30.032  1.00  0.00     0.167 HD
ATOM     53  C   UNL A   1      43.330  24.070  28.168  1.00  0.00     0.037 A 
ATOM     54  C   UNL A   1      42.485  30.065  32.384  1.00  0.00     0.037 A 
ATOM     55  C   UNL A   1      44.269  24.706  29.099  1.00  0.00     0.049 A 
ATOM     56  C   UNL A   1      43.177  28.847  32.953  1.00  0.00     0.074 A 
ATOM     57  C   UNL A   1      45.238  25.683  28.921  1.00  0.00     0.029 A 
ATOM     58  N   UNL A   1      43.985  24.686  30.461  1.00  0.00    -0.354 N 
ATOM     59  N   UNL A   1      43.474  27.774  32.268  1.00  0.00    -0.248 NA
ATOM     60  C   UNL A   1      43.648  28.788  34.328  1.00  0.00     0.031 C 
ATOM     61  C   UNL A   1      45.535  26.245  30.193  1.00  0.00     0.029 A 
ATOM     62  C   UNL A   1      44.747  25.614  31.141  1.00  0.00     0.049 A 
ATOM     63  H   UNL A   1      43.327  24.089  30.884  1.00  0.00     0.167 HD
ATOM     64  C   UNL A   1      44.192  26.908  33.061  1.00  0.00     0.074 A 
ATOM     65  C   UNL A   1      44.281  27.603  34.334  1.00  0.00     0.031 C 
ATOM     66  C   UNL A   1      44.668  25.709  32.594  1.00  0.00     0.037 A 
BRANCH  53  67
ATOM     67  C   UNL A   1      43.755  23.191  27.014  1.00  0.00     0.064 A 
ATOM     68  C   UNL A   1      44.597  23.715  26.010  1.00  0.00     0.173 A 
ATOM     69  C   UNL A   1      43.358  21.854  26.801  1.00  0.00     0.173 A 
ATOM     70  F   UNL A   1      45.125  24.942  26.110  1.00  0.00    -0.203 F 
ATOM     71  C   UNL A   1      44.940  22.997  24.862  1.00  0.00     0.198 A 
ATOM     72  C   UNL A   1      43.674  21.146  25.637  1.00  0.00     0.198 A 
ATOM     73  F   UNL A   1      42.698  21.150  27.721  1.00  0.00    -0.203 F 
ATOM     74  F   UNL A   1      45.737  23.559  23.944  1.00  0.00    -0.200 F 
ATOM     75  C   UNL A   1      44.461  21.719  24.664  1.00  0.00     0.200 A 
ATOM     76  F   UNL A   1      43.214  19.897  25.477  1.00  0.00    -0.200 F 
ATOM     77  F   UNL A   1      44.779  21.035  23.559  1.00  0.00    -0.200 F 
ENDBRANCH  53  67
BRANCH  54  78
ATOM     78  C   UNL A   1      41.203  30.645  32.871  1.00  0.00     0.064 A 
ATOM     79  C   UNL A   1      40.075  29.801  32.943  1.00  0.00     0.173 A 
ATOM     80  C   UNL A   1      41.105  31.893  33.499  1.00  0.00     0.173 A 
ATOM     81  F   UNL A   1      40.105  28.592  32.357  1.00  0.00    -0.203 F 
ATOM     82  C   UNL A   1      38.938  30.153  33.668  1.00  0.00     0.198 A 
ATOM     83  C   UNL A   1      39.952  32.255  34.209  1.00  0.00     0.198 A 
ATOM     84  F   UNL A   1      42.145  32.738  33.489  1.00  0.00    -0.203 F 
ATOM     85  F   UNL A   1      37.935  29.272  33.808  1.00  0.00    -0.200 F 
ATOM     86  C   UNL A   1      38.878  31.379  34.307  1.00  0.00     0.200 A 
ATOM     87  F   UNL A   1      39.917  33.420  34.876  1.00  0.00    -0.200 F 
ATOM     88  F   UNL A   1      37.823  31.675  35.082  1.00  0.00    -0.200 F 
ENDBRANCH  54  78
BRANCH  66  89
ATOM     89  C   UNL A   1      45.212  24.529  33.398  1.00  0.00     0.064 A 
ATOM     90  C   UNL A   1      44.496  23.365  33.712  1.00  0.00     0.173 A 
ATOM     91  C   UNL A   1      46.578  24.496  33.807  1.00  0.00     0.173 A 
ATOM     92  F   UNL A   1      43.253  23.155  33.273  1.00  0.00    -0.203 F 
ATOM     93  C   UNL A   1      45.056  22.314  34.448  1.00  0.00     0.198 A 
ATOM     94  C   UNL A   1      47.156  23.411  34.463  1.00  0.00     0.198 A 
ATOM     95  F   UNL A   1      47.430  25.500  33.566  1.00  0.00    -0.203 F 
ATOM     96  F   UNL A   1      44.293  21.262  34.778  1.00  0.00    -0.200 F 
ATOM     97  C   UNL A   1      46.387  22.330  34.814  1.00  0.00     0.200 A 
ATOM     98  F   UNL A   1      48.468  23.425  34.737  1.00  0.00    -0.200 F 
ATOM     99  F   UNL A   1      46.927  21.302  35.477  1.00  0.00    -0.200 F 
ENDBRANCH  66  89
ENDBRANCH  40  41
ENDBRANCH  33  35
ENDBRANCH  32  33
ENDBRANCH  31  32
ENDBRANCH  30  31
ENDBRANCH  29  30
ENDBRANCH  28  29
ENDBRANCH  27  28
ENDBRANCH   1  27
TORSDOF 22
ENDMDL
