MODEL 1
REMARK VINA RESULT:     -11.2      0.000      0.000
REMARK SMILES COc1ccc(Cl)c2c1N[C@@H](c1ccc(C(=O)OCCOCCOCCOCCOC(=O)c3ccc(-c4c5nc(c(-c6c(F)c(F)c(F)c(F)c6F)c6ccc([nH]6)c(-c6c(F)c(F)c(F)c(F)c6F)c6nc(c(-c7c(F)c(F)c(F)c(F)c7F)c7ccc4[nH]7)C=C6)C=C5)cc3)cc1)[C@@H]1CC=C[C@H]21
REMARK SMILES IDX 24 1 23 2 22 3 21 4 20 5 19 6 18 7 16 8 17 9 15 10 12 11
REMARK SMILES IDX 13 12 97 13 14 14 96 15 11 16 3 17 4 18 9 19 5 20 8 21 10 22
REMARK SMILES IDX 6 23 102 24 7 26 98 27 101 28 99 29 100 30 2 31 1 32 25 33
REMARK SMILES IDX 26 34 27 35 28 36 29 37 30 38 31 39 32 40 33 41 34 42 95 43
REMARK SMILES IDX 35 44 94 45 36 46 37 47 38 48 88 49 39 50 93 51 87 52 89 53
REMARK SMILES IDX 40 54 92 55 86 56 85 57 41 59 73 60 53 61 72 62 54 63 57 64
REMARK SMILES IDX 71 65 90 66 55 67 56 68 70 70 91 71 58 72 42 73 43 74 51 75
REMARK SMILES IDX 44 76 45 77 49 78 52 79 46 80 47 81 50 82 48 83 74 84 75 85
REMARK SMILES IDX 83 86 76 87 77 88 81 89 84 90 78 91 79 92 82 93 80 94 59 95
REMARK SMILES IDX 60 96 68 97 61 98 62 99 66 100 69 101 63 102 64 103 67 104
REMARK SMILES IDX 65 105
REMARK H PARENT 10 25 89 58 57 69
REMARK Flexibility Score: inf
ROOT
ATOM      1  O   UNL A   1      32.839  37.098  31.875  1.00  0.00    -0.377 OA
ENDROOT
BRANCH   1   2
ATOM      2  C   UNL A   1      33.443  37.212  30.596  1.00  0.00     0.188 C 
BRANCH   2   3
ATOM      3  C   UNL A   1      32.580  36.907  29.356  1.00  0.00     0.188 C 
BRANCH   3   4
ATOM      4  O   UNL A   1      32.757  35.593  28.843  1.00  0.00    -0.376 OA
BRANCH   4   5
ATOM      5  C   UNL A   1      34.071  35.063  28.802  1.00  0.00     0.202 C 
BRANCH   5   6
ATOM      6  C   UNL A   1      34.283  33.670  29.410  1.00  0.00     0.261 C 
BRANCH   6   7
ATOM      7  O   UNL A   1      33.894  32.577  28.572  1.00  0.00    -0.460 OA
BRANCH   7   8
ATOM      8  C   UNL A   1      34.830  31.633  28.339  1.00  0.00     0.338 C 
ATOM      9  O   UNL A   1      35.947  31.586  28.823  1.00  0.00    -0.246 OA
BRANCH   8  10
ATOM     10  C   UNL A   1      34.208  30.539  27.554  1.00  0.00     0.060 A 
ATOM     11  C   UNL A   1      33.128  28.435  26.031  1.00  0.00    -0.025 A 
ATOM     12  C   UNL A   1      34.414  28.330  26.591  1.00  0.00     0.007 A 
ATOM     13  C   UNL A   1      32.352  29.562  26.355  1.00  0.00     0.007 A 
ATOM     14  C   UNL A   1      34.945  29.368  27.357  1.00  0.00     0.016 A 
ATOM     15  C   UNL A   1      32.898  30.625  27.077  1.00  0.00     0.016 A 
BRANCH  11  16
ATOM     16  C   UNL A   1      32.622  27.448  24.974  1.00  0.00     0.114 C 
ATOM     17  C   UNL A   1      33.743  23.913  24.342  1.00  0.00     0.142 A 
ATOM     18  C   UNL A   1      33.802  22.956  23.327  1.00  0.00     0.050 A 
ATOM     19  C   UNL A   1      33.312  25.232  24.087  1.00  0.00     0.083 A 
ATOM     20  C   UNL A   1      33.403  23.294  22.040  1.00  0.00     0.025 A 
ATOM     21  C   UNL A   1      32.920  25.574  22.779  1.00  0.00     0.005 A 
ATOM     22  N   UNL A   1      33.327  26.182  25.096  1.00  0.00    -0.375 N 
ATOM     23  C   UNL A   1      32.970  24.592  21.766  1.00  0.00     0.047 A 
ATOM     24  C   UNL A   1      32.543  26.995  22.462  1.00  0.00     0.051 C 
ATOM     25  H   UNL A   1      33.831  25.995  25.920  1.00  0.00     0.161 HD
ATOM     26  Cl  UNL A   1      32.553  24.944  20.121  1.00  0.00    -0.084 Cl
ATOM     27  C   UNL A   1      32.849  28.037  23.560  1.00  0.00     0.031 C 
ATOM     28  C   UNL A   1      31.075  27.235  22.217  1.00  0.00    -0.023 C 
ATOM     29  C   UNL A   1      31.885  29.186  23.199  1.00  0.00     0.034 C 
ATOM     30  C   UNL A   1      30.716  28.460  22.615  1.00  0.00    -0.030 C 
BRANCH  17  31
ATOM     31  O   UNL A   1      34.226  23.531  25.572  1.00  0.00    -0.495 OA
ATOM     32  C   UNL A   1      35.253  22.545  25.460  1.00  0.00     0.278 C 
ENDBRANCH  17  31
ENDBRANCH  11  16
ENDBRANCH   8  10
ENDBRANCH   7   8
ENDBRANCH   6   7
ENDBRANCH   5   6
ENDBRANCH   4   5
ENDBRANCH   3   4
ENDBRANCH   2   3
ENDBRANCH   1   2
BRANCH   1  33
ATOM     33  C   UNL A   1      33.004  35.891  32.617  1.00  0.00     0.188 C 
BRANCH  33  34
ATOM     34  C   UNL A   1      34.203  35.671  33.574  1.00  0.00     0.188 C 
BRANCH  34  35
ATOM     35  O   UNL A   1      35.475  35.678  32.947  1.00  0.00    -0.376 OA
BRANCH  35  36
ATOM     36  C   UNL A   1      36.190  34.457  32.917  1.00  0.00     0.202 C 
BRANCH  36  37
ATOM     37  C   UNL A   1      35.432  33.209  33.388  1.00  0.00     0.261 C 
BRANCH  37  38
ATOM     38  O   UNL A   1      36.082  31.949  33.157  1.00  0.00    -0.460 OA
BRANCH  38  39
ATOM     39  C   UNL A   1      37.220  31.694  33.837  1.00  0.00     0.338 C 
ATOM     40  O   UNL A   1      37.403  31.775  35.039  1.00  0.00    -0.246 OA
BRANCH  39  41
ATOM     41  C   UNL A   1      38.180  31.127  32.870  1.00  0.00     0.060 A 
ATOM     42  C   UNL A   1      39.302  30.427  33.336  1.00  0.00     0.016 A 
ATOM     43  C   UNL A   1      37.947  31.262  31.500  1.00  0.00     0.016 A 
ATOM     44  C   UNL A   1      40.198  29.863  32.429  1.00  0.00     0.010 A 
ATOM     45  C   UNL A   1      38.868  30.735  30.593  1.00  0.00     0.010 A 
ATOM     46  C   UNL A   1      40.010  30.058  31.053  1.00  0.00    -0.014 A 
BRANCH  46  47
ATOM     47  C   UNL A   1      41.131  29.790  30.123  1.00  0.00     0.031 A 
ATOM     48  C   UNL A   1      41.210  28.417  29.514  1.00  0.00     0.074 A 
ATOM     49  C   UNL A   1      42.037  30.732  29.805  1.00  0.00     0.049 A 
ATOM     50  N   UNL A   1      42.103  27.919  28.699  1.00  0.00    -0.248 NA
ATOM     51  C   UNL A   1      40.129  27.480  29.868  1.00  0.00     0.031 C 
ATOM     52  C   UNL A   1      42.033  32.112  30.287  1.00  0.00     0.029 A 
ATOM     53  N   UNL A   1      43.144  30.662  28.995  1.00  0.00    -0.354 N 
ATOM     54  C   UNL A   1      41.680  26.625  28.431  1.00  0.00     0.074 A 
ATOM     55  C   UNL A   1      40.477  26.394  29.195  1.00  0.00     0.031 C 
ATOM     56  C   UNL A   1      43.093  32.758  29.768  1.00  0.00     0.029 A 
ATOM     57  C   UNL A   1      43.867  31.829  28.943  1.00  0.00     0.049 A 
ATOM     58  H   UNL A   1      43.396  29.851  28.498  1.00  0.00     0.167 HD
ATOM     59  C   UNL A   1      42.240  25.712  27.605  1.00  0.00     0.037 A 
ATOM     60  C   UNL A   1      45.028  32.101  28.312  1.00  0.00     0.037 A 
ATOM     61  C   UNL A   1      43.446  25.933  26.858  1.00  0.00     0.049 A 
ATOM     62  C   UNL A   1      45.697  31.018  27.497  1.00  0.00     0.074 A 
ATOM     63  C   UNL A   1      44.099  25.063  26.005  1.00  0.00     0.029 A 
ATOM     64  N   UNL A   1      44.182  27.107  26.881  1.00  0.00    -0.354 N 
ATOM     65  N   UNL A   1      45.279  29.805  27.226  1.00  0.00    -0.248 NA
ATOM     66  C   UNL A   1      47.002  31.343  26.901  1.00  0.00     0.031 C 
ATOM     67  C   UNL A   1      45.259  25.692  25.549  1.00  0.00     0.029 A 
ATOM     68  C   UNL A   1      45.299  26.973  26.075  1.00  0.00     0.049 A 
ATOM     69  H   UNL A   1      43.947  27.914  27.393  1.00  0.00     0.167 HD
ATOM     70  C   UNL A   1      46.248  29.239  26.406  1.00  0.00     0.074 A 
ATOM     71  C   UNL A   1      47.269  30.245  26.209  1.00  0.00     0.031 C 
ATOM     72  C   UNL A   1      46.293  27.995  25.869  1.00  0.00     0.037 A 
BRANCH  59  73
ATOM     73  C   UNL A   1      41.558  24.388  27.457  1.00  0.00     0.064 A 
ATOM     74  C   UNL A   1      40.387  24.257  26.696  1.00  0.00     0.173 A 
ATOM     75  C   UNL A   1      42.130  23.227  27.998  1.00  0.00     0.173 A 
ATOM     76  F   UNL A   1      39.794  25.342  26.176  1.00  0.00    -0.203 F 
ATOM     77  C   UNL A   1      39.816  23.006  26.476  1.00  0.00     0.198 A 
ATOM     78  C   UNL A   1      41.570  21.977  27.754  1.00  0.00     0.198 A 
ATOM     79  F   UNL A   1      43.248  23.304  28.734  1.00  0.00    -0.203 F 
ATOM     80  F   UNL A   1      38.689  22.904  25.758  1.00  0.00    -0.200 F 
ATOM     81  C   UNL A   1      40.416  21.867  26.992  1.00  0.00     0.200 A 
ATOM     82  F   UNL A   1      42.157  20.876  28.242  1.00  0.00    -0.200 F 
ATOM     83  F   UNL A   1      39.882  20.661  26.753  1.00  0.00    -0.200 F 
ENDBRANCH  59  73
BRANCH  60  84
ATOM     84  C   UNL A   1      45.653  33.448  28.421  1.00  0.00     0.064 A 
ATOM     85  C   UNL A   1      45.315  34.475  27.527  1.00  0.00     0.173 A 
ATOM     86  C   UNL A   1      46.640  33.721  29.380  1.00  0.00     0.173 A 
ATOM     87  F   UNL A   1      44.399  34.256  26.572  1.00  0.00    -0.203 F 
ATOM     88  C   UNL A   1      45.956  35.712  27.571  1.00  0.00     0.198 A 
ATOM     89  C   UNL A   1      47.259  34.970  29.442  1.00  0.00     0.198 A 
ATOM     90  F   UNL A   1      47.011  32.775  30.253  1.00  0.00    -0.203 F 
ATOM     91  F   UNL A   1      45.656  36.652  26.665  1.00  0.00    -0.200 F 
ATOM     92  C   UNL A   1      46.925  35.960  28.532  1.00  0.00     0.200 A 
ATOM     93  F   UNL A   1      48.189  35.208  30.378  1.00  0.00    -0.200 F 
ATOM     94  F   UNL A   1      47.546  37.146  28.570  1.00  0.00    -0.200 F 
ENDBRANCH  60  84
BRANCH  72  95
ATOM     95  C   UNL A   1      47.459  27.645  24.989  1.00  0.00     0.064 A 
ATOM     96  C   UNL A   1      48.579  26.972  25.494  1.00  0.00     0.173 A 
ATOM     97  C   UNL A   1      47.405  27.892  23.608  1.00  0.00     0.173 A 
ATOM     98  F   UNL A   1      48.682  26.721  26.807  1.00  0.00    -0.203 F 
ATOM     99  C   UNL A   1      49.611  26.568  24.649  1.00  0.00     0.198 A 
ATOM    100  C   UNL A   1      48.422  27.458  22.763  1.00  0.00     0.198 A 
ATOM    101  F   UNL A   1      46.348  28.521  23.073  1.00  0.00    -0.203 F 
ATOM    102  F   UNL A   1      50.687  25.952  25.158  1.00  0.00    -0.200 F 
ATOM    103  C   UNL A   1      49.525  26.800  23.284  1.00  0.00     0.200 A 
ATOM    104  F   UNL A   1      48.327  27.662  21.442  1.00  0.00    -0.200 F 
ATOM    105  F   UNL A   1      50.506  26.386  22.470  1.00  0.00    -0.200 F 
ENDBRANCH  72  95
ENDBRANCH  46  47
ENDBRANCH  39  41
ENDBRANCH  38  39
ENDBRANCH  37  38
ENDBRANCH  36  37
ENDBRANCH  35  36
ENDBRANCH  34  35
ENDBRANCH  33  34
ENDBRANCH   1  33
TORSDOF 22
ENDMDL
MODEL 2
REMARK VINA RESULT:     -10.6      3.619      7.984
REMARK SMILES COc1ccc(Cl)c2c1N[C@@H](c1ccc(C(=O)OCCOCCOCCOCCOC(=O)c3ccc(-c4c5nc(c(-c6c(F)c(F)c(F)c(F)c6F)c6ccc([nH]6)c(-c6c(F)c(F)c(F)c(F)c6F)c6nc(c(-c7c(F)c(F)c(F)c(F)c7F)c7ccc4[nH]7)C=C6)C=C5)cc3)cc1)[C@@H]1CC=C[C@H]21
REMARK SMILES IDX 24 1 23 2 22 3 21 4 20 5 19 6 18 7 16 8 17 9 15 10 12 11
REMARK SMILES IDX 13 12 97 13 14 14 96 15 11 16 3 17 4 18 9 19 5 20 8 21 10 22
REMARK SMILES IDX 6 23 102 24 7 26 98 27 101 28 99 29 100 30 2 31 1 32 25 33
REMARK SMILES IDX 26 34 27 35 28 36 29 37 30 38 31 39 32 40 33 41 34 42 95 43
REMARK SMILES IDX 35 44 94 45 36 46 37 47 38 48 88 49 39 50 93 51 87 52 89 53
REMARK SMILES IDX 40 54 92 55 86 56 85 57 41 59 73 60 53 61 72 62 54 63 57 64
REMARK SMILES IDX 71 65 90 66 55 67 56 68 70 70 91 71 58 72 42 73 43 74 51 75
REMARK SMILES IDX 44 76 45 77 49 78 52 79 46 80 47 81 50 82 48 83 74 84 75 85
REMARK SMILES IDX 83 86 76 87 77 88 81 89 84 90 78 91 79 92 82 93 80 94 59 95
REMARK SMILES IDX 60 96 68 97 61 98 62 99 66 100 69 101 63 102 64 103 67 104
REMARK SMILES IDX 65 105
REMARK H PARENT 10 25 89 58 57 69
REMARK Flexibility Score: inf
ROOT
ATOM      1  O   UNL A   1      32.294  35.844  30.646  1.00  0.00    -0.377 OA
ENDROOT
BRANCH   1   2
ATOM      2  C   UNL A   1      33.176  36.167  29.582  1.00  0.00     0.188 C 
BRANCH   2   3
ATOM      3  C   UNL A   1      33.980  35.024  28.932  1.00  0.00     0.188 C 
BRANCH   3   4
ATOM      4  O   UNL A   1      33.590  33.728  29.369  1.00  0.00    -0.376 OA
BRANCH   4   5
ATOM      5  C   UNL A   1      34.599  32.845  29.826  1.00  0.00     0.202 C 
BRANCH   5   6
ATOM      6  C   UNL A   1      35.785  32.590  28.884  1.00  0.00     0.261 C 
BRANCH   6   7
ATOM      7  O   UNL A   1      36.512  31.385  29.137  1.00  0.00    -0.460 OA
BRANCH   7   8
ATOM      8  C   UNL A   1      37.753  31.526  29.651  1.00  0.00     0.338 C 
ATOM      9  O   UNL A   1      38.134  32.417  30.389  1.00  0.00    -0.246 OA
BRANCH   8  10
ATOM     10  C   UNL A   1      38.531  30.303  29.339  1.00  0.00     0.060 A 
ATOM     11  C   UNL A   1      40.052  28.035  28.662  1.00  0.00    -0.025 A 
ATOM     12  C   UNL A   1      40.522  29.328  28.371  1.00  0.00     0.007 A 
ATOM     13  C   UNL A   1      38.866  27.911  29.408  1.00  0.00     0.007 A 
ATOM     14  C   UNL A   1      39.774  30.453  28.718  1.00  0.00     0.016 A 
ATOM     15  C   UNL A   1      38.090  29.031  29.712  1.00  0.00     0.016 A 
BRANCH  11  16
ATOM     16  C   UNL A   1      40.702  26.783  28.065  1.00  0.00     0.114 C 
ATOM     17  C   UNL A   1      39.032  23.695  26.711  1.00  0.00     0.142 A 
ATOM     18  C   UNL A   1      39.271  22.338  26.491  1.00  0.00     0.050 A 
ATOM     19  C   UNL A   1      39.966  24.508  27.387  1.00  0.00     0.083 A 
ATOM     20  C   UNL A   1      40.465  21.771  26.920  1.00  0.00     0.025 A 
ATOM     21  C   UNL A   1      41.169  23.928  27.831  1.00  0.00     0.005 A 
ATOM     22  N   UNL A   1      39.676  25.837  27.653  1.00  0.00    -0.375 N 
ATOM     23  C   UNL A   1      41.405  22.557  27.588  1.00  0.00     0.047 A 
ATOM     24  C   UNL A   1      42.142  24.751  28.632  1.00  0.00     0.051 C 
ATOM     25  H   UNL A   1      38.748  26.150  27.561  1.00  0.00     0.161 HD
ATOM     26  Cl  UNL A   1      42.837  21.757  28.144  1.00  0.00    -0.084 Cl
ATOM     27  C   UNL A   1      41.627  26.123  29.118  1.00  0.00     0.031 C 
ATOM     28  C   UNL A   1      43.407  25.140  27.911  1.00  0.00    -0.023 C 
ATOM     29  C   UNL A   1      42.938  26.895  29.369  1.00  0.00     0.034 C 
ATOM     30  C   UNL A   1      43.855  26.327  28.335  1.00  0.00    -0.030 C 
BRANCH  17  31
ATOM     31  O   UNL A   1      37.798  24.169  26.330  1.00  0.00    -0.495 OA
ATOM     32  C   UNL A   1      37.227  23.387  25.281  1.00  0.00     0.278 C 
ENDBRANCH  17  31
ENDBRANCH  11  16
ENDBRANCH   8  10
ENDBRANCH   7   8
ENDBRANCH   6   7
ENDBRANCH   5   6
ENDBRANCH   4   5
ENDBRANCH   3   4
ENDBRANCH   2   3
ENDBRANCH   1   2
BRANCH   1  33
ATOM     33  C   UNL A   1      32.775  35.897  31.988  1.00  0.00     0.188 C 
BRANCH  33  34
ATOM     34  C   UNL A   1      34.032  36.714  32.379  1.00  0.00     0.188 C 
BRANCH  34  35
ATOM     35  O   UNL A   1      34.959  36.023  33.202  1.00  0.00    -0.376 OA
BRANCH  35  36
ATOM     36  C   UNL A   1      34.573  34.750  33.686  1.00  0.00     0.202 C 
BRANCH  36  37
ATOM     37  C   UNL A   1      35.412  33.556  33.211  1.00  0.00     0.261 C 
BRANCH  37  38
ATOM     38  O   UNL A   1      36.808  33.591  33.546  1.00  0.00    -0.460 OA
BRANCH  38  39
ATOM     39  C   UNL A   1      37.219  32.866  34.608  1.00  0.00     0.338 C 
ATOM     40  O   UNL A   1      36.653  32.728  35.679  1.00  0.00    -0.246 OA
BRANCH  39  41
ATOM     41  C   UNL A   1      38.418  32.119  34.181  1.00  0.00     0.060 A 
ATOM     42  C   UNL A   1      39.681  32.510  34.645  1.00  0.00     0.016 A 
ATOM     43  C   UNL A   1      38.281  31.008  33.345  1.00  0.00     0.016 A 
ATOM     44  C   UNL A   1      40.815  31.792  34.269  1.00  0.00     0.010 A 
ATOM     45  C   UNL A   1      39.422  30.316  32.934  1.00  0.00     0.010 A 
ATOM     46  C   UNL A   1      40.695  30.721  33.372  1.00  0.00    -0.014 A 
BRANCH  46  47
ATOM     47  C   UNL A   1      41.905  30.205  32.693  1.00  0.00     0.031 A 
ATOM     48  C   UNL A   1      42.450  31.011  31.546  1.00  0.00     0.074 A 
ATOM     49  C   UNL A   1      42.521  29.076  33.088  1.00  0.00     0.049 A 
ATOM     50  N   UNL A   1      43.473  30.766  30.768  1.00  0.00    -0.248 NA
ATOM     51  C   UNL A   1      41.748  32.270  31.238  1.00  0.00     0.031 C 
ATOM     52  C   UNL A   1      42.120  28.242  34.219  1.00  0.00     0.029 A 
ATOM     53  N   UNL A   1      43.621  28.437  32.572  1.00  0.00    -0.354 N 
ATOM     54  C   UNL A   1      43.545  31.845  29.899  1.00  0.00     0.074 A 
ATOM     55  C   UNL A   1      42.447  32.729  30.211  1.00  0.00     0.031 C 
ATOM     56  C   UNL A   1      42.961  27.194  34.306  1.00  0.00     0.029 A 
ATOM     57  C   UNL A   1      43.939  27.269  33.220  1.00  0.00     0.049 A 
ATOM     58  H   UNL A   1      44.136  28.785  31.808  1.00  0.00     0.167 HD
ATOM     59  C   UNL A   1      44.460  32.085  28.933  1.00  0.00     0.037 A 
ATOM     60  C   UNL A   1      44.899  26.362  32.950  1.00  0.00     0.037 A 
ATOM     61  C   UNL A   1      45.544  31.199  28.610  1.00  0.00     0.049 A 
ATOM     62  C   UNL A   1      45.830  26.597  31.782  1.00  0.00     0.074 A 
ATOM     63  C   UNL A   1      46.514  31.350  27.637  1.00  0.00     0.029 A 
ATOM     64  N   UNL A   1      45.793  29.996  29.249  1.00  0.00    -0.354 N 
ATOM     65  N   UNL A   1      45.911  27.631  30.980  1.00  0.00    -0.248 NA
ATOM     66  C   UNL A   1      46.803  25.535  31.481  1.00  0.00     0.031 C 
ATOM     67  C   UNL A   1      47.324  30.213  27.653  1.00  0.00     0.029 A 
ATOM     68  C   UNL A   1      46.891  29.380  28.672  1.00  0.00     0.049 A 
ATOM     69  H   UNL A   1      45.270  29.633  29.999  1.00  0.00     0.167 HD
ATOM     70  C   UNL A   1      46.957  27.360  30.107  1.00  0.00     0.074 A 
ATOM     71  C   UNL A   1      47.495  26.071  30.486  1.00  0.00     0.031 C 
ATOM     72  C   UNL A   1      47.429  28.108  29.079  1.00  0.00     0.037 A 
BRANCH  59  73
ATOM     73  C   UNL A   1      44.340  33.357  28.153  1.00  0.00     0.064 A 
ATOM     74  C   UNL A   1      43.803  33.366  26.857  1.00  0.00     0.173 A 
ATOM     75  C   UNL A   1      44.671  34.587  28.740  1.00  0.00     0.173 A 
ATOM     76  F   UNL A   1      43.491  32.212  26.248  1.00  0.00    -0.203 F 
ATOM     77  C   UNL A   1      43.597  34.563  26.178  1.00  0.00     0.198 A 
ATOM     78  C   UNL A   1      44.439  35.783  28.067  1.00  0.00     0.198 A 
ATOM     79  F   UNL A   1      45.188  34.628  29.976  1.00  0.00    -0.203 F 
ATOM     80  F   UNL A   1      43.098  34.548  24.935  1.00  0.00    -0.200 F 
ATOM     81  C   UNL A   1      43.901  35.770  26.789  1.00  0.00     0.200 A 
ATOM     82  F   UNL A   1      44.721  36.949  28.664  1.00  0.00    -0.200 F 
ATOM     83  F   UNL A   1      43.673  36.924  26.146  1.00  0.00    -0.200 F 
ENDBRANCH  59  73
BRANCH  60  84
ATOM     84  C   UNL A   1      45.041  25.136  33.783  1.00  0.00     0.064 A 
ATOM     85  C   UNL A   1      44.455  23.924  33.389  1.00  0.00     0.173 A 
ATOM     86  C   UNL A   1      45.715  25.161  35.014  1.00  0.00     0.173 A 
ATOM     87  F   UNL A   1      43.773  23.854  32.237  1.00  0.00    -0.203 F 
ATOM     88  C   UNL A   1      44.513  22.794  34.204  1.00  0.00     0.198 A 
ATOM     89  C   UNL A   1      45.800  24.021  35.813  1.00  0.00     0.198 A 
ATOM     90  F   UNL A   1      46.287  26.294  35.446  1.00  0.00    -0.203 F 
ATOM     91  F   UNL A   1      43.890  21.669  33.830  1.00  0.00    -0.200 F 
ATOM     92  C   UNL A   1      45.190  22.843  35.414  1.00  0.00     0.200 A 
ATOM     93  F   UNL A   1      46.462  24.071  36.978  1.00  0.00    -0.200 F 
ATOM     94  F   UNL A   1      45.240  21.759  36.200  1.00  0.00    -0.200 F 
ENDBRANCH  60  84
BRANCH  72  95
ATOM     95  C   UNL A   1      48.601  27.583  28.302  1.00  0.00     0.064 A 
ATOM     96  C   UNL A   1      48.426  26.802  27.152  1.00  0.00     0.173 A 
ATOM     97  C   UNL A   1      49.909  27.956  28.651  1.00  0.00     0.173 A 
ATOM     98  F   UNL A   1      47.197  26.412  26.781  1.00  0.00    -0.203 F 
ATOM     99  C   UNL A   1      49.518  26.402  26.385  1.00  0.00     0.198 A 
ATOM    100  C   UNL A   1      50.995  27.582  27.864  1.00  0.00     0.198 A 
ATOM    101  F   UNL A   1      50.130  28.714  29.735  1.00  0.00    -0.203 F 
ATOM    102  F   UNL A   1      49.329  25.630  25.305  1.00  0.00    -0.200 F 
ATOM    103  C   UNL A   1      50.799  26.803  26.735  1.00  0.00     0.200 A 
ATOM    104  F   UNL A   1      52.229  27.989  28.191  1.00  0.00    -0.200 F 
ATOM    105  F   UNL A   1      51.845  26.440  25.980  1.00  0.00    -0.200 F 
ENDBRANCH  72  95
ENDBRANCH  46  47
ENDBRANCH  39  41
ENDBRANCH  38  39
ENDBRANCH  37  38
ENDBRANCH  36  37
ENDBRANCH  35  36
ENDBRANCH  34  35
ENDBRANCH  33  34
ENDBRANCH   1  33
TORSDOF 22
ENDMDL
MODEL 3
REMARK VINA RESULT:      -9.9      4.296      9.233
REMARK SMILES COc1ccc(Cl)c2c1N[C@@H](c1ccc(C(=O)OCCOCCOCCOCCOC(=O)c3ccc(-c4c5nc(c(-c6c(F)c(F)c(F)c(F)c6F)c6ccc([nH]6)c(-c6c(F)c(F)c(F)c(F)c6F)c6nc(c(-c7c(F)c(F)c(F)c(F)c7F)c7ccc4[nH]7)C=C6)C=C5)cc3)cc1)[C@@H]1CC=C[C@H]21
REMARK SMILES IDX 24 1 23 2 22 3 21 4 20 5 19 6 18 7 16 8 17 9 15 10 12 11
REMARK SMILES IDX 13 12 97 13 14 14 96 15 11 16 3 17 4 18 9 19 5 20 8 21 10 22
REMARK SMILES IDX 6 23 102 24 7 26 98 27 101 28 99 29 100 30 2 31 1 32 25 33
REMARK SMILES IDX 26 34 27 35 28 36 29 37 30 38 31 39 32 40 33 41 34 42 95 43
REMARK SMILES IDX 35 44 94 45 36 46 37 47 38 48 88 49 39 50 93 51 87 52 89 53
REMARK SMILES IDX 40 54 92 55 86 56 85 57 41 59 73 60 53 61 72 62 54 63 57 64
REMARK SMILES IDX 71 65 90 66 55 67 56 68 70 70 91 71 58 72 42 73 43 74 51 75
REMARK SMILES IDX 44 76 45 77 49 78 52 79 46 80 47 81 50 82 48 83 74 84 75 85
REMARK SMILES IDX 83 86 76 87 77 88 81 89 84 90 78 91 79 92 82 93 80 94 59 95
REMARK SMILES IDX 60 96 68 97 61 98 62 99 66 100 69 101 63 102 64 103 67 104
REMARK SMILES IDX 65 105
REMARK H PARENT 10 25 89 58 57 69
REMARK Flexibility Score: inf
ROOT
ATOM      1  O   UNL A   1      39.823  27.649  28.068  1.00  0.00    -0.377 OA
ENDROOT
BRANCH   1   2
ATOM      2  C   UNL A   1      39.199  28.904  27.846  1.00  0.00     0.188 C 
BRANCH   2   3
ATOM      3  C   UNL A   1      37.872  29.194  28.577  1.00  0.00     0.188 C 
BRANCH   3   4
ATOM      4  O   UNL A   1      36.921  29.892  27.783  1.00  0.00    -0.376 OA
BRANCH   4   5
ATOM      5  C   UNL A   1      36.558  31.204  28.175  1.00  0.00     0.202 C 
BRANCH   5   6
ATOM      6  C   UNL A   1      35.179  31.710  27.730  1.00  0.00     0.261 C 
BRANCH   6   7
ATOM      7  O   UNL A   1      34.072  30.911  28.159  1.00  0.00    -0.460 OA
BRANCH   7   8
ATOM      8  C   UNL A   1      33.072  30.739  27.269  1.00  0.00     0.338 C 
ATOM      9  O   UNL A   1      32.465  31.618  26.682  1.00  0.00    -0.246 OA
BRANCH   8  10
ATOM     10  C   UNL A   1      32.964  29.292  26.959  1.00  0.00     0.060 A 
ATOM     11  C   UNL A   1      32.697  26.537  26.460  1.00  0.00    -0.025 A 
ATOM     12  C   UNL A   1      31.671  27.253  27.102  1.00  0.00     0.007 A 
ATOM     13  C   UNL A   1      33.800  27.255  25.965  1.00  0.00     0.007 A 
ATOM     14  C   UNL A   1      31.798  28.623  27.338  1.00  0.00     0.016 A 
ATOM     15  C   UNL A   1      33.954  28.614  26.244  1.00  0.00     0.016 A 
BRANCH  11  16
ATOM     16  C   UNL A   1      32.716  25.005  26.425  1.00  0.00     0.114 C 
ATOM     17  C   UNL A   1      35.598  22.716  25.646  1.00  0.00     0.142 A 
ATOM     18  C   UNL A   1      35.869  21.434  25.167  1.00  0.00     0.050 A 
ATOM     19  C   UNL A   1      34.285  23.231  25.674  1.00  0.00     0.083 A 
ATOM     20  C   UNL A   1      34.824  20.628  24.730  1.00  0.00     0.025 A 
ATOM     21  C   UNL A   1      33.231  22.416  25.220  1.00  0.00     0.005 A 
ATOM     22  N   UNL A   1      34.050  24.531  26.090  1.00  0.00    -0.375 N 
ATOM     23  C   UNL A   1      33.517  21.115  24.752  1.00  0.00     0.047 A 
ATOM     24  C   UNL A   1      31.834  22.972  25.155  1.00  0.00     0.051 C 
ATOM     25  H   UNL A   1      34.808  25.154  26.162  1.00  0.00     0.161 HD
ATOM     26  Cl  UNL A   1      32.284  20.068  24.131  1.00  0.00    -0.084 Cl
ATOM     27  C   UNL A   1      31.702  24.495  25.370  1.00  0.00     0.031 C 
ATOM     28  C   UNL A   1      30.877  22.436  26.189  1.00  0.00    -0.023 C 
ATOM     29  C   UNL A   1      30.227  24.640  25.800  1.00  0.00     0.034 C 
ATOM     30  C   UNL A   1      29.975  23.362  26.534  1.00  0.00    -0.030 C 
BRANCH  17  31
ATOM     31  O   UNL A   1      36.687  23.485  25.987  1.00  0.00    -0.495 OA
ATOM     32  C   UNL A   1      37.917  22.796  25.762  1.00  0.00     0.278 C 
ENDBRANCH  17  31
ENDBRANCH  11  16
ENDBRANCH   8  10
ENDBRANCH   7   8
ENDBRANCH   6   7
ENDBRANCH   5   6
ENDBRANCH   4   5
ENDBRANCH   3   4
ENDBRANCH   2   3
ENDBRANCH   1   2
BRANCH   1  33
ATOM     33  C   UNL A   1      41.205  27.494  27.749  1.00  0.00     0.188 C 
BRANCH  33  34
ATOM     34  C   UNL A   1      41.683  27.112  26.326  1.00  0.00     0.188 C 
BRANCH  34  35
ATOM     35  O   UNL A   1      41.143  25.901  25.821  1.00  0.00    -0.376 OA
BRANCH  35  36
ATOM     36  C   UNL A   1      40.871  24.873  26.755  1.00  0.00     0.202 C 
BRANCH  36  37
ATOM     37  C   UNL A   1      41.510  23.507  26.474  1.00  0.00     0.261 C 
BRANCH  37  38
ATOM     38  O   UNL A   1      42.771  23.255  27.115  1.00  0.00    -0.460 OA
BRANCH  38  39
ATOM     39  C   UNL A   1      43.866  23.155  26.332  1.00  0.00     0.338 C 
ATOM     40  O   UNL A   1      44.186  22.225  25.613  1.00  0.00    -0.246 OA
BRANCH  39  41
ATOM     41  C   UNL A   1      44.541  24.468  26.371  1.00  0.00     0.060 A 
ATOM     42  C   UNL A   1      44.725  25.187  25.182  1.00  0.00     0.016 A 
ATOM     43  C   UNL A   1      44.960  24.997  27.593  1.00  0.00     0.016 A 
ATOM     44  C   UNL A   1      45.336  26.441  25.214  1.00  0.00     0.010 A 
ATOM     45  C   UNL A   1      45.610  26.232  27.618  1.00  0.00     0.010 A 
ATOM     46  C   UNL A   1      45.825  26.946  26.426  1.00  0.00    -0.014 A 
BRANCH  46  47
ATOM     47  C   UNL A   1      46.783  28.075  26.408  1.00  0.00     0.031 A 
ATOM     48  C   UNL A   1      46.226  29.457  26.614  1.00  0.00     0.074 A 
ATOM     49  C   UNL A   1      48.105  27.889  26.239  1.00  0.00     0.049 A 
ATOM     50  N   UNL A   1      46.842  30.611  26.612  1.00  0.00    -0.248 NA
ATOM     51  C   UNL A   1      44.777  29.548  26.865  1.00  0.00     0.031 C 
ATOM     52  C   UNL A   1      48.767  26.596  26.086  1.00  0.00     0.029 A 
ATOM     53  N   UNL A   1      49.128  28.802  26.168  1.00  0.00    -0.354 N 
ATOM     54  C   UNL A   1      45.860  31.555  26.879  1.00  0.00     0.074 A 
ATOM     55  C   UNL A   1      44.604  30.854  26.999  1.00  0.00     0.031 C 
ATOM     56  C   UNL A   1      50.089  26.800  25.930  1.00  0.00     0.029 A 
ATOM     57  C   UNL A   1      50.360  28.237  25.943  1.00  0.00     0.049 A 
ATOM     58  H   UNL A   1      48.991  29.772  26.269  1.00  0.00     0.167 HD
ATOM     59  C   UNL A   1      45.999  32.892  27.026  1.00  0.00     0.037 A 
ATOM     60  C   UNL A   1      51.560  28.823  25.753  1.00  0.00     0.037 A 
ATOM     61  C   UNL A   1      47.245  33.593  26.890  1.00  0.00     0.049 A 
ATOM     62  C   UNL A   1      51.660  30.332  25.798  1.00  0.00     0.074 A 
ATOM     63  C   UNL A   1      47.483  34.949  27.008  1.00  0.00     0.029 A 
ATOM     64  N   UNL A   1      48.459  32.992  26.600  1.00  0.00    -0.354 N 
ATOM     65  N   UNL A   1      50.735  31.217  26.077  1.00  0.00    -0.248 NA
ATOM     66  C   UNL A   1      52.976  30.920  25.501  1.00  0.00     0.031 C 
ATOM     67  C   UNL A   1      48.834  35.177  26.740  1.00  0.00     0.029 A 
ATOM     68  C   UNL A   1      49.448  33.956  26.510  1.00  0.00     0.049 A 
ATOM     69  H   UNL A   1      48.598  32.025  26.477  1.00  0.00     0.167 HD
ATOM     70  C   UNL A   1      51.360  32.457  26.021  1.00  0.00     0.074 A 
ATOM     71  C   UNL A   1      52.749  32.212  25.698  1.00  0.00     0.031 C 
ATOM     72  C   UNL A   1      50.831  33.691  26.212  1.00  0.00     0.037 A 
BRANCH  59  73
ATOM     73  C   UNL A   1      44.778  33.692  27.356  1.00  0.00     0.064 A 
ATOM     74  C   UNL A   1      44.354  33.855  28.683  1.00  0.00     0.173 A 
ATOM     75  C   UNL A   1      44.084  34.380  26.351  1.00  0.00     0.173 A 
ATOM     76  F   UNL A   1      44.975  33.200  29.675  1.00  0.00    -0.203 F 
ATOM     77  C   UNL A   1      43.280  34.684  28.992  1.00  0.00     0.198 A 
ATOM     78  C   UNL A   1      43.027  35.229  26.667  1.00  0.00     0.198 A 
ATOM     79  F   UNL A   1      44.452  34.254  25.067  1.00  0.00    -0.203 F 
ATOM     80  F   UNL A   1      42.881  34.814  30.265  1.00  0.00    -0.200 F 
ATOM     81  C   UNL A   1      42.628  35.382  27.986  1.00  0.00     0.200 A 
ATOM     82  F   UNL A   1      42.407  35.912  25.695  1.00  0.00    -0.200 F 
ATOM     83  F   UNL A   1      41.614  36.204  28.288  1.00  0.00    -0.200 F 
ENDBRANCH  59  73
BRANCH  60  84
ATOM     84  C   UNL A   1      52.773  28.002  25.492  1.00  0.00     0.064 A 
ATOM     85  C   UNL A   1      53.176  27.704  24.182  1.00  0.00     0.173 A 
ATOM     86  C   UNL A   1      53.522  27.448  26.542  1.00  0.00     0.173 A 
ATOM     87  F   UNL A   1      52.476  28.182  23.143  1.00  0.00    -0.203 F 
ATOM     88  C   UNL A   1      54.262  26.867  23.931  1.00  0.00     0.198 A 
ATOM     89  C   UNL A   1      54.628  26.636  26.290  1.00  0.00     0.198 A 
ATOM     90  F   UNL A   1      53.178  27.689  27.815  1.00  0.00    -0.203 F 
ATOM     91  F   UNL A   1      54.584  26.551  22.670  1.00  0.00    -0.200 F 
ATOM     92  C   UNL A   1      54.990  26.337  24.987  1.00  0.00     0.200 A 
ATOM     93  F   UNL A   1      55.333  26.133  27.313  1.00  0.00    -0.200 F 
ATOM     94  F   UNL A   1      56.029  25.527  24.746  1.00  0.00    -0.200 F 
ENDBRANCH  60  84
BRANCH  72  95
ATOM     95  C   UNL A   1      51.748  34.876  26.115  1.00  0.00     0.064 A 
ATOM     96  C   UNL A   1      51.953  35.544  24.900  1.00  0.00     0.173 A 
ATOM     97  C   UNL A   1      52.340  35.413  27.269  1.00  0.00     0.173 A 
ATOM     98  F   UNL A   1      51.416  35.066  23.768  1.00  0.00    -0.203 F 
ATOM     99  C   UNL A   1      52.728  36.699  24.841  1.00  0.00     0.198 A 
ATOM    100  C   UNL A   1      53.087  36.586  27.212  1.00  0.00     0.198 A 
ATOM    101  F   UNL A   1      52.164  34.819  28.459  1.00  0.00    -0.203 F 
ATOM    102  F   UNL A   1      52.936  37.305  23.663  1.00  0.00    -0.200 F 
ATOM    103  C   UNL A   1      53.283  37.226  25.998  1.00  0.00     0.200 A 
ATOM    104  F   UNL A   1      53.604  37.106  28.334  1.00  0.00    -0.200 F 
ATOM    105  F   UNL A   1      54.007  38.353  25.943  1.00  0.00    -0.200 F 
ENDBRANCH  72  95
ENDBRANCH  46  47
ENDBRANCH  39  41
ENDBRANCH  38  39
ENDBRANCH  37  38
ENDBRANCH  36  37
ENDBRANCH  35  36
ENDBRANCH  34  35
ENDBRANCH  33  34
ENDBRANCH   1  33
TORSDOF 22
ENDMDL
