MODEL 1
REMARK VINA RESULT:     -10.6      0.000      0.000
REMARK SMILES Cc1cc(C)c2c(O[C@@H](C)C(=O)OCCOCCOCCOCCOC(=O)c3ccc(-c4c5nc(c(-c6c(F)c(F)c(F)c(F)c6F)c6ccc([nH]6)c(-c6c(F)c(F)c(F)c(F)c6F)c6nc(c(-c7c(F)c(F)c(F)c(F)c7F)c7ccc4[nH]7)C=C6)C=C5)cc3)nsc2n1
REMARK SMILES IDX 19 1 18 2 17 3 16 4 15 5 14 6 13 7 11 8 12 9 9 10 10 11 8 12
REMARK SMILES IDX 7 13 1 14 2 15 3 16 94 17 4 18 93 19 5 20 6 21 92 22 91 23
REMARK SMILES IDX 20 24 21 25 22 26 23 27 24 28 25 29 26 30 27 31 28 32 29 33
REMARK SMILES IDX 90 34 30 35 89 36 31 37 32 38 33 39 83 40 34 41 88 42 82 43
REMARK SMILES IDX 84 44 35 45 87 46 81 47 80 48 36 50 68 51 48 52 67 53 49 54
REMARK SMILES IDX 52 55 66 56 85 57 50 58 51 59 65 61 86 62 53 63 37 64 38 65
REMARK SMILES IDX 46 66 39 67 40 68 44 69 47 70 41 71 42 72 45 73 43 74 69 75
REMARK SMILES IDX 70 76 78 77 71 78 72 79 76 80 79 81 73 82 74 83 77 84 75 85
REMARK SMILES IDX 54 86 55 87 63 88 56 89 57 90 61 91 64 92 58 93 59 94 62 95
REMARK SMILES IDX 60 96
REMARK H PARENT 84 49 52 60
REMARK Flexibility Score: inf
ROOT
ATOM      1  O   UNL A   1      34.428  31.911  28.899  1.00  0.00    -0.377 OA
ENDROOT
BRANCH   1   2
ATOM      2  C   UNL A   1      34.913  31.209  27.766  1.00  0.00     0.188 C 
BRANCH   2   3
ATOM      3  C   UNL A   1      34.035  30.018  27.308  1.00  0.00     0.188 C 
BRANCH   3   4
ATOM      4  O   UNL A   1      32.629  30.176  27.123  1.00  0.00    -0.376 OA
BRANCH   4   5
ATOM      5  C   UNL A   1      31.871  29.124  26.541  1.00  0.00     0.202 C 
BRANCH   5   6
ATOM      6  C   UNL A   1      31.630  27.857  27.361  1.00  0.00     0.261 C 
BRANCH   6   7
ATOM      7  O   UNL A   1      30.897  26.836  26.661  1.00  0.00    -0.461 OA
BRANCH   7   8
ATOM      8  C   UNL A   1      31.487  25.625  26.509  1.00  0.00     0.347 C 
ATOM      9  O   UNL A   1      31.025  24.572  26.932  1.00  0.00    -0.248 OA
BRANCH   8  10
ATOM     10  C   UNL A   1      32.798  25.708  25.693  1.00  0.00     0.281 C 
ATOM     11  C   UNL A   1      32.584  26.165  24.251  1.00  0.00     0.066 C 
BRANCH  10  12
ATOM     12  O   UNL A   1      33.879  24.827  25.678  1.00  0.00    -0.462 OA
BRANCH  12  13
ATOM     13  C   UNL A   1      33.786  23.490  25.838  1.00  0.00     0.236 A 
ATOM     14  C   UNL A   1      32.333  18.308  23.985  1.00  0.00     0.067 C 
ATOM     15  C   UNL A   1      32.683  19.718  24.353  1.00  0.00     0.039 A 
ATOM     16  C   UNL A   1      32.552  20.718  23.407  1.00  0.00     0.027 A 
ATOM     17  N   UNL A   1      33.156  19.934  25.583  1.00  0.00    -0.240 NA
ATOM     18  C   UNL A   1      32.950  22.048  23.679  1.00  0.00    -0.034 A 
ATOM     19  C   UNL A   1      33.460  21.218  25.852  1.00  0.00     0.147 A 
ATOM     20  C   UNL A   1      32.837  22.949  22.478  1.00  0.00     0.045 C 
ATOM     21  C   UNL A   1      33.381  22.346  25.015  1.00  0.00     0.078 A 
ATOM     22  S   UNL A   1      34.061  21.629  27.385  1.00  0.00    -0.012 S 
ATOM     23  N   UNL A   1      34.212  23.226  27.076  1.00  0.00    -0.153 NA
ENDBRANCH  12  13
ENDBRANCH  10  12
ENDBRANCH   8  10
ENDBRANCH   7   8
ENDBRANCH   6   7
ENDBRANCH   5   6
ENDBRANCH   4   5
ENDBRANCH   3   4
ENDBRANCH   2   3
ENDBRANCH   1   2
BRANCH   1  24
ATOM     24  C   UNL A   1      34.489  33.332  28.812  1.00  0.00     0.188 C 
BRANCH  24  25
ATOM     25  C   UNL A   1      33.271  34.063  28.195  1.00  0.00     0.188 C 
BRANCH  25  26
ATOM     26  O   UNL A   1      32.601  34.955  29.080  1.00  0.00    -0.376 OA
BRANCH  26  27
ATOM     27  C   UNL A   1      33.129  36.227  29.418  1.00  0.00     0.202 C 
BRANCH  27  28
ATOM     28  C   UNL A   1      33.264  36.577  30.901  1.00  0.00     0.261 C 
BRANCH  28  29
ATOM     29  O   UNL A   1      34.286  35.866  31.569  1.00  0.00    -0.460 OA
BRANCH  29  30
ATOM     30  C   UNL A   1      33.854  34.892  32.391  1.00  0.00     0.338 C 
ATOM     31  O   UNL A   1      32.712  34.518  32.565  1.00  0.00    -0.246 OA
BRANCH  30  32
ATOM     32  C   UNL A   1      35.005  34.396  33.149  1.00  0.00     0.060 A 
ATOM     33  C   UNL A   1      36.185  35.111  32.965  1.00  0.00     0.016 A 
ATOM     34  C   UNL A   1      34.976  33.071  33.611  1.00  0.00     0.016 A 
ATOM     35  C   UNL A   1      37.342  34.385  32.897  1.00  0.00     0.010 A 
ATOM     36  C   UNL A   1      36.131  32.344  33.532  1.00  0.00     0.010 A 
ATOM     37  C   UNL A   1      37.259  32.994  33.050  1.00  0.00    -0.014 A 
BRANCH  37  38
ATOM     38  C   UNL A   1      38.414  32.229  32.666  1.00  0.00     0.031 A 
ATOM     39  C   UNL A   1      39.322  31.975  33.793  1.00  0.00     0.074 A 
ATOM     40  C   UNL A   1      38.611  31.813  31.403  1.00  0.00     0.049 A 
ATOM     41  N   UNL A   1      40.478  32.508  33.992  1.00  0.00    -0.248 NA
ATOM     42  C   UNL A   1      38.800  31.194  34.921  1.00  0.00     0.031 C 
ATOM     43  C   UNL A   1      37.683  31.795  30.271  1.00  0.00     0.029 A 
ATOM     44  N   UNL A   1      39.727  31.235  30.895  1.00  0.00    -0.354 N 
ATOM     45  C   UNL A   1      40.915  31.995  35.204  1.00  0.00     0.074 A 
ATOM     46  C   UNL A   1      39.785  31.341  35.807  1.00  0.00     0.031 C 
ATOM     47  C   UNL A   1      38.206  31.027  29.285  1.00  0.00     0.029 A 
ATOM     48  C   UNL A   1      39.550  30.626  29.665  1.00  0.00     0.049 A 
ATOM     49  H   UNL A   1      40.593  31.248  31.363  1.00  0.00     0.167 HD
ATOM     50  C   UNL A   1      42.241  31.953  35.498  1.00  0.00     0.037 A 
ATOM     51  C   UNL A   1      40.438  29.782  29.084  1.00  0.00     0.037 A 
ATOM     52  C   UNL A   1      42.991  32.857  34.665  1.00  0.00     0.049 A 
ATOM     53  C   UNL A   1      41.765  30.046  29.709  1.00  0.00     0.074 A 
ATOM     54  C   UNL A   1      42.994  34.229  34.494  1.00  0.00     0.029 A 
ATOM     55  N   UNL A   1      43.639  32.343  33.568  1.00  0.00    -0.354 N 
ATOM     56  N   UNL A   1      42.441  31.149  29.531  1.00  0.00    -0.248 NA
ATOM     57  C   UNL A   1      42.114  29.290  30.905  1.00  0.00     0.031 C 
ATOM     58  C   UNL A   1      43.215  34.430  33.101  1.00  0.00     0.029 A 
ATOM     59  C   UNL A   1      43.384  33.177  32.510  1.00  0.00     0.049 A 
ATOM     60  H   UNL A   1      44.186  31.525  33.546  1.00  0.00     0.167 HD
ATOM     61  C   UNL A   1      42.985  31.439  30.775  1.00  0.00     0.074 A 
ATOM     62  C   UNL A   1      42.813  30.220  31.562  1.00  0.00     0.031 C 
ATOM     63  C   UNL A   1      43.255  32.724  31.145  1.00  0.00     0.037 A 
BRANCH  50  64
ATOM     64  C   UNL A   1      42.882  30.834  36.271  1.00  0.00     0.064 A 
ATOM     65  C   UNL A   1      43.715  31.151  37.360  1.00  0.00     0.173 A 
ATOM     66  C   UNL A   1      42.955  29.500  35.813  1.00  0.00     0.173 A 
ATOM     67  F   UNL A   1      43.735  32.394  37.865  1.00  0.00    -0.203 F 
ATOM     68  C   UNL A   1      44.613  30.225  37.891  1.00  0.00     0.198 A 
ATOM     69  C   UNL A   1      43.811  28.563  36.383  1.00  0.00     0.198 A 
ATOM     70  F   UNL A   1      42.297  29.073  34.729  1.00  0.00    -0.203 F 
ATOM     71  F   UNL A   1      45.480  30.610  38.837  1.00  0.00    -0.200 F 
ATOM     72  C   UNL A   1      44.665  28.934  37.398  1.00  0.00     0.200 A 
ATOM     73  F   UNL A   1      43.858  27.321  35.879  1.00  0.00    -0.200 F 
ATOM     74  F   UNL A   1      45.571  28.064  37.863  1.00  0.00    -0.200 F 
ENDBRANCH  50  64
BRANCH  51  75
ATOM     75  C   UNL A   1      40.147  28.543  28.323  1.00  0.00     0.064 A 
ATOM     76  C   UNL A   1      40.732  28.316  27.067  1.00  0.00     0.173 A 
ATOM     77  C   UNL A   1      39.521  27.435  28.930  1.00  0.00     0.173 A 
ATOM     78  F   UNL A   1      41.387  29.304  26.440  1.00  0.00    -0.203 F 
ATOM     79  C   UNL A   1      40.721  27.051  26.469  1.00  0.00     0.198 A 
ATOM     80  C   UNL A   1      39.504  26.175  28.329  1.00  0.00     0.198 A 
ATOM     81  F   UNL A   1      39.000  27.526  30.161  1.00  0.00    -0.203 F 
ATOM     82  F   UNL A   1      41.348  26.858  25.300  1.00  0.00    -0.200 F 
ATOM     83  C   UNL A   1      40.116  25.980  27.107  1.00  0.00     0.200 A 
ATOM     84  F   UNL A   1      38.947  25.141  28.974  1.00  0.00    -0.200 F 
ATOM     85  F   UNL A   1      40.161  24.755  26.565  1.00  0.00    -0.200 F 
ENDBRANCH  51  75
BRANCH  63  86
ATOM     86  C   UNL A   1      43.167  33.793  30.091  1.00  0.00     0.064 A 
ATOM     87  C   UNL A   1      44.217  34.110  29.213  1.00  0.00     0.173 A 
ATOM     88  C   UNL A   1      41.921  34.387  29.847  1.00  0.00     0.173 A 
ATOM     89  F   UNL A   1      45.409  33.509  29.319  1.00  0.00    -0.203 F 
ATOM     90  C   UNL A   1      44.035  35.007  28.160  1.00  0.00     0.198 A 
ATOM     91  C   UNL A   1      41.732  35.252  28.774  1.00  0.00     0.198 A 
ATOM     92  F   UNL A   1      40.867  34.077  30.619  1.00  0.00    -0.203 F 
ATOM     93  F   UNL A   1      45.054  35.294  27.337  1.00  0.00    -0.200 F 
ATOM     94  C   UNL A   1      42.789  35.568  27.936  1.00  0.00     0.200 A 
ATOM     95  F   UNL A   1      40.513  35.754  28.531  1.00  0.00    -0.200 F 
ATOM     96  F   UNL A   1      42.599  36.389  26.893  1.00  0.00    -0.200 F 
ENDBRANCH  63  86
ENDBRANCH  37  38
ENDBRANCH  30  32
ENDBRANCH  29  30
ENDBRANCH  28  29
ENDBRANCH  27  28
ENDBRANCH  26  27
ENDBRANCH  25  26
ENDBRANCH  24  25
ENDBRANCH   1  24
TORSDOF 22
ENDMDL
MODEL 2
REMARK VINA RESULT:     -10.5      4.876     10.293
REMARK SMILES Cc1cc(C)c2c(O[C@@H](C)C(=O)OCCOCCOCCOCCOC(=O)c3ccc(-c4c5nc(c(-c6c(F)c(F)c(F)c(F)c6F)c6ccc([nH]6)c(-c6c(F)c(F)c(F)c(F)c6F)c6nc(c(-c7c(F)c(F)c(F)c(F)c7F)c7ccc4[nH]7)C=C6)C=C5)cc3)nsc2n1
REMARK SMILES IDX 19 1 18 2 17 3 16 4 15 5 14 6 13 7 11 8 12 9 9 10 10 11 8 12
REMARK SMILES IDX 7 13 1 14 2 15 3 16 94 17 4 18 93 19 5 20 6 21 92 22 91 23
REMARK SMILES IDX 20 24 21 25 22 26 23 27 24 28 25 29 26 30 27 31 28 32 29 33
REMARK SMILES IDX 90 34 30 35 89 36 31 37 32 38 33 39 83 40 34 41 88 42 82 43
REMARK SMILES IDX 84 44 35 45 87 46 81 47 80 48 36 50 68 51 48 52 67 53 49 54
REMARK SMILES IDX 52 55 66 56 85 57 50 58 51 59 65 61 86 62 53 63 37 64 38 65
REMARK SMILES IDX 46 66 39 67 40 68 44 69 47 70 41 71 42 72 45 73 43 74 69 75
REMARK SMILES IDX 70 76 78 77 71 78 72 79 76 80 79 81 73 82 74 83 77 84 75 85
REMARK SMILES IDX 54 86 55 87 63 88 56 89 57 90 61 91 64 92 58 93 59 94 62 95
REMARK SMILES IDX 60 96
REMARK H PARENT 84 49 52 60
REMARK Flexibility Score: inf
ROOT
ATOM      1  O   UNL A   1      38.209  22.277  25.374  1.00  0.00    -0.377 OA
ENDROOT
BRANCH   1   2
ATOM      2  C   UNL A   1      37.021  21.694  25.884  1.00  0.00     0.188 C 
BRANCH   2   3
ATOM      3  C   UNL A   1      36.159  20.940  24.840  1.00  0.00     0.188 C 
BRANCH   3   4
ATOM      4  O   UNL A   1      34.806  20.589  25.126  1.00  0.00    -0.376 OA
BRANCH   4   5
ATOM      5  C   UNL A   1      34.172  21.111  26.286  1.00  0.00     0.202 C 
BRANCH   5   6
ATOM      6  C   UNL A   1      33.096  22.183  26.111  1.00  0.00     0.261 C 
BRANCH   6   7
ATOM      7  O   UNL A   1      32.800  22.498  24.739  1.00  0.00    -0.461 OA
BRANCH   7   8
ATOM      8  C   UNL A   1      33.219  23.694  24.260  1.00  0.00     0.347 C 
ATOM      9  O   UNL A   1      34.019  24.427  24.831  1.00  0.00    -0.248 OA
BRANCH   8  10
ATOM     10  C   UNL A   1      32.610  24.020  22.877  1.00  0.00     0.281 C 
ATOM     11  C   UNL A   1      33.237  23.218  21.738  1.00  0.00     0.066 C 
BRANCH  10  12
ATOM     12  O   UNL A   1      32.252  25.259  22.345  1.00  0.00    -0.462 OA
BRANCH  12  13
ATOM     13  C   UNL A   1      32.629  26.452  22.851  1.00  0.00     0.236 A 
ATOM     14  C   UNL A   1      32.221  30.616  26.709  1.00  0.00     0.067 C 
ATOM     15  C   UNL A   1      32.242  29.451  25.767  1.00  0.00     0.039 A 
ATOM     16  C   UNL A   1      31.478  28.335  26.052  1.00  0.00     0.027 A 
ATOM     17  N   UNL A   1      33.047  29.534  24.704  1.00  0.00    -0.240 NA
ATOM     18  C   UNL A   1      31.530  27.178  25.240  1.00  0.00    -0.034 A 
ATOM     19  C   UNL A   1      33.029  28.454  23.899  1.00  0.00     0.147 A 
ATOM     20  C   UNL A   1      30.718  26.038  25.793  1.00  0.00     0.045 C 
ATOM     21  C   UNL A   1      32.313  27.252  24.039  1.00  0.00     0.078 A 
ATOM     22  S   UNL A   1      34.000  28.436  22.508  1.00  0.00    -0.012 S 
ATOM     23  N   UNL A   1      33.540  26.949  22.011  1.00  0.00    -0.153 NA
ENDBRANCH  12  13
ENDBRANCH  10  12
ENDBRANCH   8  10
ENDBRANCH   7   8
ENDBRANCH   6   7
ENDBRANCH   5   6
ENDBRANCH   4   5
ENDBRANCH   3   4
ENDBRANCH   2   3
ENDBRANCH   1   2
BRANCH   1  24
ATOM     24  C   UNL A   1      39.167  22.671  26.351  1.00  0.00     0.188 C 
BRANCH  24  25
ATOM     25  C   UNL A   1      40.070  21.566  26.954  1.00  0.00     0.188 C 
BRANCH  25  26
ATOM     26  O   UNL A   1      41.010  21.003  26.045  1.00  0.00    -0.376 OA
BRANCH  26  27
ATOM     27  C   UNL A   1      41.545  19.700  26.217  1.00  0.00     0.202 C 
BRANCH  27  28
ATOM     28  C   UNL A   1      43.014  19.474  25.861  1.00  0.00     0.261 C 
BRANCH  28  29
ATOM     29  O   UNL A   1      43.517  20.374  24.894  1.00  0.00    -0.460 OA
BRANCH  29  30
ATOM     30  C   UNL A   1      44.829  20.650  25.004  1.00  0.00     0.338 C 
ATOM     31  O   UNL A   1      45.726  19.890  25.308  1.00  0.00    -0.246 OA
BRANCH  30  32
ATOM     32  C   UNL A   1      45.008  22.088  24.791  1.00  0.00     0.060 A 
ATOM     33  C   UNL A   1      46.050  22.666  25.511  1.00  0.00     0.016 A 
ATOM     34  C   UNL A   1      43.927  22.825  24.283  1.00  0.00     0.016 A 
ATOM     35  C   UNL A   1      45.825  23.912  26.029  1.00  0.00     0.010 A 
ATOM     36  C   UNL A   1      43.698  24.065  24.810  1.00  0.00     0.010 A 
ATOM     37  C   UNL A   1      44.589  24.521  25.772  1.00  0.00    -0.014 A 
BRANCH  37  38
ATOM     38  C   UNL A   1      44.252  25.667  26.571  1.00  0.00     0.031 A 
ATOM     39  C   UNL A   1      45.212  26.768  26.412  1.00  0.00     0.074 A 
ATOM     40  C   UNL A   1      43.171  25.691  27.369  1.00  0.00     0.049 A 
ATOM     41  N   UNL A   1      46.083  27.166  27.273  1.00  0.00    -0.248 NA
ATOM     42  C   UNL A   1      45.350  27.358  25.075  1.00  0.00     0.031 C 
ATOM     43  C   UNL A   1      42.033  24.772  27.428  1.00  0.00     0.029 A 
ATOM     44  N   UNL A   1      42.846  26.640  28.281  1.00  0.00    -0.354 N 
ATOM     45  C   UNL A   1      46.780  28.187  26.645  1.00  0.00     0.074 A 
ATOM     46  C   UNL A   1      46.412  28.144  25.255  1.00  0.00     0.031 C 
ATOM     47  C   UNL A   1      41.046  25.338  28.163  1.00  0.00     0.029 A 
ATOM     48  C   UNL A   1      41.539  26.581  28.733  1.00  0.00     0.049 A 
ATOM     49  H   UNL A   1      43.488  27.316  28.597  1.00  0.00     0.167 HD
ATOM     50  C   UNL A   1      47.426  29.134  27.374  1.00  0.00     0.037 A 
ATOM     51  C   UNL A   1      40.920  27.556  29.444  1.00  0.00     0.037 A 
ATOM     52  C   UNL A   1      47.653  28.689  28.725  1.00  0.00     0.049 A 
ATOM     53  C   UNL A   1      41.988  28.388  30.067  1.00  0.00     0.074 A 
ATOM     54  C   UNL A   1      48.372  27.653  29.289  1.00  0.00     0.029 A 
ATOM     55  N   UNL A   1      46.786  29.117  29.703  1.00  0.00    -0.354 N 
ATOM     56  N   UNL A   1      42.774  27.960  31.018  1.00  0.00    -0.248 NA
ATOM     57  C   UNL A   1      42.495  29.523  29.306  1.00  0.00     0.031 C 
ATOM     58  C   UNL A   1      47.586  27.209  30.391  1.00  0.00     0.029 A 
ATOM     59  C   UNL A   1      46.458  28.027  30.468  1.00  0.00     0.049 A 
ATOM     60  H   UNL A   1      46.460  30.037  29.829  1.00  0.00     0.167 HD
ATOM     61  C   UNL A   1      44.024  28.481  30.709  1.00  0.00     0.074 A 
ATOM     62  C   UNL A   1      43.774  29.496  29.688  1.00  0.00     0.031 C 
ATOM     63  C   UNL A   1      45.169  27.843  31.090  1.00  0.00     0.037 A 
BRANCH  50  64
ATOM     64  C   UNL A   1      47.512  30.578  26.965  1.00  0.00     0.064 A 
ATOM     65  C   UNL A   1      48.757  31.231  27.037  1.00  0.00     0.173 A 
ATOM     66  C   UNL A   1      46.390  31.418  26.797  1.00  0.00     0.173 A 
ATOM     67  F   UNL A   1      49.887  30.530  27.211  1.00  0.00    -0.203 F 
ATOM     68  C   UNL A   1      48.857  32.622  27.027  1.00  0.00     0.198 A 
ATOM     69  C   UNL A   1      46.500  32.804  26.729  1.00  0.00     0.198 A 
ATOM     70  F   UNL A   1      45.135  30.954  26.807  1.00  0.00    -0.203 F 
ATOM     71  F   UNL A   1      50.047  33.203  27.233  1.00  0.00    -0.200 F 
ATOM     72  C   UNL A   1      47.728  33.408  26.880  1.00  0.00     0.200 A 
ATOM     73  F   UNL A   1      45.391  33.546  26.603  1.00  0.00    -0.200 F 
ATOM     74  F   UNL A   1      47.816  34.743  26.935  1.00  0.00    -0.200 F 
ENDBRANCH  50  64
BRANCH  51  75
ATOM     75  C   UNL A   1      39.520  28.025  29.310  1.00  0.00     0.064 A 
ATOM     76  C   UNL A   1      38.682  28.117  30.433  1.00  0.00     0.173 A 
ATOM     77  C   UNL A   1      39.064  28.659  28.138  1.00  0.00     0.173 A 
ATOM     78  F   UNL A   1      39.060  27.580  31.602  1.00  0.00    -0.203 F 
ATOM     79  C   UNL A   1      37.477  28.827  30.395  1.00  0.00     0.198 A 
ATOM     80  C   UNL A   1      37.858  29.362  28.098  1.00  0.00     0.198 A 
ATOM     81  F   UNL A   1      39.822  28.697  27.033  1.00  0.00    -0.203 F 
ATOM     82  F   UNL A   1      36.737  28.949  31.505  1.00  0.00    -0.200 F 
ATOM     83  C   UNL A   1      37.073  29.458  29.230  1.00  0.00     0.200 A 
ATOM     84  F   UNL A   1      37.497  29.997  26.974  1.00  0.00    -0.200 F 
ATOM     85  F   UNL A   1      35.951  30.192  29.210  1.00  0.00    -0.200 F 
ENDBRANCH  51  75
BRANCH  63  86
ATOM     86  C   UNL A   1      45.045  26.690  32.047  1.00  0.00     0.064 A 
ATOM     87  C   UNL A   1      44.986  26.839  33.444  1.00  0.00     0.173 A 
ATOM     88  C   UNL A   1      44.801  25.413  31.524  1.00  0.00     0.173 A 
ATOM     89  F   UNL A   1      45.109  28.045  34.013  1.00  0.00    -0.203 F 
ATOM     90  C   UNL A   1      44.725  25.752  34.277  1.00  0.00     0.198 A 
ATOM     91  C   UNL A   1      44.505  24.337  32.356  1.00  0.00     0.198 A 
ATOM     92  F   UNL A   1      44.789  25.223  30.196  1.00  0.00    -0.203 F 
ATOM     93  F   UNL A   1      44.674  25.921  35.607  1.00  0.00    -0.200 F 
ATOM     94  C   UNL A   1      44.474  24.504  33.731  1.00  0.00     0.200 A 
ATOM     95  F   UNL A   1      44.213  23.143  31.821  1.00  0.00    -0.200 F 
ATOM     96  F   UNL A   1      44.172  23.470  34.528  1.00  0.00    -0.200 F 
ENDBRANCH  63  86
ENDBRANCH  37  38
ENDBRANCH  30  32
ENDBRANCH  29  30
ENDBRANCH  28  29
ENDBRANCH  27  28
ENDBRANCH  26  27
ENDBRANCH  25  26
ENDBRANCH  24  25
ENDBRANCH   1  24
TORSDOF 22
ENDMDL
MODEL 3
REMARK VINA RESULT:     -10.4      3.944      9.126
REMARK SMILES Cc1cc(C)c2c(O[C@@H](C)C(=O)OCCOCCOCCOCCOC(=O)c3ccc(-c4c5nc(c(-c6c(F)c(F)c(F)c(F)c6F)c6ccc([nH]6)c(-c6c(F)c(F)c(F)c(F)c6F)c6nc(c(-c7c(F)c(F)c(F)c(F)c7F)c7ccc4[nH]7)C=C6)C=C5)cc3)nsc2n1
REMARK SMILES IDX 19 1 18 2 17 3 16 4 15 5 14 6 13 7 11 8 12 9 9 10 10 11 8 12
REMARK SMILES IDX 7 13 1 14 2 15 3 16 94 17 4 18 93 19 5 20 6 21 92 22 91 23
REMARK SMILES IDX 20 24 21 25 22 26 23 27 24 28 25 29 26 30 27 31 28 32 29 33
REMARK SMILES IDX 90 34 30 35 89 36 31 37 32 38 33 39 83 40 34 41 88 42 82 43
REMARK SMILES IDX 84 44 35 45 87 46 81 47 80 48 36 50 68 51 48 52 67 53 49 54
REMARK SMILES IDX 52 55 66 56 85 57 50 58 51 59 65 61 86 62 53 63 37 64 38 65
REMARK SMILES IDX 46 66 39 67 40 68 44 69 47 70 41 71 42 72 45 73 43 74 69 75
REMARK SMILES IDX 70 76 78 77 71 78 72 79 76 80 79 81 73 82 74 83 77 84 75 85
REMARK SMILES IDX 54 86 55 87 63 88 56 89 57 90 61 91 64 92 58 93 59 94 62 95
REMARK SMILES IDX 60 96
REMARK H PARENT 84 49 52 60
REMARK Flexibility Score: inf
ROOT
ATOM      1  O   UNL A   1      38.379  23.522  25.798  1.00  0.00    -0.377 OA
ENDROOT
BRANCH   1   2
ATOM      2  C   UNL A   1      36.968  23.552  25.947  1.00  0.00     0.188 C 
BRANCH   2   3
ATOM      3  C   UNL A   1      36.176  23.762  24.632  1.00  0.00     0.188 C 
BRANCH   3   4
ATOM      4  O   UNL A   1      35.159  22.842  24.238  1.00  0.00    -0.376 OA
BRANCH   4   5
ATOM      5  C   UNL A   1      35.129  21.539  24.802  1.00  0.00     0.202 C 
BRANCH   5   6
ATOM      6  C   UNL A   1      33.879  20.682  24.597  1.00  0.00     0.261 C 
BRANCH   6   7
ATOM      7  O   UNL A   1      32.655  21.436  24.532  1.00  0.00    -0.461 OA
BRANCH   7   8
ATOM      8  C   UNL A   1      32.225  21.841  23.312  1.00  0.00     0.347 C 
ATOM      9  O   UNL A   1      31.927  21.082  22.397  1.00  0.00    -0.248 OA
BRANCH   8  10
ATOM     10  C   UNL A   1      32.104  23.378  23.212  1.00  0.00     0.281 C 
ATOM     11  C   UNL A   1      30.658  23.869  23.173  1.00  0.00     0.066 C 
BRANCH  10  12
ATOM     12  O   UNL A   1      32.850  24.270  22.440  1.00  0.00    -0.462 OA
BRANCH  12  13
ATOM     13  C   UNL A   1      33.201  25.515  22.826  1.00  0.00     0.236 A 
ATOM     14  C   UNL A   1      33.945  29.503  26.818  1.00  0.00     0.067 C 
ATOM     15  C   UNL A   1      33.722  28.368  25.865  1.00  0.00     0.039 A 
ATOM     16  C   UNL A   1      33.405  27.118  26.362  1.00  0.00     0.027 A 
ATOM     17  N   UNL A   1      33.889  28.615  24.563  1.00  0.00    -0.240 NA
ATOM     18  C   UNL A   1      33.270  25.997  25.510  1.00  0.00    -0.034 A 
ATOM     19  C   UNL A   1      33.684  27.556  23.757  1.00  0.00     0.147 A 
ATOM     20  C   UNL A   1      33.044  24.714  26.263  1.00  0.00     0.045 C 
ATOM     21  C   UNL A   1      33.353  26.231  24.097  1.00  0.00     0.078 A 
ATOM     22  S   UNL A   1      33.854  27.739  22.079  1.00  0.00    -0.012 S 
ATOM     23  N   UNL A   1      33.490  26.190  21.711  1.00  0.00    -0.153 NA
ENDBRANCH  12  13
ENDBRANCH  10  12
ENDBRANCH   8  10
ENDBRANCH   7   8
ENDBRANCH   6   7
ENDBRANCH   5   6
ENDBRANCH   4   5
ENDBRANCH   3   4
ENDBRANCH   2   3
ENDBRANCH   1   2
BRANCH   1  24
ATOM     24  C   UNL A   1      39.089  22.844  26.830  1.00  0.00     0.188 C 
BRANCH  24  25
ATOM     25  C   UNL A   1      39.853  21.552  26.442  1.00  0.00     0.188 C 
BRANCH  25  26
ATOM     26  O   UNL A   1      40.921  21.206  27.318  1.00  0.00    -0.376 OA
BRANCH  26  27
ATOM     27  C   UNL A   1      42.209  20.852  26.840  1.00  0.00     0.202 C 
BRANCH  27  28
ATOM     28  C   UNL A   1      42.851  21.744  25.777  1.00  0.00     0.261 C 
BRANCH  28  29
ATOM     29  O   UNL A   1      43.543  22.858  26.303  1.00  0.00    -0.460 OA
BRANCH  29  30
ATOM     30  C   UNL A   1      43.204  24.043  25.765  1.00  0.00     0.338 C 
ATOM     31  O   UNL A   1      43.701  24.592  24.802  1.00  0.00    -0.246 OA
BRANCH  30  32
ATOM     32  C   UNL A   1      42.169  24.644  26.609  1.00  0.00     0.060 A 
ATOM     33  C   UNL A   1      41.254  25.450  25.937  1.00  0.00     0.016 A 
ATOM     34  C   UNL A   1      42.410  24.743  27.988  1.00  0.00     0.016 A 
ATOM     35  C   UNL A   1      40.853  26.592  26.576  1.00  0.00     0.010 A 
ATOM     36  C   UNL A   1      42.018  25.889  28.622  1.00  0.00     0.010 A 
ATOM     37  C   UNL A   1      41.360  26.844  27.858  1.00  0.00    -0.014 A 
BRANCH  37  38
ATOM     38  C   UNL A   1      41.184  28.174  28.375  1.00  0.00     0.031 A 
ATOM     39  C   UNL A   1      42.239  29.095  27.933  1.00  0.00     0.074 A 
ATOM     40  C   UNL A   1      40.156  28.500  29.178  1.00  0.00     0.049 A 
ATOM     41  N   UNL A   1      43.192  29.583  28.649  1.00  0.00    -0.248 NA
ATOM     42  C   UNL A   1      42.361  29.342  26.491  1.00  0.00     0.031 C 
ATOM     43  C   UNL A   1      38.938  27.750  29.486  1.00  0.00     0.029 A 
ATOM     44  N   UNL A   1      39.979  29.664  29.851  1.00  0.00    -0.354 N 
ATOM     45  C   UNL A   1      43.952  30.348  27.777  1.00  0.00     0.074 A 
ATOM     46  C   UNL A   1      43.504  30.026  26.448  1.00  0.00     0.031 C 
ATOM     47  C   UNL A   1      38.054  28.576  30.097  1.00  0.00     0.029 A 
ATOM     48  C   UNL A   1      38.700  29.855  30.343  1.00  0.00     0.049 A 
ATOM     49  H   UNL A   1      40.702  30.319  29.979  1.00  0.00     0.167 HD
ATOM     50  C   UNL A   1      44.728  31.361  28.244  1.00  0.00     0.037 A 
ATOM     51  C   UNL A   1      38.221  31.029  30.823  1.00  0.00     0.037 A 
ATOM     52  C   UNL A   1      44.984  31.217  29.654  1.00  0.00     0.049 A 
ATOM     53  C   UNL A   1      39.401  31.860  31.200  1.00  0.00     0.074 A 
ATOM     54  C   UNL A   1      45.626  30.266  30.424  1.00  0.00     0.029 A 
ATOM     55  N   UNL A   1      44.219  31.952  30.529  1.00  0.00    -0.354 N 
ATOM     56  N   UNL A   1      40.191  31.578  32.201  1.00  0.00    -0.248 NA
ATOM     57  C   UNL A   1      39.975  32.726  30.179  1.00  0.00     0.031 C 
ATOM     58  C   UNL A   1      44.862  30.177  31.622  1.00  0.00     0.029 A 
ATOM     59  C   UNL A   1      43.827  31.110  31.539  1.00  0.00     0.049 A 
ATOM     60  H   UNL A   1      43.995  32.906  30.446  1.00  0.00     0.167 HD
ATOM     61  C   UNL A   1      41.467  31.874  31.741  1.00  0.00     0.074 A 
ATOM     62  C   UNL A   1      41.265  32.647  30.518  1.00  0.00     0.031 C 
ATOM     63  C   UNL A   1      42.562  31.218  32.226  1.00  0.00     0.037 A 
BRANCH  50  64
ATOM     64  C   UNL A   1      44.936  32.653  27.504  1.00  0.00     0.064 A 
ATOM     65  C   UNL A   1      46.142  32.851  26.808  1.00  0.00     0.173 A 
ATOM     66  C   UNL A   1      44.143  33.806  27.694  1.00  0.00     0.173 A 
ATOM     67  F   UNL A   1      46.979  31.826  26.585  1.00  0.00    -0.203 F 
ATOM     68  C   UNL A   1      46.561  34.121  26.411  1.00  0.00     0.198 A 
ATOM     69  C   UNL A   1      44.537  35.063  27.245  1.00  0.00     0.198 A 
ATOM     70  F   UNL A   1      43.018  33.795  28.419  1.00  0.00    -0.203 F 
ATOM     71  F   UNL A   1      47.777  34.281  25.871  1.00  0.00    -0.200 F 
ATOM     72  C   UNL A   1      45.761  35.227  26.635  1.00  0.00     0.200 A 
ATOM     73  F   UNL A   1      43.754  36.124  27.489  1.00  0.00    -0.200 F 
ATOM     74  F   UNL A   1      46.189  36.454  26.313  1.00  0.00    -0.200 F 
ENDBRANCH  50  64
BRANCH  51  75
ATOM     75  C   UNL A   1      36.870  31.606  30.625  1.00  0.00     0.064 A 
ATOM     76  C   UNL A   1      36.019  31.835  31.719  1.00  0.00     0.173 A 
ATOM     77  C   UNL A   1      36.496  32.206  29.407  1.00  0.00     0.173 A 
ATOM     78  F   UNL A   1      36.324  31.338  32.926  1.00  0.00    -0.203 F 
ATOM     79  C   UNL A   1      34.880  32.641  31.607  1.00  0.00     0.198 A 
ATOM     80  C   UNL A   1      35.356  33.004  29.295  1.00  0.00     0.198 A 
ATOM     81  F   UNL A   1      37.279  32.114  28.323  1.00  0.00    -0.203 F 
ATOM     82  F   UNL A   1      34.129  32.891  32.689  1.00  0.00    -0.200 F 
ATOM     83  C   UNL A   1      34.557  33.234  30.398  1.00  0.00     0.200 A 
ATOM     84  F   UNL A   1      35.075  33.600  28.127  1.00  0.00    -0.200 F 
ATOM     85  F   UNL A   1      33.504  34.057  30.306  1.00  0.00    -0.200 F 
ENDBRANCH  51  75
BRANCH  63  86
ATOM     86  C   UNL A   1      42.377  30.338  33.431  1.00  0.00     0.064 A 
ATOM     87  C   UNL A   1      42.467  30.800  34.755  1.00  0.00     0.173 A 
ATOM     88  C   UNL A   1      41.920  29.028  33.235  1.00  0.00     0.173 A 
ATOM     89  F   UNL A   1      42.799  32.070  35.020  1.00  0.00    -0.203 F 
ATOM     90  C   UNL A   1      42.144  29.976  35.833  1.00  0.00     0.198 A 
ATOM     91  C   UNL A   1      41.563  28.219  34.310  1.00  0.00     0.198 A 
ATOM     92  F   UNL A   1      41.761  28.552  31.990  1.00  0.00    -0.203 F 
ATOM     93  F   UNL A   1      42.238  30.441  37.087  1.00  0.00    -0.200 F 
ATOM     94  C   UNL A   1      41.682  28.690  35.608  1.00  0.00     0.200 A 
ATOM     95  F   UNL A   1      41.069  26.994  34.086  1.00  0.00    -0.200 F 
ATOM     96  F   UNL A   1      41.321  27.915  36.640  1.00  0.00    -0.200 F 
ENDBRANCH  63  86
ENDBRANCH  37  38
ENDBRANCH  30  32
ENDBRANCH  29  30
ENDBRANCH  28  29
ENDBRANCH  27  28
ENDBRANCH  26  27
ENDBRANCH  25  26
ENDBRANCH  24  25
ENDBRANCH   1  24
TORSDOF 22
ENDMDL
