MODEL 1
REMARK VINA RESULT:      -9.3      0.000      0.000
REMARK SMILES O=C(OCCOCCOCCOCCOC(=O)c1ccc(S(=O)(=O)N[C@@H]2CC[N@@H+]3CCC[C@H]23)cc1)c1ccc(-c2c3nc(c(-c4c(F)c(F)c(F)c(F)c4F)c4ccc([nH]4)c(-c4c(F)c(F)c(F)c(F)c4F)c4nc(c(-c5c(F)c(F)c(F)c(F)c5F)c5ccc2[nH]5)C=C4)C=C3)cc1
REMARK SMILES IDX 10 1 9 2 8 3 7 4 6 5 5 6 4 7 3 8 2 9 1 10 36 11 37 12 98 13
REMARK SMILES IDX 38 14 97 15 39 16 40 17 41 18 91 19 42 20 96 21 90 22 92 23
REMARK SMILES IDX 43 24 95 25 89 26 88 27 44 29 76 30 56 31 75 32 57 33 60 34
REMARK SMILES IDX 74 35 93 36 58 37 59 38 73 40 94 41 61 42 45 43 46 44 54 45
REMARK SMILES IDX 47 46 48 47 52 48 55 49 49 50 50 51 53 52 51 53 77 54 78 55
REMARK SMILES IDX 86 56 79 57 80 58 84 59 87 60 81 61 82 62 85 63 83 64 62 65
REMARK SMILES IDX 63 66 71 67 64 68 65 69 69 70 72 71 66 72 67 73 70 74 68 75
REMARK SMILES IDX 11 76 12 77 13 78 14 79 15 80 16 81 17 82 18 83 19 84 35 85
REMARK SMILES IDX 20 86 34 87 21 88 22 89 23 90 24 91 25 92 26 94 27 95 33 96
REMARK SMILES IDX 28 97 29 98 32 99 30 100 31 102
REMARK H PARENT 92 28 60 39 25 93 29 101
REMARK Flexibility Score: inf
ROOT
ATOM      1  C   UNL A   1      48.356  20.236  37.546  1.00  0.00     0.188 C 
ENDROOT
BRANCH   1   2
ATOM      2  O   UNL A   1      48.617  20.846  36.289  1.00  0.00    -0.377 OA
BRANCH   2   3
ATOM      3  C   UNL A   1      49.586  21.897  36.299  1.00  0.00     0.188 C 
BRANCH   3   4
ATOM      4  C   UNL A   1      48.995  23.299  36.147  1.00  0.00     0.188 C 
BRANCH   4   5
ATOM      5  O   UNL A   1      48.793  23.895  37.435  1.00  0.00    -0.376 OA
BRANCH   5   6
ATOM      6  C   UNL A   1      47.565  24.616  37.572  1.00  0.00     0.202 C 
BRANCH   6   7
ATOM      7  C   UNL A   1      47.403  25.270  38.942  1.00  0.00     0.261 C 
BRANCH   7   8
ATOM      8  O   UNL A   1      46.823  26.577  38.837  1.00  0.00    -0.460 OA
BRANCH   8   9
ATOM      9  C   UNL A   1      46.913  27.450  37.803  1.00  0.00     0.338 C 
ATOM     10  O   UNL A   1      47.895  28.191  37.757  1.00  0.00    -0.246 OA
BRANCH   9  11
ATOM     11  C   UNL A   1      45.934  27.528  36.668  1.00  0.00     0.060 A 
ATOM     12  C   UNL A   1      46.168  28.085  35.409  1.00  0.00     0.016 A 
ATOM     13  C   UNL A   1      44.661  26.974  36.907  1.00  0.00     0.016 A 
ATOM     14  C   UNL A   1      45.153  28.216  34.469  1.00  0.00     0.010 A 
ATOM     15  C   UNL A   1      43.637  27.074  35.959  1.00  0.00     0.010 A 
ATOM     16  C   UNL A   1      43.871  27.760  34.765  1.00  0.00    -0.014 A 
BRANCH  16  17
ATOM     17  C   UNL A   1      42.766  28.260  33.928  1.00  0.00     0.031 A 
ATOM     18  C   UNL A   1      41.859  29.294  34.534  1.00  0.00     0.074 A 
ATOM     19  C   UNL A   1      42.696  27.937  32.627  1.00  0.00     0.049 A 
ATOM     20  N   UNL A   1      40.836  29.915  34.012  1.00  0.00    -0.248 NA
ATOM     21  C   UNL A   1      42.166  29.699  35.917  1.00  0.00     0.031 C 
ATOM     22  C   UNL A   1      43.628  27.055  31.928  1.00  0.00     0.029 A 
ATOM     23  N   UNL A   1      41.826  28.350  31.654  1.00  0.00    -0.354 N 
ATOM     24  C   UNL A   1      40.363  30.756  35.011  1.00  0.00     0.074 A 
ATOM     25  C   UNL A   1      41.206  30.573  36.167  1.00  0.00     0.031 C 
ATOM     26  C   UNL A   1      43.297  27.014  30.626  1.00  0.00     0.029 A 
ATOM     27  C   UNL A   1      42.101  27.824  30.416  1.00  0.00     0.049 A 
ATOM     28  H   UNL A   1      41.077  28.965  31.825  1.00  0.00     0.167 HD
ATOM     29  C   UNL A   1      39.308  31.601  34.963  1.00  0.00     0.037 A 
ATOM     30  C   UNL A   1      41.437  27.978  29.254  1.00  0.00     0.037 A 
ATOM     31  C   UNL A   1      38.487  31.767  33.796  1.00  0.00     0.049 A 
ATOM     32  C   UNL A   1      40.215  28.860  29.248  1.00  0.00     0.074 A 
ATOM     33  C   UNL A   1      37.342  32.523  33.638  1.00  0.00     0.029 A 
ATOM     34  N   UNL A   1      38.741  31.154  32.575  1.00  0.00    -0.354 N 
ATOM     35  N   UNL A   1      39.717  29.592  30.217  1.00  0.00    -0.248 NA
ATOM     36  C   UNL A   1      39.455  28.927  27.995  1.00  0.00     0.031 C 
ATOM     37  C   UNL A   1      36.882  32.339  32.328  1.00  0.00     0.029 A 
ATOM     38  C   UNL A   1      37.768  31.506  31.659  1.00  0.00     0.049 A 
ATOM     39  H   UNL A   1      39.502  30.557  32.391  1.00  0.00     0.167 HD
ATOM     40  C   UNL A   1      38.601  30.224  29.688  1.00  0.00     0.074 A 
ATOM     41  C   UNL A   1      38.506  29.798  28.304  1.00  0.00     0.031 C 
ATOM     42  C   UNL A   1      37.727  31.072  30.285  1.00  0.00     0.037 A 
BRANCH  29  43
ATOM     43  C   UNL A   1      38.957  32.318  36.231  1.00  0.00     0.064 A 
ATOM     44  C   UNL A   1      39.484  33.580  36.545  1.00  0.00     0.173 A 
ATOM     45  C   UNL A   1      38.132  31.697  37.181  1.00  0.00     0.173 A 
ATOM     46  F   UNL A   1      40.307  34.201  35.687  1.00  0.00    -0.203 F 
ATOM     47  C   UNL A   1      39.227  34.176  37.778  1.00  0.00     0.198 A 
ATOM     48  C   UNL A   1      37.856  32.307  38.402  1.00  0.00     0.198 A 
ATOM     49  F   UNL A   1      37.613  30.485  36.935  1.00  0.00    -0.203 F 
ATOM     50  F   UNL A   1      39.796  35.351  38.085  1.00  0.00    -0.200 F 
ATOM     51  C   UNL A   1      38.413  33.541  38.704  1.00  0.00     0.200 A 
ATOM     52  F   UNL A   1      37.070  31.690  39.295  1.00  0.00    -0.200 F 
ATOM     53  F   UNL A   1      38.179  34.108  39.896  1.00  0.00    -0.200 F 
ENDBRANCH  29  43
BRANCH  30  54
ATOM     54  C   UNL A   1      41.894  27.273  28.028  1.00  0.00     0.064 A 
ATOM     55  C   UNL A   1      41.423  25.993  27.706  1.00  0.00     0.173 A 
ATOM     56  C   UNL A   1      42.822  27.860  27.153  1.00  0.00     0.173 A 
ATOM     57  F   UNL A   1      40.554  25.374  28.519  1.00  0.00    -0.203 F 
ATOM     58  C   UNL A   1      41.870  25.324  26.565  1.00  0.00     0.198 A 
ATOM     59  C   UNL A   1      43.245  27.204  25.998  1.00  0.00     0.198 A 
ATOM     60  F   UNL A   1      43.311  29.081  27.413  1.00  0.00    -0.203 F 
ATOM     61  F   UNL A   1      41.435  24.083  26.306  1.00  0.00    -0.200 F 
ATOM     62  C   UNL A   1      42.775  25.933  25.710  1.00  0.00     0.200 A 
ATOM     63  F   UNL A   1      44.110  27.803  25.168  1.00  0.00    -0.200 F 
ATOM     64  F   UNL A   1      43.200  25.292  24.612  1.00  0.00    -0.200 F 
ENDBRANCH  30  54
BRANCH  42  65
ATOM     65  C   UNL A   1      36.628  31.625  29.431  1.00  0.00     0.064 A 
ATOM     66  C   UNL A   1      35.562  30.824  28.998  1.00  0.00     0.173 A 
ATOM     67  C   UNL A   1      36.621  32.984  29.086  1.00  0.00     0.173 A 
ATOM     68  F   UNL A   1      35.536  29.516  29.294  1.00  0.00    -0.203 F 
ATOM     69  C   UNL A   1      34.536  31.363  28.228  1.00  0.00     0.198 A 
ATOM     70  C   UNL A   1      35.579  33.524  28.340  1.00  0.00     0.198 A 
ATOM     71  F   UNL A   1      37.617  33.789  29.486  1.00  0.00    -0.203 F 
ATOM     72  F   UNL A   1      33.546  30.574  27.788  1.00  0.00    -0.200 F 
ATOM     73  C   UNL A   1      34.542  32.713  27.907  1.00  0.00     0.200 A 
ATOM     74  F   UNL A   1      35.579  34.830  28.041  1.00  0.00    -0.200 F 
ATOM     75  F   UNL A   1      33.548  33.230  27.172  1.00  0.00    -0.200 F 
ENDBRANCH  42  65
ENDBRANCH  16  17
ENDBRANCH   9  11
ENDBRANCH   8   9
ENDBRANCH   7   8
ENDBRANCH   6   7
ENDBRANCH   5   6
ENDBRANCH   4   5
ENDBRANCH   3   4
ENDBRANCH   2   3
ENDBRANCH   1   2
BRANCH   1  76
ATOM     76  C   UNL A   1      49.071  20.786  38.793  1.00  0.00     0.188 C 
BRANCH  76  77
ATOM     77  O   UNL A   1      48.223  21.045  39.908  1.00  0.00    -0.376 OA
BRANCH  77  78
ATOM     78  C   UNL A   1      46.824  20.987  39.636  1.00  0.00     0.202 C 
BRANCH  78  79
ATOM     79  C   UNL A   1      46.053  19.980  40.498  1.00  0.00     0.261 C 
BRANCH  79  80
ATOM     80  O   UNL A   1      45.605  18.823  39.779  1.00  0.00    -0.460 OA
BRANCH  80  81
ATOM     81  C   UNL A   1      46.146  17.632  40.111  1.00  0.00     0.338 C 
ATOM     82  O   UNL A   1      47.326  17.332  40.092  1.00  0.00    -0.246 OA
BRANCH  81  83
ATOM     83  C   UNL A   1      45.076  16.814  40.735  1.00  0.00     0.060 A 
ATOM     84  C   UNL A   1      45.117  16.614  42.124  1.00  0.00     0.017 A 
ATOM     85  C   UNL A   1      43.965  16.376  39.992  1.00  0.00     0.017 A 
ATOM     86  C   UNL A   1      44.075  15.943  42.765  1.00  0.00     0.022 A 
ATOM     87  C   UNL A   1      42.915  15.720  40.634  1.00  0.00     0.022 A 
ATOM     88  C   UNL A   1      43.001  15.470  42.009  1.00  0.00     0.082 A 
BRANCH  88  89
ATOM     89  S   UNL A   1      41.843  14.343  42.734  1.00  0.00     0.241 S 
ATOM     90  O   UNL A   1      40.842  15.092  43.471  1.00  0.00    -0.207 OA
ATOM     91  O   UNL A   1      41.483  13.389  41.719  1.00  0.00    -0.207 OA
BRANCH  89  92
ATOM     92  N   UNL A   1      42.798  13.531  43.831  1.00  0.00    -0.202 NA
ATOM     93  H   UNL A   1      42.161  13.254  44.577  1.00  0.00     0.141 HD
BRANCH  92  94
ATOM     94  C   UNL A   1      43.632  12.341  43.588  1.00  0.00     0.133 C 
ATOM     95  C   UNL A   1      43.024  10.966  43.846  1.00  0.00     0.087 C 
ATOM     96  C   UNL A   1      44.907  12.328  44.477  1.00  0.00     0.202 C 
ATOM     97  C   UNL A   1      43.530  10.535  45.211  1.00  0.00     0.264 C 
ATOM     98  N   UNL A   1      44.840  11.154  45.361  1.00  0.00    -0.331 N 
ATOM     99  C   UNL A   1      45.239  13.540  45.343  1.00  0.00     0.072 C 
ATOM    100  C   UNL A   1      45.165  11.537  46.731  1.00  0.00     0.262 C 
ATOM    101  H   UNL A   1      45.535  10.455  45.099  1.00  0.00     0.348 HD
ATOM    102  C   UNL A   1      45.319  13.045  46.774  1.00  0.00     0.068 C 
ENDBRANCH  92  94
ENDBRANCH  89  92
ENDBRANCH  88  89
ENDBRANCH  81  83
ENDBRANCH  80  81
ENDBRANCH  79  80
ENDBRANCH  78  79
ENDBRANCH  77  78
ENDBRANCH  76  77
ENDBRANCH   1  76
TORSDOF 23
ENDMDL
MODEL 2
REMARK VINA RESULT:      -9.0     11.492     21.615
REMARK SMILES O=C(OCCOCCOCCOCCOC(=O)c1ccc(S(=O)(=O)N[C@@H]2CC[N@@H+]3CCC[C@H]23)cc1)c1ccc(-c2c3nc(c(-c4c(F)c(F)c(F)c(F)c4F)c4ccc([nH]4)c(-c4c(F)c(F)c(F)c(F)c4F)c4nc(c(-c5c(F)c(F)c(F)c(F)c5F)c5ccc2[nH]5)C=C4)C=C3)cc1
REMARK SMILES IDX 10 1 9 2 8 3 7 4 6 5 5 6 4 7 3 8 2 9 1 10 36 11 37 12 98 13
REMARK SMILES IDX 38 14 97 15 39 16 40 17 41 18 91 19 42 20 96 21 90 22 92 23
REMARK SMILES IDX 43 24 95 25 89 26 88 27 44 29 76 30 56 31 75 32 57 33 60 34
REMARK SMILES IDX 74 35 93 36 58 37 59 38 73 40 94 41 61 42 45 43 46 44 54 45
REMARK SMILES IDX 47 46 48 47 52 48 55 49 49 50 50 51 53 52 51 53 77 54 78 55
REMARK SMILES IDX 86 56 79 57 80 58 84 59 87 60 81 61 82 62 85 63 83 64 62 65
REMARK SMILES IDX 63 66 71 67 64 68 65 69 69 70 72 71 66 72 67 73 70 74 68 75
REMARK SMILES IDX 11 76 12 77 13 78 14 79 15 80 16 81 17 82 18 83 19 84 35 85
REMARK SMILES IDX 20 86 34 87 21 88 22 89 23 90 24 91 25 92 26 94 27 95 33 96
REMARK SMILES IDX 28 97 29 98 32 99 30 100 31 102
REMARK H PARENT 92 28 60 39 25 93 29 101
REMARK Flexibility Score: inf
ROOT
ATOM      1  C   UNL A   1      49.614  44.300  26.993  1.00  0.00     0.188 C 
ENDROOT
BRANCH   1   2
ATOM      2  O   UNL A   1      49.867  43.360  28.029  1.00  0.00    -0.377 OA
BRANCH   2   3
ATOM      3  C   UNL A   1      48.865  43.273  29.045  1.00  0.00     0.188 C 
BRANCH   3   4
ATOM      4  C   UNL A   1      48.530  41.845  29.478  1.00  0.00     0.188 C 
BRANCH   4   5
ATOM      5  O   UNL A   1      47.471  41.317  28.668  1.00  0.00    -0.376 OA
BRANCH   5   6
ATOM      6  C   UNL A   1      46.308  40.913  29.396  1.00  0.00     0.202 C 
BRANCH   6   7
ATOM      7  C   UNL A   1      45.362  40.037  28.578  1.00  0.00     0.261 C 
BRANCH   7   8
ATOM      8  O   UNL A   1      45.110  38.784  29.227  1.00  0.00    -0.460 OA
BRANCH   8   9
ATOM      9  C   UNL A   1      45.979  37.764  29.441  1.00  0.00     0.338 C 
ATOM     10  O   UNL A   1      46.990  37.997  30.104  1.00  0.00    -0.246 OA
BRANCH   9  11
ATOM     11  C   UNL A   1      45.761  36.351  28.985  1.00  0.00     0.060 A 
ATOM     12  C   UNL A   1      45.206  35.949  27.768  1.00  0.00     0.016 A 
ATOM     13  C   UNL A   1      46.169  35.341  29.878  1.00  0.00     0.016 A 
ATOM     14  C   UNL A   1      44.936  34.614  27.496  1.00  0.00     0.010 A 
ATOM     15  C   UNL A   1      45.928  33.990  29.604  1.00  0.00     0.010 A 
ATOM     16  C   UNL A   1      45.246  33.637  28.438  1.00  0.00    -0.014 A 
BRANCH  16  17
ATOM     17  C   UNL A   1      44.601  32.320  28.285  1.00  0.00     0.031 A 
ATOM     18  C   UNL A   1      45.390  31.245  27.594  1.00  0.00     0.074 A 
ATOM     19  C   UNL A   1      43.438  32.055  28.902  1.00  0.00     0.049 A 
ATOM     20  N   UNL A   1      45.073  30.002  27.353  1.00  0.00    -0.248 NA
ATOM     21  C   UNL A   1      46.737  31.623  27.130  1.00  0.00     0.031 C 
ATOM     22  C   UNL A   1      42.682  33.004  29.717  1.00  0.00     0.029 A 
ATOM     23  N   UNL A   1      42.715  30.895  28.975  1.00  0.00    -0.354 N 
ATOM     24  C   UNL A   1      46.165  29.463  26.685  1.00  0.00     0.074 A 
ATOM     25  C   UNL A   1      47.154  30.506  26.558  1.00  0.00     0.031 C 
ATOM     26  C   UNL A   1      41.611  32.379  30.234  1.00  0.00     0.029 A 
ATOM     27  C   UNL A   1      41.582  31.004  29.742  1.00  0.00     0.049 A 
ATOM     28  H   UNL A   1      42.982  30.064  28.522  1.00  0.00     0.167 HD
ATOM     29  C   UNL A   1      46.319  28.205  26.211  1.00  0.00     0.037 A 
ATOM     30  C   UNL A   1      40.628  30.088  29.994  1.00  0.00     0.037 A 
ATOM     31  C   UNL A   1      45.319  27.184  26.354  1.00  0.00     0.049 A 
ATOM     32  C   UNL A   1      40.782  28.719  29.384  1.00  0.00     0.074 A 
ATOM     33  C   UNL A   1      45.311  25.899  25.852  1.00  0.00     0.029 A 
ATOM     34  N   UNL A   1      44.139  27.350  27.068  1.00  0.00    -0.354 N 
ATOM     35  N   UNL A   1      41.778  28.233  28.680  1.00  0.00    -0.248 NA
ATOM     36  C   UNL A   1      39.678  27.775  29.593  1.00  0.00     0.031 C 
ATOM     37  C   UNL A   1      44.105  25.296  26.233  1.00  0.00     0.029 A 
ATOM     38  C   UNL A   1      43.387  26.192  27.011  1.00  0.00     0.049 A 
ATOM     39  H   UNL A   1      43.877  28.171  27.544  1.00  0.00     0.167 HD
ATOM     40  C   UNL A   1      41.433  26.923  28.379  1.00  0.00     0.074 A 
ATOM     41  C   UNL A   1      40.139  26.687  28.993  1.00  0.00     0.031 C 
ATOM     42  C   UNL A   1      42.112  25.998  27.657  1.00  0.00     0.037 A 
BRANCH  29  43
ATOM     43  C   UNL A   1      47.569  27.923  25.432  1.00  0.00     0.064 A 
ATOM     44  C   UNL A   1      47.581  27.887  24.030  1.00  0.00     0.173 A 
ATOM     45  C   UNL A   1      48.759  27.614  26.108  1.00  0.00     0.173 A 
ATOM     46  F   UNL A   1      46.460  28.139  23.338  1.00  0.00    -0.203 F 
ATOM     47  C   UNL A   1      48.730  27.517  23.334  1.00  0.00     0.198 A 
ATOM     48  C   UNL A   1      49.912  27.269  25.409  1.00  0.00     0.198 A 
ATOM     49  F   UNL A   1      48.796  27.621  27.448  1.00  0.00    -0.203 F 
ATOM     50  F   UNL A   1      48.702  27.422  21.997  1.00  0.00    -0.200 F 
ATOM     51  C   UNL A   1      49.894  27.209  24.024  1.00  0.00     0.200 A 
ATOM     52  F   UNL A   1      51.035  26.971  26.077  1.00  0.00    -0.200 F 
ATOM     53  F   UNL A   1      50.994  26.837  23.354  1.00  0.00    -0.200 F 
ENDBRANCH  29  43
BRANCH  30  54
ATOM     54  C   UNL A   1      39.450  30.440  30.830  1.00  0.00     0.064 A 
ATOM     55  C   UNL A   1      39.395  30.101  32.190  1.00  0.00     0.173 A 
ATOM     56  C   UNL A   1      38.345  31.115  30.286  1.00  0.00     0.173 A 
ATOM     57  F   UNL A   1      40.412  29.434  32.756  1.00  0.00    -0.203 F 
ATOM     58  C   UNL A   1      38.279  30.412  32.967  1.00  0.00     0.198 A 
ATOM     59  C   UNL A   1      37.244  31.452  31.071  1.00  0.00     0.198 A 
ATOM     60  F   UNL A   1      38.341  31.459  28.991  1.00  0.00    -0.203 F 
ATOM     61  F   UNL A   1      38.236  30.037  34.253  1.00  0.00    -0.200 F 
ATOM     62  C   UNL A   1      37.208  31.093  32.409  1.00  0.00     0.200 A 
ATOM     63  F   UNL A   1      36.217  32.120  30.529  1.00  0.00    -0.200 F 
ATOM     64  F   UNL A   1      36.138  31.395  33.157  1.00  0.00    -0.200 F 
ENDBRANCH  30  54
BRANCH  42  65
ATOM     65  C   UNL A   1      41.489  24.642  27.535  1.00  0.00     0.064 A 
ATOM     66  C   UNL A   1      40.371  24.418  26.721  1.00  0.00     0.173 A 
ATOM     67  C   UNL A   1      42.053  23.546  28.205  1.00  0.00     0.173 A 
ATOM     68  F   UNL A   1      39.792  25.440  26.073  1.00  0.00    -0.203 F 
ATOM     69  C   UNL A   1      39.823  23.145  26.600  1.00  0.00     0.198 A 
ATOM     70  C   UNL A   1      41.519  22.270  28.059  1.00  0.00     0.198 A 
ATOM     71  F   UNL A   1      43.129  23.712  28.988  1.00  0.00    -0.203 F 
ATOM     72  F   UNL A   1      38.728  22.958  25.849  1.00  0.00    -0.200 F 
ATOM     73  C   UNL A   1      40.402  22.072  27.262  1.00  0.00     0.200 A 
ATOM     74  F   UNL A   1      42.086  21.232  28.689  1.00  0.00    -0.200 F 
ATOM     75  F   UNL A   1      39.877  20.845  27.137  1.00  0.00    -0.200 F 
ENDBRANCH  42  65
ENDBRANCH  16  17
ENDBRANCH   9  11
ENDBRANCH   8   9
ENDBRANCH   7   8
ENDBRANCH   6   7
ENDBRANCH   5   6
ENDBRANCH   4   5
ENDBRANCH   3   4
ENDBRANCH   2   3
ENDBRANCH   1   2
BRANCH   1  76
ATOM     76  C   UNL A   1      48.861  45.596  27.344  1.00  0.00     0.188 C 
BRANCH  76  77
ATOM     77  O   UNL A   1      47.555  45.702  26.787  1.00  0.00    -0.376 OA
BRANCH  77  78
ATOM     78  C   UNL A   1      47.294  44.847  25.675  1.00  0.00     0.202 C 
BRANCH  78  79
ATOM     79  C   UNL A   1      46.577  43.541  26.035  1.00  0.00     0.261 C 
BRANCH  79  80
ATOM     80  O   UNL A   1      45.471  43.230  25.177  1.00  0.00    -0.460 OA
BRANCH  80  81
ATOM     81  C   UNL A   1      45.654  42.271  24.245  1.00  0.00     0.338 C 
ATOM     82  O   UNL A   1      46.235  41.210  24.388  1.00  0.00    -0.246 OA
BRANCH  81  83
ATOM     83  C   UNL A   1      44.818  42.626  23.071  1.00  0.00     0.060 A 
ATOM     84  C   UNL A   1      43.548  43.178  23.303  1.00  0.00     0.017 A 
ATOM     85  C   UNL A   1      45.329  42.558  21.763  1.00  0.00     0.017 A 
ATOM     86  C   UNL A   1      42.774  43.624  22.231  1.00  0.00     0.022 A 
ATOM     87  C   UNL A   1      44.563  43.019  20.693  1.00  0.00     0.022 A 
ATOM     88  C   UNL A   1      43.273  43.506  20.932  1.00  0.00     0.082 A 
BRANCH  88  89
ATOM     89  S   UNL A   1      42.196  43.754  19.549  1.00  0.00     0.241 S 
ATOM     90  O   UNL A   1      42.516  42.790  18.513  1.00  0.00    -0.207 OA
ATOM     91  O   UNL A   1      40.861  43.897  20.068  1.00  0.00    -0.207 OA
BRANCH  89  92
ATOM     92  N   UNL A   1      42.662  45.263  19.019  1.00  0.00    -0.202 NA
ATOM     93  H   UNL A   1      42.728  45.828  19.865  1.00  0.00     0.141 HD
BRANCH  92  94
ATOM     94  C   UNL A   1      43.866  45.609  18.241  1.00  0.00     0.133 C 
ATOM     95  C   UNL A   1      44.868  46.583  18.852  1.00  0.00     0.087 C 
ATOM     96  C   UNL A   1      43.512  46.280  16.884  1.00  0.00     0.202 C 
ATOM     97  C   UNL A   1      44.574  47.933  18.223  1.00  0.00     0.264 C 
ATOM     98  N   UNL A   1      44.060  47.645  16.890  1.00  0.00    -0.331 N 
ATOM     99  C   UNL A   1      42.055  46.369  16.440  1.00  0.00     0.072 C 
ATOM    100  C   UNL A   1      43.054  48.593  16.422  1.00  0.00     0.262 C 
ATOM    101  H   UNL A   1      44.842  47.732  16.241  1.00  0.00     0.348 HD
ATOM    102  C   UNL A   1      41.752  47.840  16.229  1.00  0.00     0.068 C 
ENDBRANCH  92  94
ENDBRANCH  89  92
ENDBRANCH  88  89
ENDBRANCH  81  83
ENDBRANCH  80  81
ENDBRANCH  79  80
ENDBRANCH  78  79
ENDBRANCH  77  78
ENDBRANCH  76  77
ENDBRANCH   1  76
TORSDOF 23
ENDMDL
MODEL 3
REMARK VINA RESULT:      -9.0      9.983     15.125
REMARK SMILES O=C(OCCOCCOCCOCCOC(=O)c1ccc(S(=O)(=O)N[C@@H]2CC[N@@H+]3CCC[C@H]23)cc1)c1ccc(-c2c3nc(c(-c4c(F)c(F)c(F)c(F)c4F)c4ccc([nH]4)c(-c4c(F)c(F)c(F)c(F)c4F)c4nc(c(-c5c(F)c(F)c(F)c(F)c5F)c5ccc2[nH]5)C=C4)C=C3)cc1
REMARK SMILES IDX 10 1 9 2 8 3 7 4 6 5 5 6 4 7 3 8 2 9 1 10 36 11 37 12 98 13
REMARK SMILES IDX 38 14 97 15 39 16 40 17 41 18 91 19 42 20 96 21 90 22 92 23
REMARK SMILES IDX 43 24 95 25 89 26 88 27 44 29 76 30 56 31 75 32 57 33 60 34
REMARK SMILES IDX 74 35 93 36 58 37 59 38 73 40 94 41 61 42 45 43 46 44 54 45
REMARK SMILES IDX 47 46 48 47 52 48 55 49 49 50 50 51 53 52 51 53 77 54 78 55
REMARK SMILES IDX 86 56 79 57 80 58 84 59 87 60 81 61 82 62 85 63 83 64 62 65
REMARK SMILES IDX 63 66 71 67 64 68 65 69 69 70 72 71 66 72 67 73 70 74 68 75
REMARK SMILES IDX 11 76 12 77 13 78 14 79 15 80 16 81 17 82 18 83 19 84 35 85
REMARK SMILES IDX 20 86 34 87 21 88 22 89 23 90 24 91 25 92 26 94 27 95 33 96
REMARK SMILES IDX 28 97 29 98 32 99 30 100 31 102
REMARK H PARENT 92 28 60 39 25 93 29 101
REMARK Flexibility Score: inf
ROOT
ATOM      1  C   UNL A   1      43.774  40.051  28.382  1.00  0.00     0.188 C 
ENDROOT
BRANCH   1   2
ATOM      2  O   UNL A   1      42.987  40.432  29.503  1.00  0.00    -0.377 OA
BRANCH   2   3
ATOM      3  C   UNL A   1      43.677  40.494  30.753  1.00  0.00     0.188 C 
BRANCH   3   4
ATOM      4  C   UNL A   1      42.760  40.595  31.973  1.00  0.00     0.188 C 
BRANCH   4   5
ATOM      5  O   UNL A   1      43.002  39.499  32.867  1.00  0.00    -0.376 OA
BRANCH   5   6
ATOM      6  C   UNL A   1      44.368  39.085  32.947  1.00  0.00     0.202 C 
BRANCH   6   7
ATOM      7  C   UNL A   1      44.601  37.677  32.404  1.00  0.00     0.261 C 
BRANCH   7   8
ATOM      8  O   UNL A   1      43.620  36.754  32.897  1.00  0.00    -0.460 OA
BRANCH   8   9
ATOM      9  C   UNL A   1      43.820  35.655  33.667  1.00  0.00     0.338 C 
ATOM     10  O   UNL A   1      43.620  35.755  34.878  1.00  0.00    -0.246 OA
BRANCH   9  11
ATOM     11  C   UNL A   1      44.201  34.303  33.138  1.00  0.00     0.060 A 
ATOM     12  C   UNL A   1      44.975  34.046  32.004  1.00  0.00     0.016 A 
ATOM     13  C   UNL A   1      43.733  33.195  33.871  1.00  0.00     0.016 A 
ATOM     14  C   UNL A   1      45.167  32.753  31.531  1.00  0.00     0.010 A 
ATOM     15  C   UNL A   1      43.943  31.887  33.421  1.00  0.00     0.010 A 
ATOM     16  C   UNL A   1      44.603  31.675  32.209  1.00  0.00    -0.014 A 
BRANCH  16  17
ATOM     17  C   UNL A   1      44.497  30.399  31.481  1.00  0.00     0.031 A 
ATOM     18  C   UNL A   1      43.160  30.055  30.888  1.00  0.00     0.074 A 
ATOM     19  C   UNL A   1      45.595  29.676  31.208  1.00  0.00     0.049 A 
ATOM     20  N   UNL A   1      42.802  29.017  30.182  1.00  0.00    -0.248 NA
ATOM     21  C   UNL A   1      42.081  31.036  31.105  1.00  0.00     0.031 C 
ATOM     22  C   UNL A   1      46.954  30.021  31.622  1.00  0.00     0.029 A 
ATOM     23  N   UNL A   1      45.744  28.527  30.480  1.00  0.00    -0.354 N 
ATOM     24  C   UNL A   1      41.455  29.207  29.900  1.00  0.00     0.074 A 
ATOM     25  C   UNL A   1      41.056  30.454  30.504  1.00  0.00     0.031 C 
ATOM     26  C   UNL A   1      47.808  29.115  31.116  1.00  0.00     0.029 A 
ATOM     27  C   UNL A   1      47.047  28.102  30.390  1.00  0.00     0.049 A 
ATOM     28  H   UNL A   1      44.992  28.051  30.061  1.00  0.00     0.167 HD
ATOM     29  C   UNL A   1      40.625  28.397  29.203  1.00  0.00     0.037 A 
ATOM     30  C   UNL A   1      47.549  27.003  29.796  1.00  0.00     0.037 A 
ATOM     31  C   UNL A   1      41.049  27.161  28.608  1.00  0.00     0.049 A 
ATOM     32  C   UNL A   1      46.590  26.074  29.097  1.00  0.00     0.074 A 
ATOM     33  C   UNL A   1      40.296  26.209  27.950  1.00  0.00     0.029 A 
ATOM     34  N   UNL A   1      42.364  26.713  28.605  1.00  0.00    -0.354 N 
ATOM     35  N   UNL A   1      45.299  26.211  28.901  1.00  0.00    -0.248 NA
ATOM     36  C   UNL A   1      47.152  24.835  28.547  1.00  0.00     0.031 C 
ATOM     37  C   UNL A   1      41.153  25.165  27.578  1.00  0.00     0.029 A 
ATOM     38  C   UNL A   1      42.445  25.491  27.964  1.00  0.00     0.049 A 
ATOM     39  H   UNL A   1      43.126  27.195  29.001  1.00  0.00     0.167 HD
ATOM     40  C   UNL A   1      44.897  25.089  28.189  1.00  0.00     0.074 A 
ATOM     41  C   UNL A   1      46.088  24.290  27.974  1.00  0.00     0.031 C 
ATOM     42  C   UNL A   1      43.659  24.742  27.757  1.00  0.00     0.037 A 
BRANCH  29  43
ATOM     43  C   UNL A   1      39.182  28.800  29.140  1.00  0.00     0.064 A 
ATOM     44  C   UNL A   1      38.614  29.364  27.988  1.00  0.00     0.173 A 
ATOM     45  C   UNL A   1      38.374  28.684  30.281  1.00  0.00     0.173 A 
ATOM     46  F   UNL A   1      39.355  29.531  26.882  1.00  0.00    -0.203 F 
ATOM     47  C   UNL A   1      37.300  29.828  27.991  1.00  0.00     0.198 A 
ATOM     48  C   UNL A   1      37.053  29.125  30.273  1.00  0.00     0.198 A 
ATOM     49  F   UNL A   1      38.872  28.164  31.412  1.00  0.00    -0.203 F 
ATOM     50  F   UNL A   1      36.799  30.426  26.901  1.00  0.00    -0.200 F 
ATOM     51  C   UNL A   1      36.521  29.708  29.133  1.00  0.00     0.200 A 
ATOM     52  F   UNL A   1      36.302  29.008  31.377  1.00  0.00    -0.200 F 
ATOM     53  F   UNL A   1      35.263  30.169  29.140  1.00  0.00    -0.200 F 
ENDBRANCH  29  43
BRANCH  30  54
ATOM     54  C   UNL A   1      49.006  26.714  29.857  1.00  0.00     0.064 A 
ATOM     55  C   UNL A   1      49.572  26.054  30.957  1.00  0.00     0.173 A 
ATOM     56  C   UNL A   1      49.870  27.099  28.820  1.00  0.00     0.173 A 
ATOM     57  F   UNL A   1      48.797  25.685  31.988  1.00  0.00    -0.203 F 
ATOM     58  C   UNL A   1      50.943  25.804  31.023  1.00  0.00     0.198 A 
ATOM     59  C   UNL A   1      51.235  26.822  28.872  1.00  0.00     0.198 A 
ATOM     60  F   UNL A   1      49.385  27.738  27.745  1.00  0.00    -0.203 F 
ATOM     61  F   UNL A   1      51.462  25.210  32.107  1.00  0.00    -0.200 F 
ATOM     62  C   UNL A   1      51.772  26.182  29.977  1.00  0.00     0.200 A 
ATOM     63  F   UNL A   1      52.029  27.179  27.854  1.00  0.00    -0.200 F 
ATOM     64  F   UNL A   1      53.088  25.936  30.039  1.00  0.00    -0.200 F 
ENDBRANCH  30  54
BRANCH  42  65
ATOM     65  C   UNL A   1      43.547  23.471  26.973  1.00  0.00     0.064 A 
ATOM     66  C   UNL A   1      43.999  23.384  25.649  1.00  0.00     0.173 A 
ATOM     67  C   UNL A   1      43.025  22.317  27.575  1.00  0.00     0.173 A 
ATOM     68  F   UNL A   1      44.493  24.466  25.031  1.00  0.00    -0.203 F 
ATOM     69  C   UNL A   1      43.911  22.186  24.947  1.00  0.00     0.198 A 
ATOM     70  C   UNL A   1      42.965  21.115  26.877  1.00  0.00     0.198 A 
ATOM     71  F   UNL A   1      42.588  22.353  28.842  1.00  0.00    -0.203 F 
ATOM     72  F   UNL A   1      44.311  22.131  23.668  1.00  0.00    -0.200 F 
ATOM     73  C   UNL A   1      43.402  21.052  25.563  1.00  0.00     0.200 A 
ATOM     74  F   UNL A   1      42.484  20.018  27.478  1.00  0.00    -0.200 F 
ATOM     75  F   UNL A   1      43.326  19.898  24.886  1.00  0.00    -0.200 F 
ENDBRANCH  42  65
ENDBRANCH  16  17
ENDBRANCH   9  11
ENDBRANCH   8   9
ENDBRANCH   7   8
ENDBRANCH   6   7
ENDBRANCH   5   6
ENDBRANCH   4   5
ENDBRANCH   3   4
ENDBRANCH   2   3
ENDBRANCH   1   2
BRANCH   1  76
ATOM     76  C   UNL A   1      43.717  38.588  27.907  1.00  0.00     0.188 C 
BRANCH  76  77
ATOM     77  O   UNL A   1      42.699  38.304  26.954  1.00  0.00    -0.376 OA
BRANCH  77  78
ATOM     78  C   UNL A   1      41.912  37.146  27.228  1.00  0.00     0.202 C 
BRANCH  78  79
ATOM     79  C   UNL A   1      42.241  36.458  28.558  1.00  0.00     0.261 C 
BRANCH  79  80
ATOM     80  O   UNL A   1      41.172  35.655  29.076  1.00  0.00    -0.460 OA
BRANCH  80  81
ATOM     81  C   UNL A   1      41.480  34.418  29.520  1.00  0.00     0.338 C 
ATOM     82  O   UNL A   1      42.534  33.827  29.373  1.00  0.00    -0.246 OA
BRANCH  81  83
ATOM     83  C   UNL A   1      40.389  33.987  30.430  1.00  0.00     0.060 A 
ATOM     84  C   UNL A   1      40.346  34.536  31.722  1.00  0.00     0.017 A 
ATOM     85  C   UNL A   1      39.337  33.173  29.974  1.00  0.00     0.017 A 
ATOM     86  C   UNL A   1      39.279  34.242  32.571  1.00  0.00     0.022 A 
ATOM     87  C   UNL A   1      38.262  32.891  30.817  1.00  0.00     0.022 A 
ATOM     88  C   UNL A   1      38.265  33.391  32.124  1.00  0.00     0.082 A 
BRANCH  88  89
ATOM     89  S   UNL A   1      37.087  32.744  33.276  1.00  0.00     0.241 S 
ATOM     90  O   UNL A   1      36.890  31.330  33.018  1.00  0.00    -0.207 OA
ATOM     91  O   UNL A   1      37.450  33.236  34.579  1.00  0.00    -0.207 OA
BRANCH  89  92
ATOM     92  N   UNL A   1      35.698  33.552  32.834  1.00  0.00    -0.202 NA
ATOM     93  H   UNL A   1      35.014  33.306  33.550  1.00  0.00     0.141 HD
BRANCH  92  94
ATOM     94  C   UNL A   1      35.528  35.002  32.635  1.00  0.00     0.133 C 
ATOM     95  C   UNL A   1      34.477  35.730  33.467  1.00  0.00     0.087 C 
ATOM     96  C   UNL A   1      35.115  35.347  31.176  1.00  0.00     0.202 C 
ATOM     97  C   UNL A   1      33.262  35.879  32.568  1.00  0.00     0.264 C 
ATOM     98  N   UNL A   1      33.784  35.973  31.211  1.00  0.00    -0.331 N 
ATOM     99  C   UNL A   1      35.081  34.248  30.118  1.00  0.00     0.072 C 
ATOM    100  C   UNL A   1      32.920  35.374  30.198  1.00  0.00     0.262 C 
ATOM    101  H   UNL A   1      33.835  36.964  30.977  1.00  0.00     0.348 HD
ATOM    102  C   UNL A   1      33.669  34.218  29.564  1.00  0.00     0.068 C 
ENDBRANCH  92  94
ENDBRANCH  89  92
ENDBRANCH  88  89
ENDBRANCH  81  83
ENDBRANCH  80  81
ENDBRANCH  79  80
ENDBRANCH  78  79
ENDBRANCH  77  78
ENDBRANCH  76  77
ENDBRANCH   1  76
TORSDOF 23
ENDMDL
