MODEL 1
REMARK VINA RESULT:     -12.7      0.000      0.000
REMARK SMILES COc1ccc(-c2[nH]nc3nc(-c4ccc(C(F)(F)F)cc4)cc(C(=O)OCCOCCOCCOCCOC(=O)c4ccc(-c5c6nc(c(-c7c(F)c(F)c(F)c(F)c7F)c7ccc([nH]7)c(-c7c(F)c(F)c(F)c(F)c7F)c7nc(c(-c8c(F)c(F)c(F)c(F)c8F)c8ccc5[nH]8)C=C7)C=C6)cc4)c23)cc1
REMARK SMILES IDX 33 1 32 2 31 3 30 4 29 5 28 6 27 7 25 8 26 9 24 10 7 11 8 12
REMARK SMILES IDX 105 13 9 14 10 16 11 17 23 18 12 19 6 20 3 21 4 22 107 23
REMARK SMILES IDX 5 24 106 25 2 26 1 27 13 28 14 29 22 30 15 31 21 32 16 33
REMARK SMILES IDX 17 34 18 35 19 36 20 37 34 38 35 39 36 40 37 41 38 42 39 43
REMARK SMILES IDX 40 44 41 45 42 46 43 47 104 48 44 49 103 50 45 51 46 52
REMARK SMILES IDX 47 53 97 54 48 55 102 56 96 57 98 58 49 59 101 60 95 61
REMARK SMILES IDX 94 62 50 64 82 65 62 66 81 67 63 68 66 69 80 70 99 71 64 72
REMARK SMILES IDX 65 73 79 75 100 76 67 77 51 78 52 79 60 80 53 81 54 82 58 83
REMARK SMILES IDX 61 84 55 85 56 86 59 87 57 88 83 89 84 90 92 91 85 92 86 93
REMARK SMILES IDX 90 94 93 95 87 96 88 97 91 98 89 99 68 100 69 101 77 102
REMARK SMILES IDX 70 103 71 104 75 105 78 106 72 107 73 108 76 109 74 110
REMARK H PARENT 8 15 98 63 66 74
REMARK Flexibility Score: inf
ROOT
ATOM      1  O   UNL A   1      32.954  30.399  27.625  1.00  0.00    -0.377 OA
ENDROOT
BRANCH   1   2
ATOM      2  C   UNL A   1      32.561  29.518  26.574  1.00  0.00     0.188 C 
BRANCH   2   3
ATOM      3  C   UNL A   1      33.693  29.021  25.681  1.00  0.00     0.188 C 
BRANCH   3   4
ATOM      4  O   UNL A   1      33.448  29.138  24.291  1.00  0.00    -0.376 OA
BRANCH   4   5
ATOM      5  C   UNL A   1      34.032  28.218  23.381  1.00  0.00     0.202 C 
BRANCH   5   6
ATOM      6  C   UNL A   1      33.871  26.724  23.688  1.00  0.00     0.261 C 
BRANCH   6   7
ATOM      7  O   UNL A   1      33.551  25.921  22.534  1.00  0.00    -0.460 OA
BRANCH   7   8
ATOM      8  C   UNL A   1      32.272  25.503  22.394  1.00  0.00     0.339 C 
ATOM      9  O   UNL A   1      31.508  25.857  21.512  1.00  0.00    -0.246 OA
BRANCH   8  10
ATOM     10  C   UNL A   1      32.015  24.475  23.427  1.00  0.00     0.075 A 
ATOM     11  C   UNL A   1      30.334  25.608  24.950  1.00  0.00     0.075 A 
ATOM     12  N   UNL A   1      29.872  25.212  26.186  1.00  0.00    -0.275 N 
ATOM     13  C   UNL A   1      31.228  24.612  24.581  1.00  0.00     0.061 A 
ATOM     14  N   UNL A   1      30.224  23.969  26.543  1.00  0.00    -0.154 NA
ATOM     15  H   UNL A   1      29.327  25.796  26.761  1.00  0.00     0.190 HD
ATOM     16  C   UNL A   1      31.012  23.570  25.546  1.00  0.00     0.182 A 
ATOM     17  N   UNL A   1      31.509  22.319  25.399  1.00  0.00    -0.226 NA
ATOM     18  C   UNL A   1      32.480  23.146  23.293  1.00  0.00     0.045 A 
ATOM     19  C   UNL A   1      32.218  22.131  24.253  1.00  0.00     0.074 A 
BRANCH  11  20
ATOM     20  C   UNL A   1      29.701  26.728  24.264  1.00  0.00     0.001 A 
ATOM     21  C   UNL A   1      28.530  28.982  23.044  1.00  0.00     0.118 A 
ATOM     22  C   UNL A   1      27.792  27.814  23.252  1.00  0.00     0.047 A 
ATOM     23  C   UNL A   1      29.875  29.004  23.402  1.00  0.00     0.047 A 
ATOM     24  C   UNL A   1      28.374  26.687  23.845  1.00  0.00     0.014 A 
ATOM     25  C   UNL A   1      30.456  27.882  24.005  1.00  0.00     0.014 A 
BRANCH  21  26
ATOM     26  O   UNL A   1      27.825  30.022  22.503  1.00  0.00    -0.497 OA
ATOM     27  C   UNL A   1      27.499  31.102  23.370  1.00  0.00     0.278 C 
ENDBRANCH  21  26
ENDBRANCH  11  20
BRANCH  19  28
ATOM     28  C   UNL A   1      32.741  20.750  24.080  1.00  0.00     0.000 A 
ATOM     29  C   UNL A   1      32.134  19.840  23.192  1.00  0.00     0.011 A 
ATOM     30  C   UNL A   1      33.826  20.273  24.836  1.00  0.00     0.011 A 
ATOM     31  C   UNL A   1      32.566  18.510  23.093  1.00  0.00     0.014 A 
ATOM     32  C   UNL A   1      34.262  18.946  24.741  1.00  0.00     0.014 A 
ATOM     33  C   UNL A   1      33.625  18.044  23.883  1.00  0.00     0.056 A 
BRANCH  33  34
ATOM     34  C   UNL A   1      34.041  16.593  23.830  1.00  0.00     0.416 C 
ATOM     35  F   UNL A   1      33.046  15.750  24.221  1.00  0.00    -0.166 F 
ATOM     36  F   UNL A   1      34.402  16.194  22.580  1.00  0.00    -0.166 F 
ATOM     37  F   UNL A   1      35.106  16.306  24.633  1.00  0.00    -0.166 F 
ENDBRANCH  33  34
ENDBRANCH  19  28
ENDBRANCH   8  10
ENDBRANCH   7   8
ENDBRANCH   6   7
ENDBRANCH   5   6
ENDBRANCH   4   5
ENDBRANCH   3   4
ENDBRANCH   2   3
ENDBRANCH   1   2
BRANCH   1  38
ATOM     38  C   UNL A   1      34.311  30.849  27.598  1.00  0.00     0.188 C 
BRANCH  38  39
ATOM     39  C   UNL A   1      34.606  32.331  27.972  1.00  0.00     0.188 C 
BRANCH  39  40
ATOM     40  O   UNL A   1      33.456  33.148  28.149  1.00  0.00    -0.376 OA
BRANCH  40  41
ATOM     41  C   UNL A   1      33.517  34.562  28.268  1.00  0.00     0.202 C 
BRANCH  41  42
ATOM     42  C   UNL A   1      33.320  35.285  29.604  1.00  0.00     0.261 C 
BRANCH  42  43
ATOM     43  O   UNL A   1      34.241  34.926  30.603  1.00  0.00    -0.460 OA
BRANCH  43  44
ATOM     44  C   UNL A   1      33.724  34.880  31.839  1.00  0.00     0.338 C 
ATOM     45  O   UNL A   1      32.651  35.326  32.207  1.00  0.00    -0.246 OA
BRANCH  44  46
ATOM     46  C   UNL A   1      34.712  34.254  32.724  1.00  0.00     0.060 A 
ATOM     47  C   UNL A   1      35.863  35.006  32.936  1.00  0.00     0.016 A 
ATOM     48  C   UNL A   1      34.662  32.863  32.902  1.00  0.00     0.016 A 
ATOM     49  C   UNL A   1      37.048  34.326  32.923  1.00  0.00     0.010 A 
ATOM     50  C   UNL A   1      35.846  32.183  32.875  1.00  0.00     0.010 A 
ATOM     51  C   UNL A   1      37.004  32.938  32.747  1.00  0.00    -0.014 A 
BRANCH  51  52
ATOM     52  C   UNL A   1      38.239  32.284  32.420  1.00  0.00     0.031 A 
ATOM     53  C   UNL A   1      39.111  32.134  33.593  1.00  0.00     0.074 A 
ATOM     54  C   UNL A   1      38.495  31.845  31.176  1.00  0.00     0.049 A 
ATOM     55  N   UNL A   1      40.221  32.746  33.825  1.00  0.00    -0.248 NA
ATOM     56  C   UNL A   1      38.576  31.375  34.732  1.00  0.00     0.031 C 
ATOM     57  C   UNL A   1      37.582  31.726  30.037  1.00  0.00     0.029 A 
ATOM     58  N   UNL A   1      39.648  31.311  30.704  1.00  0.00    -0.354 N 
ATOM     59  C   UNL A   1      40.629  32.288  35.069  1.00  0.00     0.074 A 
ATOM     60  C   UNL A   1      39.495  31.631  35.661  1.00  0.00     0.031 C 
ATOM     61  C   UNL A   1      38.155  30.944  29.092  1.00  0.00     0.029 A 
ATOM     62  C   UNL A   1      39.507  30.617  29.513  1.00  0.00     0.049 A 
ATOM     63  H   UNL A   1      40.510  31.408  31.167  1.00  0.00     0.167 HD
ATOM     64  C   UNL A   1      41.949  32.230  35.378  1.00  0.00     0.037 A 
ATOM     65  C   UNL A   1      40.420  29.747  29.015  1.00  0.00     0.037 A 
ATOM     66  C   UNL A   1      42.721  33.108  34.533  1.00  0.00     0.049 A 
ATOM     67  C   UNL A   1      41.724  30.049  29.673  1.00  0.00     0.074 A 
ATOM     68  C   UNL A   1      42.710  34.470  34.297  1.00  0.00     0.029 A 
ATOM     69  N   UNL A   1      43.418  32.556  33.485  1.00  0.00    -0.354 N 
ATOM     70  N   UNL A   1      42.401  31.148  29.468  1.00  0.00    -0.248 NA
ATOM     71  C   UNL A   1      42.027  29.359  30.921  1.00  0.00     0.031 C 
ATOM     72  C   UNL A   1      42.979  34.610  32.903  1.00  0.00     0.029 A 
ATOM     73  C   UNL A   1      43.191  33.334  32.380  1.00  0.00     0.049 A 
ATOM     74  H   UNL A   1      43.979  31.747  33.522  1.00  0.00     0.167 HD
ATOM     75  C   UNL A   1      42.887  31.507  30.718  1.00  0.00     0.074 A 
ATOM     76  C   UNL A   1      42.688  30.330  31.559  1.00  0.00     0.031 C 
ATOM     77  C   UNL A   1      43.131  32.814  31.034  1.00  0.00     0.037 A 
BRANCH  64  78
ATOM     78  C   UNL A   1      42.557  31.084  36.146  1.00  0.00     0.064 A 
ATOM     79  C   UNL A   1      43.443  31.377  37.199  1.00  0.00     0.173 A 
ATOM     80  C   UNL A   1      42.551  29.738  35.710  1.00  0.00     0.173 A 
ATOM     81  F   UNL A   1      43.538  32.625  37.682  1.00  0.00    -0.203 F 
ATOM     82  C   UNL A   1      44.320  30.419  37.708  1.00  0.00     0.198 A 
ATOM     83  C   UNL A   1      43.386  28.773  36.262  1.00  0.00     0.198 A 
ATOM     84  F   UNL A   1      41.831  29.319  34.665  1.00  0.00    -0.203 F 
ATOM     85  F   UNL A   1      45.240  30.777  38.612  1.00  0.00    -0.200 F 
ATOM     86  C   UNL A   1      44.296  29.120  37.233  1.00  0.00     0.200 A 
ATOM     87  F   UNL A   1      43.356  27.524  35.774  1.00  0.00    -0.200 F 
ATOM     88  F   UNL A   1      45.182  28.217  37.672  1.00  0.00    -0.200 F 
ENDBRANCH  64  78
BRANCH  65  89
ATOM     89  C   UNL A   1      40.142  28.462  28.328  1.00  0.00     0.064 A 
ATOM     90  C   UNL A   1      40.708  28.174  27.076  1.00  0.00     0.173 A 
ATOM     91  C   UNL A   1      39.526  27.384  28.997  1.00  0.00     0.173 A 
ATOM     92  F   UNL A   1      41.360  29.128  26.397  1.00  0.00    -0.203 F 
ATOM     93  C   UNL A   1      40.670  26.884  26.534  1.00  0.00     0.198 A 
ATOM     94  C   UNL A   1      39.479  26.102  28.451  1.00  0.00     0.198 A 
ATOM     95  F   UNL A   1      39.039  27.528  30.237  1.00  0.00    -0.203 F 
ATOM     96  F   UNL A   1      41.271  26.633  25.362  1.00  0.00    -0.200 F 
ATOM     97  C   UNL A   1      40.062  25.849  27.224  1.00  0.00     0.200 A 
ATOM     98  F   UNL A   1      38.921  25.102  29.149  1.00  0.00    -0.200 F 
ATOM     99  F   UNL A   1      40.072  24.602  26.731  1.00  0.00    -0.200 F 
ENDBRANCH  65  89
BRANCH  77 100
ATOM    100  C   UNL A   1      43.091  33.822  29.920  1.00  0.00     0.064 A 
ATOM    101  C   UNL A   1      41.914  34.446  29.471  1.00  0.00     0.173 A 
ATOM    102  C   UNL A   1      44.305  34.285  29.395  1.00  0.00     0.173 A 
ATOM    103  F   UNL A   1      40.725  34.136  30.002  1.00  0.00    -0.203 F 
ATOM    104  C   UNL A   1      41.950  35.453  28.508  1.00  0.00     0.198 A 
ATOM    105  C   UNL A   1      44.341  35.318  28.461  1.00  0.00     0.198 A 
ATOM    106  F   UNL A   1      45.465  33.770  29.830  1.00  0.00    -0.203 F 
ATOM    107  F   UNL A   1      40.812  36.024  28.087  1.00  0.00    -0.200 F 
ATOM    108  C   UNL A   1      43.165  35.893  28.009  1.00  0.00     0.200 A 
ATOM    109  F   UNL A   1      45.521  35.775  28.021  1.00  0.00    -0.200 F 
ATOM    110  F   UNL A   1      43.205  36.891  27.115  1.00  0.00    -0.200 F 
ENDBRANCH  77 100
ENDBRANCH  51  52
ENDBRANCH  44  46
ENDBRANCH  43  44
ENDBRANCH  42  43
ENDBRANCH  41  42
ENDBRANCH  40  41
ENDBRANCH  39  40
ENDBRANCH  38  39
ENDBRANCH   1  38
TORSDOF 24
ENDMDL
MODEL 2
REMARK VINA RESULT:     -12.6      3.969      8.807
REMARK SMILES COc1ccc(-c2[nH]nc3nc(-c4ccc(C(F)(F)F)cc4)cc(C(=O)OCCOCCOCCOCCOC(=O)c4ccc(-c5c6nc(c(-c7c(F)c(F)c(F)c(F)c7F)c7ccc([nH]7)c(-c7c(F)c(F)c(F)c(F)c7F)c7nc(c(-c8c(F)c(F)c(F)c(F)c8F)c8ccc5[nH]8)C=C7)C=C6)cc4)c23)cc1
REMARK SMILES IDX 33 1 32 2 31 3 30 4 29 5 28 6 27 7 25 8 26 9 24 10 7 11 8 12
REMARK SMILES IDX 105 13 9 14 10 16 11 17 23 18 12 19 6 20 3 21 4 22 107 23
REMARK SMILES IDX 5 24 106 25 2 26 1 27 13 28 14 29 22 30 15 31 21 32 16 33
REMARK SMILES IDX 17 34 18 35 19 36 20 37 34 38 35 39 36 40 37 41 38 42 39 43
REMARK SMILES IDX 40 44 41 45 42 46 43 47 104 48 44 49 103 50 45 51 46 52
REMARK SMILES IDX 47 53 97 54 48 55 102 56 96 57 98 58 49 59 101 60 95 61
REMARK SMILES IDX 94 62 50 64 82 65 62 66 81 67 63 68 66 69 80 70 99 71 64 72
REMARK SMILES IDX 65 73 79 75 100 76 67 77 51 78 52 79 60 80 53 81 54 82 58 83
REMARK SMILES IDX 61 84 55 85 56 86 59 87 57 88 83 89 84 90 92 91 85 92 86 93
REMARK SMILES IDX 90 94 93 95 87 96 88 97 91 98 89 99 68 100 69 101 77 102
REMARK SMILES IDX 70 103 71 104 75 105 78 106 72 107 73 108 76 109 74 110
REMARK H PARENT 8 15 98 63 66 74
REMARK Flexibility Score: inf
ROOT
ATOM      1  O   UNL A   1      37.527  23.474  25.180  1.00  0.00    -0.377 OA
ENDROOT
BRANCH   1   2
ATOM      2  C   UNL A   1      36.197  23.668  24.701  1.00  0.00     0.188 C 
BRANCH   2   3
ATOM      3  C   UNL A   1      35.102  23.570  25.757  1.00  0.00     0.188 C 
BRANCH   3   4
ATOM      4  O   UNL A   1      34.343  24.751  25.937  1.00  0.00    -0.376 OA
BRANCH   4   5
ATOM      5  C   UNL A   1      34.700  25.944  25.255  1.00  0.00     0.202 C 
BRANCH   5   6
ATOM      6  C   UNL A   1      33.725  26.468  24.193  1.00  0.00     0.261 C 
BRANCH   6   7
ATOM      7  O   UNL A   1      33.548  25.579  23.072  1.00  0.00    -0.460 OA
BRANCH   7   8
ATOM      8  C   UNL A   1      32.294  25.150  22.802  1.00  0.00     0.339 C 
ATOM      9  O   UNL A   1      31.638  25.462  21.823  1.00  0.00    -0.246 OA
BRANCH   8  10
ATOM     10  C   UNL A   1      31.917  24.165  23.841  1.00  0.00     0.075 A 
ATOM     11  C   UNL A   1      30.274  25.455  25.277  1.00  0.00     0.075 A 
ATOM     12  N   UNL A   1      29.735  25.121  26.500  1.00  0.00    -0.275 N 
ATOM     13  C   UNL A   1      31.100  24.386  24.961  1.00  0.00     0.061 A 
ATOM     14  N   UNL A   1      29.974  23.862  26.891  1.00  0.00    -0.154 NA
ATOM     15  H   UNL A   1      29.217  25.758  27.044  1.00  0.00     0.190 HD
ATOM     16  C   UNL A   1      30.766  23.383  25.933  1.00  0.00     0.182 A 
ATOM     17  N   UNL A   1      31.168  22.095  25.826  1.00  0.00    -0.226 NA
ATOM     18  C   UNL A   1      32.281  22.802  23.747  1.00  0.00     0.045 A 
ATOM     19  C   UNL A   1      31.903  21.829  24.713  1.00  0.00     0.074 A 
BRANCH  11  20
ATOM     20  C   UNL A   1      29.758  26.608  24.548  1.00  0.00     0.001 A 
ATOM     21  C   UNL A   1      28.715  28.744  23.035  1.00  0.00     0.118 A 
ATOM     22  C   UNL A   1      30.016  28.793  23.545  1.00  0.00     0.047 A 
ATOM     23  C   UNL A   1      27.917  27.643  23.328  1.00  0.00     0.047 A 
ATOM     24  C   UNL A   1      30.533  27.740  24.309  1.00  0.00     0.014 A 
ATOM     25  C   UNL A   1      28.436  26.584  24.082  1.00  0.00     0.014 A 
BRANCH  21  26
ATOM     26  O   UNL A   1      28.356  29.815  22.265  1.00  0.00    -0.497 OA
ATOM     27  C   UNL A   1      29.387  30.452  21.520  1.00  0.00     0.278 C 
ENDBRANCH  21  26
ENDBRANCH  11  20
BRANCH  19  28
ATOM     28  C   UNL A   1      32.321  20.408  24.583  1.00  0.00     0.000 A 
ATOM     29  C   UNL A   1      32.907  19.714  25.660  1.00  0.00     0.011 A 
ATOM     30  C   UNL A   1      32.203  19.713  23.367  1.00  0.00     0.011 A 
ATOM     31  C   UNL A   1      33.386  18.404  25.517  1.00  0.00     0.014 A 
ATOM     32  C   UNL A   1      32.679  18.405  23.219  1.00  0.00     0.014 A 
ATOM     33  C   UNL A   1      33.294  17.742  24.286  1.00  0.00     0.056 A 
BRANCH  33  34
ATOM     34  C   UNL A   1      33.876  16.359  24.112  1.00  0.00     0.416 C 
ATOM     35  F   UNL A   1      34.254  16.110  22.827  1.00  0.00    -0.166 F 
ATOM     36  F   UNL A   1      34.983  16.154  24.876  1.00  0.00    -0.166 F 
ATOM     37  F   UNL A   1      33.007  15.360  24.441  1.00  0.00    -0.166 F 
ENDBRANCH  33  34
ENDBRANCH  19  28
ENDBRANCH   8  10
ENDBRANCH   7   8
ENDBRANCH   6   7
ENDBRANCH   5   6
ENDBRANCH   4   5
ENDBRANCH   3   4
ENDBRANCH   2   3
ENDBRANCH   1   2
BRANCH   1  38
ATOM     38  C   UNL A   1      37.857  22.150  25.608  1.00  0.00     0.188 C 
BRANCH  38  39
ATOM     39  C   UNL A   1      39.266  21.901  26.223  1.00  0.00     0.188 C 
BRANCH  39  40
ATOM     40  O   UNL A   1      40.022  20.871  25.598  1.00  0.00    -0.376 OA
BRANCH  40  41
ATOM     41  C   UNL A   1      40.740  19.885  26.324  1.00  0.00     0.202 C 
BRANCH  41  42
ATOM     42  C   UNL A   1      42.200  19.537  26.019  1.00  0.00     0.261 C 
BRANCH  42  43
ATOM     43  O   UNL A   1      43.112  20.575  26.275  1.00  0.00    -0.460 OA
BRANCH  43  44
ATOM     44  C   UNL A   1      44.144  20.626  25.419  1.00  0.00     0.338 C 
ATOM     45  O   UNL A   1      44.796  19.688  24.992  1.00  0.00    -0.246 OA
BRANCH  44  46
ATOM     46  C   UNL A   1      44.421  22.035  25.122  1.00  0.00     0.060 A 
ATOM     47  C   UNL A   1      45.530  22.561  25.778  1.00  0.00     0.016 A 
ATOM     48  C   UNL A   1      43.378  22.830  24.623  1.00  0.00     0.016 A 
ATOM     49  C   UNL A   1      45.395  23.820  26.291  1.00  0.00     0.010 A 
ATOM     50  C   UNL A   1      43.236  24.083  25.147  1.00  0.00     0.010 A 
ATOM     51  C   UNL A   1      44.184  24.488  26.076  1.00  0.00    -0.014 A 
BRANCH  51  52
ATOM     52  C   UNL A   1      43.935  25.656  26.873  1.00  0.00     0.031 A 
ATOM     53  C   UNL A   1      44.938  26.705  26.642  1.00  0.00     0.074 A 
ATOM     54  C   UNL A   1      42.870  25.739  27.688  1.00  0.00     0.049 A 
ATOM     55  N   UNL A   1      45.849  27.109  27.459  1.00  0.00    -0.248 NA
ATOM     56  C   UNL A   1      45.073  27.211  25.268  1.00  0.00     0.031 C 
ATOM     57  C   UNL A   1      41.705  24.854  27.771  1.00  0.00     0.029 A 
ATOM     58  N   UNL A   1      42.570  26.725  28.567  1.00  0.00    -0.354 N 
ATOM     59  C   UNL A   1      46.554  28.076  26.758  1.00  0.00     0.074 A 
ATOM     60  C   UNL A   1      46.180  27.942  25.376  1.00  0.00     0.031 C 
ATOM     61  C   UNL A   1      40.731  25.473  28.477  1.00  0.00     0.029 A 
ATOM     62  C   UNL A   1      41.251  26.731  28.988  1.00  0.00     0.049 A 
ATOM     63  H   UNL A   1      43.233  27.381  28.880  1.00  0.00     0.167 HD
ATOM     64  C   UNL A   1      47.158  29.096  27.419  1.00  0.00     0.037 A 
ATOM     65  C   UNL A   1      40.640  27.775  29.601  1.00  0.00     0.037 A 
ATOM     66  C   UNL A   1      47.381  28.760  28.804  1.00  0.00     0.049 A 
ATOM     67  C   UNL A   1      41.713  28.649  30.157  1.00  0.00     0.074 A 
ATOM     68  C   UNL A   1      48.085  27.761  29.450  1.00  0.00     0.029 A 
ATOM     69  N   UNL A   1      46.522  29.275  29.745  1.00  0.00    -0.354 N 
ATOM     70  N   UNL A   1      42.492  28.299  31.146  1.00  0.00    -0.248 NA
ATOM     71  C   UNL A   1      42.238  29.704  29.299  1.00  0.00     0.031 C 
ATOM     72  C   UNL A   1      47.290  27.416  30.583  1.00  0.00     0.029 A 
ATOM     73  C   UNL A   1      46.177  28.255  30.594  1.00  0.00     0.049 A 
ATOM     74  H   UNL A   1      46.210  30.208  29.799  1.00  0.00     0.167 HD
ATOM     75  C   UNL A   1      43.750  28.770  30.795  1.00  0.00     0.074 A 
ATOM     76  C   UNL A   1      43.518  29.690  29.685  1.00  0.00     0.031 C 
ATOM     77  C   UNL A   1      44.886  28.150  31.233  1.00  0.00     0.037 A 
BRANCH  64  78
ATOM     78  C   UNL A   1      47.156  30.514  26.908  1.00  0.00     0.064 A 
ATOM     79  C   UNL A   1      48.357  31.245  26.950  1.00  0.00     0.173 A 
ATOM     80  C   UNL A   1      45.987  31.274  26.668  1.00  0.00     0.173 A 
ATOM     81  F   UNL A   1      49.524  30.626  27.184  1.00  0.00    -0.203 F 
ATOM     82  C   UNL A   1      48.372  32.637  26.856  1.00  0.00     0.198 A 
ATOM     83  C   UNL A   1      46.015  32.656  26.515  1.00  0.00     0.198 A 
ATOM     84  F   UNL A   1      44.761  30.742  26.685  1.00  0.00    -0.203 F 
ATOM     85  F   UNL A   1      49.521  33.300  27.040  1.00  0.00    -0.200 F 
ATOM     86  C   UNL A   1      47.200  33.342  26.646  1.00  0.00     0.200 A 
ATOM     87  F   UNL A   1      44.864  33.319  26.328  1.00  0.00    -0.200 F 
ATOM     88  F   UNL A   1      47.205  34.680  26.623  1.00  0.00    -0.200 F 
ENDBRANCH  64  78
BRANCH  65  89
ATOM     89  C   UNL A   1      39.249  28.243  29.387  1.00  0.00     0.064 A 
ATOM     90  C   UNL A   1      38.357  28.373  30.463  1.00  0.00     0.173 A 
ATOM     91  C   UNL A   1      38.841  28.817  28.165  1.00  0.00     0.173 A 
ATOM     92  F   UNL A   1      38.688  27.903  31.674  1.00  0.00    -0.203 F 
ATOM     93  C   UNL A   1      37.138  29.047  30.327  1.00  0.00     0.198 A 
ATOM     94  C   UNL A   1      37.621  29.479  28.028  1.00  0.00     0.198 A 
ATOM     95  F   UNL A   1      39.657  28.832  27.102  1.00  0.00    -0.203 F 
ATOM     96  F   UNL A   1      36.337  29.203  31.390  1.00  0.00    -0.200 F 
ATOM     97  C   UNL A   1      36.774  29.605  29.111  1.00  0.00     0.200 A 
ATOM     98  F   UNL A   1      37.302  30.046  26.855  1.00  0.00    -0.200 F 
ATOM     99  F   UNL A   1      35.632  30.297  28.994  1.00  0.00    -0.200 F 
ENDBRANCH  65  89
BRANCH  77 100
ATOM    100  C   UNL A   1      44.743  27.098  32.298  1.00  0.00     0.064 A 
ATOM    101  C   UNL A   1      44.651  27.384  33.672  1.00  0.00     0.173 A 
ATOM    102  C   UNL A   1      44.538  25.770  31.903  1.00  0.00     0.173 A 
ATOM    103  F   UNL A   1      44.727  28.643  34.120  1.00  0.00    -0.203 F 
ATOM    104  C   UNL A   1      44.411  26.378  34.607  1.00  0.00     0.198 A 
ATOM    105  C   UNL A   1      44.261  24.773  32.835  1.00  0.00     0.198 A 
ATOM    106  F   UNL A   1      44.554  25.447  30.600  1.00  0.00    -0.203 F 
ATOM    107  F   UNL A   1      44.339  26.675  35.912  1.00  0.00    -0.200 F 
ATOM    108  C   UNL A   1      44.209  25.074  34.186  1.00  0.00     0.200 A 
ATOM    109  F   UNL A   1      44.015  23.523  32.418  1.00  0.00    -0.200 F 
ATOM    110  F   UNL A   1      43.935  24.113  35.078  1.00  0.00    -0.200 F 
ENDBRANCH  77 100
ENDBRANCH  51  52
ENDBRANCH  44  46
ENDBRANCH  43  44
ENDBRANCH  42  43
ENDBRANCH  41  42
ENDBRANCH  40  41
ENDBRANCH  39  40
ENDBRANCH  38  39
ENDBRANCH   1  38
TORSDOF 24
ENDMDL
MODEL 3
REMARK VINA RESULT:     -11.6      4.523      8.927
REMARK SMILES COc1ccc(-c2[nH]nc3nc(-c4ccc(C(F)(F)F)cc4)cc(C(=O)OCCOCCOCCOCCOC(=O)c4ccc(-c5c6nc(c(-c7c(F)c(F)c(F)c(F)c7F)c7ccc([nH]7)c(-c7c(F)c(F)c(F)c(F)c7F)c7nc(c(-c8c(F)c(F)c(F)c(F)c8F)c8ccc5[nH]8)C=C7)C=C6)cc4)c23)cc1
REMARK SMILES IDX 33 1 32 2 31 3 30 4 29 5 28 6 27 7 25 8 26 9 24 10 7 11 8 12
REMARK SMILES IDX 105 13 9 14 10 16 11 17 23 18 12 19 6 20 3 21 4 22 107 23
REMARK SMILES IDX 5 24 106 25 2 26 1 27 13 28 14 29 22 30 15 31 21 32 16 33
REMARK SMILES IDX 17 34 18 35 19 36 20 37 34 38 35 39 36 40 37 41 38 42 39 43
REMARK SMILES IDX 40 44 41 45 42 46 43 47 104 48 44 49 103 50 45 51 46 52
REMARK SMILES IDX 47 53 97 54 48 55 102 56 96 57 98 58 49 59 101 60 95 61
REMARK SMILES IDX 94 62 50 64 82 65 62 66 81 67 63 68 66 69 80 70 99 71 64 72
REMARK SMILES IDX 65 73 79 75 100 76 67 77 51 78 52 79 60 80 53 81 54 82 58 83
REMARK SMILES IDX 61 84 55 85 56 86 59 87 57 88 83 89 84 90 92 91 85 92 86 93
REMARK SMILES IDX 90 94 93 95 87 96 88 97 91 98 89 99 68 100 69 101 77 102
REMARK SMILES IDX 70 103 71 104 75 105 78 106 72 107 73 108 76 109 74 110
REMARK H PARENT 8 15 98 63 66 74
REMARK Flexibility Score: inf
ROOT
ATOM      1  O   UNL A   1      42.187  22.014  25.503  1.00  0.00    -0.377 OA
ENDROOT
BRANCH   1   2
ATOM      2  C   UNL A   1      41.185  21.955  26.517  1.00  0.00     0.188 C 
BRANCH   2   3
ATOM      3  C   UNL A   1      39.897  21.242  26.123  1.00  0.00     0.188 C 
BRANCH   3   4
ATOM      4  O   UNL A   1      38.710  21.965  26.396  1.00  0.00    -0.376 OA
BRANCH   4   5
ATOM      5  C   UNL A   1      37.846  22.348  25.337  1.00  0.00     0.202 C 
BRANCH   5   6
ATOM      6  C   UNL A   1      36.852  23.484  25.615  1.00  0.00     0.261 C 
BRANCH   6   7
ATOM      7  O   UNL A   1      35.490  23.167  25.264  1.00  0.00    -0.460 OA
BRANCH   7   8
ATOM      8  C   UNL A   1      34.983  23.730  24.143  1.00  0.00     0.339 C 
ATOM      9  O   UNL A   1      35.320  23.457  23.003  1.00  0.00    -0.246 OA
BRANCH   8  10
ATOM     10  C   UNL A   1      33.888  24.641  24.547  1.00  0.00     0.075 A 
ATOM     11  C   UNL A   1      31.840  23.152  24.433  1.00  0.00     0.075 A 
ATOM     12  N   UNL A   1      30.508  23.494  24.516  1.00  0.00    -0.275 N 
ATOM     13  C   UNL A   1      32.514  24.359  24.563  1.00  0.00     0.061 A 
ATOM     14  N   UNL A   1      30.278  24.760  24.891  1.00  0.00    -0.154 NA
ATOM     15  H   UNL A   1      29.783  22.859  24.315  1.00  0.00     0.190 HD
ATOM     16  C   UNL A   1      31.497  25.287  24.973  1.00  0.00     0.182 A 
ATOM     17  N   UNL A   1      31.782  26.523  25.447  1.00  0.00    -0.226 NA
ATOM     18  C   UNL A   1      34.142  25.924  25.086  1.00  0.00     0.045 A 
ATOM     19  C   UNL A   1      33.112  26.804  25.514  1.00  0.00     0.074 A 
BRANCH  11  20
ATOM     20  C   UNL A   1      32.230  21.748  24.454  1.00  0.00     0.001 A 
ATOM     21  C   UNL A   1      33.111  19.073  24.560  1.00  0.00     0.118 A 
ATOM     22  C   UNL A   1      32.605  19.616  23.376  1.00  0.00     0.047 A 
ATOM     23  C   UNL A   1      33.129  19.858  25.710  1.00  0.00     0.047 A 
ATOM     24  C   UNL A   1      32.153  20.940  23.323  1.00  0.00     0.014 A 
ATOM     25  C   UNL A   1      32.688  21.186  25.656  1.00  0.00     0.014 A 
BRANCH  21  26
ATOM     26  O   UNL A   1      33.564  17.787  24.460  1.00  0.00    -0.497 OA
ATOM     27  C   UNL A   1      33.932  17.330  23.163  1.00  0.00     0.278 C 
ENDBRANCH  21  26
ENDBRANCH  11  20
BRANCH  19  28
ATOM     28  C   UNL A   1      33.423  28.152  26.060  1.00  0.00     0.000 A 
ATOM     29  C   UNL A   1      34.552  28.373  26.872  1.00  0.00     0.011 A 
ATOM     30  C   UNL A   1      32.574  29.251  25.836  1.00  0.00     0.011 A 
ATOM     31  C   UNL A   1      34.800  29.620  27.464  1.00  0.00     0.014 A 
ATOM     32  C   UNL A   1      32.817  30.498  26.424  1.00  0.00     0.014 A 
ATOM     33  C   UNL A   1      33.922  30.692  27.260  1.00  0.00     0.056 A 
BRANCH  33  34
ATOM     34  C   UNL A   1      34.148  32.013  27.956  1.00  0.00     0.416 C 
ATOM     35  F   UNL A   1      34.160  31.893  29.313  1.00  0.00    -0.166 F 
ATOM     36  F   UNL A   1      35.335  32.588  27.620  1.00  0.00    -0.166 F 
ATOM     37  F   UNL A   1      33.192  32.944  27.676  1.00  0.00    -0.166 F 
ENDBRANCH  33  34
ENDBRANCH  19  28
ENDBRANCH   8  10
ENDBRANCH   7   8
ENDBRANCH   6   7
ENDBRANCH   5   6
ENDBRANCH   4   5
ENDBRANCH   3   4
ENDBRANCH   2   3
ENDBRANCH   1   2
BRANCH   1  38
ATOM     38  C   UNL A   1      43.381  21.267  25.752  1.00  0.00     0.188 C 
BRANCH  38  39
ATOM     39  C   UNL A   1      44.751  21.992  25.602  1.00  0.00     0.188 C 
BRANCH  39  40
ATOM     40  O   UNL A   1      44.940  23.106  26.465  1.00  0.00    -0.376 OA
BRANCH  40  41
ATOM     41  C   UNL A   1      44.577  24.433  26.112  1.00  0.00     0.202 C 
BRANCH  41  42
ATOM     42  C   UNL A   1      43.703  25.314  27.009  1.00  0.00     0.261 C 
BRANCH  42  43
ATOM     43  O   UNL A   1      42.323  25.205  26.768  1.00  0.00    -0.460 OA
BRANCH  43  44
ATOM     44  C   UNL A   1      41.868  26.004  25.791  1.00  0.00     0.338 C 
ATOM     45  O   UNL A   1      42.228  26.023  24.626  1.00  0.00    -0.246 OA
BRANCH  44  46
ATOM     46  C   UNL A   1      40.892  26.929  26.375  1.00  0.00     0.060 A 
ATOM     47  C   UNL A   1      41.181  28.276  26.185  1.00  0.00     0.016 A 
ATOM     48  C   UNL A   1      40.063  26.462  27.407  1.00  0.00     0.016 A 
ATOM     49  C   UNL A   1      40.981  29.101  27.256  1.00  0.00     0.010 A 
ATOM     50  C   UNL A   1      39.874  27.281  28.482  1.00  0.00     0.010 A 
ATOM     51  C   UNL A   1      40.461  28.538  28.427  1.00  0.00    -0.014 A 
BRANCH  51  52
ATOM     52  C   UNL A   1      40.552  29.326  29.624  1.00  0.00     0.031 A 
ATOM     53  C   UNL A   1      39.485  30.332  29.703  1.00  0.00     0.074 A 
ATOM     54  C   UNL A   1      41.500  29.097  30.548  1.00  0.00     0.049 A 
ATOM     55  N   UNL A   1      39.607  31.611  29.599  1.00  0.00    -0.248 NA
ATOM     56  C   UNL A   1      38.099  29.842  29.681  1.00  0.00     0.031 C 
ATOM     57  C   UNL A   1      42.419  27.961  30.660  1.00  0.00     0.029 A 
ATOM     58  N   UNL A   1      41.767  29.820  31.662  1.00  0.00    -0.354 N 
ATOM     59  C   UNL A   1      38.315  32.104  29.703  1.00  0.00     0.074 A 
ATOM     60  C   UNL A   1      37.429  30.983  29.535  1.00  0.00     0.031 C 
ATOM     61  C   UNL A   1      42.969  27.960  31.897  1.00  0.00     0.029 A 
ATOM     62  C   UNL A   1      42.533  29.153  32.604  1.00  0.00     0.049 A 
ATOM     63  H   UNL A   1      41.445  30.741  31.791  1.00  0.00     0.167 HD
ATOM     64  C   UNL A   1      38.093  33.341  30.215  1.00  0.00     0.037 A 
ATOM     65  C   UNL A   1      42.665  29.530  33.900  1.00  0.00     0.037 A 
ATOM     66  C   UNL A   1      39.279  34.158  30.136  1.00  0.00     0.049 A 
ATOM     67  C   UNL A   1      42.282  30.970  33.981  1.00  0.00     0.074 A 
ATOM     68  C   UNL A   1      40.076  34.597  29.095  1.00  0.00     0.029 A 
ATOM     69  N   UNL A   1      40.029  34.329  31.274  1.00  0.00    -0.354 N 
ATOM     70  N   UNL A   1      42.981  31.936  33.446  1.00  0.00    -0.248 NA
ATOM     71  C   UNL A   1      40.880  31.284  34.229  1.00  0.00     0.031 C 
ATOM     72  C   UNL A   1      41.409  34.558  29.603  1.00  0.00     0.029 A 
ATOM     73  C   UNL A   1      41.345  34.150  30.935  1.00  0.00     0.049 A 
ATOM     74  H   UNL A   1      39.684  34.542  32.172  1.00  0.00     0.167 HD
ATOM     75  C   UNL A   1      42.039  32.804  32.910  1.00  0.00     0.074 A 
ATOM     76  C   UNL A   1      40.763  32.389  33.487  1.00  0.00     0.031 C 
ATOM     77  C   UNL A   1      42.330  33.582  31.825  1.00  0.00     0.037 A 
BRANCH  64  78
ATOM     78  C   UNL A   1      36.947  33.645  31.145  1.00  0.00     0.064 A 
ATOM     79  C   UNL A   1      36.958  33.079  32.432  1.00  0.00     0.173 A 
ATOM     80  C   UNL A   1      35.714  34.206  30.736  1.00  0.00     0.173 A 
ATOM     81  F   UNL A   1      38.071  32.508  32.917  1.00  0.00    -0.203 F 
ATOM     82  C   UNL A   1      35.801  32.995  33.208  1.00  0.00     0.198 A 
ATOM     83  C   UNL A   1      34.578  34.173  31.538  1.00  0.00     0.198 A 
ATOM     84  F   UNL A   1      35.515  34.704  29.511  1.00  0.00    -0.203 F 
ATOM     85  F   UNL A   1      35.827  32.325  34.367  1.00  0.00    -0.200 F 
ATOM     86  C   UNL A   1      34.610  33.535  32.756  1.00  0.00     0.200 A 
ATOM     87  F   UNL A   1      33.431  34.689  31.071  1.00  0.00    -0.200 F 
ATOM     88  F   UNL A   1      33.485  33.397  33.468  1.00  0.00    -0.200 F 
ENDBRANCH  64  78
BRANCH  65  89
ATOM     89  C   UNL A   1      42.714  28.641  35.085  1.00  0.00     0.064 A 
ATOM     90  C   UNL A   1      41.812  27.577  35.229  1.00  0.00     0.173 A 
ATOM     91  C   UNL A   1      43.808  28.657  35.976  1.00  0.00     0.173 A 
ATOM     92  F   UNL A   1      40.774  27.456  34.390  1.00  0.00    -0.203 F 
ATOM     93  C   UNL A   1      41.999  26.582  36.196  1.00  0.00     0.198 A 
ATOM     94  C   UNL A   1      43.988  27.671  36.946  1.00  0.00     0.198 A 
ATOM     95  F   UNL A   1      44.778  29.575  35.864  1.00  0.00    -0.203 F 
ATOM     96  F   UNL A   1      41.148  25.548  36.266  1.00  0.00    -0.200 F 
ATOM     97  C   UNL A   1      43.090  26.627  37.049  1.00  0.00     0.200 A 
ATOM     98  F   UNL A   1      45.070  27.708  37.738  1.00  0.00    -0.200 F 
ATOM     99  F   UNL A   1      43.300  25.647  37.939  1.00  0.00    -0.200 F 
ENDBRANCH  65  89
BRANCH  77 100
ATOM    100  C   UNL A   1      43.765  33.656  31.382  1.00  0.00     0.064 A 
ATOM    101  C   UNL A   1      44.694  34.583  31.887  1.00  0.00     0.173 A 
ATOM    102  C   UNL A   1      44.253  32.656  30.530  1.00  0.00     0.173 A 
ATOM    103  F   UNL A   1      44.328  35.501  32.790  1.00  0.00    -0.203 F 
ATOM    104  C   UNL A   1      46.037  34.536  31.519  1.00  0.00     0.198 A 
ATOM    105  C   UNL A   1      45.603  32.588  30.194  1.00  0.00     0.198 A 
ATOM    106  F   UNL A   1      43.425  31.709  30.064  1.00  0.00    -0.203 F 
ATOM    107  F   UNL A   1      46.901  35.438  32.007  1.00  0.00    -0.200 F 
ATOM    108  C   UNL A   1      46.492  33.533  30.678  1.00  0.00     0.200 A 
ATOM    109  F   UNL A   1      46.046  31.587  29.422  1.00  0.00    -0.200 F 
ATOM    110  F   UNL A   1      47.791  33.460  30.358  1.00  0.00    -0.200 F 
ENDBRANCH  77 100
ENDBRANCH  51  52
ENDBRANCH  44  46
ENDBRANCH  43  44
ENDBRANCH  42  43
ENDBRANCH  41  42
ENDBRANCH  40  41
ENDBRANCH  39  40
ENDBRANCH  38  39
ENDBRANCH   1  38
TORSDOF 24
ENDMDL
