MODEL 1
REMARK VINA RESULT:      -9.4      0.000      0.000
REMARK SMILES CCOC(=O)NC(=O)COc1csc(C(=O)OCCOCCOCCOCCOC(=O)c2ccc(-c3c4nc(c(-c5c(F)c(F)c(F)c(F)c5F)c5ccc([nH]5)c(-c5c(F)c(F)c(F)c(F)c5F)c5nc(c(-c6c(F)c(F)c(F)c(F)c6F)c6ccc3[nH]6)C=C5)C=C4)cc2)c1
REMARK SMILES IDX 21 1 20 2 19 3 18 4 17 5 15 6 16 7 14 8 11 9 12 10 95 11
REMARK SMILES IDX 13 12 10 13 9 14 7 15 4 16 5 17 6 18 8 20 3 21 2 22 1 23
REMARK SMILES IDX 22 24 23 25 24 26 25 27 26 28 27 29 28 30 29 31 30 32 31 33
REMARK SMILES IDX 32 34 33 35 94 36 34 37 93 38 35 39 36 40 37 41 87 42 38 43
REMARK SMILES IDX 92 44 86 45 88 46 39 47 91 48 85 49 84 50 40 52 72 53 52 54
REMARK SMILES IDX 71 55 53 56 56 57 70 58 89 59 54 60 55 61 69 63 90 64 57 65
REMARK SMILES IDX 41 66 42 67 50 68 43 69 44 70 48 71 51 72 45 73 46 74 49 75
REMARK SMILES IDX 47 76 73 77 74 78 82 79 75 80 76 81 80 82 83 83 77 84 78 85
REMARK SMILES IDX 81 86 79 87 58 88 59 89 67 90 60 91 61 92 65 93 68 94 62 95
REMARK SMILES IDX 63 96 66 97 64 98
REMARK H PARENT 6 19 88 51 56 62
REMARK Flexibility Score: inf
ROOT
ATOM      1  C   UNL A   1      42.334  19.527  26.734  1.00  0.00     0.188 C 
ENDROOT
BRANCH   1   2
ATOM      2  O   UNL A   1      41.137  19.856  26.028  1.00  0.00    -0.376 OA
BRANCH   2   3
ATOM      3  C   UNL A   1      40.207  20.671  26.732  1.00  0.00     0.202 C 
BRANCH   3   4
ATOM      4  C   UNL A   1      39.710  21.878  25.925  1.00  0.00     0.261 C 
BRANCH   4   5
ATOM      5  O   UNL A   1      38.320  21.823  25.569  1.00  0.00    -0.459 OA
BRANCH   5   6
ATOM      6  C   UNL A   1      37.583  22.948  25.775  1.00  0.00     0.348 C 
ATOM      7  O   UNL A   1      38.055  24.061  25.968  1.00  0.00    -0.245 OA
BRANCH   6   8
ATOM      8  C   UNL A   1      36.189  22.617  25.590  1.00  0.00     0.116 A 
ATOM      9  C   UNL A   1      33.858  22.733  25.525  1.00  0.00     0.131 A 
ATOM     10  C   UNL A   1      34.065  21.374  25.462  1.00  0.00     0.112 A 
ATOM     11  C   UNL A   1      35.084  23.444  25.641  1.00  0.00     0.074 A 
ATOM     12  S   UNL A   1      35.734  20.984  25.368  1.00  0.00    -0.133 S 
BRANCH   9  13
ATOM     13  O   UNL A   1      32.687  23.411  25.473  1.00  0.00    -0.483 OA
BRANCH  13  14
ATOM     14  C   UNL A   1      31.929  23.363  24.286  1.00  0.00     0.329 C 
BRANCH  14  15
ATOM     15  C   UNL A   1      32.543  23.175  22.893  1.00  0.00     0.267 C 
ATOM     16  C   UNL A   1      33.274  25.566  22.436  1.00  0.00     0.413 C 
ATOM     17  O   UNL A   1      33.899  26.264  21.646  1.00  0.00    -0.224 OA
ATOM     18  N   UNL A   1      33.111  24.220  22.204  1.00  0.00    -0.258 N 
ATOM     19  H   UNL A   1      33.491  23.938  21.341  1.00  0.00     0.176 HD
ATOM     20  O   UNL A   1      32.524  22.066  22.348  1.00  0.00    -0.271 OA
BRANCH  16  21
ATOM     21  O   UNL A   1      32.691  26.012  23.569  1.00  0.00    -0.450 OA
BRANCH  21  22
ATOM     22  C   UNL A   1      33.558  26.661  24.512  1.00  0.00     0.231 C 
ATOM     23  C   UNL A   1      32.768  27.525  25.480  1.00  0.00     0.049 C 
ENDBRANCH  21  22
ENDBRANCH  16  21
ENDBRANCH  14  15
ENDBRANCH  13  14
ENDBRANCH   9  13
ENDBRANCH   6   8
ENDBRANCH   5   6
ENDBRANCH   4   5
ENDBRANCH   3   4
ENDBRANCH   2   3
ENDBRANCH   1   2
BRANCH   1  24
ATOM     24  C   UNL A   1      42.950  18.187  26.304  1.00  0.00     0.188 C 
BRANCH  24  25
ATOM     25  O   UNL A   1      43.856  18.260  25.217  1.00  0.00    -0.377 OA
BRANCH  25  26
ATOM     26  C   UNL A   1      44.493  19.501  24.930  1.00  0.00     0.188 C 
BRANCH  26  27
ATOM     27  C   UNL A   1      45.935  19.820  25.379  1.00  0.00     0.188 C 
BRANCH  27  28
ATOM     28  O   UNL A   1      46.402  21.111  24.998  1.00  0.00    -0.376 OA
BRANCH  28  29
ATOM     29  C   UNL A   1      45.709  22.220  25.559  1.00  0.00     0.202 C 
BRANCH  29  30
ATOM     30  C   UNL A   1      45.413  23.308  24.523  1.00  0.00     0.261 C 
BRANCH  30  31
ATOM     31  O   UNL A   1      44.805  24.489  25.070  1.00  0.00    -0.460 OA
BRANCH  31  32
ATOM     32  C   UNL A   1      43.526  24.370  25.487  1.00  0.00     0.338 C 
ATOM     33  O   UNL A   1      42.647  23.685  25.001  1.00  0.00    -0.246 OA
BRANCH  32  34
ATOM     34  C   UNL A   1      43.394  25.102  26.760  1.00  0.00     0.060 A 
ATOM     35  C   UNL A   1      42.600  24.552  27.773  1.00  0.00     0.016 A 
ATOM     36  C   UNL A   1      44.034  26.331  26.941  1.00  0.00     0.016 A 
ATOM     37  C   UNL A   1      42.406  25.258  28.959  1.00  0.00     0.010 A 
ATOM     38  C   UNL A   1      43.826  27.043  28.121  1.00  0.00     0.010 A 
ATOM     39  C   UNL A   1      42.983  26.526  29.118  1.00  0.00    -0.014 A 
BRANCH  39  40
ATOM     40  C   UNL A   1      42.541  27.405  30.225  1.00  0.00     0.031 A 
ATOM     41  C   UNL A   1      41.305  28.235  30.019  1.00  0.00     0.074 A 
ATOM     42  C   UNL A   1      43.214  27.461  31.386  1.00  0.00     0.049 A 
ATOM     43  N   UNL A   1      40.749  29.113  30.815  1.00  0.00    -0.248 NA
ATOM     44  C   UNL A   1      40.598  28.048  28.740  1.00  0.00     0.031 C 
ATOM     45  C   UNL A   1      44.402  26.678  31.717  1.00  0.00     0.029 A 
ATOM     46  N   UNL A   1      42.992  28.227  32.503  1.00  0.00    -0.354 N 
ATOM     47  C   UNL A   1      39.625  29.570  30.140  1.00  0.00     0.074 A 
ATOM     48  C   UNL A   1      39.594  28.904  28.857  1.00  0.00     0.031 C 
ATOM     49  C   UNL A   1      44.813  27.012  32.953  1.00  0.00     0.029 A 
ATOM     50  C   UNL A   1      43.933  28.050  33.487  1.00  0.00     0.049 A 
ATOM     51  H   UNL A   1      42.230  28.843  32.590  1.00  0.00     0.167 HD
ATOM     52  C   UNL A   1      38.694  30.457  30.560  1.00  0.00     0.037 A 
ATOM     53  C   UNL A   1      44.070  28.675  34.673  1.00  0.00     0.037 A 
ATOM     54  C   UNL A   1      38.735  31.140  31.822  1.00  0.00     0.049 A 
ATOM     55  C   UNL A   1      43.069  29.730  35.073  1.00  0.00     0.074 A 
ATOM     56  C   UNL A   1      37.856  32.083  32.326  1.00  0.00     0.029 A 
ATOM     57  N   UNL A   1      39.718  30.953  32.783  1.00  0.00    -0.354 N 
ATOM     58  N   UNL A   1      42.002  30.147  34.437  1.00  0.00    -0.248 NA
ATOM     59  C   UNL A   1      43.295  30.402  36.363  1.00  0.00     0.031 C 
ATOM     60  C   UNL A   1      38.324  32.490  33.579  1.00  0.00     0.029 A 
ATOM     61  C   UNL A   1      39.472  31.771  33.872  1.00  0.00     0.049 A 
ATOM     62  H   UNL A   1      40.476  30.332  32.702  1.00  0.00     0.167 HD
ATOM     63  C   UNL A   1      41.411  31.097  35.261  1.00  0.00     0.074 A 
ATOM     64  C   UNL A   1      42.235  31.192  36.448  1.00  0.00     0.031 C 
ATOM     65  C   UNL A   1      40.288  31.828  35.055  1.00  0.00     0.037 A 
BRANCH  52  66
ATOM     66  C   UNL A   1      37.551  30.742  29.632  1.00  0.00     0.064 A 
ATOM     67  C   UNL A   1      37.434  31.980  28.983  1.00  0.00     0.173 A 
ATOM     68  C   UNL A   1      36.585  29.763  29.365  1.00  0.00     0.173 A 
ATOM     69  F   UNL A   1      38.325  32.955  29.224  1.00  0.00    -0.203 F 
ATOM     70  C   UNL A   1      36.381  32.232  28.109  1.00  0.00     0.198 A 
ATOM     71  C   UNL A   1      35.546  30.010  28.472  1.00  0.00     0.198 A 
ATOM     72  F   UNL A   1      36.653  28.564  29.964  1.00  0.00    -0.203 F 
ATOM     73  F   UNL A   1      36.269  33.433  27.526  1.00  0.00    -0.200 F 
ATOM     74  C   UNL A   1      35.443  31.244  27.849  1.00  0.00     0.200 A 
ATOM     75  F   UNL A   1      34.642  29.053  28.217  1.00  0.00    -0.200 F 
ATOM     76  F   UNL A   1      34.433  31.485  27.000  1.00  0.00    -0.200 F 
ENDBRANCH  52  66
BRANCH  53  77
ATOM     77  C   UNL A   1      45.201  28.338  35.576  1.00  0.00     0.064 A 
ATOM     78  C   UNL A   1      46.445  28.969  35.441  1.00  0.00     0.173 A 
ATOM     79  C   UNL A   1      45.080  27.335  36.549  1.00  0.00     0.173 A 
ATOM     80  F   UNL A   1      46.618  29.913  34.504  1.00  0.00    -0.203 F 
ATOM     81  C   UNL A   1      47.534  28.592  36.225  1.00  0.00     0.198 A 
ATOM     82  C   UNL A   1      46.162  26.977  37.352  1.00  0.00     0.198 A 
ATOM     83  F   UNL A   1      43.913  26.695  36.714  1.00  0.00    -0.203 F 
ATOM     84  F   UNL A   1      48.727  29.170  36.034  1.00  0.00    -0.200 F 
ATOM     85  C   UNL A   1      47.390  27.597  37.180  1.00  0.00     0.200 A 
ATOM     86  F   UNL A   1      46.018  26.019  38.277  1.00  0.00    -0.200 F 
ATOM     87  F   UNL A   1      48.440  27.226  37.927  1.00  0.00    -0.200 F 
ENDBRANCH  53  77
BRANCH  65  88
ATOM     88  C   UNL A   1      39.853  32.750  36.155  1.00  0.00     0.064 A 
ATOM     89  C   UNL A   1      40.367  34.049  36.276  1.00  0.00     0.173 A 
ATOM     90  C   UNL A   1      38.869  32.343  37.070  1.00  0.00     0.173 A 
ATOM     91  F   UNL A   1      41.318  34.478  35.433  1.00  0.00    -0.203 F 
ATOM     92  C   UNL A   1      39.930  34.899  37.288  1.00  0.00     0.198 A 
ATOM     93  C   UNL A   1      38.416  33.204  38.065  1.00  0.00     0.198 A 
ATOM     94  F   UNL A   1      38.339  31.113  36.991  1.00  0.00    -0.203 F 
ATOM     95  F   UNL A   1      40.466  36.122  37.411  1.00  0.00    -0.200 F 
ATOM     96  C   UNL A   1      38.951  34.479  38.176  1.00  0.00     0.200 A 
ATOM     97  F   UNL A   1      37.461  32.803  38.914  1.00  0.00    -0.200 F 
ATOM     98  F   UNL A   1      38.527  35.302  39.145  1.00  0.00    -0.200 F 
ENDBRANCH  65  88
ENDBRANCH  39  40
ENDBRANCH  32  34
ENDBRANCH  31  32
ENDBRANCH  30  31
ENDBRANCH  29  30
ENDBRANCH  28  29
ENDBRANCH  27  28
ENDBRANCH  26  27
ENDBRANCH  25  26
ENDBRANCH  24  25
ENDBRANCH   1  24
TORSDOF 25
ENDMDL
MODEL 2
REMARK VINA RESULT:      -9.2      1.011      2.315
REMARK SMILES CCOC(=O)NC(=O)COc1csc(C(=O)OCCOCCOCCOCCOC(=O)c2ccc(-c3c4nc(c(-c5c(F)c(F)c(F)c(F)c5F)c5ccc([nH]5)c(-c5c(F)c(F)c(F)c(F)c5F)c5nc(c(-c6c(F)c(F)c(F)c(F)c6F)c6ccc3[nH]6)C=C5)C=C4)cc2)c1
REMARK SMILES IDX 21 1 20 2 19 3 18 4 17 5 15 6 16 7 14 8 11 9 12 10 95 11
REMARK SMILES IDX 13 12 10 13 9 14 7 15 4 16 5 17 6 18 8 20 3 21 2 22 1 23
REMARK SMILES IDX 22 24 23 25 24 26 25 27 26 28 27 29 28 30 29 31 30 32 31 33
REMARK SMILES IDX 32 34 33 35 94 36 34 37 93 38 35 39 36 40 37 41 87 42 38 43
REMARK SMILES IDX 92 44 86 45 88 46 39 47 91 48 85 49 84 50 40 52 72 53 52 54
REMARK SMILES IDX 71 55 53 56 56 57 70 58 89 59 54 60 55 61 69 63 90 64 57 65
REMARK SMILES IDX 41 66 42 67 50 68 43 69 44 70 48 71 51 72 45 73 46 74 49 75
REMARK SMILES IDX 47 76 73 77 74 78 82 79 75 80 76 81 80 82 83 83 77 84 78 85
REMARK SMILES IDX 81 86 79 87 58 88 59 89 67 90 60 91 61 92 65 93 68 94 62 95
REMARK SMILES IDX 63 96 66 97 64 98
REMARK H PARENT 6 19 88 51 56 62
REMARK Flexibility Score: inf
ROOT
ATOM      1  C   UNL A   1      42.327  19.485  27.016  1.00  0.00     0.188 C 
ENDROOT
BRANCH   1   2
ATOM      2  O   UNL A   1      41.411  19.931  26.016  1.00  0.00    -0.376 OA
BRANCH   2   3
ATOM      3  C   UNL A   1      41.011  21.294  26.107  1.00  0.00     0.202 C 
BRANCH   3   4
ATOM      4  C   UNL A   1      39.598  21.486  26.675  1.00  0.00     0.261 C 
BRANCH   4   5
ATOM      5  O   UNL A   1      38.672  22.103  25.768  1.00  0.00    -0.459 OA
BRANCH   5   6
ATOM      6  C   UNL A   1      37.809  21.284  25.111  1.00  0.00     0.348 C 
ATOM      7  O   UNL A   1      38.037  20.114  24.833  1.00  0.00    -0.245 OA
BRANCH   6   8
ATOM      8  C   UNL A   1      36.560  21.988  24.933  1.00  0.00     0.116 A 
ATOM      9  C   UNL A   1      34.364  22.738  25.193  1.00  0.00     0.131 A 
ATOM     10  C   UNL A   1      34.646  23.159  23.913  1.00  0.00     0.112 A 
ATOM     11  C   UNL A   1      35.456  22.027  25.762  1.00  0.00     0.074 A 
ATOM     12  S   UNL A   1      36.278  22.845  23.480  1.00  0.00    -0.133 S 
BRANCH   9  13
ATOM     13  O   UNL A   1      33.236  22.936  25.916  1.00  0.00    -0.483 OA
BRANCH  13  14
ATOM     14  C   UNL A   1      32.063  23.334  25.244  1.00  0.00     0.329 C 
BRANCH  14  15
ATOM     15  C   UNL A   1      30.916  24.097  25.918  1.00  0.00     0.267 C 
ATOM     16  C   UNL A   1      30.153  25.519  23.955  1.00  0.00     0.413 C 
ATOM     17  O   UNL A   1      29.283  26.302  23.594  1.00  0.00    -0.224 OA
ATOM     18  N   UNL A   1      30.153  25.012  25.234  1.00  0.00    -0.258 N 
ATOM     19  H   UNL A   1      29.436  25.395  25.789  1.00  0.00     0.176 HD
ATOM     20  O   UNL A   1      30.663  23.913  27.115  1.00  0.00    -0.271 OA
BRANCH  16  21
ATOM     21  O   UNL A   1      31.173  25.087  23.183  1.00  0.00    -0.450 OA
BRANCH  21  22
ATOM     22  C   UNL A   1      31.870  26.095  22.436  1.00  0.00     0.231 C 
ATOM     23  C   UNL A   1      33.258  26.337  23.004  1.00  0.00     0.049 C 
ENDBRANCH  21  22
ENDBRANCH  16  21
ENDBRANCH  14  15
ENDBRANCH  13  14
ENDBRANCH   9  13
ENDBRANCH   6   8
ENDBRANCH   5   6
ENDBRANCH   4   5
ENDBRANCH   3   4
ENDBRANCH   2   3
ENDBRANCH   1   2
BRANCH   1  24
ATOM     24  C   UNL A   1      43.094  18.214  26.620  1.00  0.00     0.188 C 
BRANCH  24  25
ATOM     25  O   UNL A   1      43.430  18.114  25.247  1.00  0.00    -0.377 OA
BRANCH  25  26
ATOM     26  C   UNL A   1      44.223  19.139  24.653  1.00  0.00     0.188 C 
BRANCH  26  27
ATOM     27  C   UNL A   1      45.732  19.294  24.939  1.00  0.00     0.188 C 
BRANCH  27  28
ATOM     28  O   UNL A   1      46.199  20.640  24.934  1.00  0.00    -0.376 OA
BRANCH  28  29
ATOM     29  C   UNL A   1      45.407  21.581  25.650  1.00  0.00     0.202 C 
BRANCH  29  30
ATOM     30  C   UNL A   1      45.077  22.821  24.814  1.00  0.00     0.261 C 
BRANCH  30  31
ATOM     31  O   UNL A   1      44.999  24.037  25.574  1.00  0.00    -0.460 OA
BRANCH  31  32
ATOM     32  C   UNL A   1      43.834  24.716  25.507  1.00  0.00     0.338 C 
ATOM     33  O   UNL A   1      43.009  24.688  24.613  1.00  0.00    -0.246 OA
BRANCH  32  34
ATOM     34  C   UNL A   1      43.632  25.401  26.796  1.00  0.00     0.060 A 
ATOM     35  C   UNL A   1      42.851  24.774  27.774  1.00  0.00     0.016 A 
ATOM     36  C   UNL A   1      44.193  26.660  27.026  1.00  0.00     0.016 A 
ATOM     37  C   UNL A   1      42.590  25.433  28.976  1.00  0.00     0.010 A 
ATOM     38  C   UNL A   1      43.918  27.323  28.221  1.00  0.00     0.010 A 
ATOM     39  C   UNL A   1      43.087  26.727  29.184  1.00  0.00    -0.014 A 
BRANCH  39  40
ATOM     40  C   UNL A   1      42.570  27.545  30.305  1.00  0.00     0.031 A 
ATOM     41  C   UNL A   1      41.321  28.349  30.077  1.00  0.00     0.074 A 
ATOM     42  C   UNL A   1      43.189  27.569  31.497  1.00  0.00     0.049 A 
ATOM     43  N   UNL A   1      40.705  29.176  30.883  1.00  0.00    -0.248 NA
ATOM     44  C   UNL A   1      40.677  28.199  28.761  1.00  0.00     0.031 C 
ATOM     45  C   UNL A   1      44.384  26.805  31.849  1.00  0.00     0.029 A 
ATOM     46  N   UNL A   1      42.894  28.280  32.634  1.00  0.00    -0.354 N 
ATOM     47  C   UNL A   1      39.599  29.631  30.177  1.00  0.00     0.074 A 
ATOM     48  C   UNL A   1      39.645  29.020  28.867  1.00  0.00     0.031 C 
ATOM     49  C   UNL A   1      44.728  27.097  33.116  1.00  0.00     0.029 A 
ATOM     50  C   UNL A   1      43.795  28.087  33.652  1.00  0.00     0.049 A 
ATOM     51  H   UNL A   1      42.111  28.871  32.712  1.00  0.00     0.167 HD
ATOM     52  C   UNL A   1      38.624  30.473  30.590  1.00  0.00     0.037 A 
ATOM     53  C   UNL A   1      43.861  28.664  34.868  1.00  0.00     0.037 A 
ATOM     54  C   UNL A   1      38.588  31.102  31.880  1.00  0.00     0.049 A 
ATOM     55  C   UNL A   1      42.812  29.672  35.266  1.00  0.00     0.074 A 
ATOM     56  C   UNL A   1      37.660  31.998  32.382  1.00  0.00     0.029 A 
ATOM     57  N   UNL A   1      39.532  30.901  32.877  1.00  0.00    -0.354 N 
ATOM     58  N   UNL A   1      41.762  30.087  34.599  1.00  0.00    -0.248 NA
ATOM     59  C   UNL A   1      42.960  30.294  36.592  1.00  0.00     0.031 C 
ATOM     60  C   UNL A   1      38.060  32.363  33.671  1.00  0.00     0.029 A 
ATOM     61  C   UNL A   1      39.214  31.664  33.987  1.00  0.00     0.049 A 
ATOM     62  H   UNL A   1      40.311  30.305  32.804  1.00  0.00     0.167 HD
ATOM     63  C   UNL A   1      41.108  30.984  35.434  1.00  0.00     0.074 A 
ATOM     64  C   UNL A   1      41.874  31.050  36.660  1.00  0.00     0.031 C 
ATOM     65  C   UNL A   1      39.975  31.692  35.208  1.00  0.00     0.037 A 
BRANCH  52  66
ATOM     66  C   UNL A   1      37.516  30.767  29.624  1.00  0.00     0.064 A 
ATOM     67  C   UNL A   1      36.536  29.807  29.329  1.00  0.00     0.173 A 
ATOM     68  C   UNL A   1      37.414  32.024  29.012  1.00  0.00     0.173 A 
ATOM     69  F   UNL A   1      36.605  28.584  29.876  1.00  0.00    -0.203 F 
ATOM     70  C   UNL A   1      35.500  30.093  28.446  1.00  0.00     0.198 A 
ATOM     71  C   UNL A   1      36.363  32.313  28.147  1.00  0.00     0.198 A 
ATOM     72  F   UNL A   1      38.329  32.973  29.261  1.00  0.00    -0.203 F 
ATOM     73  F   UNL A   1      34.593  29.150  28.152  1.00  0.00    -0.200 F 
ATOM     74  C   UNL A   1      35.410  31.347  27.862  1.00  0.00     0.200 A 
ATOM     75  F   UNL A   1      36.274  33.528  27.587  1.00  0.00    -0.200 F 
ATOM     76  F   UNL A   1      34.407  31.624  27.016  1.00  0.00    -0.200 F 
ENDBRANCH  52  66
BRANCH  53  77
ATOM     77  C   UNL A   1      44.959  28.318  35.807  1.00  0.00     0.064 A 
ATOM     78  C   UNL A   1      44.769  27.372  36.823  1.00  0.00     0.173 A 
ATOM     79  C   UNL A   1      46.199  28.971  35.747  1.00  0.00     0.173 A 
ATOM     80  F   UNL A   1      43.589  26.744  36.940  1.00  0.00    -0.203 F 
ATOM     81  C   UNL A   1      45.766  27.111  37.761  1.00  0.00     0.198 A 
ATOM     82  C   UNL A   1      47.206  28.689  36.669  1.00  0.00     0.198 A 
ATOM     83  F   UNL A   1      46.430  29.889  34.798  1.00  0.00    -0.203 F 
ATOM     84  F   UNL A   1      45.536  26.245  38.758  1.00  0.00    -0.200 F 
ATOM     85  C   UNL A   1      46.984  27.769  37.681  1.00  0.00     0.200 A 
ATOM     86  F   UNL A   1      48.383  29.323  36.586  1.00  0.00    -0.200 F 
ATOM     87  F   UNL A   1      47.939  27.525  38.590  1.00  0.00    -0.200 F 
ENDBRANCH  53  77
BRANCH  65  88
ATOM     88  C   UNL A   1      39.463  32.553  36.324  1.00  0.00     0.064 A 
ATOM     89  C   UNL A   1      38.464  32.107  37.201  1.00  0.00     0.173 A 
ATOM     90  C   UNL A   1      40.017  33.823  36.547  1.00  0.00     0.173 A 
ATOM     91  F   UNL A   1      37.896  30.906  37.021  1.00  0.00    -0.203 F 
ATOM     92  C   UNL A   1      38.022  32.911  38.248  1.00  0.00     0.198 A 
ATOM     93  C   UNL A   1      39.590  34.615  37.609  1.00  0.00     0.198 A 
ATOM     94  F   UNL A   1      40.981  34.292  35.740  1.00  0.00    -0.203 F 
ATOM     95  F   UNL A   1      37.037  32.483  39.049  1.00  0.00    -0.200 F 
ATOM     96  C   UNL A   1      38.589  34.160  38.455  1.00  0.00     0.200 A 
ATOM     97  F   UNL A   1      40.148  35.815  37.816  1.00  0.00    -0.200 F 
ATOM     98  F   UNL A   1      38.166  34.930  39.467  1.00  0.00    -0.200 F 
ENDBRANCH  65  88
ENDBRANCH  39  40
ENDBRANCH  32  34
ENDBRANCH  31  32
ENDBRANCH  30  31
ENDBRANCH  29  30
ENDBRANCH  28  29
ENDBRANCH  27  28
ENDBRANCH  26  27
ENDBRANCH  25  26
ENDBRANCH  24  25
ENDBRANCH   1  24
TORSDOF 25
ENDMDL
MODEL 3
REMARK VINA RESULT:      -9.2      3.692      8.784
REMARK SMILES CCOC(=O)NC(=O)COc1csc(C(=O)OCCOCCOCCOCCOC(=O)c2ccc(-c3c4nc(c(-c5c(F)c(F)c(F)c(F)c5F)c5ccc([nH]5)c(-c5c(F)c(F)c(F)c(F)c5F)c5nc(c(-c6c(F)c(F)c(F)c(F)c6F)c6ccc3[nH]6)C=C5)C=C4)cc2)c1
REMARK SMILES IDX 21 1 20 2 19 3 18 4 17 5 15 6 16 7 14 8 11 9 12 10 95 11
REMARK SMILES IDX 13 12 10 13 9 14 7 15 4 16 5 17 6 18 8 20 3 21 2 22 1 23
REMARK SMILES IDX 22 24 23 25 24 26 25 27 26 28 27 29 28 30 29 31 30 32 31 33
REMARK SMILES IDX 32 34 33 35 94 36 34 37 93 38 35 39 36 40 37 41 87 42 38 43
REMARK SMILES IDX 92 44 86 45 88 46 39 47 91 48 85 49 84 50 40 52 72 53 52 54
REMARK SMILES IDX 71 55 53 56 56 57 70 58 89 59 54 60 55 61 69 63 90 64 57 65
REMARK SMILES IDX 41 66 42 67 50 68 43 69 44 70 48 71 51 72 45 73 46 74 49 75
REMARK SMILES IDX 47 76 73 77 74 78 82 79 75 80 76 81 80 82 83 83 77 84 78 85
REMARK SMILES IDX 81 86 79 87 58 88 59 89 67 90 60 91 61 92 65 93 68 94 62 95
REMARK SMILES IDX 63 96 66 97 64 98
REMARK H PARENT 6 19 88 51 56 62
REMARK Flexibility Score: inf
ROOT
ATOM      1  C   UNL A   1      32.189  28.562  24.929  1.00  0.00     0.188 C 
ENDROOT
BRANCH   1   2
ATOM      2  O   UNL A   1      31.361  28.414  26.084  1.00  0.00    -0.376 OA
BRANCH   2   3
ATOM      3  C   UNL A   1      30.997  27.079  26.416  1.00  0.00     0.202 C 
BRANCH   3   4
ATOM      4  C   UNL A   1      30.001  26.448  25.433  1.00  0.00     0.261 C 
BRANCH   4   5
ATOM      5  O   UNL A   1      30.509  25.308  24.722  1.00  0.00    -0.459 OA
BRANCH   5   6
ATOM      6  C   UNL A   1      30.796  25.478  23.404  1.00  0.00     0.348 C 
ATOM      7  O   UNL A   1      30.557  26.496  22.767  1.00  0.00    -0.245 OA
BRANCH   6   8
ATOM      8  C   UNL A   1      31.538  24.325  22.949  1.00  0.00     0.116 A 
ATOM      9  C   UNL A   1      32.367  22.155  22.715  1.00  0.00     0.131 A 
ATOM     10  C   UNL A   1      33.320  22.885  22.041  1.00  0.00     0.112 A 
ATOM     11  C   UNL A   1      31.363  22.994  23.272  1.00  0.00     0.074 A 
ATOM     12  S   UNL A   1      32.901  24.547  21.941  1.00  0.00    -0.133 S 
BRANCH   9  13
ATOM     13  O   UNL A   1      32.289  20.812  22.872  1.00  0.00    -0.483 OA
BRANCH  13  14
ATOM     14  C   UNL A   1      32.316  20.282  24.177  1.00  0.00     0.329 C 
BRANCH  14  15
ATOM     15  C   UNL A   1      33.609  20.008  24.957  1.00  0.00     0.267 C 
ATOM     16  C   UNL A   1      33.258  21.592  26.912  1.00  0.00     0.413 C 
ATOM     17  O   UNL A   1      33.723  21.927  27.996  1.00  0.00    -0.224 OA
ATOM     18  N   UNL A   1      33.886  20.639  26.145  1.00  0.00    -0.258 N 
ATOM     19  H   UNL A   1      34.735  20.336  26.542  1.00  0.00     0.176 HD
ATOM     20  O   UNL A   1      34.447  19.215  24.513  1.00  0.00    -0.271 OA
BRANCH  16  21
ATOM     21  O   UNL A   1      32.133  22.098  26.364  1.00  0.00    -0.450 OA
BRANCH  21  22
ATOM     22  C   UNL A   1      31.409  23.043  27.166  1.00  0.00     0.231 C 
ATOM     23  C   UNL A   1      29.909  22.881  26.987  1.00  0.00     0.049 C 
ENDBRANCH  21  22
ENDBRANCH  16  21
ENDBRANCH  14  15
ENDBRANCH  13  14
ENDBRANCH   9  13
ENDBRANCH   6   8
ENDBRANCH   5   6
ENDBRANCH   4   5
ENDBRANCH   3   4
ENDBRANCH   2   3
ENDBRANCH   1   2
BRANCH   1  24
ATOM     24  C   UNL A   1      33.680  28.722  25.262  1.00  0.00     0.188 C 
BRANCH  24  25
ATOM     25  O   UNL A   1      34.319  27.556  25.751  1.00  0.00    -0.377 OA
BRANCH  25  26
ATOM     26  C   UNL A   1      34.236  26.353  24.992  1.00  0.00     0.188 C 
BRANCH  26  27
ATOM     27  C   UNL A   1      33.959  24.978  25.639  1.00  0.00     0.188 C 
BRANCH  27  28
ATOM     28  O   UNL A   1      35.112  24.157  25.799  1.00  0.00    -0.376 OA
BRANCH  28  29
ATOM     29  C   UNL A   1      35.497  23.388  24.666  1.00  0.00     0.202 C 
BRANCH  29  30
ATOM     30  C   UNL A   1      37.011  23.171  24.595  1.00  0.00     0.261 C 
BRANCH  30  31
ATOM     31  O   UNL A   1      37.774  24.084  25.400  1.00  0.00    -0.460 OA
BRANCH  31  32
ATOM     32  C   UNL A   1      38.735  23.542  26.178  1.00  0.00     0.338 C 
ATOM     33  O   UNL A   1      39.121  22.388  26.187  1.00  0.00    -0.246 OA
BRANCH  32  34
ATOM     34  C   UNL A   1      39.378  24.633  26.932  1.00  0.00     0.060 A 
ATOM     35  C   UNL A   1      39.138  24.732  28.308  1.00  0.00     0.016 A 
ATOM     36  C   UNL A   1      40.193  25.563  26.279  1.00  0.00     0.016 A 
ATOM     37  C   UNL A   1      39.680  25.795  29.029  1.00  0.00     0.010 A 
ATOM     38  C   UNL A   1      40.721  26.633  26.999  1.00  0.00     0.010 A 
ATOM     39  C   UNL A   1      40.437  26.773  28.367  1.00  0.00    -0.014 A 
BRANCH  39  40
ATOM     40  C   UNL A   1      40.754  28.048  29.050  1.00  0.00     0.031 A 
ATOM     41  C   UNL A   1      42.155  28.249  29.558  1.00  0.00     0.074 A 
ATOM     42  C   UNL A   1      39.827  29.006  29.210  1.00  0.00     0.049 A 
ATOM     43  N   UNL A   1      42.661  29.252  30.229  1.00  0.00    -0.248 NA
ATOM     44  C   UNL A   1      43.116  27.170  29.270  1.00  0.00     0.031 C 
ATOM     45  C   UNL A   1      38.448  28.943  28.729  1.00  0.00     0.029 A 
ATOM     46  N   UNL A   1      39.910  30.224  29.838  1.00  0.00    -0.354 N 
ATOM     47  C   UNL A   1      43.997  28.932  30.428  1.00  0.00     0.074 A 
ATOM     48  C   UNL A   1      44.218  27.627  29.843  1.00  0.00     0.031 C 
ATOM     49  C   UNL A   1      37.810  30.070  29.089  1.00  0.00     0.029 A 
ATOM     50  C   UNL A   1      38.727  30.920  29.848  1.00  0.00     0.049 A 
ATOM     51  H   UNL A   1      40.740  30.566  30.241  1.00  0.00     0.167 HD
ATOM     52  C   UNL A   1      44.959  29.666  31.034  1.00  0.00     0.037 A 
ATOM     53  C   UNL A   1      38.423  32.099  30.425  1.00  0.00     0.037 A 
ATOM     54  C   UNL A   1      44.738  30.950  31.639  1.00  0.00     0.049 A 
ATOM     55  C   UNL A   1      39.492  32.852  31.177  1.00  0.00     0.074 A 
ATOM     56  C   UNL A   1      45.640  31.759  32.307  1.00  0.00     0.029 A 
ATOM     57  N   UNL A   1      43.519  31.611  31.651  1.00  0.00    -0.354 N 
ATOM     58  N   UNL A   1      40.756  32.550  31.350  1.00  0.00    -0.248 NA
ATOM     59  C   UNL A   1      39.088  34.115  31.816  1.00  0.00     0.031 C 
ATOM     60  C   UNL A   1      44.959  32.896  32.751  1.00  0.00     0.029 A 
ATOM     61  C   UNL A   1      43.644  32.814  32.324  1.00  0.00     0.049 A 
ATOM     62  H   UNL A   1      42.690  31.275  31.242  1.00  0.00     0.167 HD
ATOM     63  C   UNL A   1      41.304  33.597  32.080  1.00  0.00     0.074 A 
ATOM     64  C   UNL A   1      40.238  34.548  32.313  1.00  0.00     0.031 C 
ATOM     65  C   UNL A   1      42.576  33.759  32.519  1.00  0.00     0.037 A 
BRANCH  52  66
ATOM     66  C   UNL A   1      46.340  29.087  31.075  1.00  0.00     0.064 A 
ATOM     67  C   UNL A   1      47.284  29.388  30.082  1.00  0.00     0.173 A 
ATOM     68  C   UNL A   1      46.735  28.252  32.130  1.00  0.00     0.173 A 
ATOM     69  F   UNL A   1      46.945  30.167  29.043  1.00  0.00    -0.203 F 
ATOM     70  C   UNL A   1      48.571  28.863  30.137  1.00  0.00     0.198 A 
ATOM     71  C   UNL A   1      48.030  27.748  32.194  1.00  0.00     0.198 A 
ATOM     72  F   UNL A   1      45.867  27.934  33.102  1.00  0.00    -0.203 F 
ATOM     73  F   UNL A   1      49.447  29.135  29.159  1.00  0.00    -0.200 F 
ATOM     74  C   UNL A   1      48.945  28.049  31.196  1.00  0.00     0.200 A 
ATOM     75  F   UNL A   1      48.393  26.965  33.221  1.00  0.00    -0.200 F 
ATOM     76  F   UNL A   1      50.188  27.549  31.252  1.00  0.00    -0.200 F 
ENDBRANCH  52  66
BRANCH  53  77
ATOM     77  C   UNL A   1      37.047  32.651  30.331  1.00  0.00     0.064 A 
ATOM     78  C   UNL A   1      36.672  33.477  29.262  1.00  0.00     0.173 A 
ATOM     79  C   UNL A   1      36.098  32.416  31.337  1.00  0.00     0.173 A 
ATOM     80  F   UNL A   1      37.555  33.756  28.291  1.00  0.00    -0.203 F 
ATOM     81  C   UNL A   1      35.412  34.070  29.215  1.00  0.00     0.198 A 
ATOM     82  C   UNL A   1      34.828  32.987  31.276  1.00  0.00     0.198 A 
ATOM     83  F   UNL A   1      36.408  31.638  32.384  1.00  0.00    -0.203 F 
ATOM     84  F   UNL A   1      35.102  34.903  28.213  1.00  0.00    -0.200 F 
ATOM     85  C   UNL A   1      34.491  33.823  30.222  1.00  0.00     0.200 A 
ATOM     86  F   UNL A   1      33.939  32.742  32.248  1.00  0.00    -0.200 F 
ATOM     87  F   UNL A   1      33.283  34.402  30.184  1.00  0.00    -0.200 F 
ENDBRANCH  53  77
BRANCH  65  88
ATOM     88  C   UNL A   1      42.899  35.031  33.246  1.00  0.00     0.064 A 
ATOM     89  C   UNL A   1      43.297  36.189  32.564  1.00  0.00     0.173 A 
ATOM     90  C   UNL A   1      42.760  35.102  34.641  1.00  0.00     0.173 A 
ATOM     91  F   UNL A   1      43.456  36.166  31.232  1.00  0.00    -0.203 F 
ATOM     92  C   UNL A   1      43.567  37.368  33.254  1.00  0.00     0.198 A 
ATOM     93  C   UNL A   1      43.006  36.288  35.325  1.00  0.00     0.198 A 
ATOM     94  F   UNL A   1      42.374  34.023  35.338  1.00  0.00    -0.203 F 
ATOM     95  F   UNL A   1      43.986  38.452  32.586  1.00  0.00    -0.200 F 
ATOM     96  C   UNL A   1      43.415  37.418  34.631  1.00  0.00     0.200 A 
ATOM     97  F   UNL A   1      42.847  36.340  36.655  1.00  0.00    -0.200 F 
ATOM     98  F   UNL A   1      43.669  38.556  35.293  1.00  0.00    -0.200 F 
ENDBRANCH  65  88
ENDBRANCH  39  40
ENDBRANCH  32  34
ENDBRANCH  31  32
ENDBRANCH  30  31
ENDBRANCH  29  30
ENDBRANCH  28  29
ENDBRANCH  27  28
ENDBRANCH  26  27
ENDBRANCH  25  26
ENDBRANCH  24  25
ENDBRANCH   1  24
TORSDOF 25
ENDMDL
