MODEL 1
REMARK VINA RESULT:     -10.8      0.000      0.000
REMARK SMILES O=Cc1ccc(-c2cnccc2C(=O)OCCOCCOCCOCCOC(=O)c2ccc(-c3c4nc(c(-c5c(F)c(F)c(F)c(F)c5F)c5ccc([nH]5)c(-c5c(F)c(F)c(F)c(F)c5F)c5nc(c(-c6c(F)c(F)c(F)c(F)c6F)c6ccc3[nH]6)C=C5)C=C4)cc2)s1
REMARK SMILES IDX 21 1 20 2 19 3 18 4 17 5 16 6 15 7 13 8 14 9 12 10 7 11 8 12
REMARK SMILES IDX 9 13 11 14 10 15 6 16 3 17 4 18 93 19 5 20 2 21 1 22 22 23
REMARK SMILES IDX 23 24 24 25 25 26 26 27 27 28 28 29 29 30 30 31 31 32 92 33
REMARK SMILES IDX 32 34 91 35 33 36 34 37 35 38 85 39 36 40 90 41 84 42 86 43
REMARK SMILES IDX 37 44 89 45 83 46 82 47 38 49 70 50 50 51 69 52 51 53 54 54
REMARK SMILES IDX 68 55 87 56 52 57 53 58 67 60 88 61 55 62 39 63 40 64 48 65
REMARK SMILES IDX 41 66 42 67 46 68 49 69 43 70 44 71 47 72 45 73 71 74 72 75
REMARK SMILES IDX 80 76 73 77 74 78 78 79 81 80 75 81 76 82 79 83 77 84 56 85
REMARK SMILES IDX 57 86 65 87 58 88 59 89 63 90 66 91 60 92 61 93 64 94 62 95
REMARK H PARENT 86 48 54 59
REMARK Flexibility Score: inf
ROOT
ATOM      1  O   UNL A   1      38.449  20.910  25.362  1.00  0.00    -0.377 OA
ENDROOT
BRANCH   1   2
ATOM      2  C   UNL A   1      37.346  21.651  24.852  1.00  0.00     0.188 C 
BRANCH   2   3
ATOM      3  C   UNL A   1      35.971  21.568  25.555  1.00  0.00     0.188 C 
BRANCH   3   4
ATOM      4  O   UNL A   1      34.869  21.777  24.694  1.00  0.00    -0.376 OA
BRANCH   4   5
ATOM      5  C   UNL A   1      34.991  22.612  23.559  1.00  0.00     0.202 C 
BRANCH   5   6
ATOM      6  C   UNL A   1      34.721  24.119  23.651  1.00  0.00     0.261 C 
BRANCH   6   7
ATOM      7  O   UNL A   1      34.757  24.667  24.969  1.00  0.00    -0.460 OA
BRANCH   7   8
ATOM      8  C   UNL A   1      33.898  25.664  25.261  1.00  0.00     0.338 C 
ATOM      9  O   UNL A   1      34.036  26.844  24.991  1.00  0.00    -0.246 OA
BRANCH   8  10
ATOM     10  C   UNL A   1      32.641  25.076  25.784  1.00  0.00     0.071 A 
ATOM     11  C   UNL A   1      31.382  25.694  25.691  1.00  0.00     0.025 A 
ATOM     12  C   UNL A   1      30.331  25.006  26.301  1.00  0.00     0.121 A 
ATOM     13  N   UNL A   1      30.453  23.845  26.996  1.00  0.00    -0.264 NA
ATOM     14  C   UNL A   1      32.796  23.873  26.492  1.00  0.00     0.036 A 
ATOM     15  C   UNL A   1      31.685  23.312  27.088  1.00  0.00     0.112 A 
BRANCH  11  16
ATOM     16  C   UNL A   1      31.145  26.996  25.046  1.00  0.00     0.037 A 
ATOM     17  C   UNL A   1      30.246  28.773  23.569  1.00  0.00     0.067 A 
ATOM     18  C   UNL A   1      30.977  29.289  24.618  1.00  0.00     0.024 A 
ATOM     19  S   UNL A   1      30.207  27.073  23.601  1.00  0.00    -0.132 S 
ATOM     20  C   UNL A   1      31.515  28.265  25.453  1.00  0.00     0.021 A 
BRANCH  17  21
ATOM     21  C   UNL A   1      29.553  29.496  22.529  1.00  0.00     0.270 C 
ATOM     22  O   UNL A   1      30.051  29.788  21.444  1.00  0.00    -0.297 OA
ENDBRANCH  17  21
ENDBRANCH  11  16
ENDBRANCH   8  10
ENDBRANCH   7   8
ENDBRANCH   6   7
ENDBRANCH   5   6
ENDBRANCH   4   5
ENDBRANCH   3   4
ENDBRANCH   2   3
ENDBRANCH   1   2
BRANCH   1  23
ATOM     23  C   UNL A   1      39.455  21.563  26.129  1.00  0.00     0.188 C 
BRANCH  23  24
ATOM     24  C   UNL A   1      40.669  20.791  26.700  1.00  0.00     0.188 C 
BRANCH  24  25
ATOM     25  O   UNL A   1      41.563  20.292  25.722  1.00  0.00    -0.376 OA
BRANCH  25  26
ATOM     26  C   UNL A   1      42.951  20.367  25.991  1.00  0.00     0.202 C 
BRANCH  26  27
ATOM     27  C   UNL A   1      43.719  21.571  25.427  1.00  0.00     0.261 C 
BRANCH  27  28
ATOM     28  O   UNL A   1      42.955  22.762  25.194  1.00  0.00    -0.460 OA
BRANCH  28  29
ATOM     29  C   UNL A   1      43.633  23.923  25.079  1.00  0.00     0.338 C 
ATOM     30  O   UNL A   1      44.509  24.193  24.272  1.00  0.00    -0.246 OA
BRANCH  29  31
ATOM     31  C   UNL A   1      43.007  24.894  25.996  1.00  0.00     0.060 A 
ATOM     32  C   UNL A   1      43.468  26.217  26.017  1.00  0.00     0.016 A 
ATOM     33  C   UNL A   1      41.956  24.495  26.825  1.00  0.00     0.016 A 
ATOM     34  C   UNL A   1      42.897  27.140  26.894  1.00  0.00     0.010 A 
ATOM     35  C   UNL A   1      41.401  25.414  27.718  1.00  0.00     0.010 A 
ATOM     36  C   UNL A   1      41.891  26.731  27.779  1.00  0.00    -0.014 A 
BRANCH  36  37
ATOM     37  C   UNL A   1      41.490  27.613  28.902  1.00  0.00     0.031 A 
ATOM     38  C   UNL A   1      42.262  27.522  30.188  1.00  0.00     0.074 A 
ATOM     39  C   UNL A   1      40.466  28.475  28.785  1.00  0.00     0.049 A 
ATOM     40  N   UNL A   1      42.053  28.123  31.330  1.00  0.00    -0.248 NA
ATOM     41  C   UNL A   1      43.426  26.622  30.185  1.00  0.00     0.031 C 
ATOM     42  C   UNL A   1      39.667  28.680  27.581  1.00  0.00     0.029 A 
ATOM     43  N   UNL A   1      39.915  29.329  29.708  1.00  0.00    -0.354 N 
ATOM     44  C   UNL A   1      43.051  27.668  32.182  1.00  0.00     0.074 A 
ATOM     45  C   UNL A   1      43.845  26.716  31.437  1.00  0.00     0.031 C 
ATOM     46  C   UNL A   1      38.709  29.587  27.844  1.00  0.00     0.029 A 
ATOM     47  C   UNL A   1      38.810  30.000  29.242  1.00  0.00     0.049 A 
ATOM     48  H   UNL A   1      40.275  29.449  30.616  1.00  0.00     0.167 HD
ATOM     49  C   UNL A   1      43.287  28.020  33.468  1.00  0.00     0.037 A 
ATOM     50  C   UNL A   1      37.963  30.828  29.885  1.00  0.00     0.037 A 
ATOM     51  C   UNL A   1      42.490  28.963  34.205  1.00  0.00     0.049 A 
ATOM     52  C   UNL A   1      38.201  31.143  31.341  1.00  0.00     0.074 A 
ATOM     53  C   UNL A   1      42.655  29.399  35.508  1.00  0.00     0.029 A 
ATOM     54  N   UNL A   1      41.368  29.609  33.707  1.00  0.00    -0.354 N 
ATOM     55  N   UNL A   1      39.161  30.734  32.135  1.00  0.00    -0.248 NA
ATOM     56  C   UNL A   1      37.235  32.041  31.991  1.00  0.00     0.031 C 
ATOM     57  C   UNL A   1      41.598  30.259  35.819  1.00  0.00     0.029 A 
ATOM     58  C   UNL A   1      40.814  30.417  34.686  1.00  0.00     0.049 A 
ATOM     59  H   UNL A   1      41.017  29.508  32.792  1.00  0.00     0.167 HD
ATOM     60  C   UNL A   1      38.936  31.347  33.360  1.00  0.00     0.074 A 
ATOM     61  C   UNL A   1      37.755  32.170  33.203  1.00  0.00     0.031 C 
ATOM     62  C   UNL A   1      39.644  31.241  34.512  1.00  0.00     0.037 A 
BRANCH  49  63
ATOM     63  C   UNL A   1      44.436  27.355  34.170  1.00  0.00     0.064 A 
ATOM     64  C   UNL A   1      44.275  26.159  34.885  1.00  0.00     0.173 A 
ATOM     65  C   UNL A   1      45.724  27.908  34.099  1.00  0.00     0.173 A 
ATOM     66  F   UNL A   1      43.062  25.596  34.996  1.00  0.00    -0.203 F 
ATOM     67  C   UNL A   1      45.355  25.554  35.523  1.00  0.00     0.198 A 
ATOM     68  C   UNL A   1      46.808  27.284  34.710  1.00  0.00     0.198 A 
ATOM     69  F   UNL A   1      45.934  29.050  33.429  1.00  0.00    -0.203 F 
ATOM     70  F   UNL A   1      45.168  24.439  36.242  1.00  0.00    -0.200 F 
ATOM     71  C   UNL A   1      46.622  26.113  35.428  1.00  0.00     0.200 A 
ATOM     72  F   UNL A   1      48.033  27.817  34.605  1.00  0.00    -0.200 F 
ATOM     73  F   UNL A   1      47.662  25.525  36.035  1.00  0.00    -0.200 F 
ENDBRANCH  49  63
BRANCH  50  74
ATOM     74  C   UNL A   1      36.799  31.413  29.164  1.00  0.00     0.064 A 
ATOM     75  C   UNL A   1      36.768  32.773  28.826  1.00  0.00     0.173 A 
ATOM     76  C   UNL A   1      35.682  30.633  28.832  1.00  0.00     0.173 A 
ATOM     77  F   UNL A   1      37.797  33.569  29.155  1.00  0.00    -0.203 F 
ATOM     78  C   UNL A   1      35.656  33.334  28.203  1.00  0.00     0.198 A 
ATOM     79  C   UNL A   1      34.585  31.189  28.175  1.00  0.00     0.198 A 
ATOM     80  F   UNL A   1      35.650  29.332  29.155  1.00  0.00    -0.203 F 
ATOM     81  F   UNL A   1      35.628  34.650  27.949  1.00  0.00    -0.200 F 
ATOM     82  C   UNL A   1      34.569  32.541  27.870  1.00  0.00     0.200 A 
ATOM     83  F   UNL A   1      33.536  30.419  27.853  1.00  0.00    -0.200 F 
ATOM     84  F   UNL A   1      33.500  33.084  27.272  1.00  0.00    -0.200 F 
ENDBRANCH  50  74
BRANCH  62  85
ATOM     85  C   UNL A   1      39.196  32.070  35.684  1.00  0.00     0.064 A 
ATOM     86  C   UNL A   1      38.353  31.554  36.680  1.00  0.00     0.173 A 
ATOM     87  C   UNL A   1      39.659  33.386  35.837  1.00  0.00     0.173 A 
ATOM     88  F   UNL A   1      37.872  30.305  36.578  1.00  0.00    -0.203 F 
ATOM     89  C   UNL A   1      37.969  32.334  37.768  1.00  0.00     0.198 A 
ATOM     90  C   UNL A   1      39.303  34.150  36.944  1.00  0.00     0.198 A 
ATOM     91  F   UNL A   1      40.476  33.927  34.919  1.00  0.00    -0.203 F 
ATOM     92  F   UNL A   1      37.122  31.837  38.680  1.00  0.00    -0.200 F 
ATOM     93  C   UNL A   1      38.451  33.628  37.904  1.00  0.00     0.200 A 
ATOM     94  F   UNL A   1      39.786  35.393  37.083  1.00  0.00    -0.200 F 
ATOM     95  F   UNL A   1      38.089  34.373  38.958  1.00  0.00    -0.200 F 
ENDBRANCH  62  85
ENDBRANCH  36  37
ENDBRANCH  29  31
ENDBRANCH  28  29
ENDBRANCH  27  28
ENDBRANCH  26  27
ENDBRANCH  25  26
ENDBRANCH  24  25
ENDBRANCH  23  24
ENDBRANCH   1  23
TORSDOF 22
ENDMDL
MODEL 2
REMARK VINA RESULT:     -10.8      1.350      2.079
REMARK SMILES O=Cc1ccc(-c2cnccc2C(=O)OCCOCCOCCOCCOC(=O)c2ccc(-c3c4nc(c(-c5c(F)c(F)c(F)c(F)c5F)c5ccc([nH]5)c(-c5c(F)c(F)c(F)c(F)c5F)c5nc(c(-c6c(F)c(F)c(F)c(F)c6F)c6ccc3[nH]6)C=C5)C=C4)cc2)s1
REMARK SMILES IDX 21 1 20 2 19 3 18 4 17 5 16 6 15 7 13 8 14 9 12 10 7 11 8 12
REMARK SMILES IDX 9 13 11 14 10 15 6 16 3 17 4 18 93 19 5 20 2 21 1 22 22 23
REMARK SMILES IDX 23 24 24 25 25 26 26 27 27 28 28 29 29 30 30 31 31 32 92 33
REMARK SMILES IDX 32 34 91 35 33 36 34 37 35 38 85 39 36 40 90 41 84 42 86 43
REMARK SMILES IDX 37 44 89 45 83 46 82 47 38 49 70 50 50 51 69 52 51 53 54 54
REMARK SMILES IDX 68 55 87 56 52 57 53 58 67 60 88 61 55 62 39 63 40 64 48 65
REMARK SMILES IDX 41 66 42 67 46 68 49 69 43 70 44 71 47 72 45 73 71 74 72 75
REMARK SMILES IDX 80 76 73 77 74 78 78 79 81 80 75 81 76 82 79 83 77 84 56 85
REMARK SMILES IDX 57 86 65 87 58 88 59 89 63 90 66 91 60 92 61 93 64 94 62 95
REMARK H PARENT 86 48 54 59
REMARK Flexibility Score: inf
ROOT
ATOM      1  O   UNL A   1      40.408  21.152  27.548  1.00  0.00    -0.377 OA
ENDROOT
BRANCH   1   2
ATOM      2  C   UNL A   1      39.768  21.886  26.511  1.00  0.00     0.188 C 
BRANCH   2   3
ATOM      3  C   UNL A   1      38.775  21.175  25.563  1.00  0.00     0.188 C 
BRANCH   3   4
ATOM      4  O   UNL A   1      37.751  22.013  25.064  1.00  0.00    -0.376 OA
BRANCH   4   5
ATOM      5  C   UNL A   1      37.419  23.217  25.727  1.00  0.00     0.202 C 
BRANCH   5   6
ATOM      6  C   UNL A   1      36.013  23.819  25.618  1.00  0.00     0.261 C 
BRANCH   6   7
ATOM      7  O   UNL A   1      35.058  23.318  26.553  1.00  0.00    -0.460 OA
BRANCH   7   8
ATOM      8  C   UNL A   1      33.751  23.452  26.254  1.00  0.00     0.338 C 
ATOM      9  O   UNL A   1      33.047  24.417  26.493  1.00  0.00    -0.246 OA
BRANCH   8  10
ATOM     10  C   UNL A   1      33.338  22.320  25.390  1.00  0.00     0.071 A 
ATOM     11  C   UNL A   1      32.876  22.461  24.070  1.00  0.00     0.025 A 
ATOM     12  C   UNL A   1      32.477  21.278  23.446  1.00  0.00     0.121 A 
ATOM     13  N   UNL A   1      32.460  20.051  24.029  1.00  0.00    -0.264 NA
ATOM     14  C   UNL A   1      33.337  21.063  26.017  1.00  0.00     0.036 A 
ATOM     15  C   UNL A   1      32.877  19.973  25.306  1.00  0.00     0.112 A 
BRANCH  11  16
ATOM     16  C   UNL A   1      32.761  23.750  23.368  1.00  0.00     0.037 A 
ATOM     17  C   UNL A   1      31.911  25.936  22.565  1.00  0.00     0.067 A 
ATOM     18  C   UNL A   1      33.247  25.761  22.277  1.00  0.00     0.024 A 
ATOM     19  S   UNL A   1      31.253  24.585  23.363  1.00  0.00    -0.132 S 
ATOM     20  C   UNL A   1      33.729  24.493  22.717  1.00  0.00     0.021 A 
BRANCH  17  21
ATOM     21  C   UNL A   1      31.083  27.084  22.279  1.00  0.00     0.270 C 
ATOM     22  O   UNL A   1      31.256  28.198  22.768  1.00  0.00    -0.297 OA
ENDBRANCH  17  21
ENDBRANCH  11  16
ENDBRANCH   8  10
ENDBRANCH   7   8
ENDBRANCH   6   7
ENDBRANCH   5   6
ENDBRANCH   4   5
ENDBRANCH   3   4
ENDBRANCH   2   3
ENDBRANCH   1   2
BRANCH   1  23
ATOM     23  C   UNL A   1      41.663  20.523  27.308  1.00  0.00     0.188 C 
BRANCH  23  24
ATOM     24  C   UNL A   1      41.821  19.406  26.250  1.00  0.00     0.188 C 
BRANCH  24  25
ATOM     25  O   UNL A   1      42.690  19.725  25.179  1.00  0.00    -0.376 OA
BRANCH  25  26
ATOM     26  C   UNL A   1      43.948  20.294  25.491  1.00  0.00     0.202 C 
BRANCH  26  27
ATOM     27  C   UNL A   1      44.283  21.658  24.870  1.00  0.00     0.261 C 
BRANCH  27  28
ATOM     28  O   UNL A   1      43.555  22.785  25.377  1.00  0.00    -0.460 OA
BRANCH  28  29
ATOM     29  C   UNL A   1      44.100  24.007  25.202  1.00  0.00     0.338 C 
ATOM     30  O   UNL A   1      44.914  24.341  24.355  1.00  0.00    -0.246 OA
BRANCH  29  31
ATOM     31  C   UNL A   1      43.407  24.936  26.115  1.00  0.00     0.060 A 
ATOM     32  C   UNL A   1      43.717  26.302  26.073  1.00  0.00     0.016 A 
ATOM     33  C   UNL A   1      42.441  24.455  27.001  1.00  0.00     0.016 A 
ATOM     34  C   UNL A   1      43.082  27.188  26.943  1.00  0.00     0.010 A 
ATOM     35  C   UNL A   1      41.823  25.339  27.888  1.00  0.00     0.010 A 
ATOM     36  C   UNL A   1      42.165  26.703  27.885  1.00  0.00    -0.014 A 
BRANCH  36  37
ATOM     37  C   UNL A   1      41.712  27.576  28.995  1.00  0.00     0.031 A 
ATOM     38  C   UNL A   1      42.460  27.514  30.298  1.00  0.00     0.074 A 
ATOM     39  C   UNL A   1      40.665  28.405  28.854  1.00  0.00     0.049 A 
ATOM     40  N   UNL A   1      42.208  28.112  31.433  1.00  0.00    -0.248 NA
ATOM     41  C   UNL A   1      43.652  26.651  30.322  1.00  0.00     0.031 C 
ATOM     42  C   UNL A   1      39.885  28.581  27.632  1.00  0.00     0.029 A 
ATOM     43  N   UNL A   1      40.068  29.245  29.761  1.00  0.00    -0.354 N 
ATOM     44  C   UNL A   1      43.202  27.692  32.307  1.00  0.00     0.074 A 
ATOM     45  C   UNL A   1      44.041  26.763  31.583  1.00  0.00     0.031 C 
ATOM     46  C   UNL A   1      38.894  29.458  27.871  1.00  0.00     0.029 A 
ATOM     47  C   UNL A   1      38.953  29.879  29.270  1.00  0.00     0.049 A 
ATOM     48  H   UNL A   1      40.405  29.380  30.676  1.00  0.00     0.167 HD
ATOM     49  C   UNL A   1      43.400  28.055  33.596  1.00  0.00     0.037 A 
ATOM     50  C   UNL A   1      38.067  30.682  29.891  1.00  0.00     0.037 A 
ATOM     51  C   UNL A   1      42.559  28.976  34.313  1.00  0.00     0.049 A 
ATOM     52  C   UNL A   1      38.264  31.010  31.350  1.00  0.00     0.074 A 
ATOM     53  C   UNL A   1      42.683  29.421  35.617  1.00  0.00     0.029 A 
ATOM     54  N   UNL A   1      41.428  29.584  33.788  1.00  0.00    -0.354 N 
ATOM     55  N   UNL A   1      39.220  30.634  32.166  1.00  0.00    -0.248 NA
ATOM     56  C   UNL A   1      37.257  31.879  31.976  1.00  0.00     0.031 C 
ATOM     57  C   UNL A   1      41.593  30.249  35.901  1.00  0.00     0.029 A 
ATOM     58  C   UNL A   1      40.828  30.378  34.752  1.00  0.00     0.049 A 
ATOM     59  H   UNL A   1      41.100  29.469  32.867  1.00  0.00     0.167 HD
ATOM     60  C   UNL A   1      38.950  31.244  33.383  1.00  0.00     0.074 A 
ATOM     61  C   UNL A   1      37.747  32.029  33.198  1.00  0.00     0.031 C 
ATOM     62  C   UNL A   1      39.637  31.165  34.550  1.00  0.00     0.037 A 
BRANCH  49  63
ATOM     63  C   UNL A   1      44.555  27.430  34.324  1.00  0.00     0.064 A 
ATOM     64  C   UNL A   1      45.819  28.036  34.367  1.00  0.00     0.173 A 
ATOM     65  C   UNL A   1      44.384  26.221  35.015  1.00  0.00     0.173 A 
ATOM     66  F   UNL A   1      46.041  29.184  33.710  1.00  0.00    -0.203 F 
ATOM     67  C   UNL A   1      46.875  27.442  35.054  1.00  0.00     0.198 A 
ATOM     68  C   UNL A   1      45.432  25.647  35.729  1.00  0.00     0.198 A 
ATOM     69  F   UNL A   1      43.195  25.599  35.008  1.00  0.00    -0.203 F 
ATOM     70  F   UNL A   1      48.087  28.013  35.039  1.00  0.00    -0.200 F 
ATOM     71  C   UNL A   1      46.679  26.253  35.742  1.00  0.00     0.200 A 
ATOM     72  F   UNL A   1      45.236  24.506  36.404  1.00  0.00    -0.200 F 
ATOM     73  F   UNL A   1      47.693  25.688  36.410  1.00  0.00    -0.200 F 
ENDBRANCH  49  63
BRANCH  50  74
ATOM     74  C   UNL A   1      36.901  31.228  29.144  1.00  0.00     0.064 A 
ATOM     75  C   UNL A   1      36.845  32.580  28.780  1.00  0.00     0.173 A 
ATOM     76  C   UNL A   1      35.805  30.417  28.811  1.00  0.00     0.173 A 
ATOM     77  F   UNL A   1      37.851  33.404  29.107  1.00  0.00    -0.203 F 
ATOM     78  C   UNL A   1      35.730  33.105  28.131  1.00  0.00     0.198 A 
ATOM     79  C   UNL A   1      34.706  30.936  28.129  1.00  0.00     0.198 A 
ATOM     80  F   UNL A   1      35.797  29.122  29.158  1.00  0.00    -0.203 F 
ATOM     81  F   UNL A   1      35.676  34.415  27.851  1.00  0.00    -0.200 F 
ATOM     82  C   UNL A   1      34.665  32.282  27.798  1.00  0.00     0.200 A 
ATOM     83  F   UNL A   1      33.678  30.138  27.808  1.00  0.00    -0.200 F 
ATOM     84  F   UNL A   1      33.592  32.789  27.176  1.00  0.00    -0.200 F 
ENDBRANCH  50  74
BRANCH  62  85
ATOM     85  C   UNL A   1      39.138  31.983  35.709  1.00  0.00     0.064 A 
ATOM     86  C   UNL A   1      38.304  31.441  36.697  1.00  0.00     0.173 A 
ATOM     87  C   UNL A   1      39.545  33.319  35.857  1.00  0.00     0.173 A 
ATOM     88  F   UNL A   1      37.876  30.173  36.599  1.00  0.00    -0.203 F 
ATOM     89  C   UNL A   1      37.872  32.213  37.774  1.00  0.00     0.198 A 
ATOM     90  C   UNL A   1      39.142  34.076  36.953  1.00  0.00     0.198 A 
ATOM     91  F   UNL A   1      40.353  33.886  34.947  1.00  0.00    -0.203 F 
ATOM     92  F   UNL A   1      37.033  31.688  38.677  1.00  0.00    -0.200 F 
ATOM     93  C   UNL A   1      38.299  33.526  37.905  1.00  0.00     0.200 A 
ATOM     94  F   UNL A   1      39.573  35.339  37.089  1.00  0.00    -0.200 F 
ATOM     95  F   UNL A   1      37.892  34.263  38.948  1.00  0.00    -0.200 F 
ENDBRANCH  62  85
ENDBRANCH  36  37
ENDBRANCH  29  31
ENDBRANCH  28  29
ENDBRANCH  27  28
ENDBRANCH  26  27
ENDBRANCH  25  26
ENDBRANCH  24  25
ENDBRANCH  23  24
ENDBRANCH   1  23
TORSDOF 22
ENDMDL
MODEL 3
REMARK VINA RESULT:     -10.7      1.650      3.471
REMARK SMILES O=Cc1ccc(-c2cnccc2C(=O)OCCOCCOCCOCCOC(=O)c2ccc(-c3c4nc(c(-c5c(F)c(F)c(F)c(F)c5F)c5ccc([nH]5)c(-c5c(F)c(F)c(F)c(F)c5F)c5nc(c(-c6c(F)c(F)c(F)c(F)c6F)c6ccc3[nH]6)C=C5)C=C4)cc2)s1
REMARK SMILES IDX 21 1 20 2 19 3 18 4 17 5 16 6 15 7 13 8 14 9 12 10 7 11 8 12
REMARK SMILES IDX 9 13 11 14 10 15 6 16 3 17 4 18 93 19 5 20 2 21 1 22 22 23
REMARK SMILES IDX 23 24 24 25 25 26 26 27 27 28 28 29 29 30 30 31 31 32 92 33
REMARK SMILES IDX 32 34 91 35 33 36 34 37 35 38 85 39 36 40 90 41 84 42 86 43
REMARK SMILES IDX 37 44 89 45 83 46 82 47 38 49 70 50 50 51 69 52 51 53 54 54
REMARK SMILES IDX 68 55 87 56 52 57 53 58 67 60 88 61 55 62 39 63 40 64 48 65
REMARK SMILES IDX 41 66 42 67 46 68 49 69 43 70 44 71 47 72 45 73 71 74 72 75
REMARK SMILES IDX 80 76 73 77 74 78 78 79 81 80 75 81 76 82 79 83 77 84 56 85
REMARK SMILES IDX 57 86 65 87 58 88 59 89 63 90 66 91 60 92 61 93 64 94 62 95
REMARK H PARENT 86 48 54 59
REMARK Flexibility Score: inf
ROOT
ATOM      1  O   UNL A   1      40.381  21.086  27.546  1.00  0.00    -0.377 OA
ENDROOT
BRANCH   1   2
ATOM      2  C   UNL A   1      39.862  21.810  26.437  1.00  0.00     0.188 C 
BRANCH   2   3
ATOM      3  C   UNL A   1      38.580  21.317  25.726  1.00  0.00     0.188 C 
BRANCH   3   4
ATOM      4  O   UNL A   1      37.774  22.354  25.203  1.00  0.00    -0.376 OA
BRANCH   4   5
ATOM      5  C   UNL A   1      37.110  22.195  23.965  1.00  0.00     0.202 C 
BRANCH   5   6
ATOM      6  C   UNL A   1      36.045  23.197  23.502  1.00  0.00     0.261 C 
BRANCH   6   7
ATOM      7  O   UNL A   1      34.943  23.373  24.392  1.00  0.00    -0.460 OA
BRANCH   7   8
ATOM      8  C   UNL A   1      33.717  23.529  23.855  1.00  0.00     0.338 C 
ATOM      9  O   UNL A   1      33.430  23.477  22.672  1.00  0.00    -0.246 OA
BRANCH   8  10
ATOM     10  C   UNL A   1      32.716  23.566  24.948  1.00  0.00     0.071 A 
ATOM     11  C   UNL A   1      32.160  22.424  25.550  1.00  0.00     0.025 A 
ATOM     12  C   UNL A   1      31.186  22.671  26.519  1.00  0.00     0.121 A 
ATOM     13  N   UNL A   1      30.724  23.899  26.870  1.00  0.00    -0.264 NA
ATOM     14  C   UNL A   1      32.261  24.849  25.295  1.00  0.00     0.036 A 
ATOM     15  C   UNL A   1      31.262  24.960  26.240  1.00  0.00     0.112 A 
BRANCH  11  16
ATOM     16  C   UNL A   1      32.514  21.042  25.185  1.00  0.00     0.037 A 
ATOM     17  C   UNL A   1      32.926  18.973  23.882  1.00  0.00     0.067 A 
ATOM     18  C   UNL A   1      33.466  18.906  25.148  1.00  0.00     0.024 A 
ATOM     19  S   UNL A   1      32.122  20.448  23.614  1.00  0.00    -0.132 S 
ATOM     20  C   UNL A   1      33.207  20.086  25.906  1.00  0.00     0.021 A 
BRANCH  17  21
ATOM     21  C   UNL A   1      32.985  17.979  22.836  1.00  0.00     0.270 C 
ATOM     22  O   UNL A   1      32.167  17.888  21.924  1.00  0.00    -0.297 OA
ENDBRANCH  17  21
ENDBRANCH  11  16
ENDBRANCH   8  10
ENDBRANCH   7   8
ENDBRANCH   6   7
ENDBRANCH   5   6
ENDBRANCH   4   5
ENDBRANCH   3   4
ENDBRANCH   2   3
ENDBRANCH   1   2
BRANCH   1  23
ATOM     23  C   UNL A   1      41.575  20.322  27.404  1.00  0.00     0.188 C 
BRANCH  23  24
ATOM     24  C   UNL A   1      41.841  19.459  26.147  1.00  0.00     0.188 C 
BRANCH  24  25
ATOM     25  O   UNL A   1      42.837  19.971  25.281  1.00  0.00    -0.376 OA
BRANCH  25  26
ATOM     26  C   UNL A   1      43.534  21.135  25.684  1.00  0.00     0.202 C 
BRANCH  26  27
ATOM     27  C   UNL A   1      43.741  22.237  24.634  1.00  0.00     0.261 C 
BRANCH  27  28
ATOM     28  O   UNL A   1      43.105  23.495  24.898  1.00  0.00    -0.460 OA
BRANCH  28  29
ATOM     29  C   UNL A   1      43.903  24.564  25.100  1.00  0.00     0.338 C 
ATOM     30  O   UNL A   1      44.930  24.846  24.503  1.00  0.00    -0.246 OA
BRANCH  29  31
ATOM     31  C   UNL A   1      43.222  25.448  26.066  1.00  0.00     0.060 A 
ATOM     32  C   UNL A   1      43.554  26.809  26.106  1.00  0.00     0.016 A 
ATOM     33  C   UNL A   1      42.248  24.930  26.921  1.00  0.00     0.016 A 
ATOM     34  C   UNL A   1      42.931  27.652  27.027  1.00  0.00     0.010 A 
ATOM     35  C   UNL A   1      41.642  25.770  27.859  1.00  0.00     0.010 A 
ATOM     36  C   UNL A   1      42.005  27.126  27.937  1.00  0.00    -0.014 A 
BRANCH  36  37
ATOM     37  C   UNL A   1      41.564  27.938  29.097  1.00  0.00     0.031 A 
ATOM     38  C   UNL A   1      42.320  27.800  30.389  1.00  0.00     0.074 A 
ATOM     39  C   UNL A   1      40.521  28.780  29.009  1.00  0.00     0.049 A 
ATOM     40  N   UNL A   1      42.078  28.336  31.558  1.00  0.00    -0.248 NA
ATOM     41  C   UNL A   1      43.507  26.931  30.358  1.00  0.00     0.031 C 
ATOM     42  C   UNL A   1      39.735  29.027  27.804  1.00  0.00     0.029 A 
ATOM     43  N   UNL A   1      39.934  29.571  29.966  1.00  0.00    -0.354 N 
ATOM     44  C   UNL A   1      43.075  27.862  32.401  1.00  0.00     0.074 A 
ATOM     45  C   UNL A   1      43.905  26.970  31.620  1.00  0.00     0.031 C 
ATOM     46  C   UNL A   1      38.750  29.895  28.098  1.00  0.00     0.029 A 
ATOM     47  C   UNL A   1      38.819  30.237  29.517  1.00  0.00     0.049 A 
ATOM     48  H   UNL A   1      40.278  29.652  30.884  1.00  0.00     0.167 HD
ATOM     49  C   UNL A   1      43.284  28.152  33.706  1.00  0.00     0.037 A 
ATOM     50  C   UNL A   1      37.942  31.009  30.188  1.00  0.00     0.037 A 
ATOM     51  C   UNL A   1      42.452  29.036  34.479  1.00  0.00     0.049 A 
ATOM     52  C   UNL A   1      38.150  31.254  31.662  1.00  0.00     0.074 A 
ATOM     53  C   UNL A   1      42.586  29.407  35.805  1.00  0.00     0.029 A 
ATOM     54  N   UNL A   1      41.321  29.678  33.996  1.00  0.00    -0.354 N 
ATOM     55  N   UNL A   1      39.109  30.828  32.449  1.00  0.00    -0.248 NA
ATOM     56  C   UNL A   1      37.152  32.093  32.342  1.00  0.00     0.031 C 
ATOM     57  C   UNL A   1      41.503  30.223  36.142  1.00  0.00     0.029 A 
ATOM     58  C   UNL A   1      40.732  30.420  35.007  1.00  0.00     0.049 A 
ATOM     59  H   UNL A   1      40.986  29.616  33.072  1.00  0.00     0.167 HD
ATOM     60  C   UNL A   1      38.850  31.371  33.700  1.00  0.00     0.074 A 
ATOM     61  C   UNL A   1      37.651  32.171  33.567  1.00  0.00     0.031 C 
ATOM     62  C   UNL A   1      39.544  31.224  34.857  1.00  0.00     0.037 A 
BRANCH  49  63
ATOM     63  C   UNL A   1      44.439  27.481  34.391  1.00  0.00     0.064 A 
ATOM     64  C   UNL A   1      45.690  28.103  34.515  1.00  0.00     0.173 A 
ATOM     65  C   UNL A   1      44.282  26.207  34.959  1.00  0.00     0.173 A 
ATOM     66  F   UNL A   1      45.898  29.314  33.976  1.00  0.00    -0.203 F 
ATOM     67  C   UNL A   1      46.747  27.466  35.160  1.00  0.00     0.198 A 
ATOM     68  C   UNL A   1      45.330  25.587  35.633  1.00  0.00     0.198 A 
ATOM     69  F   UNL A   1      43.107  25.567  34.871  1.00  0.00    -0.203 F 
ATOM     70  F   UNL A   1      47.947  28.059  35.222  1.00  0.00    -0.200 F 
ATOM     71  C   UNL A   1      46.564  26.213  35.726  1.00  0.00     0.200 A 
ATOM     72  F   UNL A   1      45.147  24.383  36.191  1.00  0.00    -0.200 F 
ATOM     73  F   UNL A   1      47.579  25.605  36.354  1.00  0.00    -0.200 F 
ENDBRANCH  49  63
BRANCH  50  74
ATOM     74  C   UNL A   1      36.775  31.601  29.480  1.00  0.00     0.064 A 
ATOM     75  C   UNL A   1      35.705  30.800  29.056  1.00  0.00     0.173 A 
ATOM     76  C   UNL A   1      36.722  32.971  29.182  1.00  0.00     0.173 A 
ATOM     77  F   UNL A   1      35.725  29.479  29.285  1.00  0.00    -0.203 F 
ATOM     78  C   UNL A   1      34.639  31.343  28.342  1.00  0.00     0.198 A 
ATOM     79  C   UNL A   1      35.636  33.518  28.500  1.00  0.00     0.198 A 
ATOM     80  F   UNL A   1      37.731  33.777  29.543  1.00  0.00    -0.203 F 
ATOM     81  F   UNL A   1      33.660  30.544  27.894  1.00  0.00    -0.200 F 
ATOM     82  C   UNL A   1      34.600  32.703  28.072  1.00  0.00     0.200 A 
ATOM     83  F   UNL A   1      35.602  34.833  28.240  1.00  0.00    -0.200 F 
ATOM     84  F   UNL A   1      33.575  33.222  27.384  1.00  0.00    -0.200 F 
ENDBRANCH  50  74
BRANCH  62  85
ATOM     85  C   UNL A   1      39.057  31.979  36.062  1.00  0.00     0.064 A 
ATOM     86  C   UNL A   1      39.435  33.308  36.309  1.00  0.00     0.173 A 
ATOM     87  C   UNL A   1      38.158  31.378  36.957  1.00  0.00     0.173 A 
ATOM     88  F   UNL A   1      40.300  33.927  35.491  1.00  0.00    -0.203 F 
ATOM     89  C   UNL A   1      38.954  33.994  37.421  1.00  0.00     0.198 A 
ATOM     90  C   UNL A   1      37.651  32.079  38.047  1.00  0.00     0.198 A 
ATOM     91  F   UNL A   1      37.755  30.112  36.764  1.00  0.00    -0.203 F 
ATOM     92  F   UNL A   1      39.369  35.245  37.664  1.00  0.00    -0.200 F 
ATOM     93  C   UNL A   1      38.056  33.383  38.284  1.00  0.00     0.200 A 
ATOM     94  F   UNL A   1      36.768  31.492  38.868  1.00  0.00    -0.200 F 
ATOM     95  F   UNL A   1      37.585  34.050  39.347  1.00  0.00    -0.200 F 
ENDBRANCH  62  85
ENDBRANCH  36  37
ENDBRANCH  29  31
ENDBRANCH  28  29
ENDBRANCH  27  28
ENDBRANCH  26  27
ENDBRANCH  25  26
ENDBRANCH  24  25
ENDBRANCH  23  24
ENDBRANCH   1  23
TORSDOF 22
ENDMDL
