MODEL 1
REMARK VINA RESULT:      -9.5      0.000      0.000
REMARK SMILES CC[N@H+](CC(C)(C)C(=O)OCCOCCOCCOCCOC(=O)c1ccc(-c2c3nc(c(-c4c(F)c(F)c(F)c(F)c4F)c4ccc([nH]4)c(-c4c(F)c(F)c(F)c(F)c4F)c4nc(c(-c5c(F)c(F)c(F)c(F)c5F)c5ccc2[nH]5)C=C4)C=C3)cc1)[C@H]1CC[NH2+]C1
REMARK SMILES IDX 15 1 14 2 13 3 12 4 11 5 10 6 8 7 9 8 5 9 6 10 7 11 4 12
REMARK SMILES IDX 3 13 2 15 1 16 88 17 89 18 92 19 90 20 91 21 16 24 17 25
REMARK SMILES IDX 18 26 19 27 20 28 21 29 22 30 23 31 24 32 25 33 26 34 87 35
REMARK SMILES IDX 27 36 86 37 28 38 29 39 30 40 80 41 31 42 85 43 79 44 81 45
REMARK SMILES IDX 32 46 84 47 78 48 77 49 33 51 65 52 45 53 64 54 46 55 49 56
REMARK SMILES IDX 63 57 82 58 47 59 48 60 62 62 83 63 50 64 34 65 35 66 43 67
REMARK SMILES IDX 36 68 37 69 41 70 44 71 38 72 39 73 42 74 40 75 66 76 67 77
REMARK SMILES IDX 75 78 68 79 69 80 73 81 76 82 70 83 71 84 74 85 72 86 51 87
REMARK SMILES IDX 52 88 60 89 53 90 54 91 58 92 61 93 55 94 56 95 59 96 57 97
REMARK H PARENT 3 14 91 22 91 23 81 50 49 61
REMARK Flexibility Score: inf
ROOT
ATOM      1  C   UNL A   1      33.280  35.291  29.010  1.00  0.00     0.188 C 
ENDROOT
BRANCH   1   2
ATOM      2  C   UNL A   1      34.426  34.269  28.923  1.00  0.00     0.188 C 
BRANCH   2   3
ATOM      3  O   UNL A   1      34.236  33.082  29.681  1.00  0.00    -0.376 OA
BRANCH   3   4
ATOM      4  C   UNL A   1      34.981  31.941  29.265  1.00  0.00     0.202 C 
BRANCH   4   5
ATOM      5  C   UNL A   1      34.724  31.443  27.837  1.00  0.00     0.261 C 
BRANCH   5   6
ATOM      6  O   UNL A   1      33.706  30.426  27.811  1.00  0.00    -0.463 OA
BRANCH   6   7
ATOM      7  C   UNL A   1      33.745  29.482  26.844  1.00  0.00     0.317 C 
ATOM      8  O   UNL A   1      34.779  28.939  26.474  1.00  0.00    -0.251 OA
BRANCH   7   9
ATOM      9  C   UNL A   1      32.339  29.173  26.295  1.00  0.00     0.111 C 
ATOM     10  C   UNL A   1      31.723  30.513  25.859  1.00  0.00     0.029 C 
ATOM     11  C   UNL A   1      31.440  28.608  27.438  1.00  0.00     0.029 C 
BRANCH   9  12
ATOM     12  C   UNL A   1      32.314  28.159  25.092  1.00  0.00     0.280 C 
BRANCH  12  13
ATOM     13  N   UNL A   1      31.184  27.201  24.921  1.00  0.00    -0.327 N 
ATOM     14  H   UNL A   1      30.508  27.407  25.657  1.00  0.00     0.348 HD
BRANCH  13  15
ATOM     15  C   UNL A   1      30.550  27.391  23.591  1.00  0.00     0.259 C 
ATOM     16  C   UNL A   1      29.512  28.493  23.409  1.00  0.00     0.071 C 
ENDBRANCH  13  15
BRANCH  13  17
ATOM     17  C   UNL A   1      31.588  25.775  25.106  1.00  0.00     0.245 C 
ATOM     18  C   UNL A   1      32.895  25.471  25.853  1.00  0.00     0.132 C 
ATOM     19  C   UNL A   1      30.567  24.953  25.938  1.00  0.00     0.326 C 
ATOM     20  C   UNL A   1      32.680  24.061  26.365  1.00  0.00     0.267 C 
ATOM     21  N   UNL A   1      31.310  24.091  26.877  1.00  0.00    -0.341 N 
ATOM     22  H   UNL A   1      31.288  24.485  27.817  1.00  0.00     0.346 HD
ATOM     23  H   UNL A   1      30.905  23.157  26.939  1.00  0.00     0.346 HD
ENDBRANCH  13  17
ENDBRANCH  12  13
ENDBRANCH   9  12
ENDBRANCH   7   9
ENDBRANCH   6   7
ENDBRANCH   5   6
ENDBRANCH   4   5
ENDBRANCH   3   4
ENDBRANCH   2   3
ENDBRANCH   1   2
BRANCH   1  24
ATOM     24  O   UNL A   1      33.456  36.412  29.857  1.00  0.00    -0.377 OA
BRANCH  24  25
ATOM     25  C   UNL A   1      32.901  36.373  31.166  1.00  0.00     0.188 C 
BRANCH  25  26
ATOM     26  C   UNL A   1      33.609  35.629  32.323  1.00  0.00     0.188 C 
BRANCH  26  27
ATOM     27  O   UNL A   1      32.964  34.448  32.772  1.00  0.00    -0.376 OA
BRANCH  27  28
ATOM     28  C   UNL A   1      33.795  33.393  33.234  1.00  0.00     0.202 C 
BRANCH  28  29
ATOM     29  C   UNL A   1      35.311  33.641  33.173  1.00  0.00     0.261 C 
BRANCH  29  30
ATOM     30  O   UNL A   1      36.093  32.611  32.545  1.00  0.00    -0.460 OA
BRANCH  30  31
ATOM     31  C   UNL A   1      37.030  31.985  33.286  1.00  0.00     0.338 C 
ATOM     32  O   UNL A   1      37.022  31.804  34.494  1.00  0.00    -0.246 OA
BRANCH  31  33
ATOM     33  C   UNL A   1      37.993  31.358  32.358  1.00  0.00     0.060 A 
ATOM     34  C   UNL A   1      39.066  30.625  32.883  1.00  0.00     0.016 A 
ATOM     35  C   UNL A   1      37.820  31.471  30.976  1.00  0.00     0.016 A 
ATOM     36  C   UNL A   1      39.994  30.033  32.026  1.00  0.00     0.010 A 
ATOM     37  C   UNL A   1      38.766  30.904  30.120  1.00  0.00     0.010 A 
ATOM     38  C   UNL A   1      39.877  30.216  30.643  1.00  0.00    -0.014 A 
BRANCH  38  39
ATOM     39  C   UNL A   1      41.033  29.911  29.766  1.00  0.00     0.031 A 
ATOM     40  C   UNL A   1      41.104  28.539  29.154  1.00  0.00     0.074 A 
ATOM     41  C   UNL A   1      41.979  30.824  29.494  1.00  0.00     0.049 A 
ATOM     42  N   UNL A   1      42.029  28.007  28.398  1.00  0.00    -0.248 NA
ATOM     43  C   UNL A   1      39.972  27.641  29.440  1.00  0.00     0.031 C 
ATOM     44  C   UNL A   1      41.996  32.200  29.983  1.00  0.00     0.029 A 
ATOM     45  N   UNL A   1      43.121  30.719  28.739  1.00  0.00    -0.354 N 
ATOM     46  C   UNL A   1      41.594  26.716  28.125  1.00  0.00     0.074 A 
ATOM     47  C   UNL A   1      40.341  26.531  28.822  1.00  0.00     0.031 C 
ATOM     48  C   UNL A   1      43.103  32.810  29.526  1.00  0.00     0.029 A 
ATOM     49  C   UNL A   1      43.889  31.858  28.741  1.00  0.00     0.049 A 
ATOM     50  H   UNL A   1      43.367  29.905  28.243  1.00  0.00     0.167 HD
ATOM     51  C   UNL A   1      42.183  25.773  27.354  1.00  0.00     0.037 A 
ATOM     52  C   UNL A   1      45.098  32.089  28.192  1.00  0.00     0.037 A 
ATOM     53  C   UNL A   1      43.433  25.957  26.668  1.00  0.00     0.049 A 
ATOM     54  C   UNL A   1      45.777  30.991  27.410  1.00  0.00     0.074 A 
ATOM     55  C   UNL A   1      44.111  25.066  25.856  1.00  0.00     0.029 A 
ATOM     56  N   UNL A   1      44.200  27.111  26.726  1.00  0.00    -0.354 N 
ATOM     57  N   UNL A   1      45.353  29.780  27.135  1.00  0.00    -0.248 NA
ATOM     58  C   UNL A   1      47.106  31.295  26.857  1.00  0.00     0.031 C 
ATOM     59  C   UNL A   1      45.317  25.659  25.469  1.00  0.00     0.029 A 
ATOM     60  C   UNL A   1      45.360  26.945  25.986  1.00  0.00     0.049 A 
ATOM     61  H   UNL A   1      43.957  27.927  27.219  1.00  0.00     0.167 HD
ATOM     62  C   UNL A   1      46.341  29.194  26.354  1.00  0.00     0.074 A 
ATOM     63  C   UNL A   1      47.382  30.184  26.187  1.00  0.00     0.031 C 
ATOM     64  C   UNL A   1      46.382  27.946  25.820  1.00  0.00     0.037 A 
BRANCH  51  65
ATOM     65  C   UNL A   1      41.494  24.443  27.244  1.00  0.00     0.064 A 
ATOM     66  C   UNL A   1      40.317  24.278  26.499  1.00  0.00     0.173 A 
ATOM     67  C   UNL A   1      42.030  23.314  27.881  1.00  0.00     0.173 A 
ATOM     68  F   UNL A   1      39.752  25.330  25.886  1.00  0.00    -0.203 F 
ATOM     69  C   UNL A   1      39.686  23.039  26.420  1.00  0.00     0.198 A 
ATOM     70  C   UNL A   1      41.416  22.069  27.773  1.00  0.00     0.198 A 
ATOM     71  F   UNL A   1      43.153  23.415  28.607  1.00  0.00    -0.203 F 
ATOM     72  F   UNL A   1      38.533  22.917  25.748  1.00  0.00    -0.200 F 
ATOM     73  C   UNL A   1      40.240  21.935  27.049  1.00  0.00     0.200 A 
ATOM     74  F   UNL A   1      41.959  21.001  28.372  1.00  0.00    -0.200 F 
ATOM     75  F   UNL A   1      39.636  20.742  26.967  1.00  0.00    -0.200 F 
ENDBRANCH  51  65
BRANCH  52  76
ATOM     76  C   UNL A   1      45.759  33.409  28.369  1.00  0.00     0.064 A 
ATOM     77  C   UNL A   1      46.569  33.672  29.485  1.00  0.00     0.173 A 
ATOM     78  C   UNL A   1      45.569  34.448  27.446  1.00  0.00     0.173 A 
ATOM     79  F   UNL A   1      46.758  32.722  30.412  1.00  0.00    -0.203 F 
ATOM     80  C   UNL A   1      47.145  34.926  29.678  1.00  0.00     0.198 A 
ATOM     81  C   UNL A   1      46.171  35.692  27.624  1.00  0.00     0.198 A 
ATOM     82  F   UNL A   1      44.799  34.254  26.365  1.00  0.00    -0.203 F 
ATOM     83  F   UNL A   1      47.869  35.164  30.779  1.00  0.00    -0.200 F 
ATOM     84  C   UNL A   1      46.951  35.933  28.745  1.00  0.00     0.200 A 
ATOM     85  F   UNL A   1      45.989  36.659  26.715  1.00  0.00    -0.200 F 
ATOM     86  F   UNL A   1      47.506  37.138  28.931  1.00  0.00    -0.200 F 
ENDBRANCH  52  76
BRANCH  64  87
ATOM     87  C   UNL A   1      47.568  27.596  24.964  1.00  0.00     0.064 A 
ATOM     88  C   UNL A   1      47.557  27.773  23.573  1.00  0.00     0.173 A 
ATOM     89  C   UNL A   1      48.750  27.120  25.555  1.00  0.00     0.173 A 
ATOM     90  F   UNL A   1      46.450  28.215  22.958  1.00  0.00    -0.203 F 
ATOM     91  C   UNL A   1      48.674  27.459  22.803  1.00  0.00     0.198 A 
ATOM     92  C   UNL A   1      49.876  26.841  24.786  1.00  0.00     0.198 A 
ATOM     93  F   UNL A   1      48.819  26.942  26.884  1.00  0.00    -0.203 F 
ATOM     94  F   UNL A   1      48.623  27.587  21.469  1.00  0.00    -0.200 F 
ATOM     95  C   UNL A   1      49.834  27.002  23.410  1.00  0.00     0.200 A 
ATOM     96  F   UNL A   1      51.000  26.417  25.377  1.00  0.00    -0.200 F 
ATOM     97  F   UNL A   1      50.911  26.709  22.667  1.00  0.00    -0.200 F 
ENDBRANCH  64  87
ENDBRANCH  38  39
ENDBRANCH  31  33
ENDBRANCH  30  31
ENDBRANCH  29  30
ENDBRANCH  28  29
ENDBRANCH  27  28
ENDBRANCH  26  27
ENDBRANCH  25  26
ENDBRANCH  24  25
ENDBRANCH   1  24
TORSDOF 24
ENDMDL
MODEL 2
REMARK VINA RESULT:      -9.4      1.347      7.471
REMARK SMILES CC[N@H+](CC(C)(C)C(=O)OCCOCCOCCOCCOC(=O)c1ccc(-c2c3nc(c(-c4c(F)c(F)c(F)c(F)c4F)c4ccc([nH]4)c(-c4c(F)c(F)c(F)c(F)c4F)c4nc(c(-c5c(F)c(F)c(F)c(F)c5F)c5ccc2[nH]5)C=C4)C=C3)cc1)[C@H]1CC[NH2+]C1
REMARK SMILES IDX 15 1 14 2 13 3 12 4 11 5 10 6 8 7 9 8 5 9 6 10 7 11 4 12
REMARK SMILES IDX 3 13 2 15 1 16 88 17 89 18 92 19 90 20 91 21 16 24 17 25
REMARK SMILES IDX 18 26 19 27 20 28 21 29 22 30 23 31 24 32 25 33 26 34 87 35
REMARK SMILES IDX 27 36 86 37 28 38 29 39 30 40 80 41 31 42 85 43 79 44 81 45
REMARK SMILES IDX 32 46 84 47 78 48 77 49 33 51 65 52 45 53 64 54 46 55 49 56
REMARK SMILES IDX 63 57 82 58 47 59 48 60 62 62 83 63 50 64 34 65 35 66 43 67
REMARK SMILES IDX 36 68 37 69 41 70 44 71 38 72 39 73 42 74 40 75 66 76 67 77
REMARK SMILES IDX 75 78 68 79 69 80 73 81 76 82 70 83 71 84 74 85 72 86 51 87
REMARK SMILES IDX 52 88 60 89 53 90 54 91 58 92 61 93 55 94 56 95 59 96 57 97
REMARK H PARENT 3 14 91 22 91 23 81 50 49 61
REMARK Flexibility Score: inf
ROOT
ATOM      1  C   UNL A   1      34.361  31.690  28.303  1.00  0.00     0.188 C 
ENDROOT
BRANCH   1   2
ATOM      2  C   UNL A   1      35.213  30.609  27.617  1.00  0.00     0.188 C 
BRANCH   2   3
ATOM      3  O   UNL A   1      34.549  29.373  27.386  1.00  0.00    -0.376 OA
BRANCH   3   4
ATOM      4  C   UNL A   1      34.210  29.082  26.032  1.00  0.00     0.202 C 
BRANCH   4   5
ATOM      5  C   UNL A   1      33.671  27.674  25.753  1.00  0.00     0.261 C 
BRANCH   5   6
ATOM      6  O   UNL A   1      32.269  27.704  25.427  1.00  0.00    -0.463 OA
BRANCH   6   7
ATOM      7  C   UNL A   1      31.452  26.762  25.949  1.00  0.00     0.317 C 
ATOM      8  O   UNL A   1      31.193  26.684  27.144  1.00  0.00    -0.251 OA
BRANCH   7   9
ATOM      9  C   UNL A   1      30.887  25.832  24.859  1.00  0.00     0.111 C 
ATOM     10  C   UNL A   1      31.764  26.021  23.609  1.00  0.00     0.029 C 
ATOM     11  C   UNL A   1      29.444  26.285  24.476  1.00  0.00     0.029 C 
BRANCH   9  12
ATOM     12  C   UNL A   1      30.846  24.309  25.255  1.00  0.00     0.280 C 
BRANCH  12  13
ATOM     13  N   UNL A   1      31.682  23.785  26.374  1.00  0.00    -0.327 N 
ATOM     14  H   UNL A   1      31.945  24.588  26.946  1.00  0.00     0.348 HD
BRANCH  13  15
ATOM     15  C   UNL A   1      30.897  22.823  27.189  1.00  0.00     0.259 C 
ATOM     16  C   UNL A   1      29.375  22.861  27.129  1.00  0.00     0.071 C 
ENDBRANCH  13  15
BRANCH  13  17
ATOM     17  C   UNL A   1      32.957  23.160  25.913  1.00  0.00     0.245 C 
ATOM     18  C   UNL A   1      33.538  21.990  26.722  1.00  0.00     0.132 C 
ATOM     19  C   UNL A   1      32.852  22.526  24.499  1.00  0.00     0.326 C 
ATOM     20  C   UNL A   1      34.398  21.263  25.706  1.00  0.00     0.267 C 
ATOM     21  N   UNL A   1      33.556  21.229  24.511  1.00  0.00    -0.341 N 
ATOM     22  H   UNL A   1      32.888  20.461  24.565  1.00  0.00     0.346 HD
ATOM     23  H   UNL A   1      34.103  21.085  23.663  1.00  0.00     0.346 HD
ENDBRANCH  13  17
ENDBRANCH  12  13
ENDBRANCH   9  12
ENDBRANCH   7   9
ENDBRANCH   6   7
ENDBRANCH   5   6
ENDBRANCH   4   5
ENDBRANCH   3   4
ENDBRANCH   2   3
ENDBRANCH   1   2
BRANCH   1  24
ATOM     24  O   UNL A   1      34.503  33.026  27.856  1.00  0.00    -0.377 OA
BRANCH  24  25
ATOM     25  C   UNL A   1      33.419  33.928  28.044  1.00  0.00     0.188 C 
BRANCH  25  26
ATOM     26  C   UNL A   1      33.496  35.081  29.073  1.00  0.00     0.188 C 
BRANCH  26  27
ATOM     27  O   UNL A   1      33.096  34.747  30.392  1.00  0.00    -0.376 OA
BRANCH  27  28
ATOM     28  C   UNL A   1      33.842  35.315  31.458  1.00  0.00     0.202 C 
BRANCH  28  29
ATOM     29  C   UNL A   1      34.437  34.330  32.477  1.00  0.00     0.261 C 
BRANCH  29  30
ATOM     30  O   UNL A   1      35.488  33.478  31.990  1.00  0.00    -0.460 OA
BRANCH  30  31
ATOM     31  C   UNL A   1      36.091  32.650  32.868  1.00  0.00     0.338 C 
ATOM     32  O   UNL A   1      35.786  32.456  34.035  1.00  0.00    -0.246 OA
BRANCH  31  33
ATOM     33  C   UNL A   1      37.075  31.841  32.120  1.00  0.00     0.060 A 
ATOM     34  C   UNL A   1      37.998  31.062  32.832  1.00  0.00     0.016 A 
ATOM     35  C   UNL A   1      37.067  31.831  30.723  1.00  0.00     0.016 A 
ATOM     36  C   UNL A   1      38.943  30.299  32.147  1.00  0.00     0.010 A 
ATOM     37  C   UNL A   1      38.033  31.090  30.039  1.00  0.00     0.010 A 
ATOM     38  C   UNL A   1      38.998  30.353  30.749  1.00  0.00    -0.014 A 
BRANCH  38  39
ATOM     39  C   UNL A   1      40.202  29.849  30.047  1.00  0.00     0.031 A 
ATOM     40  C   UNL A   1      41.350  30.802  29.854  1.00  0.00     0.074 A 
ATOM     41  C   UNL A   1      40.295  28.581  29.614  1.00  0.00     0.049 A 
ATOM     42  N   UNL A   1      42.488  30.627  29.233  1.00  0.00    -0.248 NA
ATOM     43  C   UNL A   1      41.188  32.142  30.444  1.00  0.00     0.031 C 
ATOM     44  C   UNL A   1      39.276  27.550  29.785  1.00  0.00     0.029 A 
ATOM     45  N   UNL A   1      41.304  27.949  28.930  1.00  0.00    -0.354 N 
ATOM     46  C   UNL A   1      43.169  31.832  29.352  1.00  0.00     0.074 A 
ATOM     47  C   UNL A   1      42.308  32.740  30.074  1.00  0.00     0.031 C 
ATOM     48  C   UNL A   1      39.705  26.415  29.207  1.00  0.00     0.029 A 
ATOM     49  C   UNL A   1      41.014  26.649  28.597  1.00  0.00     0.049 A 
ATOM     50  H   UNL A   1      42.156  28.387  28.698  1.00  0.00     0.167 HD
ATOM     51  C   UNL A   1      44.408  32.148  28.908  1.00  0.00     0.037 A 
ATOM     52  C   UNL A   1      41.717  25.764  27.863  1.00  0.00     0.037 A 
ATOM     53  C   UNL A   1      45.261  31.245  28.184  1.00  0.00     0.049 A 
ATOM     54  C   UNL A   1      43.058  26.170  27.302  1.00  0.00     0.074 A 
ATOM     55  C   UNL A   1      46.536  31.465  27.696  1.00  0.00     0.029 A 
ATOM     56  N   UNL A   1      44.915  29.948  27.833  1.00  0.00    -0.354 N 
ATOM     57  N   UNL A   1      43.709  27.300  27.436  1.00  0.00    -0.248 NA
ATOM     58  C   UNL A   1      43.766  25.170  26.488  1.00  0.00     0.031 C 
ATOM     59  C   UNL A   1      46.939  30.322  26.998  1.00  0.00     0.029 A 
ATOM     60  C   UNL A   1      45.943  29.365  27.109  1.00  0.00     0.049 A 
ATOM     61  H   UNL A   1      44.066  29.507  28.064  1.00  0.00     0.167 HD
ATOM     62  C   UNL A   1      44.910  27.137  26.756  1.00  0.00     0.074 A 
ATOM     63  C   UNL A   1      44.905  25.793  26.220  1.00  0.00     0.031 C 
ATOM     64  C   UNL A   1      45.927  28.020  26.591  1.00  0.00     0.037 A 
BRANCH  51  65
ATOM     65  C   UNL A   1      44.897  33.545  29.164  1.00  0.00     0.064 A 
ATOM     66  C   UNL A   1      44.642  34.595  28.269  1.00  0.00     0.173 A 
ATOM     67  C   UNL A   1      45.617  33.839  30.332  1.00  0.00     0.173 A 
ATOM     68  F   UNL A   1      43.974  34.364  27.129  1.00  0.00    -0.203 F 
ATOM     69  C   UNL A   1      45.115  35.881  28.520  1.00  0.00     0.198 A 
ATOM     70  C   UNL A   1      46.060  35.132  30.596  1.00  0.00     0.198 A 
ATOM     71  F   UNL A   1      45.889  32.872  31.221  1.00  0.00    -0.203 F 
ATOM     72  F   UNL A   1      44.907  36.856  27.624  1.00  0.00    -0.200 F 
ATOM     73  C   UNL A   1      45.816  36.150  29.685  1.00  0.00     0.200 A 
ATOM     74  F   UNL A   1      46.726  35.393  31.728  1.00  0.00    -0.200 F 
ATOM     75  F   UNL A   1      46.265  37.388  29.928  1.00  0.00    -0.200 F 
ENDBRANCH  51  65
BRANCH  52  76
ATOM     76  C   UNL A   1      41.167  24.408  27.600  1.00  0.00     0.064 A 
ATOM     77  C   UNL A   1      41.733  23.267  28.189  1.00  0.00     0.173 A 
ATOM     78  C   UNL A   1      40.085  24.218  26.727  1.00  0.00     0.173 A 
ATOM     79  F   UNL A   1      42.788  23.392  29.008  1.00  0.00    -0.203 F 
ATOM     80  C   UNL A   1      41.250  21.992  27.901  1.00  0.00     0.198 A 
ATOM     81  C   UNL A   1      39.583  22.945  26.465  1.00  0.00     0.198 A 
ATOM     82  F   UNL A   1      39.510  25.273  26.130  1.00  0.00    -0.203 F 
ATOM     83  F   UNL A   1      41.845  20.918  28.437  1.00  0.00    -0.200 F 
ATOM     84  C   UNL A   1      40.172  21.832  27.044  1.00  0.00     0.200 A 
ATOM     85  F   UNL A   1      38.536  22.796  25.643  1.00  0.00    -0.200 F 
ATOM     86  F   UNL A   1      39.709  20.606  26.768  1.00  0.00    -0.200 F 
ENDBRANCH  52  76
BRANCH  64  87
ATOM     87  C   UNL A   1      47.143  27.549  25.842  1.00  0.00     0.064 A 
ATOM     88  C   UNL A   1      47.267  27.711  24.454  1.00  0.00     0.173 A 
ATOM     89  C   UNL A   1      48.218  26.969  26.533  1.00  0.00     0.173 A 
ATOM     90  F   UNL A   1      46.264  28.250  23.745  1.00  0.00    -0.203 F 
ATOM     91  C   UNL A   1      48.410  27.283  23.784  1.00  0.00     0.198 A 
ATOM     92  C   UNL A   1      49.373  26.574  25.865  1.00  0.00     0.198 A 
ATOM     93  F   UNL A   1      48.156  26.800  27.863  1.00  0.00    -0.203 F 
ATOM     94  F   UNL A   1      48.486  27.401  22.450  1.00  0.00    -0.200 F 
ATOM     95  C   UNL A   1      49.465  26.723  24.489  1.00  0.00     0.200 A 
ATOM     96  F   UNL A   1      50.397  26.051  26.551  1.00  0.00    -0.200 F 
ATOM     97  F   UNL A   1      50.568  26.321  23.843  1.00  0.00    -0.200 F 
ENDBRANCH  64  87
ENDBRANCH  38  39
ENDBRANCH  31  33
ENDBRANCH  30  31
ENDBRANCH  29  30
ENDBRANCH  28  29
ENDBRANCH  27  28
ENDBRANCH  26  27
ENDBRANCH  25  26
ENDBRANCH  24  25
ENDBRANCH   1  24
TORSDOF 24
ENDMDL
MODEL 3
REMARK VINA RESULT:      -9.0      4.469     10.079
REMARK SMILES CC[N@H+](CC(C)(C)C(=O)OCCOCCOCCOCCOC(=O)c1ccc(-c2c3nc(c(-c4c(F)c(F)c(F)c(F)c4F)c4ccc([nH]4)c(-c4c(F)c(F)c(F)c(F)c4F)c4nc(c(-c5c(F)c(F)c(F)c(F)c5F)c5ccc2[nH]5)C=C4)C=C3)cc1)[C@H]1CC[NH2+]C1
REMARK SMILES IDX 15 1 14 2 13 3 12 4 11 5 10 6 8 7 9 8 5 9 6 10 7 11 4 12
REMARK SMILES IDX 3 13 2 15 1 16 88 17 89 18 92 19 90 20 91 21 16 24 17 25
REMARK SMILES IDX 18 26 19 27 20 28 21 29 22 30 23 31 24 32 25 33 26 34 87 35
REMARK SMILES IDX 27 36 86 37 28 38 29 39 30 40 80 41 31 42 85 43 79 44 81 45
REMARK SMILES IDX 32 46 84 47 78 48 77 49 33 51 65 52 45 53 64 54 46 55 49 56
REMARK SMILES IDX 63 57 82 58 47 59 48 60 62 62 83 63 50 64 34 65 35 66 43 67
REMARK SMILES IDX 36 68 37 69 41 70 44 71 38 72 39 73 42 74 40 75 66 76 67 77
REMARK SMILES IDX 75 78 68 79 69 80 73 81 76 82 70 83 71 84 74 85 72 86 51 87
REMARK SMILES IDX 52 88 60 89 53 90 54 91 58 92 61 93 55 94 56 95 59 96 57 97
REMARK H PARENT 3 14 91 22 91 23 81 50 49 61
REMARK Flexibility Score: inf
ROOT
ATOM      1  C   UNL A   1      35.895  21.918  26.319  1.00  0.00     0.188 C 
ENDROOT
BRANCH   1   2
ATOM      2  C   UNL A   1      35.208  20.973  25.318  1.00  0.00     0.188 C 
BRANCH   2   3
ATOM      3  O   UNL A   1      33.790  21.067  25.274  1.00  0.00    -0.376 OA
BRANCH   3   4
ATOM      4  C   UNL A   1      33.180  20.816  24.010  1.00  0.00     0.202 C 
BRANCH   4   5
ATOM      5  C   UNL A   1      32.178  21.867  23.517  1.00  0.00     0.261 C 
BRANCH   5   6
ATOM      6  O   UNL A   1      31.826  22.789  24.565  1.00  0.00    -0.463 OA
BRANCH   6   7
ATOM      7  C   UNL A   1      31.046  23.853  24.270  1.00  0.00     0.317 C 
ATOM      8  O   UNL A   1      30.573  24.054  23.158  1.00  0.00    -0.251 OA
BRANCH   7   9
ATOM      9  C   UNL A   1      30.822  24.751  25.501  1.00  0.00     0.111 C 
ATOM     10  C   UNL A   1      30.632  23.818  26.709  1.00  0.00     0.029 C 
ATOM     11  C   UNL A   1      29.495  25.554  25.332  1.00  0.00     0.029 C 
BRANCH   9  12
ATOM     12  C   UNL A   1      31.989  25.767  25.792  1.00  0.00     0.280 C 
BRANCH  12  13
ATOM     13  N   UNL A   1      31.914  27.177  25.313  1.00  0.00    -0.327 N 
ATOM     14  H   UNL A   1      30.924  27.410  25.235  1.00  0.00     0.348 HD
BRANCH  13  15
ATOM     15  C   UNL A   1      32.567  28.084  26.291  1.00  0.00     0.259 C 
ATOM     16  C   UNL A   1      31.774  28.582  27.493  1.00  0.00     0.071 C 
ENDBRANCH  13  15
BRANCH  13  17
ATOM     17  C   UNL A   1      32.500  27.368  23.953  1.00  0.00     0.245 C 
ATOM     18  C   UNL A   1      33.491  26.321  23.424  1.00  0.00     0.132 C 
ATOM     19  C   UNL A   1      31.435  27.374  22.823  1.00  0.00     0.326 C 
ATOM     20  C   UNL A   1      33.393  26.482  21.919  1.00  0.00     0.267 C 
ATOM     21  N   UNL A   1      31.953  26.593  21.683  1.00  0.00    -0.341 N 
ATOM     22  H   UNL A   1      31.523  25.669  21.659  1.00  0.00     0.346 HD
ATOM     23  H   UNL A   1      31.746  27.038  20.790  1.00  0.00     0.346 HD
ENDBRANCH  13  17
ENDBRANCH  12  13
ENDBRANCH   9  12
ENDBRANCH   7   9
ENDBRANCH   6   7
ENDBRANCH   5   6
ENDBRANCH   4   5
ENDBRANCH   3   4
ENDBRANCH   2   3
ENDBRANCH   1   2
BRANCH   1  24
ATOM     24  O   UNL A   1      37.003  22.671  25.863  1.00  0.00    -0.377 OA
BRANCH  24  25
ATOM     25  C   UNL A   1      38.161  21.979  25.411  1.00  0.00     0.188 C 
BRANCH  25  26
ATOM     26  C   UNL A   1      39.390  21.773  26.327  1.00  0.00     0.188 C 
BRANCH  26  27
ATOM     27  O   UNL A   1      40.113  20.572  26.117  1.00  0.00    -0.376 OA
BRANCH  27  28
ATOM     28  C   UNL A   1      41.349  20.432  26.802  1.00  0.00     0.202 C 
BRANCH  28  29
ATOM     29  C   UNL A   1      42.316  19.370  26.256  1.00  0.00     0.261 C 
BRANCH  29  30
ATOM     30  O   UNL A   1      42.780  19.572  24.910  1.00  0.00    -0.460 OA
BRANCH  30  31
ATOM     31  C   UNL A   1      44.110  19.647  24.703  1.00  0.00     0.338 C 
ATOM     32  O   UNL A   1      44.835  18.793  24.215  1.00  0.00    -0.246 OA
BRANCH  31  33
ATOM     33  C   UNL A   1      44.529  21.037  24.974  1.00  0.00     0.060 A 
ATOM     34  C   UNL A   1      45.279  21.309  26.127  1.00  0.00     0.016 A 
ATOM     35  C   UNL A   1      44.207  22.061  24.080  1.00  0.00     0.016 A 
ATOM     36  C   UNL A   1      45.677  22.616  26.409  1.00  0.00     0.010 A 
ATOM     37  C   UNL A   1      44.579  23.373  24.380  1.00  0.00     0.010 A 
ATOM     38  C   UNL A   1      45.282  23.660  25.564  1.00  0.00    -0.014 A 
BRANCH  38  39
ATOM     39  C   UNL A   1      45.381  25.060  26.039  1.00  0.00     0.031 A 
ATOM     40  C   UNL A   1      46.724  25.733  25.958  1.00  0.00     0.074 A 
ATOM     41  C   UNL A   1      44.315  25.731  26.504  1.00  0.00     0.049 A 
ATOM     42  N   UNL A   1      47.087  26.927  26.352  1.00  0.00    -0.248 NA
ATOM     43  C   UNL A   1      47.809  24.945  25.349  1.00  0.00     0.031 C 
ATOM     44  C   UNL A   1      42.954  25.209  26.585  1.00  0.00     0.029 A 
ATOM     45  N   UNL A   1      44.219  27.005  27.007  1.00  0.00    -0.354 N 
ATOM     46  C   UNL A   1      48.438  27.027  26.045  1.00  0.00     0.074 A 
ATOM     47  C   UNL A   1      48.840  25.766  25.464  1.00  0.00     0.031 C 
ATOM     48  C   UNL A   1      42.158  26.151  27.121  1.00  0.00     0.029 A 
ATOM     49  C   UNL A   1      42.960  27.329  27.450  1.00  0.00     0.049 A 
ATOM     50  H   UNL A   1      44.980  27.629  27.046  1.00  0.00     0.167 HD
ATOM     51  C   UNL A   1      49.268  28.082  26.223  1.00  0.00     0.037 A 
ATOM     52  C   UNL A   1      42.520  28.440  28.073  1.00  0.00     0.037 A 
ATOM     53  C   UNL A   1      48.868  29.333  26.807  1.00  0.00     0.049 A 
ATOM     54  C   UNL A   1      43.485  29.570  28.341  1.00  0.00     0.074 A 
ATOM     55  C   UNL A   1      49.629  30.467  27.025  1.00  0.00     0.029 A 
ATOM     56  N   UNL A   1      47.593  29.609  27.280  1.00  0.00    -0.354 N 
ATOM     57  N   UNL A   1      44.754  29.670  28.030  1.00  0.00    -0.248 NA
ATOM     58  C   UNL A   1      42.951  30.744  29.047  1.00  0.00     0.031 C 
ATOM     59  C   UNL A   1      48.831  31.408  27.683  1.00  0.00     0.029 A 
ATOM     60  C   UNL A   1      47.553  30.886  27.815  1.00  0.00     0.049 A 
ATOM     61  H   UNL A   1      46.829  28.990  27.240  1.00  0.00     0.167 HD
ATOM     62  C   UNL A   1      45.161  30.925  28.468  1.00  0.00     0.074 A 
ATOM     63  C   UNL A   1      43.999  31.556  29.057  1.00  0.00     0.031 C 
ATOM     64  C   UNL A   1      46.385  31.505  28.388  1.00  0.00     0.037 A 
BRANCH  51  65
ATOM     65  C   UNL A   1      50.701  27.910  25.810  1.00  0.00     0.064 A 
ATOM     66  C   UNL A   1      51.114  28.071  24.479  1.00  0.00     0.173 A 
ATOM     67  C   UNL A   1      51.679  27.594  26.766  1.00  0.00     0.173 A 
ATOM     68  F   UNL A   1      50.216  28.354  23.523  1.00  0.00    -0.203 F 
ATOM     69  C   UNL A   1      52.447  27.895  24.115  1.00  0.00     0.198 A 
ATOM     70  C   UNL A   1      53.016  27.452  26.405  1.00  0.00     0.198 A 
ATOM     71  F   UNL A   1      51.339  27.428  28.053  1.00  0.00    -0.203 F 
ATOM     72  F   UNL A   1      52.808  28.000  22.829  1.00  0.00    -0.200 F 
ATOM     73  C   UNL A   1      53.397  27.593  25.079  1.00  0.00     0.200 A 
ATOM     74  F   UNL A   1      53.934  27.172  27.339  1.00  0.00    -0.200 F 
ATOM     75  F   UNL A   1      54.680  27.430  24.729  1.00  0.00    -0.200 F 
ENDBRANCH  51  65
BRANCH  52  76
ATOM     76  C   UNL A   1      41.099  28.542  28.503  1.00  0.00     0.064 A 
ATOM     77  C   UNL A   1      40.696  28.130  29.782  1.00  0.00     0.173 A 
ATOM     78  C   UNL A   1      40.109  29.022  27.634  1.00  0.00     0.173 A 
ATOM     79  F   UNL A   1      41.600  27.635  30.641  1.00  0.00    -0.203 F 
ATOM     80  C   UNL A   1      39.357  28.176  30.166  1.00  0.00     0.198 A 
ATOM     81  C   UNL A   1      38.775  29.098  28.030  1.00  0.00     0.198 A 
ATOM     82  F   UNL A   1      40.437  29.424  26.396  1.00  0.00    -0.203 F 
ATOM     83  F   UNL A   1      38.994  27.725  31.374  1.00  0.00    -0.200 F 
ATOM     84  C   UNL A   1      38.398  28.666  29.292  1.00  0.00     0.200 A 
ATOM     85  F   UNL A   1      37.854  29.581  27.185  1.00  0.00    -0.200 F 
ATOM     86  F   UNL A   1      37.112  28.710  29.662  1.00  0.00    -0.200 F 
ENDBRANCH  52  76
BRANCH  64  87
ATOM     87  C   UNL A   1      46.524  32.910  28.907  1.00  0.00     0.064 A 
ATOM     88  C   UNL A   1      46.280  34.027  28.095  1.00  0.00     0.173 A 
ATOM     89  C   UNL A   1      46.860  33.136  30.251  1.00  0.00     0.173 A 
ATOM     90  F   UNL A   1      45.966  33.866  26.801  1.00  0.00    -0.203 F 
ATOM     91  C   UNL A   1      46.397  35.319  28.602  1.00  0.00     0.198 A 
ATOM     92  C   UNL A   1      46.941  34.428  30.763  1.00  0.00     0.198 A 
ATOM     93  F   UNL A   1      47.093  32.103  31.074  1.00  0.00    -0.203 F 
ATOM     94  F   UNL A   1      46.210  36.373  27.794  1.00  0.00    -0.200 F 
ATOM     95  C   UNL A   1      46.718  35.518  29.936  1.00  0.00     0.200 A 
ATOM     96  F   UNL A   1      47.233  34.617  32.056  1.00  0.00    -0.200 F 
ATOM     97  F   UNL A   1      46.820  36.763  30.424  1.00  0.00    -0.200 F 
ENDBRANCH  64  87
ENDBRANCH  38  39
ENDBRANCH  31  33
ENDBRANCH  30  31
ENDBRANCH  29  30
ENDBRANCH  28  29
ENDBRANCH  27  28
ENDBRANCH  26  27
ENDBRANCH  25  26
ENDBRANCH  24  25
ENDBRANCH   1  24
TORSDOF 24
ENDMDL
