MODEL 1
REMARK VINA RESULT:      -8.8      0.000      0.000
REMARK SMILES [N-]=[N+]=NC[C@@H](Nc1ccccc1Br)C(=O)OCCOCCOCCOCCOC(=O)c1ccc(-c2c3nc(c(-c4c(F)c(F)c(F)c(F)c4F)c4ccc([nH]4)c(-c4c(F)c(F)c(F)c(F)c4F)c4nc(c(-c5c(F)c(F)c(F)c(F)c5F)c5ccc2[nH]5)C=C4)C=C3)cc1
REMARK SMILES IDX 22 1 21 2 20 3 19 4 18 5 17 6 16 7 14 8 15 9 5 10 4 11 3 12
REMARK SMILES IDX 1 13 2 14 6 15 7 17 8 18 12 19 9 20 11 21 13 22 10 23 23 24
REMARK SMILES IDX 24 25 25 26 26 27 27 28 28 29 29 30 30 31 31 32 32 33 93 34
REMARK SMILES IDX 33 35 92 36 34 37 35 38 36 39 86 40 37 41 91 42 85 43 87 44
REMARK SMILES IDX 38 45 90 46 84 47 83 48 39 50 71 51 51 52 70 53 52 54 55 55
REMARK SMILES IDX 69 56 88 57 53 58 54 59 68 61 89 62 56 63 40 64 41 65 49 66
REMARK SMILES IDX 42 67 43 68 47 69 50 70 44 71 45 72 48 73 46 74 72 75 73 76
REMARK SMILES IDX 81 77 74 78 75 79 79 80 82 81 76 82 77 83 80 84 78 85 57 86
REMARK SMILES IDX 58 87 66 88 59 89 60 90 64 91 67 92 61 93 62 94 65 95 63 96
REMARK H PARENT 6 16 87 49 55 60
REMARK Flexibility Score: inf
ROOT
ATOM      1  O   UNL A   1      40.417  20.696  26.755  1.00  0.00    -0.377 OA
ENDROOT
BRANCH   1   2
ATOM      2  C   UNL A   1      40.217  21.983  27.307  1.00  0.00     0.188 C 
BRANCH   2   3
ATOM      3  C   UNL A   1      39.347  22.931  26.471  1.00  0.00     0.188 C 
BRANCH   3   4
ATOM      4  O   UNL A   1      38.470  22.406  25.500  1.00  0.00    -0.376 OA
BRANCH   4   5
ATOM      5  C   UNL A   1      37.188  21.873  25.762  1.00  0.00     0.202 C 
BRANCH   5   6
ATOM      6  C   UNL A   1      36.462  20.716  25.051  1.00  0.00     0.261 C 
BRANCH   6   7
ATOM      7  O   UNL A   1      35.137  20.335  25.423  1.00  0.00    -0.462 OA
BRANCH   7   8
ATOM      8  C   UNL A   1      34.744  19.131  24.935  1.00  0.00     0.328 C 
ATOM      9  O   UNL A   1      35.526  18.311  24.462  1.00  0.00    -0.250 OA
BRANCH   8  10
ATOM     10  C   UNL A   1      33.213  18.938  24.934  1.00  0.00     0.195 C 
BRANCH  10  11
ATOM     11  C   UNL A   1      32.739  17.618  25.582  1.00  0.00     0.127 C 
BRANCH  11  12
ATOM     12  N   UNL A   1      32.782  16.513  24.594  1.00  0.00    -0.091 NA
ATOM     13  N   UNL A   1      33.251  14.352  25.481  1.00  0.00    -0.003 NA
ATOM     14  N   UNL A   1      33.036  15.386  25.043  1.00  0.00     0.001 N 
ENDBRANCH  11  12
ENDBRANCH  10  11
BRANCH  10  15
ATOM     15  N   UNL A   1      32.477  20.104  25.522  1.00  0.00    -0.371 N 
ATOM     16  H   UNL A   1      32.037  20.053  26.401  1.00  0.00     0.161 HD
BRANCH  15  17
ATOM     17  C   UNL A   1      32.449  21.272  24.746  1.00  0.00     0.049 A 
ATOM     18  C   UNL A   1      32.312  21.154  23.357  1.00  0.00     0.027 A 
ATOM     19  C   UNL A   1      32.334  22.553  25.324  1.00  0.00     0.041 A 
ATOM     20  C   UNL A   1      31.961  22.260  22.580  1.00  0.00     0.002 A 
ATOM     21  C   UNL A   1      31.936  23.647  24.555  1.00  0.00     0.018 A 
ATOM     22  Br  UNL A   1      32.733  22.858  27.162  1.00  0.00    -0.049 Br
ATOM     23  C   UNL A   1      31.732  23.494  23.184  1.00  0.00     0.001 A 
ENDBRANCH  15  17
ENDBRANCH  10  15
ENDBRANCH   8  10
ENDBRANCH   7   8
ENDBRANCH   6   7
ENDBRANCH   5   6
ENDBRANCH   4   5
ENDBRANCH   3   4
ENDBRANCH   2   3
ENDBRANCH   1   2
BRANCH   1  24
ATOM     24  C   UNL A   1      41.591  19.976  27.118  1.00  0.00     0.188 C 
BRANCH  24  25
ATOM     25  C   UNL A   1      42.653  19.609  26.057  1.00  0.00     0.188 C 
BRANCH  25  26
ATOM     26  O   UNL A   1      43.016  20.671  25.193  1.00  0.00    -0.376 OA
BRANCH  26  27
ATOM     27  C   UNL A   1      44.348  21.155  25.183  1.00  0.00     0.202 C 
BRANCH  27  28
ATOM     28  C   UNL A   1      44.705  22.354  26.075  1.00  0.00     0.261 C 
BRANCH  28  29
ATOM     29  O   UNL A   1      46.070  22.796  26.042  1.00  0.00    -0.460 OA
BRANCH  29  30
ATOM     30  C   UNL A   1      46.372  23.841  25.243  1.00  0.00     0.338 C 
ATOM     31  O   UNL A   1      46.775  23.802  24.096  1.00  0.00    -0.246 OA
BRANCH  30  32
ATOM     32  C   UNL A   1      45.933  25.071  25.937  1.00  0.00     0.060 A 
ATOM     33  C   UNL A   1      45.162  26.009  25.235  1.00  0.00     0.016 A 
ATOM     34  C   UNL A   1      46.281  25.298  27.270  1.00  0.00     0.016 A 
ATOM     35  C   UNL A   1      44.776  27.199  25.851  1.00  0.00     0.010 A 
ATOM     36  C   UNL A   1      45.918  26.503  27.878  1.00  0.00     0.010 A 
ATOM     37  C   UNL A   1      45.201  27.474  27.156  1.00  0.00    -0.014 A 
BRANCH  37  38
ATOM     38  C   UNL A   1      45.095  28.857  27.680  1.00  0.00     0.031 A 
ATOM     39  C   UNL A   1      43.826  29.250  28.385  1.00  0.00     0.074 A 
ATOM     40  C   UNL A   1      46.106  29.733  27.562  1.00  0.00     0.049 A 
ATOM     41  N   UNL A   1      43.465  30.409  28.873  1.00  0.00    -0.248 NA
ATOM     42  C   UNL A   1      42.824  28.184  28.561  1.00  0.00     0.031 C 
ATOM     43  C   UNL A   1      47.403  29.452  26.954  1.00  0.00     0.029 A 
ATOM     44  N   UNL A   1      46.189  31.048  27.949  1.00  0.00    -0.354 N 
ATOM     45  C   UNL A   1      42.195  30.214  29.401  1.00  0.00     0.074 A 
ATOM     46  C   UNL A   1      41.832  28.838  29.144  1.00  0.00     0.031 C 
ATOM     47  C   UNL A   1      48.152  30.568  26.995  1.00  0.00     0.029 A 
ATOM     48  C   UNL A   1      47.371  31.651  27.595  1.00  0.00     0.049 A 
ATOM     49  H   UNL A   1      45.471  31.515  28.433  1.00  0.00     0.167 HD
ATOM     50  C   UNL A   1      41.407  31.103  30.050  1.00  0.00     0.037 A 
ATOM     51  C   UNL A   1      47.761  32.934  27.718  1.00  0.00     0.037 A 
ATOM     52  C   UNL A   1      41.772  32.473  30.297  1.00  0.00     0.049 A 
ATOM     53  C   UNL A   1      46.825  33.930  28.360  1.00  0.00     0.074 A 
ATOM     54  C   UNL A   1      41.050  33.453  30.953  1.00  0.00     0.029 A 
ATOM     55  N   UNL A   1      42.962  33.057  29.887  1.00  0.00    -0.354 N 
ATOM     56  N   UNL A   1      45.633  33.739  28.872  1.00  0.00    -0.248 NA
ATOM     57  C   UNL A   1      47.294  35.320  28.442  1.00  0.00     0.031 C 
ATOM     58  C   UNL A   1      41.772  34.648  30.879  1.00  0.00     0.029 A 
ATOM     59  C   UNL A   1      42.979  34.395  30.247  1.00  0.00     0.049 A 
ATOM     60  H   UNL A   1      43.686  32.591  29.411  1.00  0.00     0.167 HD
ATOM     61  C   UNL A   1      45.226  34.972  29.369  1.00  0.00     0.074 A 
ATOM     62  C   UNL A   1      46.305  35.901  29.109  1.00  0.00     0.031 C 
ATOM     63  C   UNL A   1      44.066  35.306  29.988  1.00  0.00     0.037 A 
BRANCH  50  64
ATOM     64  C   UNL A   1      40.053  30.630  30.501  1.00  0.00     0.064 A 
ATOM     65  C   UNL A   1      39.812  30.221  31.822  1.00  0.00     0.173 A 
ATOM     66  C   UNL A   1      38.976  30.608  29.602  1.00  0.00     0.173 A 
ATOM     67  F   UNL A   1      40.809  30.207  32.719  1.00  0.00    -0.203 F 
ATOM     68  C   UNL A   1      38.551  29.777  32.216  1.00  0.00     0.198 A 
ATOM     69  C   UNL A   1      37.709  30.199  30.009  1.00  0.00     0.198 A 
ATOM     70  F   UNL A   1      39.149  30.990  28.329  1.00  0.00    -0.203 F 
ATOM     71  F   UNL A   1      38.359  29.337  33.466  1.00  0.00    -0.200 F 
ATOM     72  C   UNL A   1      37.500  29.776  31.312  1.00  0.00     0.200 A 
ATOM     73  F   UNL A   1      36.691  30.212  29.137  1.00  0.00    -0.200 F 
ATOM     74  F   UNL A   1      36.285  29.356  31.695  1.00  0.00    -0.200 F 
ENDBRANCH  50  64
BRANCH  51  75
ATOM     75  C   UNL A   1      49.092  33.364  27.209  1.00  0.00     0.064 A 
ATOM     76  C   UNL A   1      50.259  33.142  27.954  1.00  0.00     0.173 A 
ATOM     77  C   UNL A   1      49.222  34.029  25.981  1.00  0.00     0.173 A 
ATOM     78  F   UNL A   1      50.186  32.532  29.147  1.00  0.00    -0.203 F 
ATOM     79  C   UNL A   1      51.498  33.592  27.503  1.00  0.00     0.198 A 
ATOM     80  C   UNL A   1      50.466  34.447  25.515  1.00  0.00     0.198 A 
ATOM     81  F   UNL A   1      48.138  34.269  25.228  1.00  0.00    -0.203 F 
ATOM     82  F   UNL A   1      52.589  33.415  28.262  1.00  0.00    -0.200 F 
ATOM     83  C   UNL A   1      51.602  34.237  26.281  1.00  0.00     0.200 A 
ATOM     84  F   UNL A   1      50.564  35.056  24.325  1.00  0.00    -0.200 F 
ATOM     85  F   UNL A   1      52.795  34.664  25.845  1.00  0.00    -0.200 F 
ENDBRANCH  51  75
BRANCH  63  86
ATOM     86  C   UNL A   1      43.920  36.721  30.476  1.00  0.00     0.064 A 
ATOM     87  C   UNL A   1      44.203  37.085  31.800  1.00  0.00     0.173 A 
ATOM     88  C   UNL A   1      43.529  37.738  29.588  1.00  0.00     0.173 A 
ATOM     89  F   UNL A   1      44.569  36.152  32.693  1.00  0.00    -0.203 F 
ATOM     90  C   UNL A   1      44.069  38.404  32.226  1.00  0.00     0.198 A 
ATOM     91  C   UNL A   1      43.435  39.062  30.007  1.00  0.00     0.198 A 
ATOM     92  F   UNL A   1      43.256  37.449  28.307  1.00  0.00    -0.203 F 
ATOM     93  F   UNL A   1      44.290  38.718  33.510  1.00  0.00    -0.200 F 
ATOM     94  C   UNL A   1      43.695  39.392  31.327  1.00  0.00     0.200 A 
ATOM     95  F   UNL A   1      43.093  40.017  29.132  1.00  0.00    -0.200 F 
ATOM     96  F   UNL A   1      43.577  40.663  31.737  1.00  0.00    -0.200 F 
ENDBRANCH  63  86
ENDBRANCH  37  38
ENDBRANCH  30  32
ENDBRANCH  29  30
ENDBRANCH  28  29
ENDBRANCH  27  28
ENDBRANCH  26  27
ENDBRANCH  25  26
ENDBRANCH  24  25
ENDBRANCH   1  24
TORSDOF 24
ENDMDL
MODEL 2
REMARK VINA RESULT:      -8.1      6.276      9.175
REMARK SMILES [N-]=[N+]=NC[C@@H](Nc1ccccc1Br)C(=O)OCCOCCOCCOCCOC(=O)c1ccc(-c2c3nc(c(-c4c(F)c(F)c(F)c(F)c4F)c4ccc([nH]4)c(-c4c(F)c(F)c(F)c(F)c4F)c4nc(c(-c5c(F)c(F)c(F)c(F)c5F)c5ccc2[nH]5)C=C4)C=C3)cc1
REMARK SMILES IDX 22 1 21 2 20 3 19 4 18 5 17 6 16 7 14 8 15 9 5 10 4 11 3 12
REMARK SMILES IDX 1 13 2 14 6 15 7 17 8 18 12 19 9 20 11 21 13 22 10 23 23 24
REMARK SMILES IDX 24 25 25 26 26 27 27 28 28 29 29 30 30 31 31 32 32 33 93 34
REMARK SMILES IDX 33 35 92 36 34 37 35 38 36 39 86 40 37 41 91 42 85 43 87 44
REMARK SMILES IDX 38 45 90 46 84 47 83 48 39 50 71 51 51 52 70 53 52 54 55 55
REMARK SMILES IDX 69 56 88 57 53 58 54 59 68 61 89 62 56 63 40 64 41 65 49 66
REMARK SMILES IDX 42 67 43 68 47 69 50 70 44 71 45 72 48 73 46 74 72 75 73 76
REMARK SMILES IDX 81 77 74 78 75 79 79 80 82 81 76 82 77 83 80 84 78 85 57 86
REMARK SMILES IDX 58 87 66 88 59 89 60 90 64 91 67 92 61 93 62 94 65 95 63 96
REMARK H PARENT 6 16 87 49 55 60
REMARK Flexibility Score: inf
ROOT
ATOM      1  O   UNL A   1      39.026  28.049  31.637  1.00  0.00    -0.377 OA
ENDROOT
BRANCH   1   2
ATOM      2  C   UNL A   1      38.608  29.252  32.250  1.00  0.00     0.188 C 
BRANCH   2   3
ATOM      3  C   UNL A   1      39.682  30.343  32.363  1.00  0.00     0.188 C 
BRANCH   3   4
ATOM      4  O   UNL A   1      39.892  30.997  33.594  1.00  0.00    -0.376 OA
BRANCH   4   5
ATOM      5  C   UNL A   1      38.893  31.262  34.557  1.00  0.00     0.202 C 
BRANCH   5   6
ATOM      6  C   UNL A   1      37.553  32.000  34.377  1.00  0.00     0.261 C 
BRANCH   6   7
ATOM      7  O   UNL A   1      37.501  33.424  34.278  1.00  0.00    -0.462 OA
BRANCH   7   8
ATOM      8  C   UNL A   1      37.645  33.902  33.016  1.00  0.00     0.328 C 
ATOM      9  O   UNL A   1      38.663  34.465  32.625  1.00  0.00    -0.250 OA
BRANCH   8  10
ATOM     10  C   UNL A   1      36.370  33.764  32.158  1.00  0.00     0.195 C 
BRANCH  10  11
ATOM     11  C   UNL A   1      35.091  34.314  32.829  1.00  0.00     0.127 C 
BRANCH  11  12
ATOM     12  N   UNL A   1      34.671  35.580  32.181  1.00  0.00    -0.091 NA
ATOM     13  N   UNL A   1      33.953  37.307  33.656  1.00  0.00    -0.003 NA
ATOM     14  N   UNL A   1      34.285  36.482  32.938  1.00  0.00     0.001 N 
ENDBRANCH  11  12
ENDBRANCH  10  11
BRANCH  10  15
ATOM     15  N   UNL A   1      36.526  34.336  30.781  1.00  0.00    -0.371 N 
ATOM     16  H   UNL A   1      36.583  35.305  30.623  1.00  0.00     0.161 HD
BRANCH  15  17
ATOM     17  C   UNL A   1      36.587  33.408  29.731  1.00  0.00     0.049 A 
ATOM     18  C   UNL A   1      37.558  32.399  29.779  1.00  0.00     0.027 A 
ATOM     19  C   UNL A   1      35.577  33.319  28.751  1.00  0.00     0.041 A 
ATOM     20  C   UNL A   1      37.464  31.281  28.949  1.00  0.00     0.002 A 
ATOM     21  C   UNL A   1      35.456  32.179  27.956  1.00  0.00     0.018 A 
ATOM     22  Br  UNL A   1      34.353  34.747  28.448  1.00  0.00    -0.049 Br
ATOM     23  C   UNL A   1      36.391  31.151  28.069  1.00  0.00     0.001 A 
ENDBRANCH  15  17
ENDBRANCH  10  15
ENDBRANCH   8  10
ENDBRANCH   7   8
ENDBRANCH   6   7
ENDBRANCH   5   6
ENDBRANCH   4   5
ENDBRANCH   3   4
ENDBRANCH   2   3
ENDBRANCH   1   2
BRANCH   1  24
ATOM     24  C   UNL A   1      38.771  27.870  30.247  1.00  0.00     0.188 C 
BRANCH  24  25
ATOM     25  C   UNL A   1      39.852  27.282  29.313  1.00  0.00     0.188 C 
BRANCH  25  26
ATOM     26  O   UNL A   1      39.399  26.238  28.470  1.00  0.00    -0.376 OA
BRANCH  26  27
ATOM     27  C   UNL A   1      40.188  25.074  28.295  1.00  0.00     0.202 C 
BRANCH  27  28
ATOM     28  C   UNL A   1      40.682  24.721  26.884  1.00  0.00     0.261 C 
BRANCH  28  29
ATOM     29  O   UNL A   1      42.101  24.758  26.671  1.00  0.00    -0.460 OA
BRANCH  29  30
ATOM     30  C   UNL A   1      42.584  25.685  25.818  1.00  0.00     0.338 C 
ATOM     31  O   UNL A   1      42.627  25.621  24.604  1.00  0.00    -0.246 OA
BRANCH  30  32
ATOM     32  C   UNL A   1      42.875  26.903  26.605  1.00  0.00     0.060 A 
ATOM     33  C   UNL A   1      44.030  26.938  27.400  1.00  0.00     0.016 A 
ATOM     34  C   UNL A   1      42.014  28.001  26.560  1.00  0.00     0.016 A 
ATOM     35  C   UNL A   1      44.303  28.055  28.188  1.00  0.00     0.010 A 
ATOM     36  C   UNL A   1      42.273  29.109  27.372  1.00  0.00     0.010 A 
ATOM     37  C   UNL A   1      43.396  29.121  28.219  1.00  0.00    -0.014 A 
BRANCH  37  38
ATOM     38  C   UNL A   1      43.498  30.133  29.298  1.00  0.00     0.031 A 
ATOM     39  C   UNL A   1      43.461  29.653  30.723  1.00  0.00     0.074 A 
ATOM     40  C   UNL A   1      43.652  31.439  29.025  1.00  0.00     0.049 A 
ATOM     41  N   UNL A   1      43.468  30.339  31.836  1.00  0.00    -0.248 NA
ATOM     42  C   UNL A   1      43.403  28.194  30.915  1.00  0.00     0.031 C 
ATOM     43  C   UNL A   1      43.762  32.017  27.689  1.00  0.00     0.029 A 
ATOM     44  N   UNL A   1      43.734  32.518  29.871  1.00  0.00    -0.354 N 
ATOM     45  C   UNL A   1      43.406  29.398  32.856  1.00  0.00     0.074 A 
ATOM     46  C   UNL A   1      43.325  28.096  32.232  1.00  0.00     0.031 C 
ATOM     47  C   UNL A   1      43.883  33.352  27.803  1.00  0.00     0.029 A 
ATOM     48  C   UNL A   1      43.818  33.722  29.216  1.00  0.00     0.049 A 
ATOM     49  H   UNL A   1      43.733  32.436  30.851  1.00  0.00     0.167 HD
ATOM     50  C   UNL A   1      43.423  29.603  34.194  1.00  0.00     0.037 A 
ATOM     51  C   UNL A   1      43.815  34.977  29.707  1.00  0.00     0.037 A 
ATOM     52  C   UNL A   1      43.498  30.902  34.809  1.00  0.00     0.049 A 
ATOM     53  C   UNL A   1      43.737  35.184  31.200  1.00  0.00     0.074 A 
ATOM     54  C   UNL A   1      43.531  31.219  36.155  1.00  0.00     0.029 A 
ATOM     55  N   UNL A   1      43.541  32.102  34.112  1.00  0.00    -0.354 N 
ATOM     56  N   UNL A   1      43.695  34.293  32.162  1.00  0.00    -0.248 NA
ATOM     57  C   UNL A   1      43.710  36.575  31.675  1.00  0.00     0.031 C 
ATOM     58  C   UNL A   1      43.523  32.613  36.274  1.00  0.00     0.029 A 
ATOM     59  C   UNL A   1      43.566  33.164  35.003  1.00  0.00     0.049 A 
ATOM     60  H   UNL A   1      43.552  32.186  33.132  1.00  0.00     0.167 HD
ATOM     61  C   UNL A   1      43.674  35.012  33.352  1.00  0.00     0.074 A 
ATOM     62  C   UNL A   1      43.722  36.413  32.991  1.00  0.00     0.031 C 
ATOM     63  C   UNL A   1      43.623  34.554  34.628  1.00  0.00     0.037 A 
BRANCH  50  64
ATOM     64  C   UNL A   1      43.319  28.396  35.083  1.00  0.00     0.064 A 
ATOM     65  C   UNL A   1      42.104  28.006  35.668  1.00  0.00     0.173 A 
ATOM     66  C   UNL A   1      44.449  27.603  35.335  1.00  0.00     0.173 A 
ATOM     67  F   UNL A   1      40.995  28.736  35.474  1.00  0.00    -0.203 F 
ATOM     68  C   UNL A   1      42.032  26.888  36.496  1.00  0.00     0.198 A 
ATOM     69  C   UNL A   1      44.366  26.465  36.132  1.00  0.00     0.198 A 
ATOM     70  F   UNL A   1      45.635  27.927  34.799  1.00  0.00    -0.203 F 
ATOM     71  F   UNL A   1      40.874  26.570  37.090  1.00  0.00    -0.200 F 
ATOM     72  C   UNL A   1      43.160  26.114  36.720  1.00  0.00     0.200 A 
ATOM     73  F   UNL A   1      45.455  25.711  36.336  1.00  0.00    -0.200 F 
ATOM     74  F   UNL A   1      43.089  25.034  37.511  1.00  0.00    -0.200 F 
ENDBRANCH  50  64
BRANCH  51  75
ATOM     75  C   UNL A   1      43.870  36.142  28.782  1.00  0.00     0.064 A 
ATOM     76  C   UNL A   1      45.087  36.761  28.467  1.00  0.00     0.173 A 
ATOM     77  C   UNL A   1      42.702  36.677  28.217  1.00  0.00     0.173 A 
ATOM     78  F   UNL A   1      46.229  36.303  29.001  1.00  0.00    -0.203 F 
ATOM     79  C   UNL A   1      45.133  37.884  27.643  1.00  0.00     0.198 A 
ATOM     80  C   UNL A   1      42.753  37.779  27.366  1.00  0.00     0.198 A 
ATOM     81  F   UNL A   1      41.510  36.126  28.486  1.00  0.00    -0.203 F 
ATOM     82  F   UNL A   1      46.305  38.489  27.403  1.00  0.00    -0.200 F 
ATOM     83  C   UNL A   1      43.967  38.388  27.087  1.00  0.00     0.200 A 
ATOM     84  F   UNL A   1      41.626  38.253  26.817  1.00  0.00    -0.200 F 
ATOM     85  F   UNL A   1      44.012  39.465  26.291  1.00  0.00    -0.200 F 
ENDBRANCH  51  75
BRANCH  63  86
ATOM     86  C   UNL A   1      43.669  35.572  35.734  1.00  0.00     0.064 A 
ATOM     87  C   UNL A   1      44.862  36.201  36.118  1.00  0.00     0.173 A 
ATOM     88  C   UNL A   1      42.488  35.955  36.392  1.00  0.00     0.173 A 
ATOM     89  F   UNL A   1      46.021  35.865  35.531  1.00  0.00    -0.203 F 
ATOM     90  C   UNL A   1      44.878  37.148  37.139  1.00  0.00     0.198 A 
ATOM     91  C   UNL A   1      42.501  36.931  37.384  1.00  0.00     0.198 A 
ATOM     92  F   UNL A   1      41.316  35.395  36.059  1.00  0.00    -0.203 F 
ATOM     93  F   UNL A   1      46.039  37.693  37.527  1.00  0.00    -0.200 F 
ATOM     94  C   UNL A   1      43.697  37.519  37.764  1.00  0.00     0.200 A 
ATOM     95  F   UNL A   1      41.355  37.302  37.973  1.00  0.00    -0.200 F 
ATOM     96  F   UNL A   1      43.713  38.439  38.739  1.00  0.00    -0.200 F 
ENDBRANCH  63  86
ENDBRANCH  37  38
ENDBRANCH  30  32
ENDBRANCH  29  30
ENDBRANCH  28  29
ENDBRANCH  27  28
ENDBRANCH  26  27
ENDBRANCH  25  26
ENDBRANCH  24  25
ENDBRANCH   1  24
TORSDOF 24
ENDMDL
MODEL 3
REMARK VINA RESULT:      -8.0      5.567     10.222
REMARK SMILES [N-]=[N+]=NC[C@@H](Nc1ccccc1Br)C(=O)OCCOCCOCCOCCOC(=O)c1ccc(-c2c3nc(c(-c4c(F)c(F)c(F)c(F)c4F)c4ccc([nH]4)c(-c4c(F)c(F)c(F)c(F)c4F)c4nc(c(-c5c(F)c(F)c(F)c(F)c5F)c5ccc2[nH]5)C=C4)C=C3)cc1
REMARK SMILES IDX 22 1 21 2 20 3 19 4 18 5 17 6 16 7 14 8 15 9 5 10 4 11 3 12
REMARK SMILES IDX 1 13 2 14 6 15 7 17 8 18 12 19 9 20 11 21 13 22 10 23 23 24
REMARK SMILES IDX 24 25 25 26 26 27 27 28 28 29 29 30 30 31 31 32 32 33 93 34
REMARK SMILES IDX 33 35 92 36 34 37 35 38 36 39 86 40 37 41 91 42 85 43 87 44
REMARK SMILES IDX 38 45 90 46 84 47 83 48 39 50 71 51 51 52 70 53 52 54 55 55
REMARK SMILES IDX 69 56 88 57 53 58 54 59 68 61 89 62 56 63 40 64 41 65 49 66
REMARK SMILES IDX 42 67 43 68 47 69 50 70 44 71 45 72 48 73 46 74 72 75 73 76
REMARK SMILES IDX 81 77 74 78 75 79 79 80 82 81 76 82 77 83 80 84 78 85 57 86
REMARK SMILES IDX 58 87 66 88 59 89 60 90 64 91 67 92 61 93 62 94 65 95 63 96
REMARK H PARENT 6 16 87 49 55 60
REMARK Flexibility Score: inf
ROOT
ATOM      1  O   UNL A   1      49.978  28.342  29.173  1.00  0.00    -0.377 OA
ENDROOT
BRANCH   1   2
ATOM      2  C   UNL A   1      48.764  27.968  28.549  1.00  0.00     0.188 C 
BRANCH   2   3
ATOM      3  C   UNL A   1      48.036  26.776  29.185  1.00  0.00     0.188 C 
BRANCH   3   4
ATOM      4  O   UNL A   1      46.801  26.346  28.659  1.00  0.00    -0.376 OA
BRANCH   4   5
ATOM      5  C   UNL A   1      46.125  25.162  29.029  1.00  0.00     0.202 C 
BRANCH   5   6
ATOM      6  C   UNL A   1      45.308  24.877  30.302  1.00  0.00     0.261 C 
BRANCH   6   7
ATOM      7  O   UNL A   1      45.831  25.170  31.598  1.00  0.00    -0.462 OA
BRANCH   7   8
ATOM      8  C   UNL A   1      44.889  25.485  32.523  1.00  0.00     0.328 C 
ATOM      9  O   UNL A   1      43.928  24.764  32.772  1.00  0.00    -0.250 OA
BRANCH   8  10
ATOM     10  C   UNL A   1      45.087  26.880  33.151  1.00  0.00     0.195 C 
BRANCH  10  11
ATOM     11  C   UNL A   1      45.091  28.041  32.130  1.00  0.00     0.127 C 
BRANCH  11  12
ATOM     12  N   UNL A   1      43.759  28.690  32.080  1.00  0.00    -0.091 NA
ATOM     13  N   UNL A   1      43.721  31.014  32.603  1.00  0.00    -0.003 NA
ATOM     14  N   UNL A   1      43.726  29.896  32.361  1.00  0.00     0.001 N 
ENDBRANCH  11  12
ENDBRANCH  10  11
BRANCH  10  15
ATOM     15  N   UNL A   1      44.123  27.164  34.263  1.00  0.00    -0.371 N 
ATOM     16  H   UNL A   1      43.150  27.177  34.118  1.00  0.00     0.161 HD
BRANCH  15  17
ATOM     17  C   UNL A   1      44.689  27.411  35.522  1.00  0.00     0.049 A 
ATOM     18  C   UNL A   1      45.166  28.697  35.806  1.00  0.00     0.027 A 
ATOM     19  C   UNL A   1      44.597  26.483  36.580  1.00  0.00     0.041 A 
ATOM     20  C   UNL A   1      45.437  29.082  37.120  1.00  0.00     0.002 A 
ATOM     21  C   UNL A   1      44.821  26.882  37.898  1.00  0.00     0.018 A 
ATOM     22  Br  UNL A   1      44.187  24.649  36.265  1.00  0.00    -0.049 Br
ATOM     23  C   UNL A   1      45.224  28.189  38.168  1.00  0.00     0.001 A 
ENDBRANCH  15  17
ENDBRANCH  10  15
ENDBRANCH   8  10
ENDBRANCH   7   8
ENDBRANCH   6   7
ENDBRANCH   5   6
ENDBRANCH   4   5
ENDBRANCH   3   4
ENDBRANCH   2   3
ENDBRANCH   1   2
BRANCH   1  24
ATOM     24  C   UNL A   1      51.170  28.344  28.393  1.00  0.00     0.188 C 
BRANCH  24  25
ATOM     25  C   UNL A   1      51.107  28.241  26.852  1.00  0.00     0.188 C 
BRANCH  25  26
ATOM     26  O   UNL A   1      52.264  28.709  26.182  1.00  0.00    -0.376 OA
BRANCH  26  27
ATOM     27  C   UNL A   1      52.760  28.014  25.052  1.00  0.00     0.202 C 
BRANCH  27  28
ATOM     28  C   UNL A   1      51.953  28.056  23.745  1.00  0.00     0.261 C 
BRANCH  28  29
ATOM     29  O   UNL A   1      51.326  26.831  23.337  1.00  0.00    -0.460 OA
BRANCH  29  30
ATOM     30  C   UNL A   1      50.284  26.914  22.483  1.00  0.00     0.338 C 
ATOM     31  O   UNL A   1      50.304  26.768  21.276  1.00  0.00    -0.246 OA
BRANCH  30  32
ATOM     32  C   UNL A   1      49.052  27.014  23.296  1.00  0.00     0.060 A 
ATOM     33  C   UNL A   1      47.970  27.756  22.801  1.00  0.00     0.016 A 
ATOM     34  C   UNL A   1      48.966  26.382  24.538  1.00  0.00     0.016 A 
ATOM     35  C   UNL A   1      46.816  27.907  23.568  1.00  0.00     0.010 A 
ATOM     36  C   UNL A   1      47.820  26.556  25.318  1.00  0.00     0.010 A 
ATOM     37  C   UNL A   1      46.759  27.354  24.852  1.00  0.00    -0.014 A 
BRANCH  37  38
ATOM     38  C   UNL A   1      45.700  27.797  25.790  1.00  0.00     0.031 A 
ATOM     39  C   UNL A   1      44.608  26.822  26.135  1.00  0.00     0.074 A 
ATOM     40  C   UNL A   1      45.719  29.020  26.346  1.00  0.00     0.049 A 
ATOM     41  N   UNL A   1      43.542  26.988  26.875  1.00  0.00    -0.248 NA
ATOM     42  C   UNL A   1      44.739  25.472  25.562  1.00  0.00     0.031 C 
ATOM     43  C   UNL A   1      46.753  30.028  26.137  1.00  0.00     0.029 A 
ATOM     44  N   UNL A   1      44.827  29.619  27.201  1.00  0.00    -0.354 N 
ATOM     45  C   UNL A   1      42.873  25.771  26.845  1.00  0.00     0.074 A 
ATOM     46  C   UNL A   1      43.631  24.887  25.989  1.00  0.00     0.031 C 
ATOM     47  C   UNL A   1      46.431  31.132  26.834  1.00  0.00     0.029 A 
ATOM     48  C   UNL A   1      45.148  30.920  27.505  1.00  0.00     0.049 A 
ATOM     49  H   UNL A   1      44.035  29.161  27.562  1.00  0.00     0.167 HD
ATOM     50  C   UNL A   1      41.732  25.421  27.484  1.00  0.00     0.037 A 
ATOM     51  C   UNL A   1      44.467  31.836  28.220  1.00  0.00     0.037 A 
ATOM     52  C   UNL A   1      40.978  26.308  28.331  1.00  0.00     0.049 A 
ATOM     53  C   UNL A   1      43.147  31.451  28.845  1.00  0.00     0.074 A 
ATOM     54  C   UNL A   1      39.814  26.051  29.031  1.00  0.00     0.029 A 
ATOM     55  N   UNL A   1      41.313  27.632  28.582  1.00  0.00    -0.354 N 
ATOM     56  N   UNL A   1      42.526  30.296  28.829  1.00  0.00    -0.248 NA
ATOM     57  C   UNL A   1      42.437  32.500  29.589  1.00  0.00     0.031 C 
ATOM     58  C   UNL A   1      39.407  27.237  29.650  1.00  0.00     0.029 A 
ATOM     59  C   UNL A   1      40.358  28.213  29.401  1.00  0.00     0.049 A 
ATOM     60  H   UNL A   1      42.111  28.089  28.230  1.00  0.00     0.167 HD
ATOM     61  C   UNL A   1      41.374  30.468  29.589  1.00  0.00     0.074 A 
ATOM     62  C   UNL A   1      41.391  31.836  30.063  1.00  0.00     0.031 C 
ATOM     63  C   UNL A   1      40.394  29.575  29.872  1.00  0.00     0.037 A 
BRANCH  50  64
ATOM     64  C   UNL A   1      41.207  24.031  27.257  1.00  0.00     0.064 A 
ATOM     65  C   UNL A   1      40.061  23.786  26.484  1.00  0.00     0.173 A 
ATOM     66  C   UNL A   1      41.876  22.925  27.803  1.00  0.00     0.173 A 
ATOM     67  F   UNL A   1      39.374  24.807  25.951  1.00  0.00    -0.203 F 
ATOM     68  C   UNL A   1      39.588  22.489  26.294  1.00  0.00     0.198 A 
ATOM     69  C   UNL A   1      41.422  21.629  27.581  1.00  0.00     0.198 A 
ATOM     70  F   UNL A   1      42.977  23.101  28.548  1.00  0.00    -0.203 F 
ATOM     71  F   UNL A   1      38.460  22.285  25.602  1.00  0.00    -0.200 F 
ATOM     72  C   UNL A   1      40.273  21.412  26.835  1.00  0.00     0.200 A 
ATOM     73  F   UNL A   1      42.094  20.588  28.093  1.00  0.00    -0.200 F 
ATOM     74  F   UNL A   1      39.821  20.165  26.646  1.00  0.00    -0.200 F 
ENDBRANCH  50  64
BRANCH  51  75
ATOM     75  C   UNL A   1      45.004  33.215  28.374  1.00  0.00     0.064 A 
ATOM     76  C   UNL A   1      44.653  34.234  27.478  1.00  0.00     0.173 A 
ATOM     77  C   UNL A   1      45.902  33.536  29.403  1.00  0.00     0.173 A 
ATOM     78  F   UNL A   1      43.817  33.973  26.462  1.00  0.00    -0.203 F 
ATOM     79  C   UNL A   1      45.197  35.512  27.590  1.00  0.00     0.198 A 
ATOM     80  C   UNL A   1      46.418  34.823  29.535  1.00  0.00     0.198 A 
ATOM     81  F   UNL A   1      46.274  32.599  30.288  1.00  0.00    -0.203 F 
ATOM     82  F   UNL A   1      44.886  36.452  26.686  1.00  0.00    -0.200 F 
ATOM     83  C   UNL A   1      46.074  35.808  28.622  1.00  0.00     0.200 A 
ATOM     84  F   UNL A   1      47.253  35.108  30.544  1.00  0.00    -0.200 F 
ATOM     85  F   UNL A   1      46.593  37.038  28.733  1.00  0.00    -0.200 F 
ENDBRANCH  51  75
BRANCH  63  86
ATOM     86  C   UNL A   1      39.281  30.027  30.777  1.00  0.00     0.064 A 
ATOM     87  C   UNL A   1      38.093  30.580  30.277  1.00  0.00     0.173 A 
ATOM     88  C   UNL A   1      39.390  29.864  32.168  1.00  0.00     0.173 A 
ATOM     89  F   UNL A   1      37.940  30.770  28.958  1.00  0.00    -0.203 F 
ATOM     90  C   UNL A   1      37.072  30.983  31.135  1.00  0.00     0.198 A 
ATOM     91  C   UNL A   1      38.352  30.230  33.020  1.00  0.00     0.198 A 
ATOM     92  F   UNL A   1      40.500  29.331  32.701  1.00  0.00    -0.203 F 
ATOM     93  F   UNL A   1      35.971  31.562  30.637  1.00  0.00    -0.200 F 
ATOM     94  C   UNL A   1      37.199  30.799  32.503  1.00  0.00     0.200 A 
ATOM     95  F   UNL A   1      38.469  30.033  34.340  1.00  0.00    -0.200 F 
ATOM     96  F   UNL A   1      36.211  31.178  33.327  1.00  0.00    -0.200 F 
ENDBRANCH  63  86
ENDBRANCH  37  38
ENDBRANCH  30  32
ENDBRANCH  29  30
ENDBRANCH  28  29
ENDBRANCH  27  28
ENDBRANCH  26  27
ENDBRANCH  25  26
ENDBRANCH  24  25
ENDBRANCH   1  24
TORSDOF 24
ENDMDL
