MODEL 1
REMARK VINA RESULT:     -10.1      0.000      0.000
REMARK SMILES C[C@@H](Oc1cncc(C(=O)OCCOCCOCCOCCOC(=O)c2ccc(-c3c4nc(c(-c5c(F)c(F)c(F)c(F)c5F)c5ccc([nH]5)c(-c5c(F)c(F)c(F)c(F)c5F)c5nc(c(-c6c(F)c(F)c(F)c(F)c6F)c6ccc3[nH]6)C=C5)C=C4)cc2)n1)C(F)(F)F
REMARK SMILES IDX 16 1 15 2 14 3 13 4 12 5 11 6 9 7 10 8 8 9 4 10 5 11 89 12
REMARK SMILES IDX 6 13 7 14 3 15 2 16 1 17 90 18 91 19 92 20 93 21 17 22 18 23
REMARK SMILES IDX 19 24 20 25 21 26 22 27 23 28 24 29 25 30 26 31 27 32 88 33
REMARK SMILES IDX 28 34 87 35 29 36 30 37 31 38 81 39 32 40 86 41 80 42 82 43
REMARK SMILES IDX 33 44 85 45 79 46 78 47 34 49 66 50 46 51 65 52 47 53 50 54
REMARK SMILES IDX 64 55 83 56 48 57 49 58 63 60 84 61 51 62 35 63 36 64 44 65
REMARK SMILES IDX 37 66 38 67 42 68 45 69 39 70 40 71 43 72 41 73 67 74 68 75
REMARK SMILES IDX 76 76 69 77 70 78 74 79 77 80 71 81 72 82 75 83 73 84 52 85
REMARK SMILES IDX 53 86 61 87 54 88 55 89 59 90 62 91 56 92 57 93 60 94 58 95
REMARK H PARENT 82 48 50 59
REMARK Flexibility Score: inf
ROOT
ATOM      1  C   UNL A   1      42.944  19.812  26.566  1.00  0.00     0.188 C 
ENDROOT
BRANCH   1   2
ATOM      2  C   UNL A   1      41.505  19.946  27.117  1.00  0.00     0.188 C 
BRANCH   2   3
ATOM      3  O   UNL A   1      41.143  21.249  27.533  1.00  0.00    -0.376 OA
BRANCH   3   4
ATOM      4  C   UNL A   1      39.965  21.829  27.008  1.00  0.00     0.202 C 
BRANCH   4   5
ATOM      5  C   UNL A   1      39.441  21.267  25.677  1.00  0.00     0.261 C 
BRANCH   5   6
ATOM      6  O   UNL A   1      38.127  21.706  25.293  1.00  0.00    -0.458 OA
BRANCH   6   7
ATOM      7  C   UNL A   1      37.716  22.890  25.804  1.00  0.00     0.358 C 
ATOM      8  O   UNL A   1      38.440  23.780  26.221  1.00  0.00    -0.244 OA
BRANCH   7   9
ATOM      9  C   UNL A   1      36.271  23.069  25.529  1.00  0.00     0.170 A 
ATOM     10  C   UNL A   1      34.263  24.162  25.778  1.00  0.00     0.233 A 
ATOM     11  C   UNL A   1      33.653  23.144  25.049  1.00  0.00     0.179 A 
ATOM     12  N   UNL A   1      35.590  24.132  26.048  1.00  0.00    -0.203 NA
ATOM     13  N   UNL A   1      34.318  22.064  24.567  1.00  0.00    -0.257 NA
ATOM     14  C   UNL A   1      35.648  22.066  24.800  1.00  0.00     0.147 A 
BRANCH  10  15
ATOM     15  O   UNL A   1      33.653  25.352  26.063  1.00  0.00    -0.464 OA
BRANCH  15  16
ATOM     16  C   UNL A   1      32.798  25.952  25.068  1.00  0.00     0.277 C 
ATOM     17  C   UNL A   1      33.580  26.874  24.126  1.00  0.00     0.063 C 
BRANCH  16  18
ATOM     18  C   UNL A   1      31.748  26.805  25.801  1.00  0.00     0.425 C 
ATOM     19  F   UNL A   1      31.616  28.019  25.211  1.00  0.00    -0.167 F 
ATOM     20  F   UNL A   1      30.529  26.227  25.791  1.00  0.00    -0.167 F 
ATOM     21  F   UNL A   1      32.096  27.025  27.089  1.00  0.00    -0.167 F 
ENDBRANCH  16  18
ENDBRANCH  15  16
ENDBRANCH  10  15
ENDBRANCH   7   9
ENDBRANCH   6   7
ENDBRANCH   5   6
ENDBRANCH   4   5
ENDBRANCH   3   4
ENDBRANCH   2   3
ENDBRANCH   1   2
BRANCH   1  22
ATOM     22  O   UNL A   1      43.205  19.407  25.226  1.00  0.00    -0.377 OA
BRANCH  22  23
ATOM     23  C   UNL A   1      44.525  19.065  24.827  1.00  0.00     0.188 C 
BRANCH  23  24
ATOM     24  C   UNL A   1      45.336  20.067  23.978  1.00  0.00     0.188 C 
BRANCH  24  25
ATOM     25  O   UNL A   1      46.224  20.865  24.741  1.00  0.00    -0.376 OA
BRANCH  25  26
ATOM     26  C   UNL A   1      46.409  22.211  24.339  1.00  0.00     0.202 C 
BRANCH  26  27
ATOM     27  C   UNL A   1      45.817  23.320  25.221  1.00  0.00     0.261 C 
BRANCH  27  28
ATOM     28  O   UNL A   1      44.802  24.147  24.631  1.00  0.00    -0.460 OA
BRANCH  28  29
ATOM     29  C   UNL A   1      43.513  23.804  24.826  1.00  0.00     0.338 C 
ATOM     30  O   UNL A   1      42.953  22.785  24.453  1.00  0.00    -0.246 OA
BRANCH  29  31
ATOM     31  C   UNL A   1      42.925  24.806  25.738  1.00  0.00     0.060 A 
ATOM     32  C   UNL A   1      43.362  26.137  25.682  1.00  0.00     0.016 A 
ATOM     33  C   UNL A   1      41.921  24.429  26.634  1.00  0.00     0.016 A 
ATOM     34  C   UNL A   1      42.812  27.091  26.540  1.00  0.00     0.010 A 
ATOM     35  C   UNL A   1      41.391  25.377  27.510  1.00  0.00     0.010 A 
ATOM     36  C   UNL A   1      41.856  26.706  27.490  1.00  0.00    -0.014 A 
BRANCH  36  37
ATOM     37  C   UNL A   1      41.492  27.619  28.599  1.00  0.00     0.031 A 
ATOM     38  C   UNL A   1      42.284  27.526  29.874  1.00  0.00     0.074 A 
ATOM     39  C   UNL A   1      40.476  28.495  28.492  1.00  0.00     0.049 A 
ATOM     40  N   UNL A   1      42.090  28.122  31.022  1.00  0.00    -0.248 NA
ATOM     41  C   UNL A   1      43.454  26.631  29.852  1.00  0.00     0.031 C 
ATOM     42  C   UNL A   1      39.664  28.709  27.298  1.00  0.00     0.029 A 
ATOM     43  N   UNL A   1      39.944  29.357  29.421  1.00  0.00    -0.354 N 
ATOM     44  C   UNL A   1      43.095  27.656  31.860  1.00  0.00     0.074 A 
ATOM     45  C   UNL A   1      43.890  26.719  31.099  1.00  0.00     0.031 C 
ATOM     46  C   UNL A   1      38.716  29.623  27.574  1.00  0.00     0.029 A 
ATOM     47  C   UNL A   1      38.830  30.027  28.974  1.00  0.00     0.049 A 
ATOM     48  H   UNL A   1      40.324  29.483  30.320  1.00  0.00     0.167 HD
ATOM     49  C   UNL A   1      43.332  27.985  33.151  1.00  0.00     0.037 A 
ATOM     50  C   UNL A   1      37.983  30.840  29.637  1.00  0.00     0.037 A 
ATOM     51  C   UNL A   1      42.548  28.929  33.900  1.00  0.00     0.049 A 
ATOM     52  C   UNL A   1      38.235  31.136  31.098  1.00  0.00     0.074 A 
ATOM     53  C   UNL A   1      42.732  29.358  35.203  1.00  0.00     0.029 A 
ATOM     54  N   UNL A   1      41.426  29.583  33.416  1.00  0.00    -0.354 N 
ATOM     55  N   UNL A   1      39.210  30.725  31.874  1.00  0.00    -0.248 NA
ATOM     56  C   UNL A   1      37.267  32.012  31.777  1.00  0.00     0.031 C 
ATOM     57  C   UNL A   1      41.683  30.221  35.529  1.00  0.00     0.029 A 
ATOM     58  C   UNL A   1      40.887  30.387  34.406  1.00  0.00     0.049 A 
ATOM     59  H   UNL A   1      41.065  29.488  32.504  1.00  0.00     0.167 HD
ATOM     60  C   UNL A   1      38.997  31.325  33.110  1.00  0.00     0.074 A 
ATOM     61  C   UNL A   1      37.806  32.135  32.981  1.00  0.00     0.031 C 
ATOM     62  C   UNL A   1      39.719  31.214  34.251  1.00  0.00     0.037 A 
BRANCH  49  63
ATOM     63  C   UNL A   1      44.466  27.303  33.858  1.00  0.00     0.064 A 
ATOM     64  C   UNL A   1      44.298  26.076  34.516  1.00  0.00     0.173 A 
ATOM     65  C   UNL A   1      45.757  27.850  33.803  1.00  0.00     0.173 A 
ATOM     66  F   UNL A   1      43.081  25.521  34.609  1.00  0.00    -0.203 F 
ATOM     67  C   UNL A   1      45.383  25.425  35.098  1.00  0.00     0.198 A 
ATOM     68  C   UNL A   1      46.842  27.181  34.359  1.00  0.00     0.198 A 
ATOM     69  F   UNL A   1      45.970  29.022  33.185  1.00  0.00    -0.203 F 
ATOM     70  F   UNL A   1      45.196  24.266  35.746  1.00  0.00    -0.200 F 
ATOM     71  C   UNL A   1      46.654  25.971  35.008  1.00  0.00     0.200 A 
ATOM     72  F   UNL A   1      48.073  27.703  34.258  1.00  0.00    -0.200 F 
ATOM     73  F   UNL A   1      47.701  25.329  35.547  1.00  0.00    -0.200 F 
ENDBRANCH  49  63
BRANCH  50  74
ATOM     74  C   UNL A   1      36.787  31.409  28.956  1.00  0.00     0.064 A 
ATOM     75  C   UNL A   1      36.717  32.771  28.628  1.00  0.00     0.173 A 
ATOM     76  C   UNL A   1      35.658  30.620  28.688  1.00  0.00     0.173 A 
ATOM     77  F   UNL A   1      37.757  33.577  28.889  1.00  0.00    -0.203 F 
ATOM     78  C   UNL A   1      35.553  33.329  28.101  1.00  0.00     0.198 A 
ATOM     79  C   UNL A   1      34.507  31.171  28.125  1.00  0.00     0.198 A 
ATOM     80  F   UNL A   1      35.666  29.313  28.984  1.00  0.00    -0.203 F 
ATOM     81  F   UNL A   1      35.488  34.648  27.875  1.00  0.00    -0.200 F 
ATOM     82  C   UNL A   1      34.449  32.528  27.848  1.00  0.00     0.200 A 
ATOM     83  F   UNL A   1      33.449  30.391  27.872  1.00  0.00    -0.200 F 
ATOM     84  F   UNL A   1      33.326  33.067  27.354  1.00  0.00    -0.200 F 
ENDBRANCH  50  74
BRANCH  62  85
ATOM     85  C   UNL A   1      39.295  32.039  35.433  1.00  0.00     0.064 A 
ATOM     86  C   UNL A   1      39.671  33.382  35.576  1.00  0.00     0.173 A 
ATOM     87  C   UNL A   1      38.444  31.489  36.405  1.00  0.00     0.173 A 
ATOM     88  F   UNL A   1      40.492  33.953  34.681  1.00  0.00    -0.203 F 
ATOM     89  C   UNL A   1      39.233  34.136  36.662  1.00  0.00     0.198 A 
ATOM     90  C   UNL A   1      37.978  32.256  37.468  1.00  0.00     0.198 A 
ATOM     91  F   UNL A   1      38.044  30.212  36.309  1.00  0.00    -0.203 F 
ATOM     92  F   UNL A   1      39.644  35.403  36.804  1.00  0.00    -0.200 F 
ATOM     93  C   UNL A   1      38.379  33.576  37.601  1.00  0.00     0.200 A 
ATOM     94  F   UNL A   1      37.136  31.717  38.362  1.00  0.00    -0.200 F 
ATOM     95  F   UNL A   1      37.946  34.308  38.636  1.00  0.00    -0.200 F 
ENDBRANCH  62  85
ENDBRANCH  36  37
ENDBRANCH  29  31
ENDBRANCH  28  29
ENDBRANCH  27  28
ENDBRANCH  26  27
ENDBRANCH  25  26
ENDBRANCH  24  25
ENDBRANCH  23  24
ENDBRANCH  22  23
ENDBRANCH   1  22
TORSDOF 23
ENDMDL
MODEL 2
REMARK VINA RESULT:     -10.0      3.489      8.421
REMARK SMILES C[C@@H](Oc1cncc(C(=O)OCCOCCOCCOCCOC(=O)c2ccc(-c3c4nc(c(-c5c(F)c(F)c(F)c(F)c5F)c5ccc([nH]5)c(-c5c(F)c(F)c(F)c(F)c5F)c5nc(c(-c6c(F)c(F)c(F)c(F)c6F)c6ccc3[nH]6)C=C5)C=C4)cc2)n1)C(F)(F)F
REMARK SMILES IDX 16 1 15 2 14 3 13 4 12 5 11 6 9 7 10 8 8 9 4 10 5 11 89 12
REMARK SMILES IDX 6 13 7 14 3 15 2 16 1 17 90 18 91 19 92 20 93 21 17 22 18 23
REMARK SMILES IDX 19 24 20 25 21 26 22 27 23 28 24 29 25 30 26 31 27 32 88 33
REMARK SMILES IDX 28 34 87 35 29 36 30 37 31 38 81 39 32 40 86 41 80 42 82 43
REMARK SMILES IDX 33 44 85 45 79 46 78 47 34 49 66 50 46 51 65 52 47 53 50 54
REMARK SMILES IDX 64 55 83 56 48 57 49 58 63 60 84 61 51 62 35 63 36 64 44 65
REMARK SMILES IDX 37 66 38 67 42 68 45 69 39 70 40 71 43 72 41 73 67 74 68 75
REMARK SMILES IDX 76 76 69 77 70 78 74 79 77 80 71 81 72 82 75 83 73 84 52 85
REMARK SMILES IDX 53 86 61 87 54 88 55 89 59 90 62 91 56 92 57 93 60 94 58 95
REMARK H PARENT 82 48 50 59
REMARK Flexibility Score: inf
ROOT
ATOM      1  C   UNL A   1      34.461  22.775  25.011  1.00  0.00     0.188 C 
ENDROOT
BRANCH   1   2
ATOM      2  C   UNL A   1      33.705  21.433  24.861  1.00  0.00     0.188 C 
BRANCH   2   3
ATOM      3  O   UNL A   1      32.329  21.483  25.185  1.00  0.00    -0.376 OA
BRANCH   3   4
ATOM      4  C   UNL A   1      31.926  22.207  26.331  1.00  0.00     0.202 C 
BRANCH   4   5
ATOM      5  C   UNL A   1      30.663  23.074  26.203  1.00  0.00     0.261 C 
BRANCH   5   6
ATOM      6  O   UNL A   1      30.640  23.976  25.085  1.00  0.00    -0.458 OA
BRANCH   6   7
ATOM      7  C   UNL A   1      30.082  25.190  25.304  1.00  0.00     0.358 C 
ATOM      8  O   UNL A   1      29.586  25.571  26.352  1.00  0.00    -0.244 OA
BRANCH   7   9
ATOM      9  C   UNL A   1      30.410  26.093  24.176  1.00  0.00     0.170 A 
ATOM     10  C   UNL A   1      30.245  28.084  23.037  1.00  0.00     0.233 A 
ATOM     11  C   UNL A   1      30.982  27.517  22.000  1.00  0.00     0.179 A 
ATOM     12  N   UNL A   1      29.929  27.369  24.144  1.00  0.00    -0.203 NA
ATOM     13  N   UNL A   1      31.425  26.234  22.008  1.00  0.00    -0.257 NA
ATOM     14  C   UNL A   1      31.146  25.544  23.135  1.00  0.00     0.147 A 
BRANCH  10  15
ATOM     15  O   UNL A   1      29.998  29.425  23.138  1.00  0.00    -0.464 OA
BRANCH  15  16
ATOM     16  C   UNL A   1      28.634  29.890  23.061  1.00  0.00     0.277 C 
ATOM     17  C   UNL A   1      28.131  29.937  21.613  1.00  0.00     0.063 C 
BRANCH  16  18
ATOM     18  C   UNL A   1      28.591  31.321  23.623  1.00  0.00     0.425 C 
ATOM     19  F   UNL A   1      29.519  31.483  24.600  1.00  0.00    -0.167 F 
ATOM     20  F   UNL A   1      28.850  32.246  22.675  1.00  0.00    -0.167 F 
ATOM     21  F   UNL A   1      27.387  31.606  24.169  1.00  0.00    -0.167 F 
ENDBRANCH  16  18
ENDBRANCH  15  16
ENDBRANCH  10  15
ENDBRANCH   7   9
ENDBRANCH   6   7
ENDBRANCH   5   6
ENDBRANCH   4   5
ENDBRANCH   3   4
ENDBRANCH   2   3
ENDBRANCH   1   2
BRANCH   1  22
ATOM     22  O   UNL A   1      34.280  23.849  24.093  1.00  0.00    -0.377 OA
BRANCH  22  23
ATOM     23  C   UNL A   1      34.439  25.193  24.527  1.00  0.00     0.188 C 
BRANCH  23  24
ATOM     24  C   UNL A   1      33.668  25.675  25.774  1.00  0.00     0.188 C 
BRANCH  24  25
ATOM     25  O   UNL A   1      33.570  27.086  25.867  1.00  0.00    -0.376 OA
BRANCH  25  26
ATOM     26  C   UNL A   1      32.536  27.621  26.673  1.00  0.00     0.202 C 
BRANCH  26  27
ATOM     27  C   UNL A   1      32.184  29.108  26.512  1.00  0.00     0.261 C 
BRANCH  27  28
ATOM     28  O   UNL A   1      33.260  29.998  26.181  1.00  0.00    -0.460 OA
BRANCH  28  29
ATOM     29  C   UNL A   1      33.518  31.020  27.023  1.00  0.00     0.338 C 
ATOM     30  O   UNL A   1      32.758  31.915  27.357  1.00  0.00    -0.246 OA
BRANCH  29  31
ATOM     31  C   UNL A   1      34.844  30.770  27.624  1.00  0.00     0.060 A 
ATOM     32  C   UNL A   1      35.307  29.453  27.763  1.00  0.00     0.016 A 
ATOM     33  C   UNL A   1      35.641  31.844  28.027  1.00  0.00     0.016 A 
ATOM     34  C   UNL A   1      36.558  29.208  28.330  1.00  0.00     0.010 A 
ATOM     35  C   UNL A   1      36.881  31.596  28.617  1.00  0.00     0.010 A 
ATOM     36  C   UNL A   1      37.332  30.276  28.801  1.00  0.00    -0.014 A 
BRANCH  36  37
ATOM     37  C   UNL A   1      38.506  30.025  29.672  1.00  0.00     0.031 A 
ATOM     38  C   UNL A   1      39.556  29.069  29.176  1.00  0.00     0.074 A 
ATOM     39  C   UNL A   1      38.632  30.609  30.877  1.00  0.00     0.049 A 
ATOM     40  N   UNL A   1      40.606  28.591  29.792  1.00  0.00    -0.248 NA
ATOM     41  C   UNL A   1      39.395  28.580  27.795  1.00  0.00     0.031 C 
ATOM     42  C   UNL A   1      37.705  31.582  31.449  1.00  0.00     0.029 A 
ATOM     43  N   UNL A   1      39.591  30.445  31.848  1.00  0.00    -0.354 N 
ATOM     44  C   UNL A   1      41.213  27.732  28.885  1.00  0.00     0.074 A 
ATOM     45  C   UNL A   1      40.411  27.740  27.683  1.00  0.00     0.031 C 
ATOM     46  C   UNL A   1      38.126  31.910  32.684  1.00  0.00     0.029 A 
ATOM     47  C   UNL A   1      39.326  31.139  33.004  1.00  0.00     0.049 A 
ATOM     48  H   UNL A   1      40.391  29.884  31.727  1.00  0.00     0.167 HD
ATOM     49  C   UNL A   1      42.341  27.002  29.044  1.00  0.00     0.037 A 
ATOM     50  C   UNL A   1      39.962  31.118  34.193  1.00  0.00     0.037 A 
ATOM     51  C   UNL A   1      43.144  27.009  30.237  1.00  0.00     0.049 A 
ATOM     52  C   UNL A   1      41.182  30.242  34.363  1.00  0.00     0.074 A 
ATOM     53  C   UNL A   1      44.327  26.333  30.481  1.00  0.00     0.029 A 
ATOM     54  N   UNL A   1      42.842  27.720  31.388  1.00  0.00    -0.354 N 
ATOM     55  N   UNL A   1      41.775  29.463  33.490  1.00  0.00    -0.248 NA
ATOM     56  C   UNL A   1      41.824  30.242  35.687  1.00  0.00     0.031 C 
ATOM     57  C   UNL A   1      44.705  26.582  31.803  1.00  0.00     0.029 A 
ATOM     58  C   UNL A   1      43.799  27.472  32.358  1.00  0.00     0.049 A 
ATOM     59  H   UNL A   1      42.063  28.312  31.499  1.00  0.00     0.167 HD
ATOM     60  C   UNL A   1      42.875  28.920  34.142  1.00  0.00     0.074 A 
ATOM     61  C   UNL A   1      42.876  29.464  35.482  1.00  0.00     0.031 C 
ATOM     62  C   UNL A   1      43.803  28.049  33.677  1.00  0.00     0.037 A 
BRANCH  49  63
ATOM     63  C   UNL A   1      42.770  26.108  27.920  1.00  0.00     0.064 A 
ATOM     64  C   UNL A   1      42.267  24.807  27.775  1.00  0.00     0.173 A 
ATOM     65  C   UNL A   1      43.635  26.593  26.927  1.00  0.00     0.173 A 
ATOM     66  F   UNL A   1      41.449  24.291  28.705  1.00  0.00    -0.203 F 
ATOM     67  C   UNL A   1      42.620  24.023  26.679  1.00  0.00     0.198 A 
ATOM     68  C   UNL A   1      43.962  25.819  25.819  1.00  0.00     0.198 A 
ATOM     69  F   UNL A   1      44.143  27.832  27.020  1.00  0.00    -0.203 F 
ATOM     70  F   UNL A   1      42.150  22.772  26.574  1.00  0.00    -0.200 F 
ATOM     71  C   UNL A   1      43.456  24.534  25.697  1.00  0.00     0.200 A 
ATOM     72  F   UNL A   1      44.757  26.319  24.864  1.00  0.00    -0.200 F 
ATOM     73  F   UNL A   1      43.774  23.786  24.631  1.00  0.00    -0.200 F 
ENDBRANCH  49  63
BRANCH  50  74
ATOM     74  C   UNL A   1      39.450  31.916  35.343  1.00  0.00     0.064 A 
ATOM     75  C   UNL A   1      38.553  31.363  36.268  1.00  0.00     0.173 A 
ATOM     76  C   UNL A   1      39.788  33.269  35.497  1.00  0.00     0.173 A 
ATOM     77  F   UNL A   1      38.174  30.082  36.150  1.00  0.00    -0.203 F 
ATOM     78  C   UNL A   1      37.980  32.141  37.273  1.00  0.00     0.198 A 
ATOM     79  C   UNL A   1      39.245  34.037  36.527  1.00  0.00     0.198 A 
ATOM     80  F   UNL A   1      40.638  33.852  34.640  1.00  0.00    -0.203 F 
ATOM     81  F   UNL A   1      37.064  31.606  38.091  1.00  0.00    -0.200 F 
ATOM     82  C   UNL A   1      38.328  33.477  37.404  1.00  0.00     0.200 A 
ATOM     83  F   UNL A   1      39.593  35.324  36.654  1.00  0.00    -0.200 F 
ATOM     84  F   UNL A   1      37.768  34.228  38.361  1.00  0.00    -0.200 F 
ENDBRANCH  50  74
BRANCH  62  85
ATOM     85  C   UNL A   1      44.939  27.679  34.588  1.00  0.00     0.064 A 
ATOM     86  C   UNL A   1      44.888  26.551  35.420  1.00  0.00     0.173 A 
ATOM     87  C   UNL A   1      46.123  28.434  34.578  1.00  0.00     0.173 A 
ATOM     88  F   UNL A   1      43.777  25.802  35.475  1.00  0.00    -0.203 F 
ATOM     89  C   UNL A   1      45.970  26.208  36.227  1.00  0.00     0.198 A 
ATOM     90  C   UNL A   1      47.215  28.067  35.357  1.00  0.00     0.198 A 
ATOM     91  F   UNL A   1      46.228  29.515  33.791  1.00  0.00    -0.203 F 
ATOM     92  F   UNL A   1      45.882  25.155  37.050  1.00  0.00    -0.200 F 
ATOM     93  C   UNL A   1      47.136  26.960  36.187  1.00  0.00     0.200 A 
ATOM     94  F   UNL A   1      48.348  28.783  35.300  1.00  0.00    -0.200 F 
ATOM     95  F   UNL A   1      48.182  26.618  36.952  1.00  0.00    -0.200 F 
ENDBRANCH  62  85
ENDBRANCH  36  37
ENDBRANCH  29  31
ENDBRANCH  28  29
ENDBRANCH  27  28
ENDBRANCH  26  27
ENDBRANCH  25  26
ENDBRANCH  24  25
ENDBRANCH  23  24
ENDBRANCH  22  23
ENDBRANCH   1  22
TORSDOF 23
ENDMDL
MODEL 3
REMARK VINA RESULT:      -9.7      4.685      7.617
REMARK SMILES C[C@@H](Oc1cncc(C(=O)OCCOCCOCCOCCOC(=O)c2ccc(-c3c4nc(c(-c5c(F)c(F)c(F)c(F)c5F)c5ccc([nH]5)c(-c5c(F)c(F)c(F)c(F)c5F)c5nc(c(-c6c(F)c(F)c(F)c(F)c6F)c6ccc3[nH]6)C=C5)C=C4)cc2)n1)C(F)(F)F
REMARK SMILES IDX 16 1 15 2 14 3 13 4 12 5 11 6 9 7 10 8 8 9 4 10 5 11 89 12
REMARK SMILES IDX 6 13 7 14 3 15 2 16 1 17 90 18 91 19 92 20 93 21 17 22 18 23
REMARK SMILES IDX 19 24 20 25 21 26 22 27 23 28 24 29 25 30 26 31 27 32 88 33
REMARK SMILES IDX 28 34 87 35 29 36 30 37 31 38 81 39 32 40 86 41 80 42 82 43
REMARK SMILES IDX 33 44 85 45 79 46 78 47 34 49 66 50 46 51 65 52 47 53 50 54
REMARK SMILES IDX 64 55 83 56 48 57 49 58 63 60 84 61 51 62 35 63 36 64 44 65
REMARK SMILES IDX 37 66 38 67 42 68 45 69 39 70 40 71 43 72 41 73 67 74 68 75
REMARK SMILES IDX 76 76 69 77 70 78 74 79 77 80 71 81 72 82 75 83 73 84 52 85
REMARK SMILES IDX 53 86 61 87 54 88 55 89 59 90 62 91 56 92 57 93 60 94 58 95
REMARK H PARENT 82 48 50 59
REMARK Flexibility Score: inf
ROOT
ATOM      1  C   UNL A   1      33.262  20.902  24.282  1.00  0.00     0.188 C 
ENDROOT
BRANCH   1   2
ATOM      2  C   UNL A   1      32.084  20.681  25.260  1.00  0.00     0.188 C 
BRANCH   2   3
ATOM      3  O   UNL A   1      31.818  21.766  26.129  1.00  0.00    -0.376 OA
BRANCH   3   4
ATOM      4  C   UNL A   1      30.859  22.730  25.740  1.00  0.00     0.202 C 
BRANCH   4   5
ATOM      5  C   UNL A   1      31.389  24.085  25.245  1.00  0.00     0.261 C 
BRANCH   5   6
ATOM      6  O   UNL A   1      30.452  25.173  25.294  1.00  0.00    -0.458 OA
BRANCH   6   7
ATOM      7  C   UNL A   1      30.919  26.347  25.781  1.00  0.00     0.358 C 
ATOM      8  O   UNL A   1      31.305  26.545  26.922  1.00  0.00    -0.244 OA
BRANCH   7   9
ATOM      9  C   UNL A   1      31.160  27.284  24.659  1.00  0.00     0.170 A 
ATOM     10  C   UNL A   1      30.498  28.445  22.787  1.00  0.00     0.233 A 
ATOM     11  C   UNL A   1      31.816  28.861  22.616  1.00  0.00     0.179 A 
ATOM     12  N   UNL A   1      30.149  27.628  23.810  1.00  0.00    -0.203 NA
ATOM     13  N   UNL A   1      32.833  28.486  23.432  1.00  0.00    -0.257 NA
ATOM     14  C   UNL A   1      32.468  27.711  24.476  1.00  0.00     0.147 A 
BRANCH  10  15
ATOM     15  O   UNL A   1      29.443  28.997  22.116  1.00  0.00    -0.464 OA
BRANCH  15  16
ATOM     16  C   UNL A   1      28.550  29.880  22.826  1.00  0.00     0.277 C 
ATOM     17  C   UNL A   1      27.204  29.209  23.123  1.00  0.00     0.063 C 
BRANCH  16  18
ATOM     18  C   UNL A   1      28.282  31.101  21.930  1.00  0.00     0.425 C 
ATOM     19  F   UNL A   1      27.280  31.862  22.439  1.00  0.00    -0.167 F 
ATOM     20  F   UNL A   1      29.366  31.897  21.821  1.00  0.00    -0.167 F 
ATOM     21  F   UNL A   1      27.906  30.732  20.684  1.00  0.00    -0.167 F 
ENDBRANCH  16  18
ENDBRANCH  15  16
ENDBRANCH  10  15
ENDBRANCH   7   9
ENDBRANCH   6   7
ENDBRANCH   5   6
ENDBRANCH   4   5
ENDBRANCH   3   4
ENDBRANCH   2   3
ENDBRANCH   1   2
BRANCH   1  22
ATOM     22  O   UNL A   1      34.606  20.598  24.638  1.00  0.00    -0.377 OA
BRANCH  22  23
ATOM     23  C   UNL A   1      35.491  21.635  25.039  1.00  0.00     0.188 C 
BRANCH  23  24
ATOM     24  C   UNL A   1      36.987  21.309  25.240  1.00  0.00     0.188 C 
BRANCH  24  25
ATOM     25  O   UNL A   1      37.290  19.932  25.091  1.00  0.00    -0.376 OA
BRANCH  25  26
ATOM     26  C   UNL A   1      38.638  19.580  24.840  1.00  0.00     0.202 C 
BRANCH  26  27
ATOM     27  C   UNL A   1      39.620  19.575  26.021  1.00  0.00     0.261 C 
BRANCH  27  28
ATOM     28  O   UNL A   1      40.982  19.224  25.734  1.00  0.00    -0.460 OA
BRANCH  28  29
ATOM     29  C   UNL A   1      41.913  19.472  26.677  1.00  0.00     0.338 C 
ATOM     30  O   UNL A   1      42.682  18.674  27.188  1.00  0.00    -0.246 OA
BRANCH  29  31
ATOM     31  C   UNL A   1      41.969  20.937  26.865  1.00  0.00     0.060 A 
ATOM     32  C   UNL A   1      41.868  21.784  25.752  1.00  0.00     0.016 A 
ATOM     33  C   UNL A   1      42.096  21.471  28.149  1.00  0.00     0.016 A 
ATOM     34  C   UNL A   1      41.920  23.169  25.920  1.00  0.00     0.010 A 
ATOM     35  C   UNL A   1      42.174  22.854  28.313  1.00  0.00     0.010 A 
ATOM     36  C   UNL A   1      42.118  23.710  27.197  1.00  0.00    -0.014 A 
BRANCH  36  37
ATOM     37  C   UNL A   1      42.482  25.138  27.358  1.00  0.00     0.031 A 
ATOM     38  C   UNL A   1      43.870  25.558  26.959  1.00  0.00     0.074 A 
ATOM     39  C   UNL A   1      41.616  26.037  27.859  1.00  0.00     0.049 A 
ATOM     40  N   UNL A   1      44.468  26.711  27.113  1.00  0.00    -0.248 NA
ATOM     41  C   UNL A   1      44.700  24.533  26.303  1.00  0.00     0.031 C 
ATOM     42  C   UNL A   1      40.233  25.763  28.240  1.00  0.00     0.029 A 
ATOM     43  N   UNL A   1      41.789  27.369  28.153  1.00  0.00    -0.354 N 
ATOM     44  C   UNL A   1      45.746  26.541  26.596  1.00  0.00     0.074 A 
ATOM     45  C   UNL A   1      45.846  25.175  26.137  1.00  0.00     0.031 C 
ATOM     46  C   UNL A   1      39.689  26.885  28.745  1.00  0.00     0.029 A 
ATOM     47  C   UNL A   1      40.697  27.944  28.759  1.00  0.00     0.049 A 
ATOM     48  H   UNL A   1      42.615  27.864  27.949  1.00  0.00     0.167 HD
ATOM     49  C   UNL A   1      46.746  27.449  26.512  1.00  0.00     0.037 A 
ATOM     50  C   UNL A   1      40.551  29.171  29.297  1.00  0.00     0.037 A 
ATOM     51  C   UNL A   1      46.638  28.812  26.956  1.00  0.00     0.049 A 
ATOM     52  C   UNL A   1      41.709  30.143  29.248  1.00  0.00     0.074 A 
ATOM     53  C   UNL A   1      47.583  29.819  26.878  1.00  0.00     0.029 A 
ATOM     54  N   UNL A   1      45.520  29.356  27.569  1.00  0.00    -0.354 N 
ATOM     55  N   UNL A   1      42.900  29.990  28.722  1.00  0.00    -0.248 NA
ATOM     56  C   UNL A   1      41.500  31.460  29.869  1.00  0.00     0.031 C 
ATOM     57  C   UNL A   1      47.062  30.954  27.505  1.00  0.00     0.029 A 
ATOM     58  C   UNL A   1      45.764  30.676  27.905  1.00  0.00     0.049 A 
ATOM     59  H   UNL A   1      44.678  28.874  27.740  1.00  0.00     0.167 HD
ATOM     60  C   UNL A   1      43.561  31.198  28.909  1.00  0.00     0.074 A 
ATOM     61  C   UNL A   1      42.637  32.079  29.588  1.00  0.00     0.031 C 
ATOM     62  C   UNL A   1      44.820  31.550  28.552  1.00  0.00     0.037 A 
BRANCH  49  63
ATOM     63  C   UNL A   1      48.061  27.001  25.947  1.00  0.00     0.064 A 
ATOM     64  C   UNL A   1      48.392  27.194  24.597  1.00  0.00     0.173 A 
ATOM     65  C   UNL A   1      49.035  26.445  26.790  1.00  0.00     0.173 A 
ATOM     66  F   UNL A   1      47.491  27.708  23.748  1.00  0.00    -0.203 F 
ATOM     67  C   UNL A   1      49.649  26.840  24.114  1.00  0.00     0.198 A 
ATOM     68  C   UNL A   1      50.299  26.121  26.310  1.00  0.00     0.198 A 
ATOM     69  F   UNL A   1      48.767  26.240  28.089  1.00  0.00    -0.203 F 
ATOM     70  F   UNL A   1      49.936  27.007  22.815  1.00  0.00    -0.200 F 
ATOM     71  C   UNL A   1      50.605  26.317  24.972  1.00  0.00     0.200 A 
ATOM     72  F   UNL A   1      51.226  25.629  27.144  1.00  0.00    -0.200 F 
ATOM     73  F   UNL A   1      51.823  26.000  24.509  1.00  0.00    -0.200 F 
ENDBRANCH  49  63
BRANCH  50  74
ATOM     74  C   UNL A   1      39.280  29.560  29.971  1.00  0.00     0.064 A 
ATOM     75  C   UNL A   1      39.079  29.320  31.337  1.00  0.00     0.173 A 
ATOM     76  C   UNL A   1      38.211  30.108  29.245  1.00  0.00     0.173 A 
ATOM     77  F   UNL A   1      40.058  28.771  32.072  1.00  0.00    -0.203 F 
ATOM     78  C   UNL A   1      37.848  29.572  31.943  1.00  0.00     0.198 A 
ATOM     79  C   UNL A   1      36.992  30.395  29.859  1.00  0.00     0.198 A 
ATOM     80  F   UNL A   1      38.343  30.354  27.934  1.00  0.00    -0.203 F 
ATOM     81  F   UNL A   1      37.661  29.256  33.231  1.00  0.00    -0.200 F 
ATOM     82  C   UNL A   1      36.806  30.111  31.204  1.00  0.00     0.200 A 
ATOM     83  F   UNL A   1      35.993  30.926  29.144  1.00  0.00    -0.200 F 
ATOM     84  F   UNL A   1      35.619  30.340  31.782  1.00  0.00    -0.200 F 
ENDBRANCH  50  74
BRANCH  62  85
ATOM     85  C   UNL A   1      45.257  32.963  28.818  1.00  0.00     0.064 A 
ATOM     86  C   UNL A   1      45.801  33.353  30.050  1.00  0.00     0.173 A 
ATOM     87  C   UNL A   1      45.189  33.924  27.797  1.00  0.00     0.173 A 
ATOM     88  F   UNL A   1      45.880  32.476  31.062  1.00  0.00    -0.203 F 
ATOM     89  C   UNL A   1      46.234  34.660  30.259  1.00  0.00     0.198 A 
ATOM     90  C   UNL A   1      45.657  35.219  27.997  1.00  0.00     0.198 A 
ATOM     91  F   UNL A   1      44.689  33.600  26.595  1.00  0.00    -0.203 F 
ATOM     92  F   UNL A   1      46.706  35.024  31.459  1.00  0.00    -0.200 F 
ATOM     93  C   UNL A   1      46.172  35.589  29.230  1.00  0.00     0.200 A 
ATOM     94  F   UNL A   1      45.615  36.108  26.994  1.00  0.00    -0.200 F 
ATOM     95  F   UNL A   1      46.605  36.841  29.428  1.00  0.00    -0.200 F 
ENDBRANCH  62  85
ENDBRANCH  36  37
ENDBRANCH  29  31
ENDBRANCH  28  29
ENDBRANCH  27  28
ENDBRANCH  26  27
ENDBRANCH  25  26
ENDBRANCH  24  25
ENDBRANCH  23  24
ENDBRANCH  22  23
ENDBRANCH   1  22
TORSDOF 23
ENDMDL
