MODEL 1
REMARK VINA RESULT:     -10.4      0.000      0.000
REMARK SMILES Cc1cc(C)n(-c2ccccc2NS(=O)(=O)c2cc(C)c(C(=O)OCCOCCOCCOCCOC(=O)c3ccc(-c4c5nc(c(-c6c(F)c(F)c(F)c(F)c6F)c6ccc([nH]6)c(-c6c(F)c(F)c(F)c(F)c6F)c6nc(c(-c7c(F)c(F)c(F)c(F)c7F)c7ccc4[nH]7)C=C6)C=C5)cc3)s2)n1
REMARK SMILES IDX 29 1 28 2 27 3 26 4 25 5 24 6 22 7 23 8 21 9 17 10 18 11
REMARK SMILES IDX 102 12 19 13 20 14 14 15 15 16 16 17 13 18 12 20 7 21 8 22
REMARK SMILES IDX 9 23 11 24 10 25 6 26 1 27 2 28 3 29 103 30 4 31 5 32 30 33
REMARK SMILES IDX 31 34 32 35 33 36 34 37 35 38 36 39 37 40 38 41 39 42 40 43
REMARK SMILES IDX 101 44 41 45 100 46 42 47 43 48 44 49 94 50 45 51 99 52
REMARK SMILES IDX 93 53 95 54 46 55 98 56 92 57 91 58 47 60 79 61 59 62 78 63
REMARK SMILES IDX 60 64 63 65 77 66 96 67 61 68 62 69 76 71 97 72 64 73 48 74
REMARK SMILES IDX 49 75 57 76 50 77 51 78 55 79 58 80 52 81 53 82 56 83 54 84
REMARK SMILES IDX 80 85 81 86 89 87 82 88 83 89 87 90 90 91 84 92 85 93 88 94
REMARK SMILES IDX 86 95 65 96 66 97 74 98 67 99 68 100 72 101 75 102 69 103
REMARK SMILES IDX 70 104 73 105 71 106
REMARK H PARENT 13 19 95 59 63 70
REMARK Flexibility Score: inf
ROOT
ATOM      1  C   UNL A   1      35.820  29.726  27.624  1.00  0.00     0.188 C 
ENDROOT
BRANCH   1   2
ATOM      2  C   UNL A   1      34.321  29.381  27.431  1.00  0.00     0.188 C 
BRANCH   2   3
ATOM      3  O   UNL A   1      33.479  30.511  27.351  1.00  0.00    -0.376 OA
BRANCH   3   4
ATOM      4  C   UNL A   1      32.390  30.536  26.462  1.00  0.00     0.202 C 
BRANCH   4   5
ATOM      5  C   UNL A   1      31.868  29.210  25.898  1.00  0.00     0.261 C 
BRANCH   5   6
ATOM      6  O   UNL A   1      31.916  29.072  24.477  1.00  0.00    -0.459 OA
BRANCH   6   7
ATOM      7  C   UNL A   1      30.803  28.640  23.834  1.00  0.00     0.348 C 
ATOM      8  O   UNL A   1      29.866  29.363  23.489  1.00  0.00    -0.245 OA
BRANCH   7   9
ATOM      9  C   UNL A   1      31.010  27.265  23.435  1.00  0.00     0.116 A 
ATOM     10  C   UNL A   1      32.047  25.210  22.580  1.00  0.00     0.141 A 
ATOM     11  C   UNL A   1      30.700  25.035  22.841  1.00  0.00     0.038 A 
ATOM     12  S   UNL A   1      32.482  26.854  22.663  1.00  0.00    -0.115 S 
ATOM     13  C   UNL A   1      30.148  26.175  23.526  1.00  0.00    -0.024 A 
ATOM     14  C   UNL A   1      28.812  26.146  24.198  1.00  0.00     0.046 C 
BRANCH  10  15
ATOM     15  S   UNL A   1      33.371  24.052  22.347  1.00  0.00     0.271 S 
ATOM     16  O   UNL A   1      34.572  24.674  22.860  1.00  0.00    -0.200 OA
ATOM     17  O   UNL A   1      33.263  23.653  20.959  1.00  0.00    -0.200 OA
BRANCH  15  18
ATOM     18  N   UNL A   1      33.087  22.687  23.269  1.00  0.00    -0.277 N 
ATOM     19  H   UNL A   1      32.274  22.179  23.044  1.00  0.00     0.180 HD
BRANCH  18  20
ATOM     20  C   UNL A   1      33.881  22.157  24.353  1.00  0.00     0.075 A 
ATOM     21  C   UNL A   1      33.886  22.902  25.549  1.00  0.00     0.089 A 
ATOM     22  C   UNL A   1      34.939  22.782  26.470  1.00  0.00     0.030 A 
ATOM     23  C   UNL A   1      35.986  21.900  26.217  1.00  0.00     0.002 A 
ATOM     24  C   UNL A   1      34.857  21.174  24.209  1.00  0.00     0.029 A 
ATOM     25  C   UNL A   1      35.926  21.072  25.104  1.00  0.00     0.002 A 
BRANCH  21  26
ATOM     26  N   UNL A   1      32.756  23.696  25.868  1.00  0.00    -0.236 N 
ATOM     27  C   UNL A   1      29.386  23.592  26.982  1.00  0.00     0.069 C 
ATOM     28  C   UNL A   1      30.754  23.977  26.555  1.00  0.00     0.060 A 
ATOM     29  C   UNL A   1      31.402  25.219  26.702  1.00  0.00     0.048 A 
ATOM     30  N   UNL A   1      31.535  23.096  25.925  1.00  0.00    -0.173 NA
ATOM     31  C   UNL A   1      32.672  25.036  26.192  1.00  0.00     0.041 A 
ATOM     32  C   UNL A   1      33.740  26.028  25.920  1.00  0.00     0.067 C 
ENDBRANCH  21  26
ENDBRANCH  18  20
ENDBRANCH  15  18
ENDBRANCH  10  15
ENDBRANCH   7   9
ENDBRANCH   6   7
ENDBRANCH   5   6
ENDBRANCH   4   5
ENDBRANCH   3   4
ENDBRANCH   2   3
ENDBRANCH   1   2
BRANCH   1  33
ATOM     33  O   UNL A   1      36.282  31.042  27.906  1.00  0.00    -0.377 OA
BRANCH  33  34
ATOM     34  C   UNL A   1      36.066  31.617  29.184  1.00  0.00     0.188 C 
BRANCH  34  35
ATOM     35  C   UNL A   1      35.195  32.892  29.304  1.00  0.00     0.188 C 
BRANCH  35  36
ATOM     36  O   UNL A   1      34.298  32.921  30.400  1.00  0.00    -0.376 OA
BRANCH  36  37
ATOM     37  C   UNL A   1      34.551  33.603  31.610  1.00  0.00     0.202 C 
BRANCH  37  38
ATOM     38  C   UNL A   1      35.061  32.885  32.853  1.00  0.00     0.261 C 
BRANCH  38  39
ATOM     39  O   UNL A   1      35.612  31.610  32.621  1.00  0.00    -0.460 OA
BRANCH  39  40
ATOM     40  C   UNL A   1      36.810  31.417  33.190  1.00  0.00     0.338 C 
ATOM     41  O   UNL A   1      37.205  31.836  34.269  1.00  0.00    -0.246 OA
BRANCH  40  42
ATOM     42  C   UNL A   1      37.649  30.723  32.222  1.00  0.00     0.060 A 
ATOM     43  C   UNL A   1      37.475  29.345  32.119  1.00  0.00     0.016 A 
ATOM     44  C   UNL A   1      38.794  31.386  31.754  1.00  0.00     0.016 A 
ATOM     45  C   UNL A   1      38.572  28.596  31.772  1.00  0.00     0.010 A 
ATOM     46  C   UNL A   1      39.891  30.637  31.430  1.00  0.00     0.010 A 
ATOM     47  C   UNL A   1      39.787  29.256  31.541  1.00  0.00    -0.014 A 
BRANCH  47  48
ATOM     48  C   UNL A   1      40.957  28.445  31.318  1.00  0.00     0.031 A 
ATOM     49  C   UNL A   1      41.714  28.218  32.564  1.00  0.00     0.074 A 
ATOM     50  C   UNL A   1      41.249  27.916  30.117  1.00  0.00     0.049 A 
ATOM     51  N   UNL A   1      42.891  28.658  32.852  1.00  0.00    -0.248 NA
ATOM     52  C   UNL A   1      41.004  27.589  33.691  1.00  0.00     0.031 C 
ATOM     53  C   UNL A   1      40.427  27.883  28.905  1.00  0.00     0.029 A 
ATOM     54  N   UNL A   1      42.350  27.206  29.755  1.00  0.00    -0.354 N 
ATOM     55  C   UNL A   1      43.155  28.185  34.130  1.00  0.00     0.074 A 
ATOM     56  C   UNL A   1      41.907  27.704  34.664  1.00  0.00     0.031 C 
ATOM     57  C   UNL A   1      40.961  27.003  28.026  1.00  0.00     0.029 A 
ATOM     58  C   UNL A   1      42.225  26.517  28.555  1.00  0.00     0.049 A 
ATOM     59  H   UNL A   1      43.170  27.183  30.298  1.00  0.00     0.167 HD
ATOM     60  C   UNL A   1      44.433  27.966  34.529  1.00  0.00     0.037 A 
ATOM     61  C   UNL A   1      43.082  25.572  28.092  1.00  0.00     0.037 A 
ATOM     62  C   UNL A   1      45.367  28.724  33.735  1.00  0.00     0.049 A 
ATOM     63  C   UNL A   1      44.365  25.741  28.823  1.00  0.00     0.074 A 
ATOM     64  C   UNL A   1      45.558  30.072  33.499  1.00  0.00     0.029 A 
ATOM     65  N   UNL A   1      46.031  28.073  32.726  1.00  0.00    -0.354 N 
ATOM     66  N   UNL A   1      45.162  26.758  28.656  1.00  0.00    -0.248 NA
ATOM     67  C   UNL A   1      44.530  25.014  30.073  1.00  0.00     0.031 C 
ATOM     68  C   UNL A   1      45.915  30.163  32.121  1.00  0.00     0.029 A 
ATOM     69  C   UNL A   1      45.986  28.868  31.609  1.00  0.00     0.049 A 
ATOM     70  H   UNL A   1      46.462  27.190  32.792  1.00  0.00     0.167 HD
ATOM     71  C   UNL A   1      45.604  27.068  29.934  1.00  0.00     0.074 A 
ATOM     72  C   UNL A   1      45.254  25.909  30.751  1.00  0.00     0.031 C 
ATOM     73  C   UNL A   1      45.944  28.350  30.262  1.00  0.00     0.037 A 
BRANCH  60  74
ATOM     74  C   UNL A   1      44.826  26.768  35.348  1.00  0.00     0.064 A 
ATOM     75  C   UNL A   1      44.486  25.482  34.892  1.00  0.00     0.173 A 
ATOM     76  C   UNL A   1      45.263  26.846  36.692  1.00  0.00     0.173 A 
ATOM     77  F   UNL A   1      44.020  25.302  33.648  1.00  0.00    -0.203 F 
ATOM     78  C   UNL A   1      44.530  24.370  35.737  1.00  0.00     0.198 A 
ATOM     79  C   UNL A   1      45.362  25.726  37.511  1.00  0.00     0.198 A 
ATOM     80  F   UNL A   1      45.496  28.014  37.302  1.00  0.00    -0.203 F 
ATOM     81  F   UNL A   1      44.080  23.186  35.299  1.00  0.00    -0.200 F 
ATOM     82  C   UNL A   1      44.967  24.493  37.044  1.00  0.00     0.200 A 
ATOM     83  F   UNL A   1      45.761  25.875  38.782  1.00  0.00    -0.200 F 
ATOM     84  F   UNL A   1      44.957  23.438  37.869  1.00  0.00    -0.200 F 
ENDBRANCH  60  74
BRANCH  61  85
ATOM     85  C   UNL A   1      42.790  24.342  27.318  1.00  0.00     0.064 A 
ATOM     86  C   UNL A   1      43.162  24.238  25.967  1.00  0.00     0.173 A 
ATOM     87  C   UNL A   1      42.427  23.143  27.961  1.00  0.00     0.173 A 
ATOM     88  F   UNL A   1      43.562  25.326  25.293  1.00  0.00    -0.203 F 
ATOM     89  C   UNL A   1      43.208  23.004  25.309  1.00  0.00     0.198 A 
ATOM     90  C   UNL A   1      42.467  21.912  27.301  1.00  0.00     0.198 A 
ATOM     91  F   UNL A   1      42.125  23.125  29.266  1.00  0.00    -0.203 F 
ATOM     92  F   UNL A   1      43.638  22.937  24.041  1.00  0.00    -0.200 F 
ATOM     93  C   UNL A   1      42.873  21.840  25.982  1.00  0.00     0.200 A 
ATOM     94  F   UNL A   1      42.176  20.789  27.972  1.00  0.00    -0.200 F 
ATOM     95  F   UNL A   1      42.984  20.652  25.374  1.00  0.00    -0.200 F 
ENDBRANCH  61  85
BRANCH  73  96
ATOM     96  C   UNL A   1      46.079  29.336  29.132  1.00  0.00     0.064 A 
ATOM     97  C   UNL A   1      47.258  29.541  28.391  1.00  0.00     0.173 A 
ATOM     98  C   UNL A   1      44.936  30.036  28.722  1.00  0.00     0.173 A 
ATOM     99  F   UNL A   1      48.366  28.835  28.646  1.00  0.00    -0.203 F 
ATOM    100  C   UNL A   1      47.302  30.452  27.335  1.00  0.00     0.198 A 
ATOM    101  C   UNL A   1      44.973  30.913  27.642  1.00  0.00     0.198 A 
ATOM    102  F   UNL A   1      43.768  29.842  29.353  1.00  0.00    -0.203 F 
ATOM    103  F   UNL A   1      48.447  30.650  26.665  1.00  0.00    -0.200 F 
ATOM    104  C   UNL A   1      46.157  31.134  26.960  1.00  0.00     0.200 A 
ATOM    105  F   UNL A   1      43.851  31.533  27.251  1.00  0.00    -0.200 F 
ATOM    106  F   UNL A   1      46.190  31.986  25.926  1.00  0.00    -0.200 F 
ENDBRANCH  73  96
ENDBRANCH  47  48
ENDBRANCH  40  42
ENDBRANCH  39  40
ENDBRANCH  38  39
ENDBRANCH  37  38
ENDBRANCH  36  37
ENDBRANCH  35  36
ENDBRANCH  34  35
ENDBRANCH  33  34
ENDBRANCH   1  33
TORSDOF 24
ENDMDL
MODEL 2
REMARK VINA RESULT:      -9.8      4.918      9.190
REMARK SMILES Cc1cc(C)n(-c2ccccc2NS(=O)(=O)c2cc(C)c(C(=O)OCCOCCOCCOCCOC(=O)c3ccc(-c4c5nc(c(-c6c(F)c(F)c(F)c(F)c6F)c6ccc([nH]6)c(-c6c(F)c(F)c(F)c(F)c6F)c6nc(c(-c7c(F)c(F)c(F)c(F)c7F)c7ccc4[nH]7)C=C6)C=C5)cc3)s2)n1
REMARK SMILES IDX 29 1 28 2 27 3 26 4 25 5 24 6 22 7 23 8 21 9 17 10 18 11
REMARK SMILES IDX 102 12 19 13 20 14 14 15 15 16 16 17 13 18 12 20 7 21 8 22
REMARK SMILES IDX 9 23 11 24 10 25 6 26 1 27 2 28 3 29 103 30 4 31 5 32 30 33
REMARK SMILES IDX 31 34 32 35 33 36 34 37 35 38 36 39 37 40 38 41 39 42 40 43
REMARK SMILES IDX 101 44 41 45 100 46 42 47 43 48 44 49 94 50 45 51 99 52
REMARK SMILES IDX 93 53 95 54 46 55 98 56 92 57 91 58 47 60 79 61 59 62 78 63
REMARK SMILES IDX 60 64 63 65 77 66 96 67 61 68 62 69 76 71 97 72 64 73 48 74
REMARK SMILES IDX 49 75 57 76 50 77 51 78 55 79 58 80 52 81 53 82 56 83 54 84
REMARK SMILES IDX 80 85 81 86 89 87 82 88 83 89 87 90 90 91 84 92 85 93 88 94
REMARK SMILES IDX 86 95 65 96 66 97 74 98 67 99 68 100 72 101 75 102 69 103
REMARK SMILES IDX 70 104 73 105 71 106
REMARK H PARENT 13 19 95 59 63 70
REMARK Flexibility Score: inf
ROOT
ATOM      1  C   UNL A   1      33.835  36.305  33.212  1.00  0.00     0.188 C 
ENDROOT
BRANCH   1   2
ATOM      2  C   UNL A   1      34.147  34.806  33.462  1.00  0.00     0.188 C 
BRANCH   2   3
ATOM      3  O   UNL A   1      34.535  34.101  32.303  1.00  0.00    -0.376 OA
BRANCH   3   4
ATOM      4  C   UNL A   1      34.682  32.703  32.327  1.00  0.00     0.202 C 
BRANCH   4   5
ATOM      5  C   UNL A   1      35.996  32.108  32.846  1.00  0.00     0.261 C 
BRANCH   5   6
ATOM      6  O   UNL A   1      37.168  32.426  32.093  1.00  0.00    -0.459 OA
BRANCH   6   7
ATOM      7  C   UNL A   1      37.845  33.559  32.403  1.00  0.00     0.348 C 
ATOM      8  O   UNL A   1      37.448  34.702  32.164  1.00  0.00    -0.245 OA
BRANCH   7   9
ATOM      9  C   UNL A   1      38.968  33.206  33.243  1.00  0.00     0.116 A 
ATOM     10  C   UNL A   1      40.325  32.584  35.192  1.00  0.00     0.141 A 
ATOM     11  C   UNL A   1      41.110  32.858  34.087  1.00  0.00     0.038 A 
ATOM     12  S   UNL A   1      38.706  33.040  34.927  1.00  0.00    -0.115 S 
ATOM     13  C   UNL A   1      40.307  33.024  32.903  1.00  0.00    -0.024 A 
ATOM     14  C   UNL A   1      40.888  33.024  31.525  1.00  0.00     0.046 C 
BRANCH  10  15
ATOM     15  S   UNL A   1      40.667  31.727  36.709  1.00  0.00     0.271 S 
ATOM     16  O   UNL A   1      42.047  31.999  37.046  1.00  0.00    -0.200 OA
ATOM     17  O   UNL A   1      40.200  30.377  36.474  1.00  0.00    -0.200 OA
BRANCH  15  18
ATOM     18  N   UNL A   1      39.724  32.364  37.933  1.00  0.00    -0.277 N 
ATOM     19  H   UNL A   1      38.978  31.798  38.238  1.00  0.00     0.180 HD
BRANCH  18  20
ATOM     20  C   UNL A   1      39.862  33.638  38.600  1.00  0.00     0.075 A 
ATOM     21  C   UNL A   1      39.083  33.826  39.758  1.00  0.00     0.089 A 
ATOM     22  C   UNL A   1      38.758  35.117  40.207  1.00  0.00     0.030 A 
ATOM     23  C   UNL A   1      39.228  36.231  39.518  1.00  0.00     0.002 A 
ATOM     24  C   UNL A   1      40.444  34.768  38.030  1.00  0.00     0.029 A 
ATOM     25  C   UNL A   1      40.098  36.056  38.451  1.00  0.00     0.002 A 
BRANCH  21  26
ATOM     26  N   UNL A   1      38.720  32.697  40.533  1.00  0.00    -0.236 N 
ATOM     27  C   UNL A   1      39.845  30.436  43.029  1.00  0.00     0.069 C 
ATOM     28  C   UNL A   1      39.073  31.219  42.033  1.00  0.00     0.060 A 
ATOM     29  C   UNL A   1      37.677  31.280  41.858  1.00  0.00     0.048 A 
ATOM     30  N   UNL A   1      39.707  31.977  41.135  1.00  0.00    -0.173 NA
ATOM     31  C   UNL A   1      37.472  32.191  40.840  1.00  0.00     0.041 A 
ATOM     32  C   UNL A   1      36.230  32.535  40.106  1.00  0.00     0.067 C 
ENDBRANCH  21  26
ENDBRANCH  18  20
ENDBRANCH  15  18
ENDBRANCH  10  15
ENDBRANCH   7   9
ENDBRANCH   6   7
ENDBRANCH   5   6
ENDBRANCH   4   5
ENDBRANCH   3   4
ENDBRANCH   2   3
ENDBRANCH   1   2
BRANCH   1  33
ATOM     33  O   UNL A   1      34.120  36.959  31.981  1.00  0.00    -0.377 OA
BRANCH  33  34
ATOM     34  C   UNL A   1      33.149  36.995  30.948  1.00  0.00     0.188 C 
BRANCH  34  35
ATOM     35  C   UNL A   1      32.886  35.719  30.110  1.00  0.00     0.188 C 
BRANCH  35  36
ATOM     36  O   UNL A   1      33.308  35.775  28.759  1.00  0.00    -0.376 OA
BRANCH  36  37
ATOM     37  C   UNL A   1      33.924  34.702  28.079  1.00  0.00     0.202 C 
BRANCH  37  38
ATOM     38  C   UNL A   1      34.581  33.544  28.820  1.00  0.00     0.261 C 
BRANCH  38  39
ATOM     39  O   UNL A   1      35.667  32.946  28.152  1.00  0.00    -0.460 OA
BRANCH  39  40
ATOM     40  C   UNL A   1      35.582  31.613  28.048  1.00  0.00     0.338 C 
ATOM     41  O   UNL A   1      34.734  30.959  27.457  1.00  0.00    -0.246 OA
BRANCH  40  42
ATOM     42  C   UNL A   1      36.617  31.040  28.897  1.00  0.00     0.060 A 
ATOM     43  C   UNL A   1      37.740  31.829  29.134  1.00  0.00     0.016 A 
ATOM     44  C   UNL A   1      36.602  29.650  29.101  1.00  0.00     0.016 A 
ATOM     45  C   UNL A   1      38.933  31.181  29.333  1.00  0.00     0.010 A 
ATOM     46  C   UNL A   1      37.795  29.007  29.276  1.00  0.00     0.010 A 
ATOM     47  C   UNL A   1      38.951  29.780  29.291  1.00  0.00    -0.014 A 
BRANCH  47  48
ATOM     48  C   UNL A   1      40.231  29.124  29.359  1.00  0.00     0.031 A 
ATOM     49  C   UNL A   1      40.682  28.941  30.752  1.00  0.00     0.074 A 
ATOM     50  C   UNL A   1      40.873  28.679  28.263  1.00  0.00     0.049 A 
ATOM     51  N   UNL A   1      41.688  29.506  31.326  1.00  0.00    -0.248 NA
ATOM     52  C   UNL A   1      39.802  28.189  31.663  1.00  0.00     0.031 C 
ATOM     53  C   UNL A   1      40.383  28.596  26.885  1.00  0.00     0.029 A 
ATOM     54  N   UNL A   1      42.108  28.120  28.180  1.00  0.00    -0.354 N 
ATOM     55  C   UNL A   1      41.688  29.020  32.626  1.00  0.00     0.074 A 
ATOM     56  C   UNL A   1      40.418  28.373  32.830  1.00  0.00     0.031 C 
ATOM     57  C   UNL A   1      41.222  27.819  26.159  1.00  0.00     0.029 A 
ATOM     58  C   UNL A   1      42.368  27.467  26.982  1.00  0.00     0.049 A 
ATOM     59  H   UNL A   1      42.767  28.174  28.909  1.00  0.00     0.167 HD
ATOM     60  C   UNL A   1      42.846  28.940  33.327  1.00  0.00     0.037 A 
ATOM     61  C   UNL A   1      43.424  26.650  26.738  1.00  0.00     0.037 A 
ATOM     62  C   UNL A   1      43.844  29.834  32.795  1.00  0.00     0.049 A 
ATOM     63  C   UNL A   1      44.457  26.943  27.765  1.00  0.00     0.074 A 
ATOM     64  C   UNL A   1      43.917  31.203  32.624  1.00  0.00     0.029 A 
ATOM     65  N   UNL A   1      44.811  29.305  31.977  1.00  0.00    -0.354 N 
ATOM     66  N   UNL A   1      45.137  28.053  27.809  1.00  0.00    -0.248 NA
ATOM     67  C   UNL A   1      44.401  26.193  29.011  1.00  0.00     0.031 C 
ATOM     68  C   UNL A   1      44.587  31.389  31.378  1.00  0.00     0.029 A 
ATOM     69  C   UNL A   1      44.942  30.132  30.890  1.00  0.00     0.049 A 
ATOM     70  H   UNL A   1      45.320  28.478  32.141  1.00  0.00     0.167 HD
ATOM     71  C   UNL A   1      45.211  28.364  29.159  1.00  0.00     0.074 A 
ATOM     72  C   UNL A   1      44.819  27.142  29.855  1.00  0.00     0.031 C 
ATOM     73  C   UNL A   1      45.296  29.664  29.571  1.00  0.00     0.037 A 
BRANCH  60  74
ATOM     74  C   UNL A   1      43.174  27.766  34.209  1.00  0.00     0.064 A 
ATOM     75  C   UNL A   1      43.337  26.496  33.630  1.00  0.00     0.173 A 
ATOM     76  C   UNL A   1      43.048  27.785  35.618  1.00  0.00     0.173 A 
ATOM     77  F   UNL A   1      43.423  26.360  32.298  1.00  0.00    -0.203 F 
ATOM     78  C   UNL A   1      43.321  25.331  34.401  1.00  0.00     0.198 A 
ATOM     79  C   UNL A   1      43.093  26.628  36.388  1.00  0.00     0.198 A 
ATOM     80  F   UNL A   1      42.759  28.903  36.296  1.00  0.00    -0.203 F 
ATOM     81  F   UNL A   1      43.355  24.135  33.798  1.00  0.00    -0.200 F 
ATOM     82  C   UNL A   1      43.199  25.398  35.778  1.00  0.00     0.200 A 
ATOM     83  F   UNL A   1      42.944  26.716  37.717  1.00  0.00    -0.200 F 
ATOM     84  F   UNL A   1      43.128  24.280  36.512  1.00  0.00    -0.200 F 
ENDBRANCH  60  74
BRANCH  61  85
ATOM     85  C   UNL A   1      43.487  25.424  25.907  1.00  0.00     0.064 A 
ATOM     86  C   UNL A   1      44.632  25.128  25.149  1.00  0.00     0.173 A 
ATOM     87  C   UNL A   1      42.562  24.376  26.078  1.00  0.00     0.173 A 
ATOM     88  F   UNL A   1      45.583  26.059  24.973  1.00  0.00    -0.203 F 
ATOM     89  C   UNL A   1      44.861  23.850  24.629  1.00  0.00     0.198 A 
ATOM     90  C   UNL A   1      42.788  23.101  25.554  1.00  0.00     0.198 A 
ATOM     91  F   UNL A   1      41.473  24.537  26.842  1.00  0.00    -0.203 F 
ATOM     92  F   UNL A   1      46.001  23.587  23.975  1.00  0.00    -0.200 F 
ATOM     93  C   UNL A   1      43.945  22.834  24.844  1.00  0.00     0.200 A 
ATOM     94  F   UNL A   1      41.912  22.118  25.799  1.00  0.00    -0.200 F 
ATOM     95  F   UNL A   1      44.195  21.592  24.408  1.00  0.00    -0.200 F 
ENDBRANCH  61  85
BRANCH  73  96
ATOM     96  C   UNL A   1      45.579  30.702  28.517  1.00  0.00     0.064 A 
ATOM     97  C   UNL A   1      46.867  31.038  28.056  1.00  0.00     0.173 A 
ATOM     98  C   UNL A   1      44.492  31.315  27.881  1.00  0.00     0.173 A 
ATOM     99  F   UNL A   1      47.954  30.421  28.534  1.00  0.00    -0.203 F 
ATOM    100  C   UNL A   1      47.052  31.989  27.053  1.00  0.00     0.198 A 
ATOM    101  C   UNL A   1      44.680  32.234  26.852  1.00  0.00     0.198 A 
ATOM    102  F   UNL A   1      43.238  30.996  28.236  1.00  0.00    -0.203 F 
ATOM    103  F   UNL A   1      48.291  32.313  26.654  1.00  0.00    -0.200 F 
ATOM    104  C   UNL A   1      45.958  32.584  26.450  1.00  0.00     0.200 A 
ATOM    105  F   UNL A   1      43.615  32.769  26.237  1.00  0.00    -0.200 F 
ATOM    106  F   UNL A   1      46.133  33.476  25.465  1.00  0.00    -0.200 F 
ENDBRANCH  73  96
ENDBRANCH  47  48
ENDBRANCH  40  42
ENDBRANCH  39  40
ENDBRANCH  38  39
ENDBRANCH  37  38
ENDBRANCH  36  37
ENDBRANCH  35  36
ENDBRANCH  34  35
ENDBRANCH  33  34
ENDBRANCH   1  33
TORSDOF 24
ENDMDL
MODEL 3
REMARK VINA RESULT:      -9.6      1.365      2.374
REMARK SMILES Cc1cc(C)n(-c2ccccc2NS(=O)(=O)c2cc(C)c(C(=O)OCCOCCOCCOCCOC(=O)c3ccc(-c4c5nc(c(-c6c(F)c(F)c(F)c(F)c6F)c6ccc([nH]6)c(-c6c(F)c(F)c(F)c(F)c6F)c6nc(c(-c7c(F)c(F)c(F)c(F)c7F)c7ccc4[nH]7)C=C6)C=C5)cc3)s2)n1
REMARK SMILES IDX 29 1 28 2 27 3 26 4 25 5 24 6 22 7 23 8 21 9 17 10 18 11
REMARK SMILES IDX 102 12 19 13 20 14 14 15 15 16 16 17 13 18 12 20 7 21 8 22
REMARK SMILES IDX 9 23 11 24 10 25 6 26 1 27 2 28 3 29 103 30 4 31 5 32 30 33
REMARK SMILES IDX 31 34 32 35 33 36 34 37 35 38 36 39 37 40 38 41 39 42 40 43
REMARK SMILES IDX 101 44 41 45 100 46 42 47 43 48 44 49 94 50 45 51 99 52
REMARK SMILES IDX 93 53 95 54 46 55 98 56 92 57 91 58 47 60 79 61 59 62 78 63
REMARK SMILES IDX 60 64 63 65 77 66 96 67 61 68 62 69 76 71 97 72 64 73 48 74
REMARK SMILES IDX 49 75 57 76 50 77 51 78 55 79 58 80 52 81 53 82 56 83 54 84
REMARK SMILES IDX 80 85 81 86 89 87 82 88 83 89 87 90 90 91 84 92 85 93 88 94
REMARK SMILES IDX 86 95 65 96 66 97 74 98 67 99 68 100 72 101 75 102 69 103
REMARK SMILES IDX 70 104 73 105 71 106
REMARK H PARENT 13 19 95 59 63 70
REMARK Flexibility Score: inf
ROOT
ATOM      1  C   UNL A   1      35.592  30.076  28.057  1.00  0.00     0.188 C 
ENDROOT
BRANCH   1   2
ATOM      2  C   UNL A   1      34.537  29.202  27.331  1.00  0.00     0.188 C 
BRANCH   2   3
ATOM      3  O   UNL A   1      33.207  29.632  27.523  1.00  0.00    -0.376 OA
BRANCH   3   4
ATOM      4  C   UNL A   1      32.290  29.633  26.458  1.00  0.00     0.202 C 
BRANCH   4   5
ATOM      5  C   UNL A   1      32.539  28.699  25.269  1.00  0.00     0.261 C 
BRANCH   5   6
ATOM      6  O   UNL A   1      32.647  29.329  23.990  1.00  0.00    -0.459 OA
BRANCH   6   7
ATOM      7  C   UNL A   1      31.932  28.817  22.958  1.00  0.00     0.348 C 
ATOM      8  O   UNL A   1      31.778  29.371  21.867  1.00  0.00    -0.245 OA
BRANCH   7   9
ATOM      9  C   UNL A   1      31.586  27.449  23.276  1.00  0.00     0.116 A 
ATOM     10  C   UNL A   1      31.756  25.054  23.792  1.00  0.00     0.141 A 
ATOM     11  C   UNL A   1      30.444  25.446  23.603  1.00  0.00     0.038 A 
ATOM     12  S   UNL A   1      32.840  26.284  23.328  1.00  0.00    -0.115 S 
ATOM     13  C   UNL A   1      30.335  26.878  23.501  1.00  0.00    -0.024 A 
ATOM     14  C   UNL A   1      29.028  27.600  23.598  1.00  0.00     0.046 C 
BRANCH  10  15
ATOM     15  S   UNL A   1      32.469  23.619  24.555  1.00  0.00     0.271 S 
ATOM     16  O   UNL A   1      31.389  22.687  24.794  1.00  0.00    -0.200 OA
ATOM     17  O   UNL A   1      33.265  24.145  25.644  1.00  0.00    -0.200 OA
BRANCH  15  18
ATOM     18  N   UNL A   1      33.527  22.888  23.487  1.00  0.00    -0.277 N 
ATOM     19  H   UNL A   1      33.171  22.707  22.587  1.00  0.00     0.180 HD
BRANCH  18  20
ATOM     20  C   UNL A   1      34.896  22.488  23.715  1.00  0.00     0.075 A 
ATOM     21  C   UNL A   1      35.107  21.508  24.703  1.00  0.00     0.089 A 
ATOM     22  C   UNL A   1      36.351  21.384  25.344  1.00  0.00     0.030 A 
ATOM     23  C   UNL A   1      37.403  22.222  24.986  1.00  0.00     0.002 A 
ATOM     24  C   UNL A   1      36.009  23.199  23.272  1.00  0.00     0.029 A 
ATOM     25  C   UNL A   1      37.241  23.105  23.927  1.00  0.00     0.002 A 
BRANCH  21  26
ATOM     26  N   UNL A   1      34.080  20.569  24.970  1.00  0.00    -0.236 N 
ATOM     27  C   UNL A   1      32.505  17.612  23.793  1.00  0.00     0.069 C 
ATOM     28  C   UNL A   1      32.962  18.796  24.561  1.00  0.00     0.060 A 
ATOM     29  C   UNL A   1      32.748  19.095  25.921  1.00  0.00     0.048 A 
ATOM     30  N   UNL A   1      33.655  19.763  23.957  1.00  0.00    -0.173 NA
ATOM     31  C   UNL A   1      33.423  20.278  26.150  1.00  0.00     0.041 A 
ATOM     32  C   UNL A   1      33.416  21.163  27.340  1.00  0.00     0.067 C 
ENDBRANCH  21  26
ENDBRANCH  18  20
ENDBRANCH  15  18
ENDBRANCH  10  15
ENDBRANCH   7   9
ENDBRANCH   6   7
ENDBRANCH   5   6
ENDBRANCH   4   5
ENDBRANCH   3   4
ENDBRANCH   2   3
ENDBRANCH   1   2
BRANCH   1  33
ATOM     33  O   UNL A   1      35.451  31.482  28.223  1.00  0.00    -0.377 OA
BRANCH  33  34
ATOM     34  C   UNL A   1      35.138  32.024  29.495  1.00  0.00     0.188 C 
BRANCH  34  35
ATOM     35  C   UNL A   1      34.776  33.526  29.611  1.00  0.00     0.188 C 
BRANCH  35  36
ATOM     36  O   UNL A   1      34.086  33.901  30.790  1.00  0.00    -0.376 OA
BRANCH  36  37
ATOM     37  C   UNL A   1      34.699  34.523  31.900  1.00  0.00     0.202 C 
BRANCH  37  38
ATOM     38  C   UNL A   1      35.247  33.723  33.075  1.00  0.00     0.261 C 
BRANCH  38  39
ATOM     39  O   UNL A   1      35.523  32.371  32.800  1.00  0.00    -0.460 OA
BRANCH  39  40
ATOM     40  C   UNL A   1      36.631  31.904  33.391  1.00  0.00     0.338 C 
ATOM     41  O   UNL A   1      36.996  32.079  34.545  1.00  0.00    -0.246 OA
BRANCH  40  42
ATOM     42  C   UNL A   1      37.433  31.249  32.367  1.00  0.00     0.060 A 
ATOM     43  C   UNL A   1      37.179  29.897  32.143  1.00  0.00     0.016 A 
ATOM     44  C   UNL A   1      38.619  31.881  31.959  1.00  0.00     0.016 A 
ATOM     45  C   UNL A   1      38.231  29.118  31.733  1.00  0.00     0.010 A 
ATOM     46  C   UNL A   1      39.671  31.099  31.572  1.00  0.00     0.010 A 
ATOM     47  C   UNL A   1      39.485  29.722  31.561  1.00  0.00    -0.014 A 
BRANCH  47  48
ATOM     48  C   UNL A   1      40.606  28.866  31.269  1.00  0.00     0.031 A 
ATOM     49  C   UNL A   1      41.397  28.564  32.478  1.00  0.00     0.074 A 
ATOM     50  C   UNL A   1      40.828  28.362  30.042  1.00  0.00     0.049 A 
ATOM     51  N   UNL A   1      42.604  28.940  32.734  1.00  0.00    -0.248 NA
ATOM     52  C   UNL A   1      40.701  27.934  33.612  1.00  0.00     0.031 C 
ATOM     53  C   UNL A   1      39.961  28.406  28.862  1.00  0.00     0.029 A 
ATOM     54  N   UNL A   1      41.880  27.615  29.617  1.00  0.00    -0.354 N 
ATOM     55  C   UNL A   1      42.892  28.416  33.985  1.00  0.00     0.074 A 
ATOM     56  C   UNL A   1      41.644  27.976  34.552  1.00  0.00     0.031 C 
ATOM     57  C   UNL A   1      40.420  27.530  27.938  1.00  0.00     0.029 A 
ATOM     58  C   UNL A   1      41.678  26.970  28.403  1.00  0.00     0.049 A 
ATOM     59  H   UNL A   1      42.718  27.536  30.127  1.00  0.00     0.167 HD
ATOM     60  C   UNL A   1      44.172  28.126  34.328  1.00  0.00     0.037 A 
ATOM     61  C   UNL A   1      42.472  26.002  27.878  1.00  0.00     0.037 A 
ATOM     62  C   UNL A   1      45.111  28.865  33.522  1.00  0.00     0.049 A 
ATOM     63  C   UNL A   1      43.787  26.089  28.564  1.00  0.00     0.074 A 
ATOM     64  C   UNL A   1      45.357  30.209  33.319  1.00  0.00     0.029 A 
ATOM     65  N   UNL A   1      45.706  28.215  32.468  1.00  0.00    -0.354 N 
ATOM     66  N   UNL A   1      44.625  27.073  28.398  1.00  0.00    -0.248 NA
ATOM     67  C   UNL A   1      43.964  25.315  29.784  1.00  0.00     0.031 C 
ATOM     68  C   UNL A   1      45.666  30.327  31.931  1.00  0.00     0.029 A 
ATOM     69  C   UNL A   1      45.657  29.047  31.379  1.00  0.00     0.049 A 
ATOM     70  H   UNL A   1      46.096  27.312  32.491  1.00  0.00     0.167 HD
ATOM     71  C   UNL A   1      45.128  27.321  29.666  1.00  0.00     0.074 A 
ATOM     72  C   UNL A   1      44.754  26.154  30.461  1.00  0.00     0.031 C 
ATOM     73  C   UNL A   1      45.540  28.575  30.019  1.00  0.00     0.037 A 
BRANCH  60  74
ATOM     74  C   UNL A   1      44.539  26.885  35.095  1.00  0.00     0.064 A 
ATOM     75  C   UNL A   1      45.347  26.999  36.240  1.00  0.00     0.173 A 
ATOM     76  C   UNL A   1      44.373  25.573  34.590  1.00  0.00     0.173 A 
ATOM     77  F   UNL A   1      45.604  28.201  36.775  1.00  0.00    -0.203 F 
ATOM     78  C   UNL A   1      45.981  25.888  36.802  1.00  0.00     0.198 A 
ATOM     79  C   UNL A   1      44.958  24.462  35.189  1.00  0.00     0.198 A 
ATOM     80  F   UNL A   1      43.741  25.325  33.437  1.00  0.00    -0.203 F 
ATOM     81  F   UNL A   1      46.839  26.058  37.817  1.00  0.00    -0.200 F 
ATOM     82  C   UNL A   1      45.787  24.622  36.277  1.00  0.00     0.200 A 
ATOM     83  F   UNL A   1      44.778  23.251  34.645  1.00  0.00    -0.200 F 
ATOM     84  F   UNL A   1      46.437  23.567  36.781  1.00  0.00    -0.200 F 
ENDBRANCH  60  74
BRANCH  61  85
ATOM     85  C   UNL A   1      42.094  24.812  27.080  1.00  0.00     0.064 A 
ATOM     86  C   UNL A   1      42.918  24.355  26.037  1.00  0.00     0.173 A 
ATOM     87  C   UNL A   1      41.090  23.927  27.517  1.00  0.00     0.173 A 
ATOM     88  F   UNL A   1      43.925  25.120  25.590  1.00  0.00    -0.203 F 
ATOM     89  C   UNL A   1      42.774  23.075  25.493  1.00  0.00     0.198 A 
ATOM     90  C   UNL A   1      40.943  22.650  26.968  1.00  0.00     0.198 A 
ATOM     91  F   UNL A   1      40.299  24.240  28.552  1.00  0.00    -0.203 F 
ATOM     92  F   UNL A   1      43.626  22.649  24.550  1.00  0.00    -0.200 F 
ATOM     93  C   UNL A   1      41.795  22.218  25.969  1.00  0.00     0.200 A 
ATOM     94  F   UNL A   1      40.016  21.818  27.462  1.00  0.00    -0.200 F 
ATOM     95  F   UNL A   1      41.701  20.968  25.497  1.00  0.00    -0.200 F 
ENDBRANCH  61  85
BRANCH  73  96
ATOM     96  C   UNL A   1      45.679  29.589  28.915  1.00  0.00     0.064 A 
ATOM     97  C   UNL A   1      44.626  30.388  28.431  1.00  0.00     0.173 A 
ATOM     98  C   UNL A   1      46.956  29.829  28.391  1.00  0.00     0.173 A 
ATOM     99  F   UNL A   1      43.396  30.299  28.952  1.00  0.00    -0.203 F 
ATOM    100  C   UNL A   1      44.834  31.331  27.425  1.00  0.00     0.198 A 
ATOM    101  C   UNL A   1      47.168  30.800  27.416  1.00  0.00     0.198 A 
ATOM    102  F   UNL A   1      48.011  29.140  28.851  1.00  0.00    -0.203 F 
ATOM    103  F   UNL A   1      43.806  32.057  26.960  1.00  0.00    -0.200 F 
ATOM    104  C   UNL A   1      46.106  31.538  26.921  1.00  0.00     0.200 A 
ATOM    105  F   UNL A   1      48.410  31.032  26.968  1.00  0.00    -0.200 F 
ATOM    106  F   UNL A   1      46.315  32.466  25.976  1.00  0.00    -0.200 F 
ENDBRANCH  73  96
ENDBRANCH  47  48
ENDBRANCH  40  42
ENDBRANCH  39  40
ENDBRANCH  38  39
ENDBRANCH  37  38
ENDBRANCH  36  37
ENDBRANCH  35  36
ENDBRANCH  34  35
ENDBRANCH  33  34
ENDBRANCH   1  33
TORSDOF 24
ENDMDL
