MODEL 1
REMARK VINA RESULT:      -9.9      0.000      0.000
REMARK SMILES COC(=O)c1c(NC(=O)[C@@H]2[C@H]3CC[C@H](CC3)[C@H]2C(=O)OCCOCCOCCOCCOC(=O)c2ccc(-c3c4nc(c(-c5c(F)c(F)c(F)c(F)c5F)c5ccc([nH]5)c(-c5c(F)c(F)c(F)c(F)c5F)c5nc(c(-c6c(F)c(F)c(F)c(F)c6F)c6ccc3[nH]6)C=C5)C=C4)cc2)sc(C)c1-c1ccc(C)cc1
REMARK SMILES IDX 25 1 24 2 23 3 22 4 21 5 20 6 18 7 19 8 17 9 10 10 11 11
REMARK SMILES IDX 12 12 16 13 14 14 13 15 15 16 8 17 7 18 9 20 6 21 5 22
REMARK SMILES IDX 101 23 98 24 99 25 100 26 3 27 4 28 2 29 1 30 102 31 103 32
REMARK SMILES IDX 108 33 104 34 107 35 105 36 106 37 26 38 27 39 28 40 29 41
REMARK SMILES IDX 30 42 31 43 32 44 33 45 34 46 35 47 36 48 97 49 37 50 96 51
REMARK SMILES IDX 38 52 39 53 40 54 90 55 41 56 95 57 89 58 91 59 42 60 94 61
REMARK SMILES IDX 88 62 87 63 43 65 75 66 55 67 74 68 56 69 59 70 73 71 92 72
REMARK SMILES IDX 57 73 58 74 72 76 93 77 60 78 44 79 45 80 53 81 46 82 47 83
REMARK SMILES IDX 51 84 54 85 48 86 49 87 52 88 50 89 76 90 77 91 85 92 78 93
REMARK SMILES IDX 79 94 83 95 86 96 80 97 81 98 84 99 82 100 61 101 62 102
REMARK SMILES IDX 70 103 63 104 64 105 68 106 71 107 65 108 66 109 69 110
REMARK SMILES IDX 67 111
REMARK H PARENT 7 19 91 64 59 75
REMARK Flexibility Score: inf
ROOT
ATOM      1  C   UNL A   1      35.101  30.534  28.332  1.00  0.00     0.188 C 
ENDROOT
BRANCH   1   2
ATOM      2  C   UNL A   1      34.531  29.610  27.247  1.00  0.00     0.188 C 
BRANCH   2   3
ATOM      3  O   UNL A   1      33.142  29.594  26.939  1.00  0.00    -0.376 OA
BRANCH   3   4
ATOM      4  C   UNL A   1      32.253  28.686  27.570  1.00  0.00     0.202 C 
BRANCH   4   5
ATOM      5  C   UNL A   1      31.521  27.622  26.738  1.00  0.00     0.261 C 
BRANCH   5   6
ATOM      6  O   UNL A   1      31.836  26.248  27.036  1.00  0.00    -0.463 OA
BRANCH   6   7
ATOM      7  C   UNL A   1      32.845  25.708  26.309  1.00  0.00     0.310 C 
ATOM      8  O   UNL A   1      33.912  26.275  26.094  1.00  0.00    -0.252 OA
BRANCH   7   9
ATOM      9  C   UNL A   1      32.522  24.361  25.666  1.00  0.00     0.115 C 
ATOM     10  C   UNL A   1      33.665  23.490  25.029  1.00  0.00     0.096 C 
ATOM     11  C   UNL A   1      33.482  22.023  25.509  1.00  0.00     0.002 C 
ATOM     12  C   UNL A   1      33.738  22.003  27.024  1.00  0.00     0.005 C 
ATOM     13  C   UNL A   1      32.045  21.530  25.244  1.00  0.00     0.005 C 
ATOM     14  C   UNL A   1      31.750  23.531  26.721  1.00  0.00     0.004 C 
ATOM     15  C   UNL A   1      32.728  22.907  27.735  1.00  0.00     0.005 C 
ATOM     16  C   UNL A   1      31.025  22.408  25.971  1.00  0.00     0.005 C 
BRANCH  10  17
ATOM     17  C   UNL A   1      33.669  23.535  23.484  1.00  0.00     0.229 C 
ATOM     18  N   UNL A   1      32.883  24.347  22.715  1.00  0.00    -0.317 N 
ATOM     19  H   UNL A   1      33.136  24.322  21.763  1.00  0.00     0.170 HD
ATOM     20  O   UNL A   1      34.454  22.816  22.849  1.00  0.00    -0.274 OA
BRANCH  18  21
ATOM     21  C   UNL A   1      31.813  25.195  22.954  1.00  0.00     0.111 A 
ATOM     22  C   UNL A   1      31.818  26.587  22.849  1.00  0.00     0.102 A 
ATOM     23  C   UNL A   1      30.519  27.143  23.200  1.00  0.00     0.012 A 
ATOM     24  S   UNL A   1      30.285  24.602  23.355  1.00  0.00    -0.122 S 
ATOM     25  C   UNL A   1      29.619  26.154  23.559  1.00  0.00     0.012 A 
ATOM     26  C   UNL A   1      28.217  26.251  24.067  1.00  0.00     0.057 C 
BRANCH  22  27
ATOM     27  C   UNL A   1      33.015  27.342  22.466  1.00  0.00     0.341 C 
ATOM     28  O   UNL A   1      33.598  27.162  21.401  1.00  0.00    -0.246 OA
BRANCH  27  29
ATOM     29  O   UNL A   1      33.419  28.227  23.419  1.00  0.00    -0.465 OA
ATOM     30  C   UNL A   1      34.505  29.085  23.064  1.00  0.00     0.282 C 
ENDBRANCH  27  29
ENDBRANCH  22  27
BRANCH  23  31
ATOM     31  C   UNL A   1      30.119  28.550  23.191  1.00  0.00    -0.016 A 
ATOM     32  C   UNL A   1      29.362  29.061  22.130  1.00  0.00     0.009 A 
ATOM     33  C   UNL A   1      30.480  29.398  24.245  1.00  0.00     0.009 A 
ATOM     34  C   UNL A   1      28.961  30.401  22.133  1.00  0.00     0.004 A 
ATOM     35  C   UNL A   1      30.068  30.733  24.250  1.00  0.00     0.004 A 
ATOM     36  C   UNL A   1      29.299  31.244  23.198  1.00  0.00    -0.051 A 
ATOM     37  C   UNL A   1      28.852  32.676  23.196  1.00  0.00     0.044 C 
ENDBRANCH  23  31
ENDBRANCH  18  21
ENDBRANCH  10  17
ENDBRANCH   7   9
ENDBRANCH   6   7
ENDBRANCH   5   6
ENDBRANCH   4   5
ENDBRANCH   3   4
ENDBRANCH   2   3
ENDBRANCH   1   2
BRANCH   1  38
ATOM     38  O   UNL A   1      34.422  31.761  28.510  1.00  0.00    -0.377 OA
BRANCH  38  39
ATOM     39  C   UNL A   1      35.164  32.829  29.079  1.00  0.00     0.188 C 
BRANCH  39  40
ATOM     40  C   UNL A   1      34.611  33.456  30.366  1.00  0.00     0.188 C 
BRANCH  40  41
ATOM     41  O   UNL A   1      34.325  32.489  31.374  1.00  0.00    -0.376 OA
BRANCH  41  42
ATOM     42  C   UNL A   1      35.426  31.802  31.961  1.00  0.00     0.202 C 
BRANCH  42  43
ATOM     43  C   UNL A   1      36.228  32.576  33.021  1.00  0.00     0.261 C 
BRANCH  43  44
ATOM     44  O   UNL A   1      37.651  32.672  32.818  1.00  0.00    -0.460 OA
BRANCH  44  45
ATOM     45  C   UNL A   1      38.130  33.647  32.019  1.00  0.00     0.338 C 
ATOM     46  O   UNL A   1      37.662  34.754  31.835  1.00  0.00    -0.246 OA
BRANCH  45  47
ATOM     47  C   UNL A   1      39.458  33.218  31.530  1.00  0.00     0.060 A 
ATOM     48  C   UNL A   1      39.948  33.768  30.337  1.00  0.00     0.016 A 
ATOM     49  C   UNL A   1      40.206  32.272  32.232  1.00  0.00     0.016 A 
ATOM     50  C   UNL A   1      41.180  33.350  29.829  1.00  0.00     0.010 A 
ATOM     51  C   UNL A   1      41.429  31.838  31.708  1.00  0.00     0.010 A 
ATOM     52  C   UNL A   1      41.908  32.354  30.491  1.00  0.00    -0.014 A 
BRANCH  52  53
ATOM     53  C   UNL A   1      43.061  31.706  29.818  1.00  0.00     0.031 A 
ATOM     54  C   UNL A   1      42.899  30.290  29.336  1.00  0.00     0.074 A 
ATOM     55  C   UNL A   1      44.223  32.354  29.626  1.00  0.00     0.049 A 
ATOM     56  N   UNL A   1      43.773  29.495  28.776  1.00  0.00    -0.248 NA
ATOM     57  C   UNL A   1      41.566  29.691  29.515  1.00  0.00     0.031 C 
ATOM     58  C   UNL A   1      44.495  33.738  30.007  1.00  0.00     0.029 A 
ATOM     59  N   UNL A   1      45.401  31.919  29.067  1.00  0.00    -0.354 N 
ATOM     60  C   UNL A   1      43.099  28.303  28.539  1.00  0.00     0.074 A 
ATOM     61  C   UNL A   1      41.754  28.469  29.044  1.00  0.00     0.031 C 
ATOM     62  C   UNL A   1      45.766  34.037  29.682  1.00  0.00     0.029 A 
ATOM     63  C   UNL A   1      46.405  32.856  29.101  1.00  0.00     0.049 A 
ATOM     64  H   UNL A   1      45.513  31.022  28.679  1.00  0.00     0.167 HD
ATOM     65  C   UNL A   1      43.557  27.177  27.945  1.00  0.00     0.037 A 
ATOM     66  C   UNL A   1      47.697  32.759  28.726  1.00  0.00     0.037 A 
ATOM     67  C   UNL A   1      44.895  27.010  27.446  1.00  0.00     0.049 A 
ATOM     68  C   UNL A   1      48.206  31.463  28.143  1.00  0.00     0.074 A 
ATOM     69  C   UNL A   1      45.448  25.911  26.813  1.00  0.00     0.029 A 
ATOM     70  N   UNL A   1      45.893  27.968  27.531  1.00  0.00    -0.354 N 
ATOM     71  N   UNL A   1      47.556  30.350  27.899  1.00  0.00    -0.248 NA
ATOM     72  C   UNL A   1      49.632  31.411  27.785  1.00  0.00     0.031 C 
ATOM     73  C   UNL A   1      46.798  26.183  26.564  1.00  0.00     0.029 A 
ATOM     74  C   UNL A   1      47.069  27.474  26.990  1.00  0.00     0.049 A 
ATOM     75  H   UNL A   1      45.783  28.866  27.918  1.00  0.00     0.167 HD
ATOM     76  C   UNL A   1      48.483  29.481  27.335  1.00  0.00     0.074 A 
ATOM     77  C   UNL A   1      49.738  30.198  27.260  1.00  0.00     0.031 C 
ATOM     78  C   UNL A   1      48.310  28.203  26.916  1.00  0.00     0.037 A 
BRANCH  65  79
ATOM     79  C   UNL A   1      42.605  26.022  27.831  1.00  0.00     0.064 A 
ATOM     80  C   UNL A   1      42.719  24.890  28.650  1.00  0.00     0.173 A 
ATOM     81  C   UNL A   1      41.550  26.063  26.908  1.00  0.00     0.173 A 
ATOM     82  F   UNL A   1      43.721  24.795  29.537  1.00  0.00    -0.203 F 
ATOM     83  C   UNL A   1      41.824  23.829  28.533  1.00  0.00     0.198 A 
ATOM     84  C   UNL A   1      40.641  25.014  26.813  1.00  0.00     0.198 A 
ATOM     85  F   UNL A   1      41.397  27.124  26.100  1.00  0.00    -0.203 F 
ATOM     86  F   UNL A   1      41.980  22.736  29.292  1.00  0.00    -0.200 F 
ATOM     87  C   UNL A   1      40.782  23.895  27.620  1.00  0.00     0.200 A 
ATOM     88  F   UNL A   1      39.629  25.083  25.937  1.00  0.00    -0.200 F 
ATOM     89  F   UNL A   1      39.918  22.876  27.512  1.00  0.00    -0.200 F 
ENDBRANCH  65  79
BRANCH  66  90
ATOM     90  C   UNL A   1      48.616  33.914  28.906  1.00  0.00     0.064 A 
ATOM     91  C   UNL A   1      48.791  34.867  27.892  1.00  0.00     0.173 A 
ATOM     92  C   UNL A   1      49.365  34.070  30.082  1.00  0.00     0.173 A 
ATOM     93  F   UNL A   1      48.121  34.745  26.737  1.00  0.00    -0.203 F 
ATOM     94  C   UNL A   1      49.694  35.919  28.041  1.00  0.00     0.198 A 
ATOM     95  C   UNL A   1      50.246  35.138  30.240  1.00  0.00     0.198 A 
ATOM     96  F   UNL A   1      49.242  33.182  31.080  1.00  0.00    -0.203 F 
ATOM     97  F   UNL A   1      49.880  36.785  27.035  1.00  0.00    -0.200 F 
ATOM     98  C   UNL A   1      50.417  36.056  29.216  1.00  0.00     0.200 A 
ATOM     99  F   UNL A   1      50.935  35.271  31.381  1.00  0.00    -0.200 F 
ATOM    100  F   UNL A   1      51.286  37.067  29.357  1.00  0.00    -0.200 F 
ENDBRANCH  66  90
BRANCH  78 101
ATOM    101  C   UNL A   1      49.492  27.504  26.306  1.00  0.00     0.064 A 
ATOM    102  C   UNL A   1      50.449  26.848  27.095  1.00  0.00     0.173 A 
ATOM    103  C   UNL A   1      49.642  27.448  24.912  1.00  0.00     0.173 A 
ATOM    104  F   UNL A   1      50.358  26.883  28.434  1.00  0.00    -0.203 F 
ATOM    105  C   UNL A   1      51.523  26.182  26.512  1.00  0.00     0.198 A 
ATOM    106  C   UNL A   1      50.701  26.756  24.331  1.00  0.00     0.198 A 
ATOM    107  F   UNL A   1      48.750  28.051  24.111  1.00  0.00    -0.203 F 
ATOM    108  F   UNL A   1      52.449  25.601  27.287  1.00  0.00    -0.200 F 
ATOM    109  C   UNL A   1      51.644  26.129  25.131  1.00  0.00     0.200 A 
ATOM    110  F   UNL A   1      50.806  26.692  22.997  1.00  0.00    -0.200 F 
ATOM    111  F   UNL A   1      52.674  25.480  24.571  1.00  0.00    -0.200 F 
ENDBRANCH  78 101
ENDBRANCH  52  53
ENDBRANCH  45  47
ENDBRANCH  44  45
ENDBRANCH  43  44
ENDBRANCH  42  43
ENDBRANCH  41  42
ENDBRANCH  40  41
ENDBRANCH  39  40
ENDBRANCH  38  39
ENDBRANCH   1  38
TORSDOF 25
ENDMDL
MODEL 2
REMARK VINA RESULT:      -9.4      1.312      2.212
REMARK SMILES COC(=O)c1c(NC(=O)[C@@H]2[C@H]3CC[C@H](CC3)[C@H]2C(=O)OCCOCCOCCOCCOC(=O)c2ccc(-c3c4nc(c(-c5c(F)c(F)c(F)c(F)c5F)c5ccc([nH]5)c(-c5c(F)c(F)c(F)c(F)c5F)c5nc(c(-c6c(F)c(F)c(F)c(F)c6F)c6ccc3[nH]6)C=C5)C=C4)cc2)sc(C)c1-c1ccc(C)cc1
REMARK SMILES IDX 25 1 24 2 23 3 22 4 21 5 20 6 18 7 19 8 17 9 10 10 11 11
REMARK SMILES IDX 12 12 16 13 14 14 13 15 15 16 8 17 7 18 9 20 6 21 5 22
REMARK SMILES IDX 101 23 98 24 99 25 100 26 3 27 4 28 2 29 1 30 102 31 103 32
REMARK SMILES IDX 108 33 104 34 107 35 105 36 106 37 26 38 27 39 28 40 29 41
REMARK SMILES IDX 30 42 31 43 32 44 33 45 34 46 35 47 36 48 97 49 37 50 96 51
REMARK SMILES IDX 38 52 39 53 40 54 90 55 41 56 95 57 89 58 91 59 42 60 94 61
REMARK SMILES IDX 88 62 87 63 43 65 75 66 55 67 74 68 56 69 59 70 73 71 92 72
REMARK SMILES IDX 57 73 58 74 72 76 93 77 60 78 44 79 45 80 53 81 46 82 47 83
REMARK SMILES IDX 51 84 54 85 48 86 49 87 52 88 50 89 76 90 77 91 85 92 78 93
REMARK SMILES IDX 79 94 83 95 86 96 80 97 81 98 84 99 82 100 61 101 62 102
REMARK SMILES IDX 70 103 63 104 64 105 68 106 71 107 65 108 66 109 69 110
REMARK SMILES IDX 67 111
REMARK H PARENT 7 19 91 64 59 75
REMARK Flexibility Score: inf
ROOT
ATOM      1  C   UNL A   1      36.567  30.945  28.494  1.00  0.00     0.188 C 
ENDROOT
BRANCH   1   2
ATOM      2  C   UNL A   1      36.172  29.800  27.551  1.00  0.00     0.188 C 
BRANCH   2   3
ATOM      3  O   UNL A   1      34.838  29.653  27.079  1.00  0.00    -0.376 OA
BRANCH   3   4
ATOM      4  C   UNL A   1      34.061  28.508  27.395  1.00  0.00     0.202 C 
BRANCH   4   5
ATOM      5  C   UNL A   1      32.767  28.219  26.622  1.00  0.00     0.261 C 
BRANCH   5   6
ATOM      6  O   UNL A   1      32.381  26.834  26.514  1.00  0.00    -0.463 OA
BRANCH   6   7
ATOM      7  C   UNL A   1      33.231  26.042  25.816  1.00  0.00     0.310 C 
ATOM      8  O   UNL A   1      34.327  26.413  25.403  1.00  0.00    -0.252 OA
BRANCH   7   9
ATOM      9  C   UNL A   1      32.684  24.659  25.473  1.00  0.00     0.115 C 
ATOM     10  C   UNL A   1      33.609  23.582  24.798  1.00  0.00     0.096 C 
ATOM     11  C   UNL A   1      33.404  22.232  25.541  1.00  0.00     0.002 C 
ATOM     12  C   UNL A   1      33.943  22.409  26.968  1.00  0.00     0.005 C 
ATOM     13  C   UNL A   1      31.907  21.867  25.618  1.00  0.00     0.005 C 
ATOM     14  C   UNL A   1      32.064  24.085  26.771  1.00  0.00     0.004 C 
ATOM     15  C   UNL A   1      33.164  23.514  27.686  1.00  0.00     0.005 C 
ATOM     16  C   UNL A   1      31.120  22.950  26.357  1.00  0.00     0.005 C 
BRANCH  10  17
ATOM     17  C   UNL A   1      33.322  23.397  23.292  1.00  0.00     0.229 C 
ATOM     18  N   UNL A   1      32.409  24.112  22.567  1.00  0.00    -0.317 N 
ATOM     19  H   UNL A   1      32.478  23.938  21.600  1.00  0.00     0.170 HD
ATOM     20  O   UNL A   1      33.967  22.564  22.639  1.00  0.00    -0.274 OA
BRANCH  18  21
ATOM     21  C   UNL A   1      31.410  25.024  22.869  1.00  0.00     0.111 A 
ATOM     22  C   UNL A   1      31.454  26.404  22.660  1.00  0.00     0.102 A 
ATOM     23  C   UNL A   1      30.229  27.043  23.121  1.00  0.00     0.012 A 
ATOM     24  S   UNL A   1      29.922  24.532  23.493  1.00  0.00    -0.122 S 
ATOM     25  C   UNL A   1      29.344  26.123  23.660  1.00  0.00     0.012 A 
ATOM     26  C   UNL A   1      28.020  26.321  24.324  1.00  0.00     0.057 C 
BRANCH  22  27
ATOM     27  C   UNL A   1      32.622  27.074  22.080  1.00  0.00     0.341 C 
ATOM     28  O   UNL A   1      32.948  28.217  22.388  1.00  0.00    -0.246 OA
BRANCH  27  29
ATOM     29  O   UNL A   1      33.274  26.315  21.158  1.00  0.00    -0.465 OA
ATOM     30  C   UNL A   1      32.532  25.961  19.990  1.00  0.00     0.282 C 
ENDBRANCH  27  29
ENDBRANCH  22  27
BRANCH  23  31
ATOM     31  C   UNL A   1      29.885  28.462  23.055  1.00  0.00    -0.016 A 
ATOM     32  C   UNL A   1      30.254  29.327  24.092  1.00  0.00     0.009 A 
ATOM     33  C   UNL A   1      29.192  28.974  21.951  1.00  0.00     0.009 A 
ATOM     34  C   UNL A   1      29.945  30.689  24.018  1.00  0.00     0.004 A 
ATOM     35  C   UNL A   1      28.895  30.338  21.875  1.00  0.00     0.004 A 
ATOM     36  C   UNL A   1      29.275  31.207  22.903  1.00  0.00    -0.051 A 
ATOM     37  C   UNL A   1      28.959  32.672  22.829  1.00  0.00     0.044 C 
ENDBRANCH  23  31
ENDBRANCH  18  21
ENDBRANCH  10  17
ENDBRANCH   7   9
ENDBRANCH   6   7
ENDBRANCH   5   6
ENDBRANCH   4   5
ENDBRANCH   3   4
ENDBRANCH   2   3
ENDBRANCH   1   2
BRANCH   1  38
ATOM     38  O   UNL A   1      35.923  32.182  28.260  1.00  0.00    -0.377 OA
BRANCH  38  39
ATOM     39  C   UNL A   1      36.514  33.333  28.843  1.00  0.00     0.188 C 
BRANCH  39  40
ATOM     40  C   UNL A   1      35.766  33.987  30.012  1.00  0.00     0.188 C 
BRANCH  40  41
ATOM     41  O   UNL A   1      34.570  33.294  30.360  1.00  0.00    -0.376 OA
BRANCH  41  42
ATOM     42  C   UNL A   1      34.605  32.450  31.506  1.00  0.00     0.202 C 
BRANCH  42  43
ATOM     43  C   UNL A   1      35.806  32.630  32.450  1.00  0.00     0.261 C 
BRANCH  43  44
ATOM     44  O   UNL A   1      36.407  31.429  32.974  1.00  0.00    -0.460 OA
BRANCH  44  45
ATOM     45  C   UNL A   1      37.500  31.535  33.756  1.00  0.00     0.338 C 
ATOM     46  O   UNL A   1      37.544  31.565  34.971  1.00  0.00    -0.246 OA
BRANCH  45  47
ATOM     47  C   UNL A   1      38.690  31.417  32.887  1.00  0.00     0.060 A 
ATOM     48  C   UNL A   1      38.571  31.747  31.531  1.00  0.00     0.016 A 
ATOM     49  C   UNL A   1      39.908  30.969  33.402  1.00  0.00     0.016 A 
ATOM     50  C   UNL A   1      39.668  31.604  30.677  1.00  0.00     0.010 A 
ATOM     51  C   UNL A   1      40.998  30.805  32.540  1.00  0.00     0.010 A 
ATOM     52  C   UNL A   1      40.876  31.095  31.170  1.00  0.00    -0.014 A 
BRANCH  52  53
ATOM     53  C   UNL A   1      41.942  30.673  30.229  1.00  0.00     0.031 A 
ATOM     54  C   UNL A   1      41.813  29.331  29.562  1.00  0.00     0.074 A 
ATOM     55  C   UNL A   1      42.998  31.461  29.958  1.00  0.00     0.049 A 
ATOM     56  N   UNL A   1      42.638  28.719  28.751  1.00  0.00    -0.248 NA
ATOM     57  C   UNL A   1      40.583  28.576  29.854  1.00  0.00     0.031 C 
ATOM     58  C   UNL A   1      43.220  32.797  30.504  1.00  0.00     0.029 A 
ATOM     59  N   UNL A   1      44.092  31.236  29.157  1.00  0.00    -0.354 N 
ATOM     60  C   UNL A   1      42.030  27.509  28.441  1.00  0.00     0.074 A 
ATOM     61  C   UNL A   1      40.784  27.459  29.174  1.00  0.00     0.031 C 
ATOM     62  C   UNL A   1      44.388  33.271  30.031  1.00  0.00     0.029 A 
ATOM     63  C   UNL A   1      45.009  32.259  29.178  1.00  0.00     0.049 A 
ATOM     64  H   UNL A   1      44.207  30.419  28.620  1.00  0.00     0.167 HD
ATOM     65  C   UNL A   1      42.466  26.532  27.612  1.00  0.00     0.037 A 
ATOM     66  C   UNL A   1      46.220  32.352  28.591  1.00  0.00     0.037 A 
ATOM     67  C   UNL A   1      43.706  26.579  26.886  1.00  0.00     0.049 A 
ATOM     68  C   UNL A   1      46.722  31.212  27.738  1.00  0.00     0.074 A 
ATOM     69  C   UNL A   1      44.228  25.645  26.009  1.00  0.00     0.029 A 
ATOM     70  N   UNL A   1      44.624  27.615  26.961  1.00  0.00    -0.354 N 
ATOM     71  N   UNL A   1      46.131  30.083  27.430  1.00  0.00    -0.248 NA
ATOM     72  C   UNL A   1      48.064  31.361  27.154  1.00  0.00     0.031 C 
ATOM     73  C   UNL A   1      45.488  26.091  25.594  1.00  0.00     0.029 A 
ATOM     74  C   UNL A   1      45.725  27.329  26.169  1.00  0.00     0.049 A 
ATOM     75  H   UNL A   1      44.512  28.433  27.497  1.00  0.00     0.167 HD
ATOM     76  C   UNL A   1      47.012  29.405  26.595  1.00  0.00     0.074 A 
ATOM     77  C   UNL A   1      48.174  30.253  26.435  1.00  0.00     0.031 C 
ATOM     78  C   UNL A   1      46.872  28.187  26.013  1.00  0.00     0.037 A 
BRANCH  65  79
ATOM     79  C   UNL A   1      41.604  25.312  27.471  1.00  0.00     0.064 A 
ATOM     80  C   UNL A   1      40.415  25.332  26.729  1.00  0.00     0.173 A 
ATOM     81  C   UNL A   1      41.990  24.101  28.063  1.00  0.00     0.173 A 
ATOM     82  F   UNL A   1      39.993  26.471  26.158  1.00  0.00    -0.203 F 
ATOM     83  C   UNL A   1      39.629  24.189  26.606  1.00  0.00     0.198 A 
ATOM     84  C   UNL A   1      41.218  22.953  27.914  1.00  0.00     0.198 A 
ATOM     85  F   UNL A   1      43.120  24.028  28.783  1.00  0.00    -0.203 F 
ATOM     86  F   UNL A   1      38.471  24.243  25.934  1.00  0.00    -0.200 F 
ATOM     87  C   UNL A   1      40.034  22.999  27.191  1.00  0.00     0.200 A 
ATOM     88  F   UNL A   1      41.616  21.802  28.472  1.00  0.00    -0.200 F 
ATOM     89  F   UNL A   1      39.281  21.898  27.068  1.00  0.00    -0.200 F 
ENDBRANCH  65  79
BRANCH  66  90
ATOM     90  C   UNL A   1      47.061  33.560  28.802  1.00  0.00     0.064 A 
ATOM     91  C   UNL A   1      47.009  34.645  27.915  1.00  0.00     0.173 A 
ATOM     92  C   UNL A   1      47.961  33.640  29.875  1.00  0.00     0.173 A 
ATOM     93  F   UNL A   1      46.187  34.603  26.855  1.00  0.00    -0.203 F 
ATOM     94  C   UNL A   1      47.837  35.753  28.082  1.00  0.00     0.198 A 
ATOM     95  C   UNL A   1      48.768  34.761  30.058  1.00  0.00     0.198 A 
ATOM     96  F   UNL A   1      48.057  32.627  30.749  1.00  0.00    -0.203 F 
ATOM     97  F   UNL A   1      47.804  36.751  27.189  1.00  0.00    -0.200 F 
ATOM     98  C   UNL A   1      48.712  35.813  29.156  1.00  0.00     0.200 A 
ATOM     99  F   UNL A   1      49.605  34.818  31.102  1.00  0.00    -0.200 F 
ATOM    100  F   UNL A   1      49.510  36.878  29.316  1.00  0.00    -0.200 F 
ENDBRANCH  66  90
BRANCH  78 101
ATOM    101  C   UNL A   1      47.982  27.710  25.121  1.00  0.00     0.064 A 
ATOM    102  C   UNL A   1      47.905  27.818  23.725  1.00  0.00     0.173 A 
ATOM    103  C   UNL A   1      49.160  27.183  25.674  1.00  0.00     0.173 A 
ATOM    104  F   UNL A   1      46.795  28.304  23.146  1.00  0.00    -0.203 F 
ATOM    105  C   UNL A   1      48.955  27.396  22.915  1.00  0.00     0.198 A 
ATOM    106  C   UNL A   1      50.220  26.790  24.863  1.00  0.00     0.198 A 
ATOM    107  F   UNL A   1      49.290  27.066  27.004  1.00  0.00    -0.203 F 
ATOM    108  F   UNL A   1      48.841  27.468  21.581  1.00  0.00    -0.200 F 
ATOM    109  C   UNL A   1      50.115  26.890  23.483  1.00  0.00     0.200 A 
ATOM    110  F   UNL A   1      51.346  26.316  25.415  1.00  0.00    -0.200 F 
ATOM    111  F   UNL A   1      51.129  26.493  22.702  1.00  0.00    -0.200 F 
ENDBRANCH  78 101
ENDBRANCH  52  53
ENDBRANCH  45  47
ENDBRANCH  44  45
ENDBRANCH  43  44
ENDBRANCH  42  43
ENDBRANCH  41  42
ENDBRANCH  40  41
ENDBRANCH  39  40
ENDBRANCH  38  39
ENDBRANCH   1  38
TORSDOF 25
ENDMDL
MODEL 3
REMARK VINA RESULT:      -9.1      5.644     10.966
REMARK SMILES COC(=O)c1c(NC(=O)[C@@H]2[C@H]3CC[C@H](CC3)[C@H]2C(=O)OCCOCCOCCOCCOC(=O)c2ccc(-c3c4nc(c(-c5c(F)c(F)c(F)c(F)c5F)c5ccc([nH]5)c(-c5c(F)c(F)c(F)c(F)c5F)c5nc(c(-c6c(F)c(F)c(F)c(F)c6F)c6ccc3[nH]6)C=C5)C=C4)cc2)sc(C)c1-c1ccc(C)cc1
REMARK SMILES IDX 25 1 24 2 23 3 22 4 21 5 20 6 18 7 19 8 17 9 10 10 11 11
REMARK SMILES IDX 12 12 16 13 14 14 13 15 15 16 8 17 7 18 9 20 6 21 5 22
REMARK SMILES IDX 101 23 98 24 99 25 100 26 3 27 4 28 2 29 1 30 102 31 103 32
REMARK SMILES IDX 108 33 104 34 107 35 105 36 106 37 26 38 27 39 28 40 29 41
REMARK SMILES IDX 30 42 31 43 32 44 33 45 34 46 35 47 36 48 97 49 37 50 96 51
REMARK SMILES IDX 38 52 39 53 40 54 90 55 41 56 95 57 89 58 91 59 42 60 94 61
REMARK SMILES IDX 88 62 87 63 43 65 75 66 55 67 74 68 56 69 59 70 73 71 92 72
REMARK SMILES IDX 57 73 58 74 72 76 93 77 60 78 44 79 45 80 53 81 46 82 47 83
REMARK SMILES IDX 51 84 54 85 48 86 49 87 52 88 50 89 76 90 77 91 85 92 78 93
REMARK SMILES IDX 79 94 83 95 86 96 80 97 81 98 84 99 82 100 61 101 62 102
REMARK SMILES IDX 70 103 63 104 64 105 68 106 71 107 65 108 66 109 69 110
REMARK SMILES IDX 67 111
REMARK H PARENT 7 19 91 64 59 75
REMARK Flexibility Score: inf
ROOT
ATOM      1  C   UNL A   1      42.570  36.267  28.370  1.00  0.00     0.188 C 
ENDROOT
BRANCH   1   2
ATOM      2  C   UNL A   1      42.130  35.285  29.464  1.00  0.00     0.188 C 
BRANCH   2   3
ATOM      3  O   UNL A   1      42.491  33.910  29.418  1.00  0.00    -0.376 OA
BRANCH   3   4
ATOM      4  C   UNL A   1      41.953  32.970  30.336  1.00  0.00     0.202 C 
BRANCH   4   5
ATOM      5  C   UNL A   1      40.750  33.352  31.211  1.00  0.00     0.261 C 
BRANCH   5   6
ATOM      6  O   UNL A   1      39.862  32.279  31.581  1.00  0.00    -0.463 OA
BRANCH   6   7
ATOM      7  C   UNL A   1      38.559  32.622  31.731  1.00  0.00     0.310 C 
ATOM      8  O   UNL A   1      37.833  32.969  30.803  1.00  0.00    -0.252 OA
BRANCH   7   9
ATOM      9  C   UNL A   1      38.066  32.654  33.175  1.00  0.00     0.115 C 
ATOM     10  C   UNL A   1      38.892  31.953  34.314  1.00  0.00     0.096 C 
ATOM     11  C   UNL A   1      38.986  32.931  35.518  1.00  0.00     0.002 C 
ATOM     12  C   UNL A   1      39.833  34.130  35.068  1.00  0.00     0.005 C 
ATOM     13  C   UNL A   1      37.588  33.438  35.928  1.00  0.00     0.005 C 
ATOM     14  C   UNL A   1      37.825  34.141  33.536  1.00  0.00     0.004 C 
ATOM     15  C   UNL A   1      39.157  34.832  33.887  1.00  0.00     0.005 C 
ATOM     16  C   UNL A   1      36.910  34.166  34.766  1.00  0.00     0.005 C 
BRANCH  10  17
ATOM     17  C   UNL A   1      38.269  30.616  34.776  1.00  0.00     0.229 C 
ATOM     18  N   UNL A   1      37.932  29.576  33.956  1.00  0.00    -0.317 N 
ATOM     19  H   UNL A   1      37.681  28.767  34.459  1.00  0.00     0.170 HD
ATOM     20  O   UNL A   1      38.069  30.415  35.983  1.00  0.00    -0.274 OA
BRANCH  18  21
ATOM     21  C   UNL A   1      37.858  29.387  32.585  1.00  0.00     0.111 A 
ATOM     22  C   UNL A   1      38.859  28.867  31.763  1.00  0.00     0.102 A 
ATOM     23  C   UNL A   1      38.432  28.839  30.371  1.00  0.00     0.012 A 
ATOM     24  S   UNL A   1      36.447  29.721  31.721  1.00  0.00    -0.122 S 
ATOM     25  C   UNL A   1      37.152  29.346  30.218  1.00  0.00     0.012 A 
ATOM     26  C   UNL A   1      36.343  29.590  28.986  1.00  0.00     0.057 C 
BRANCH  22  27
ATOM     27  C   UNL A   1      40.166  28.453  32.282  1.00  0.00     0.341 C 
ATOM     28  O   UNL A   1      40.287  27.638  33.193  1.00  0.00    -0.246 OA
BRANCH  27  29
ATOM     29  O   UNL A   1      41.210  29.082  31.676  1.00  0.00    -0.465 OA
ATOM     30  C   UNL A   1      42.242  28.241  31.160  1.00  0.00     0.282 C 
ENDBRANCH  27  29
ENDBRANCH  22  27
BRANCH  23  31
ATOM     31  C   UNL A   1      39.183  28.345  29.218  1.00  0.00    -0.016 A 
ATOM     32  C   UNL A   1      39.847  29.243  28.372  1.00  0.00     0.009 A 
ATOM     33  C   UNL A   1      39.257  26.972  28.952  1.00  0.00     0.009 A 
ATOM     34  C   UNL A   1      40.585  28.769  27.282  1.00  0.00     0.004 A 
ATOM     35  C   UNL A   1      40.004  26.502  27.869  1.00  0.00     0.004 A 
ATOM     36  C   UNL A   1      40.680  27.395  27.030  1.00  0.00    -0.051 A 
ATOM     37  C   UNL A   1      41.484  26.898  25.864  1.00  0.00     0.044 C 
ENDBRANCH  23  31
ENDBRANCH  18  21
ENDBRANCH  10  17
ENDBRANCH   7   9
ENDBRANCH   6   7
ENDBRANCH   5   6
ENDBRANCH   4   5
ENDBRANCH   3   4
ENDBRANCH   2   3
ENDBRANCH   1   2
BRANCH   1  38
ATOM     38  O   UNL A   1      42.881  37.575  28.809  1.00  0.00    -0.377 OA
BRANCH  38  39
ATOM     39  C   UNL A   1      43.695  38.362  27.953  1.00  0.00     0.188 C 
BRANCH  39  40
ATOM     40  C   UNL A   1      42.978  39.221  26.903  1.00  0.00     0.188 C 
BRANCH  40  41
ATOM     41  O   UNL A   1      43.879  39.961  26.083  1.00  0.00    -0.376 OA
BRANCH  41  42
ATOM     42  C   UNL A   1      45.237  40.042  26.502  1.00  0.00     0.202 C 
BRANCH  42  43
ATOM     43  C   UNL A   1      46.294  39.559  25.495  1.00  0.00     0.261 C 
BRANCH  43  44
ATOM     44  O   UNL A   1      46.699  38.179  25.590  1.00  0.00    -0.460 OA
BRANCH  44  45
ATOM     45  C   UNL A   1      47.729  37.857  26.399  1.00  0.00     0.338 C 
ATOM     46  O   UNL A   1      48.626  38.582  26.784  1.00  0.00    -0.246 OA
BRANCH  45  47
ATOM     47  C   UNL A   1      47.488  36.492  26.914  1.00  0.00     0.060 A 
ATOM     48  C   UNL A   1      46.174  36.006  26.952  1.00  0.00     0.016 A 
ATOM     49  C   UNL A   1      48.546  35.704  27.368  1.00  0.00     0.016 A 
ATOM     50  C   UNL A   1      45.913  34.737  27.473  1.00  0.00     0.010 A 
ATOM     51  C   UNL A   1      48.279  34.442  27.911  1.00  0.00     0.010 A 
ATOM     52  C   UNL A   1      46.959  33.964  27.991  1.00  0.00    -0.014 A 
BRANCH  52  53
ATOM     53  C   UNL A   1      46.660  32.755  28.797  1.00  0.00     0.031 A 
ATOM     54  C   UNL A   1      46.316  32.936  30.250  1.00  0.00     0.074 A 
ATOM     55  C   UNL A   1      46.682  31.523  28.258  1.00  0.00     0.049 A 
ATOM     56  N   UNL A   1      46.075  32.036  31.169  1.00  0.00    -0.248 NA
ATOM     57  C   UNL A   1      46.235  34.325  30.731  1.00  0.00     0.031 C 
ATOM     58  C   UNL A   1      46.959  31.216  26.857  1.00  0.00     0.029 A 
ATOM     59  N   UNL A   1      46.474  30.296  28.840  1.00  0.00    -0.354 N 
ATOM     60  C   UNL A   1      45.819  32.748  32.333  1.00  0.00     0.074 A 
ATOM     61  C   UNL A   1      45.964  34.151  32.014  1.00  0.00     0.031 C 
ATOM     62  C   UNL A   1      46.917  29.882  26.688  1.00  0.00     0.029 A 
ATOM     63  C   UNL A   1      46.643  29.241  27.975  1.00  0.00     0.049 A 
ATOM     64  H   UNL A   1      46.228  30.183  29.786  1.00  0.00     0.167 HD
ATOM     65  C   UNL A   1      45.483  32.276  33.557  1.00  0.00     0.037 A 
ATOM     66  C   UNL A   1      46.603  27.914  28.206  1.00  0.00     0.037 A 
ATOM     67  C   UNL A   1      45.342  30.881  33.876  1.00  0.00     0.049 A 
ATOM     68  C   UNL A   1      46.309  27.410  29.598  1.00  0.00     0.074 A 
ATOM     69  C   UNL A   1      44.989  30.304  35.083  1.00  0.00     0.029 A 
ATOM     70  N   UNL A   1      45.556  29.842  32.983  1.00  0.00    -0.354 N 
ATOM     71  N   UNL A   1      46.043  28.089  30.688  1.00  0.00    -0.248 NA
ATOM     72  C   UNL A   1      46.313  25.951  29.792  1.00  0.00     0.031 C 
ATOM     73  C   UNL A   1      45.042  28.914  34.935  1.00  0.00     0.029 A 
ATOM     74  C   UNL A   1      45.373  28.626  33.620  1.00  0.00     0.049 A 
ATOM     75  H   UNL A   1      45.802  29.952  32.036  1.00  0.00     0.167 HD
ATOM     76  C   UNL A   1      45.820  27.145  31.683  1.00  0.00     0.074 A 
ATOM     77  C   UNL A   1      45.968  25.844  31.067  1.00  0.00     0.031 C 
ATOM     78  C   UNL A   1      45.518  27.337  32.992  1.00  0.00     0.037 A 
BRANCH  65  79
ATOM     79  C   UNL A   1      45.274  33.281  34.651  1.00  0.00     0.064 A 
ATOM     80  C   UNL A   1      44.025  33.878  34.874  1.00  0.00     0.173 A 
ATOM     81  C   UNL A   1      46.332  33.630  35.502  1.00  0.00     0.173 A 
ATOM     82  F   UNL A   1      42.986  33.591  34.075  1.00  0.00    -0.203 F 
ATOM     83  C   UNL A   1      43.849  34.806  35.897  1.00  0.00     0.198 A 
ATOM     84  C   UNL A   1      46.145  34.536  36.542  1.00  0.00     0.198 A 
ATOM     85  F   UNL A   1      47.547  33.087  35.332  1.00  0.00    -0.203 F 
ATOM     86  F   UNL A   1      42.659  35.401  36.062  1.00  0.00    -0.200 F 
ATOM     87  C   UNL A   1      44.906  35.129  36.734  1.00  0.00     0.200 A 
ATOM     88  F   UNL A   1      47.165  34.840  37.356  1.00  0.00    -0.200 F 
ATOM     89  F   UNL A   1      44.734  36.019  37.722  1.00  0.00    -0.200 F 
ENDBRANCH  65  79
BRANCH  66  90
ATOM     90  C   UNL A   1      46.868  26.954  27.100  1.00  0.00     0.064 A 
ATOM     91  C   UNL A   1      48.177  26.653  26.699  1.00  0.00     0.173 A 
ATOM     92  C   UNL A   1      45.816  26.346  26.399  1.00  0.00     0.173 A 
ATOM     93  F   UNL A   1      49.216  27.233  27.318  1.00  0.00    -0.203 F 
ATOM     94  C   UNL A   1      48.423  25.796  25.627  1.00  0.00     0.198 A 
ATOM     95  C   UNL A   1      46.063  25.468  25.346  1.00  0.00     0.198 A 
ATOM     96  F   UNL A   1      44.544  26.606  26.737  1.00  0.00    -0.203 F 
ATOM     97  F   UNL A   1      49.683  25.568  25.232  1.00  0.00    -0.200 F 
ATOM     98  C   UNL A   1      47.367  25.201  24.955  1.00  0.00     0.200 A 
ATOM     99  F   UNL A   1      45.039  24.888  24.706  1.00  0.00    -0.200 F 
ATOM    100  F   UNL A   1      47.603  24.378  23.924  1.00  0.00    -0.200 F 
ENDBRANCH  66  90
BRANCH  78 101
ATOM    101  C   UNL A   1      45.293  26.119  33.841  1.00  0.00     0.064 A 
ATOM    102  C   UNL A   1      46.351  25.469  34.493  1.00  0.00     0.173 A 
ATOM    103  C   UNL A   1      43.994  25.625  34.044  1.00  0.00     0.173 A 
ATOM    104  F   UNL A   1      47.612  25.894  34.321  1.00  0.00    -0.203 F 
ATOM    105  C   UNL A   1      46.120  24.357  35.299  1.00  0.00     0.198 A 
ATOM    106  C   UNL A   1      43.764  24.532  34.875  1.00  0.00     0.198 A 
ATOM    107  F   UNL A   1      42.946  26.215  33.451  1.00  0.00    -0.203 F 
ATOM    108  F   UNL A   1      47.152  23.725  35.877  1.00  0.00    -0.200 F 
ATOM    109  C   UNL A   1      44.828  23.895  35.496  1.00  0.00     0.200 A 
ATOM    110  F   UNL A   1      42.513  24.097  35.076  1.00  0.00    -0.200 F 
ATOM    111  F   UNL A   1      44.606  22.830  36.279  1.00  0.00    -0.200 F 
ENDBRANCH  78 101
ENDBRANCH  52  53
ENDBRANCH  45  47
ENDBRANCH  44  45
ENDBRANCH  43  44
ENDBRANCH  42  43
ENDBRANCH  41  42
ENDBRANCH  40  41
ENDBRANCH  39  40
ENDBRANCH  38  39
ENDBRANCH   1  38
TORSDOF 25
ENDMDL
