MODEL 1
REMARK VINA RESULT:     -10.9      0.000      0.000
REMARK SMILES Cc1c(F)cc(C(=O)OCCOCCOCCOCCOC(=O)c2ccc(-c3c4nc(c(-c5c(F)c(F)c(F)c(F)c5F)c5ccc([nH]5)c(-c5c(F)c(F)c(F)c(F)c5F)c5nc(c(-c6c(F)c(F)c(F)c(F)c6F)c6ccc3[nH]6)C=C5)C=C4)cc2)cc1S(=O)(=O)NC#N
REMARK SMILES IDX 14 1 13 2 12 3 11 4 10 5 9 6 7 7 8 8 6 9 1 10 2 11 3 12
REMARK SMILES IDX 88 13 4 14 5 15 87 16 89 17 90 18 91 19 92 20 93 22 94 23
REMARK SMILES IDX 15 24 16 25 17 26 18 27 19 28 20 29 21 30 22 31 23 32 24 33
REMARK SMILES IDX 25 34 86 35 26 36 85 37 27 38 28 39 29 40 79 41 30 42 84 43
REMARK SMILES IDX 78 44 80 45 31 46 83 47 77 48 76 49 32 51 64 52 44 53 63 54
REMARK SMILES IDX 45 55 48 56 62 57 81 58 46 59 47 60 61 62 82 63 49 64 33 65
REMARK SMILES IDX 34 66 42 67 35 68 36 69 40 70 43 71 37 72 38 73 41 74 39 75
REMARK SMILES IDX 65 76 66 77 74 78 67 79 68 80 72 81 75 82 69 83 70 84 73 85
REMARK SMILES IDX 71 86 50 87 51 88 59 89 52 90 53 91 57 92 60 93 54 94 55 95
REMARK SMILES IDX 58 96 56 97
REMARK H PARENT 92 21 80 50 48 61
REMARK Flexibility Score: inf
ROOT
ATOM      1  C   UNL A   1      34.654  22.838  26.869  1.00  0.00     0.188 C 
ENDROOT
BRANCH   1   2
ATOM      2  C   UNL A   1      33.385  23.478  26.255  1.00  0.00     0.188 C 
BRANCH   2   3
ATOM      3  O   UNL A   1      33.623  24.489  25.300  1.00  0.00    -0.376 OA
BRANCH   3   4
ATOM      4  C   UNL A   1      33.305  25.838  25.572  1.00  0.00     0.202 C 
BRANCH   4   5
ATOM      5  C   UNL A   1      33.866  27.009  24.738  1.00  0.00     0.261 C 
BRANCH   5   6
ATOM      6  O   UNL A   1      32.993  28.117  24.477  1.00  0.00    -0.460 OA
BRANCH   6   7
ATOM      7  C   UNL A   1      32.604  28.279  23.193  1.00  0.00     0.338 C 
ATOM      8  O   UNL A   1      33.311  28.196  22.205  1.00  0.00    -0.246 OA
BRANCH   7   9
ATOM      9  C   UNL A   1      31.122  28.314  23.129  1.00  0.00     0.064 A 
ATOM     10  C   UNL A   1      26.815  28.172  23.385  1.00  0.00     0.049 C 
ATOM     11  C   UNL A   1      28.296  28.326  23.229  1.00  0.00     0.005 A 
ATOM     12  C   UNL A   1      29.063  27.325  23.852  1.00  0.00     0.128 A 
ATOM     13  C   UNL A   1      28.974  29.329  22.505  1.00  0.00     0.095 A 
ATOM     14  F   UNL A   1      28.452  26.362  24.557  1.00  0.00    -0.207 F 
ATOM     15  C   UNL A   1      30.446  27.299  23.798  1.00  0.00     0.055 A 
ATOM     16  C   UNL A   1      30.396  29.335  22.503  1.00  0.00     0.038 A 
BRANCH  13  17
ATOM     17  S   UNL A   1      28.191  30.776  21.775  1.00  0.00     0.270 S 
ATOM     18  O   UNL A   1      27.726  30.410  20.457  1.00  0.00    -0.201 OA
ATOM     19  O   UNL A   1      27.234  31.240  22.764  1.00  0.00    -0.201 OA
BRANCH  17  20
ATOM     20  N   UNL A   1      29.206  32.094  21.643  1.00  0.00    -0.215 NA
ATOM     21  H   UNL A   1      29.860  32.138  20.908  1.00  0.00     0.193 HD
BRANCH  20  22
ATOM     22  C   UNL A   1      29.136  33.082  22.522  1.00  0.00     0.191 C 
ATOM     23  N   UNL A   1      29.123  33.869  23.365  1.00  0.00    -0.172 NA
ENDBRANCH  20  22
ENDBRANCH  17  20
ENDBRANCH  13  17
ENDBRANCH   7   9
ENDBRANCH   6   7
ENDBRANCH   5   6
ENDBRANCH   4   5
ENDBRANCH   3   4
ENDBRANCH   2   3
ENDBRANCH   1   2
BRANCH   1  24
ATOM     24  O   UNL A   1      35.127  21.590  26.385  1.00  0.00    -0.377 OA
BRANCH  24  25
ATOM     25  C   UNL A   1      35.596  21.497  25.046  1.00  0.00     0.188 C 
BRANCH  25  26
ATOM     26  C   UNL A   1      37.118  21.510  24.699  1.00  0.00     0.188 C 
BRANCH  26  27
ATOM     27  O   UNL A   1      37.990  21.799  25.775  1.00  0.00    -0.376 OA
BRANCH  27  28
ATOM     28  C   UNL A   1      39.324  21.336  25.854  1.00  0.00     0.202 C 
BRANCH  28  29
ATOM     29  C   UNL A   1      40.273  21.790  26.968  1.00  0.00     0.261 C 
BRANCH  29  30
ATOM     30  O   UNL A   1      41.144  22.831  26.580  1.00  0.00    -0.460 OA
BRANCH  30  31
ATOM     31  C   UNL A   1      41.121  23.851  27.450  1.00  0.00     0.338 C 
ATOM     32  O   UNL A   1      41.864  24.052  28.396  1.00  0.00    -0.246 OA
BRANCH  31  33
ATOM     33  C   UNL A   1      40.015  24.744  27.053  1.00  0.00     0.060 A 
ATOM     34  C   UNL A   1      40.477  25.817  26.261  1.00  0.00     0.016 A 
ATOM     35  C   UNL A   1      39.195  24.918  28.157  1.00  0.00     0.016 A 
ATOM     36  C   UNL A   1      40.623  27.026  26.874  1.00  0.00     0.010 A 
ATOM     37  C   UNL A   1      39.402  26.088  28.809  1.00  0.00     0.010 A 
ATOM     38  C   UNL A   1      40.204  27.068  28.189  1.00  0.00    -0.014 A 
BRANCH  38  39
ATOM     39  C   UNL A   1      40.481  28.181  29.034  1.00  0.00     0.031 A 
ATOM     40  C   UNL A   1      39.533  29.277  28.858  1.00  0.00     0.074 A 
ATOM     41  C   UNL A   1      41.362  27.920  30.021  1.00  0.00     0.049 A 
ATOM     42  N   UNL A   1      39.714  30.459  29.302  1.00  0.00    -0.248 NA
ATOM     43  C   UNL A   1      38.305  29.151  28.059  1.00  0.00     0.031 C 
ATOM     44  C   UNL A   1      41.500  28.531  31.328  1.00  0.00     0.029 A 
ATOM     45  N   UNL A   1      42.482  27.075  29.918  1.00  0.00    -0.354 N 
ATOM     46  C   UNL A   1      38.480  31.068  29.257  1.00  0.00     0.074 A 
ATOM     47  C   UNL A   1      37.708  30.320  28.304  1.00  0.00     0.031 C 
ATOM     48  C   UNL A   1      42.746  28.302  31.785  1.00  0.00     0.029 A 
ATOM     49  C   UNL A   1      43.493  27.670  30.706  1.00  0.00     0.049 A 
ATOM     50  H   UNL A   1      42.548  26.240  29.402  1.00  0.00     0.167 HD
ATOM     51  C   UNL A   1      38.219  31.995  30.217  1.00  0.00     0.037 A 
ATOM     52  C   UNL A   1      44.567  28.233  30.068  1.00  0.00     0.037 A 
ATOM     53  C   UNL A   1      39.393  32.129  31.078  1.00  0.00     0.049 A 
ATOM     54  C   UNL A   1      44.561  29.750  30.127  1.00  0.00     0.074 A 
ATOM     55  C   UNL A   1      39.785  31.533  32.265  1.00  0.00     0.029 A 
ATOM     56  N   UNL A   1      40.540  32.635  30.511  1.00  0.00    -0.354 N 
ATOM     57  N   UNL A   1      43.526  30.466  30.477  1.00  0.00    -0.248 NA
ATOM     58  C   UNL A   1      45.699  30.579  29.738  1.00  0.00     0.031 C 
ATOM     59  C   UNL A   1      41.201  31.695  32.386  1.00  0.00     0.029 A 
ATOM     60  C   UNL A   1      41.657  32.374  31.268  1.00  0.00     0.049 A 
ATOM     61  H   UNL A   1      40.558  33.131  29.661  1.00  0.00     0.167 HD
ATOM     62  C   UNL A   1      43.827  31.796  30.388  1.00  0.00     0.074 A 
ATOM     63  C   UNL A   1      45.186  31.816  29.871  1.00  0.00     0.031 C 
ATOM     64  C   UNL A   1      42.944  32.780  30.735  1.00  0.00     0.037 A 
BRANCH  51  65
ATOM     65  C   UNL A   1      36.898  32.619  30.554  1.00  0.00     0.064 A 
ATOM     66  C   UNL A   1      36.341  33.556  29.656  1.00  0.00     0.173 A 
ATOM     67  C   UNL A   1      36.117  32.351  31.694  1.00  0.00     0.173 A 
ATOM     68  F   UNL A   1      36.950  33.877  28.507  1.00  0.00    -0.203 F 
ATOM     69  C   UNL A   1      35.128  34.195  29.892  1.00  0.00     0.198 A 
ATOM     70  C   UNL A   1      34.908  33.010  31.940  1.00  0.00     0.198 A 
ATOM     71  F   UNL A   1      36.458  31.417  32.587  1.00  0.00    -0.203 F 
ATOM     72  F   UNL A   1      34.657  35.069  28.991  1.00  0.00    -0.200 F 
ATOM     73  C   UNL A   1      34.414  33.930  31.038  1.00  0.00     0.200 A 
ATOM     74  F   UNL A   1      34.216  32.732  33.055  1.00  0.00    -0.200 F 
ATOM     75  F   UNL A   1      33.244  34.542  31.263  1.00  0.00    -0.200 F 
ENDBRANCH  51  65
BRANCH  52  76
ATOM     76  C   UNL A   1      44.979  27.421  28.880  1.00  0.00     0.064 A 
ATOM     77  C   UNL A   1      45.631  26.191  29.116  1.00  0.00     0.173 A 
ATOM     78  C   UNL A   1      44.358  27.593  27.637  1.00  0.00     0.173 A 
ATOM     79  F   UNL A   1      46.261  25.980  30.284  1.00  0.00    -0.203 F 
ATOM     80  C   UNL A   1      45.525  25.130  28.216  1.00  0.00     0.198 A 
ATOM     81  C   UNL A   1      44.265  26.530  26.734  1.00  0.00     0.198 A 
ATOM     82  F   UNL A   1      43.738  28.744  27.339  1.00  0.00    -0.203 F 
ATOM     83  F   UNL A   1      46.046  23.933  28.529  1.00  0.00    -0.200 F 
ATOM     84  C   UNL A   1      44.813  25.292  27.041  1.00  0.00     0.200 A 
ATOM     85  F   UNL A   1      43.567  26.681  25.599  1.00  0.00    -0.200 F 
ATOM     86  F   UNL A   1      44.624  24.252  26.215  1.00  0.00    -0.200 F 
ENDBRANCH  52  76
BRANCH  64  87
ATOM     87  C   UNL A   1      43.233  34.244  30.561  1.00  0.00     0.064 A 
ATOM     88  C   UNL A   1      43.440  35.090  31.656  1.00  0.00     0.173 A 
ATOM     89  C   UNL A   1      43.242  34.868  29.289  1.00  0.00     0.173 A 
ATOM     90  F   UNL A   1      43.328  34.628  32.910  1.00  0.00    -0.203 F 
ATOM     91  C   UNL A   1      43.759  36.437  31.486  1.00  0.00     0.198 A 
ATOM     92  C   UNL A   1      43.476  36.227  29.129  1.00  0.00     0.198 A 
ATOM     93  F   UNL A   1      43.067  34.184  28.152  1.00  0.00    -0.203 F 
ATOM     94  F   UNL A   1      44.059  37.184  32.557  1.00  0.00    -0.200 F 
ATOM     95  C   UNL A   1      43.775  37.005  30.225  1.00  0.00     0.200 A 
ATOM     96  F   UNL A   1      43.436  36.765  27.902  1.00  0.00    -0.200 F 
ATOM     97  F   UNL A   1      44.084  38.298  30.063  1.00  0.00    -0.200 F 
ENDBRANCH  64  87
ENDBRANCH  38  39
ENDBRANCH  31  33
ENDBRANCH  30  31
ENDBRANCH  29  30
ENDBRANCH  28  29
ENDBRANCH  27  28
ENDBRANCH  26  27
ENDBRANCH  25  26
ENDBRANCH  24  25
ENDBRANCH   1  24
TORSDOF 23
ENDMDL
MODEL 2
REMARK VINA RESULT:     -10.7      2.022      3.156
REMARK SMILES Cc1c(F)cc(C(=O)OCCOCCOCCOCCOC(=O)c2ccc(-c3c4nc(c(-c5c(F)c(F)c(F)c(F)c5F)c5ccc([nH]5)c(-c5c(F)c(F)c(F)c(F)c5F)c5nc(c(-c6c(F)c(F)c(F)c(F)c6F)c6ccc3[nH]6)C=C5)C=C4)cc2)cc1S(=O)(=O)NC#N
REMARK SMILES IDX 14 1 13 2 12 3 11 4 10 5 9 6 7 7 8 8 6 9 1 10 2 11 3 12
REMARK SMILES IDX 88 13 4 14 5 15 87 16 89 17 90 18 91 19 92 20 93 22 94 23
REMARK SMILES IDX 15 24 16 25 17 26 18 27 19 28 20 29 21 30 22 31 23 32 24 33
REMARK SMILES IDX 25 34 86 35 26 36 85 37 27 38 28 39 29 40 79 41 30 42 84 43
REMARK SMILES IDX 78 44 80 45 31 46 83 47 77 48 76 49 32 51 64 52 44 53 63 54
REMARK SMILES IDX 45 55 48 56 62 57 81 58 46 59 47 60 61 62 82 63 49 64 33 65
REMARK SMILES IDX 34 66 42 67 35 68 36 69 40 70 43 71 37 72 38 73 41 74 39 75
REMARK SMILES IDX 65 76 66 77 74 78 67 79 68 80 72 81 75 82 69 83 70 84 73 85
REMARK SMILES IDX 71 86 50 87 51 88 59 89 52 90 53 91 57 92 60 93 54 94 55 95
REMARK SMILES IDX 58 96 56 97
REMARK H PARENT 92 21 80 50 48 61
REMARK Flexibility Score: inf
ROOT
ATOM      1  C   UNL A   1      38.099  20.377  25.016  1.00  0.00     0.188 C 
ENDROOT
BRANCH   1   2
ATOM      2  C   UNL A   1      36.844  21.273  25.154  1.00  0.00     0.188 C 
BRANCH   2   3
ATOM      3  O   UNL A   1      35.609  20.602  25.023  1.00  0.00    -0.376 OA
BRANCH   3   4
ATOM      4  C   UNL A   1      34.456  21.282  24.572  1.00  0.00     0.202 C 
BRANCH   4   5
ATOM      5  C   UNL A   1      33.107  21.215  25.318  1.00  0.00     0.261 C 
BRANCH   5   6
ATOM      6  O   UNL A   1      32.909  22.118  26.415  1.00  0.00    -0.460 OA
BRANCH   6   7
ATOM      7  C   UNL A   1      33.441  23.353  26.273  1.00  0.00     0.338 C 
ATOM      8  O   UNL A   1      34.591  23.678  26.511  1.00  0.00    -0.246 OA
BRANCH   7   9
ATOM      9  C   UNL A   1      32.492  24.214  25.525  1.00  0.00     0.064 A 
ATOM     10  C   UNL A   1      29.538  26.844  23.797  1.00  0.00     0.049 C 
ATOM     11  C   UNL A   1      30.636  25.957  24.298  1.00  0.00     0.005 A 
ATOM     12  C   UNL A   1      30.370  25.323  25.525  1.00  0.00     0.128 A 
ATOM     13  C   UNL A   1      31.859  25.674  23.654  1.00  0.00     0.095 A 
ATOM     14  F   UNL A   1      29.221  25.577  26.168  1.00  0.00    -0.207 F 
ATOM     15  C   UNL A   1      31.263  24.456  26.129  1.00  0.00     0.055 A 
ATOM     16  C   UNL A   1      32.800  24.831  24.306  1.00  0.00     0.038 A 
BRANCH  13  17
ATOM     17  S   UNL A   1      32.452  26.496  22.168  1.00  0.00     0.270 S 
ATOM     18  O   UNL A   1      33.774  25.990  21.879  1.00  0.00    -0.201 OA
ATOM     19  O   UNL A   1      31.396  26.330  21.184  1.00  0.00    -0.201 OA
BRANCH  17  20
ATOM     20  N   UNL A   1      32.528  28.157  22.304  1.00  0.00    -0.215 NA
ATOM     21  H   UNL A   1      32.353  28.723  21.517  1.00  0.00     0.193 HD
BRANCH  20  22
ATOM     22  C   UNL A   1      32.821  28.720  23.467  1.00  0.00     0.191 C 
ATOM     23  N   UNL A   1      33.006  29.298  24.447  1.00  0.00    -0.172 NA
ENDBRANCH  20  22
ENDBRANCH  17  20
ENDBRANCH  13  17
ENDBRANCH   7   9
ENDBRANCH   6   7
ENDBRANCH   5   6
ENDBRANCH   4   5
ENDBRANCH   3   4
ENDBRANCH   2   3
ENDBRANCH   1   2
BRANCH   1  24
ATOM     24  O   UNL A   1      39.272  20.677  25.757  1.00  0.00    -0.377 OA
BRANCH  24  25
ATOM     25  C   UNL A   1      40.234  19.653  25.979  1.00  0.00     0.188 C 
BRANCH  25  26
ATOM     26  C   UNL A   1      41.469  19.865  26.910  1.00  0.00     0.188 C 
BRANCH  26  27
ATOM     27  O   UNL A   1      42.605  20.445  26.299  1.00  0.00    -0.376 OA
BRANCH  27  28
ATOM     28  C   UNL A   1      42.951  21.811  26.418  1.00  0.00     0.202 C 
BRANCH  28  29
ATOM     29  C   UNL A   1      41.945  22.929  26.124  1.00  0.00     0.261 C 
BRANCH  29  30
ATOM     30  O   UNL A   1      41.072  23.201  27.200  1.00  0.00    -0.460 OA
BRANCH  30  31
ATOM     31  C   UNL A   1      41.252  24.437  27.689  1.00  0.00     0.338 C 
ATOM     32  O   UNL A   1      42.232  24.887  28.258  1.00  0.00    -0.246 OA
BRANCH  31  33
ATOM     33  C   UNL A   1      40.027  25.208  27.398  1.00  0.00     0.060 A 
ATOM     34  C   UNL A   1      40.265  26.209  26.433  1.00  0.00     0.016 A 
ATOM     35  C   UNL A   1      39.389  25.456  28.603  1.00  0.00     0.016 A 
ATOM     36  C   UNL A   1      40.413  27.487  26.884  1.00  0.00     0.010 A 
ATOM     37  C   UNL A   1      39.605  26.703  29.086  1.00  0.00     0.010 A 
ATOM     38  C   UNL A   1      40.213  27.654  28.241  1.00  0.00    -0.014 A 
BRANCH  38  39
ATOM     39  C   UNL A   1      40.535  28.872  28.907  1.00  0.00     0.031 A 
ATOM     40  C   UNL A   1      39.439  29.836  28.888  1.00  0.00     0.074 A 
ATOM     41  C   UNL A   1      41.649  28.810  29.664  1.00  0.00     0.049 A 
ATOM     42  N   UNL A   1      39.564  31.070  29.185  1.00  0.00    -0.248 NA
ATOM     43  C   UNL A   1      38.084  29.497  28.426  1.00  0.00     0.031 C 
ATOM     44  C   UNL A   1      42.010  29.564  30.848  1.00  0.00     0.029 A 
ATOM     45  N   UNL A   1      42.813  28.084  29.353  1.00  0.00    -0.354 N 
ATOM     46  C   UNL A   1      38.287  31.534  29.399  1.00  0.00     0.074 A 
ATOM     47  C   UNL A   1      37.415  30.613  28.723  1.00  0.00     0.031 C 
ATOM     48  C   UNL A   1      43.347  29.518  31.001  1.00  0.00     0.029 A 
ATOM     49  C   UNL A   1      43.895  28.862  29.822  1.00  0.00     0.049 A 
ATOM     50  H   UNL A   1      42.863  27.212  28.900  1.00  0.00     0.167 HD
ATOM     51  C   UNL A   1      38.141  32.522  30.322  1.00  0.00     0.037 A 
ATOM     52  C   UNL A   1      44.707  29.467  28.901  1.00  0.00     0.037 A 
ATOM     53  C   UNL A   1      39.457  32.869  30.856  1.00  0.00     0.049 A 
ATOM     54  C   UNL A   1      44.519  30.974  28.846  1.00  0.00     0.074 A 
ATOM     55  C   UNL A   1      40.190  32.445  31.952  1.00  0.00     0.029 A 
ATOM     56  N   UNL A   1      40.363  33.435  29.990  1.00  0.00    -0.354 N 
ATOM     57  N   UNL A   1      43.512  31.606  29.386  1.00  0.00    -0.248 NA
ATOM     58  C   UNL A   1      45.418  31.876  28.129  1.00  0.00     0.031 C 
ATOM     59  C   UNL A   1      41.561  32.769  31.709  1.00  0.00     0.029 A 
ATOM     60  C   UNL A   1      41.651  33.374  30.467  1.00  0.00     0.049 A 
ATOM     61  H   UNL A   1      40.117  33.839  29.127  1.00  0.00     0.167 HD
ATOM     62  C   UNL A   1      43.610  32.945  29.126  1.00  0.00     0.074 A 
ATOM     63  C   UNL A   1      44.795  33.057  28.292  1.00  0.00     0.031 C 
ATOM     64  C   UNL A   1      42.714  33.859  29.605  1.00  0.00     0.037 A 
BRANCH  51  65
ATOM     65  C   UNL A   1      36.867  33.032  30.926  1.00  0.00     0.064 A 
ATOM     66  C   UNL A   1      35.979  33.772  30.114  1.00  0.00     0.173 A 
ATOM     67  C   UNL A   1      36.434  32.832  32.250  1.00  0.00     0.173 A 
ATOM     68  F   UNL A   1      36.237  34.003  28.820  1.00  0.00    -0.203 F 
ATOM     69  C   UNL A   1      34.781  34.295  30.591  1.00  0.00     0.198 A 
ATOM     70  C   UNL A   1      35.240  33.377  32.734  1.00  0.00     0.198 A 
ATOM     71  F   UNL A   1      37.112  32.070  33.113  1.00  0.00    -0.203 F 
ATOM     72  F   UNL A   1      33.985  34.982  29.760  1.00  0.00    -0.200 F 
ATOM     73  C   UNL A   1      34.414  34.106  31.904  1.00  0.00     0.200 A 
ATOM     74  F   UNL A   1      34.888  33.174  34.012  1.00  0.00    -0.200 F 
ATOM     75  F   UNL A   1      33.259  34.606  32.362  1.00  0.00    -0.200 F 
ENDBRANCH  51  65
BRANCH  52  76
ATOM     76  C   UNL A   1      44.931  28.586  27.711  1.00  0.00     0.064 A 
ATOM     77  C   UNL A   1      45.734  27.439  27.882  1.00  0.00     0.173 A 
ATOM     78  C   UNL A   1      44.042  28.595  26.629  1.00  0.00     0.173 A 
ATOM     79  F   UNL A   1      46.619  27.386  28.892  1.00  0.00    -0.203 F 
ATOM     80  C   UNL A   1      45.541  26.296  27.107  1.00  0.00     0.198 A 
ATOM     81  C   UNL A   1      43.860  27.451  25.847  1.00  0.00     0.198 A 
ATOM     82  F   UNL A   1      43.263  29.661  26.396  1.00  0.00    -0.203 F 
ATOM     83  F   UNL A   1      46.231  25.177  27.379  1.00  0.00    -0.200 F 
ATOM     84  C   UNL A   1      44.580  26.293  26.111  1.00  0.00     0.200 A 
ATOM     85  F   UNL A   1      42.922  27.442  24.889  1.00  0.00    -0.200 F 
ATOM     86  F   UNL A   1      44.319  25.171  25.425  1.00  0.00    -0.200 F 
ENDBRANCH  52  76
BRANCH  64  87
ATOM     87  C   UNL A   1      42.762  35.320  29.258  1.00  0.00     0.064 A 
ATOM     88  C   UNL A   1      42.313  35.798  28.022  1.00  0.00     0.173 A 
ATOM     89  C   UNL A   1      43.328  36.286  30.125  1.00  0.00     0.173 A 
ATOM     90  F   UNL A   1      41.875  34.953  27.077  1.00  0.00    -0.203 F 
ATOM     91  C   UNL A   1      42.312  37.161  27.725  1.00  0.00     0.198 A 
ATOM     92  C   UNL A   1      43.403  37.631  29.791  1.00  0.00     0.198 A 
ATOM     93  F   UNL A   1      43.792  35.975  31.342  1.00  0.00    -0.203 F 
ATOM     94  F   UNL A   1      41.770  37.586  26.577  1.00  0.00    -0.200 F 
ATOM     95  C   UNL A   1      42.859  38.076  28.608  1.00  0.00     0.200 A 
ATOM     96  F   UNL A   1      43.984  38.492  30.640  1.00  0.00    -0.200 F 
ATOM     97  F   UNL A   1      42.856  39.384  28.323  1.00  0.00    -0.200 F 
ENDBRANCH  64  87
ENDBRANCH  38  39
ENDBRANCH  31  33
ENDBRANCH  30  31
ENDBRANCH  29  30
ENDBRANCH  28  29
ENDBRANCH  27  28
ENDBRANCH  26  27
ENDBRANCH  25  26
ENDBRANCH  24  25
ENDBRANCH   1  24
TORSDOF 23
ENDMDL
MODEL 3
REMARK VINA RESULT:     -10.1      4.058      9.670
REMARK SMILES Cc1c(F)cc(C(=O)OCCOCCOCCOCCOC(=O)c2ccc(-c3c4nc(c(-c5c(F)c(F)c(F)c(F)c5F)c5ccc([nH]5)c(-c5c(F)c(F)c(F)c(F)c5F)c5nc(c(-c6c(F)c(F)c(F)c(F)c6F)c6ccc3[nH]6)C=C5)C=C4)cc2)cc1S(=O)(=O)NC#N
REMARK SMILES IDX 14 1 13 2 12 3 11 4 10 5 9 6 7 7 8 8 6 9 1 10 2 11 3 12
REMARK SMILES IDX 88 13 4 14 5 15 87 16 89 17 90 18 91 19 92 20 93 22 94 23
REMARK SMILES IDX 15 24 16 25 17 26 18 27 19 28 20 29 21 30 22 31 23 32 24 33
REMARK SMILES IDX 25 34 86 35 26 36 85 37 27 38 28 39 29 40 79 41 30 42 84 43
REMARK SMILES IDX 78 44 80 45 31 46 83 47 77 48 76 49 32 51 64 52 44 53 63 54
REMARK SMILES IDX 45 55 48 56 62 57 81 58 46 59 47 60 61 62 82 63 49 64 33 65
REMARK SMILES IDX 34 66 42 67 35 68 36 69 40 70 43 71 37 72 38 73 41 74 39 75
REMARK SMILES IDX 65 76 66 77 74 78 67 79 68 80 72 81 75 82 69 83 70 84 73 85
REMARK SMILES IDX 71 86 50 87 51 88 59 89 52 90 53 91 57 92 60 93 54 94 55 95
REMARK SMILES IDX 58 96 56 97
REMARK H PARENT 92 21 80 50 48 61
REMARK Flexibility Score: inf
ROOT
ATOM      1  C   UNL A   1      34.170  34.679  29.442  1.00  0.00     0.188 C 
ENDROOT
BRANCH   1   2
ATOM      2  C   UNL A   1      33.958  34.130  28.010  1.00  0.00     0.188 C 
BRANCH   2   3
ATOM      3  O   UNL A   1      34.830  33.088  27.630  1.00  0.00    -0.376 OA
BRANCH   3   4
ATOM      4  C   UNL A   1      34.687  31.788  28.164  1.00  0.00     0.202 C 
BRANCH   4   5
ATOM      5  C   UNL A   1      33.564  30.827  27.722  1.00  0.00     0.261 C 
BRANCH   5   6
ATOM      6  O   UNL A   1      32.971  31.046  26.434  1.00  0.00    -0.460 OA
BRANCH   6   7
ATOM      7  C   UNL A   1      31.735  31.591  26.432  1.00  0.00     0.338 C 
ATOM      8  O   UNL A   1      31.382  32.592  27.032  1.00  0.00    -0.246 OA
BRANCH   7   9
ATOM      9  C   UNL A   1      30.915  30.948  25.376  1.00  0.00     0.064 A 
ATOM     10  C   UNL A   1      28.458  29.538  22.120  1.00  0.00     0.049 C 
ATOM     11  C   UNL A   1      29.369  29.916  23.246  1.00  0.00     0.005 A 
ATOM     12  C   UNL A   1      29.170  31.211  23.757  1.00  0.00     0.128 A 
ATOM     13  C   UNL A   1      30.352  29.105  23.852  1.00  0.00     0.095 A 
ATOM     14  F   UNL A   1      28.251  32.012  23.198  1.00  0.00    -0.207 F 
ATOM     15  C   UNL A   1      29.910  31.723  24.809  1.00  0.00     0.055 A 
ATOM     16  C   UNL A   1      31.152  29.655  24.891  1.00  0.00     0.038 A 
BRANCH  13  17
ATOM     17  S   UNL A   1      30.865  27.489  23.250  1.00  0.00     0.270 S 
ATOM     18  O   UNL A   1      30.089  26.490  23.948  1.00  0.00    -0.201 OA
ATOM     19  O   UNL A   1      30.782  27.571  21.801  1.00  0.00    -0.201 OA
BRANCH  17  20
ATOM     20  N   UNL A   1      32.487  27.171  23.478  1.00  0.00    -0.215 NA
ATOM     21  H   UNL A   1      32.772  26.579  24.212  1.00  0.00     0.193 HD
BRANCH  20  22
ATOM     22  C   UNL A   1      33.393  27.710  22.676  1.00  0.00     0.191 C 
ATOM     23  N   UNL A   1      34.100  28.175  21.894  1.00  0.00    -0.172 NA
ENDBRANCH  20  22
ENDBRANCH  17  20
ENDBRANCH  13  17
ENDBRANCH   7   9
ENDBRANCH   6   7
ENDBRANCH   5   6
ENDBRANCH   4   5
ENDBRANCH   3   4
ENDBRANCH   2   3
ENDBRANCH   1   2
BRANCH   1  24
ATOM     24  O   UNL A   1      33.093  34.690  30.366  1.00  0.00    -0.377 OA
BRANCH  24  25
ATOM     25  C   UNL A   1      32.567  35.937  30.805  1.00  0.00     0.188 C 
BRANCH  25  26
ATOM     26  C   UNL A   1      33.419  36.949  31.633  1.00  0.00     0.188 C 
BRANCH  26  27
ATOM     27  O   UNL A   1      33.560  36.650  33.009  1.00  0.00    -0.376 OA
BRANCH  27  28
ATOM     28  C   UNL A   1      34.424  35.649  33.512  1.00  0.00     0.202 C 
BRANCH  28  29
ATOM     29  C   UNL A   1      35.802  35.385  32.895  1.00  0.00     0.261 C 
BRANCH  29  30
ATOM     30  O   UNL A   1      35.982  34.054  32.461  1.00  0.00    -0.460 OA
BRANCH  30  31
ATOM     31  C   UNL A   1      37.113  33.907  31.757  1.00  0.00     0.338 C 
ATOM     32  O   UNL A   1      38.132  34.575  31.818  1.00  0.00    -0.246 OA
BRANCH  31  33
ATOM     33  C   UNL A   1      36.930  32.743  30.867  1.00  0.00     0.060 A 
ATOM     34  C   UNL A   1      36.735  31.556  31.605  1.00  0.00     0.016 A 
ATOM     35  C   UNL A   1      37.851  32.851  29.837  1.00  0.00     0.016 A 
ATOM     36  C   UNL A   1      37.802  30.716  31.727  1.00  0.00     0.010 A 
ATOM     37  C   UNL A   1      38.947  32.072  30.004  1.00  0.00     0.010 A 
ATOM     38  C   UNL A   1      38.927  31.096  31.022  1.00  0.00    -0.014 A 
BRANCH  38  39
ATOM     39  C   UNL A   1      40.186  30.454  31.207  1.00  0.00     0.031 A 
ATOM     40  C   UNL A   1      40.257  29.147  30.562  1.00  0.00     0.074 A 
ATOM     41  C   UNL A   1      41.155  31.264  31.679  1.00  0.00     0.049 A 
ATOM     42  N   UNL A   1      41.165  28.282  30.793  1.00  0.00    -0.248 NA
ATOM     43  C   UNL A   1      39.222  28.653  29.640  1.00  0.00     0.031 C 
ATOM     44  C   UNL A   1      42.592  31.191  31.506  1.00  0.00     0.029 A 
ATOM     45  N   UNL A   1      40.975  32.299  32.615  1.00  0.00    -0.354 N 
ATOM     46  C   UNL A   1      41.093  27.379  29.757  1.00  0.00     0.074 A 
ATOM     47  C   UNL A   1      39.774  27.519  29.204  1.00  0.00     0.031 C 
ATOM     48  C   UNL A   1      43.184  31.895  32.490  1.00  0.00     0.029 A 
ATOM     49  C   UNL A   1      42.139  32.307  33.416  1.00  0.00     0.049 A 
ATOM     50  H   UNL A   1      40.197  32.896  32.695  1.00  0.00     0.167 HD
ATOM     51  C   UNL A   1      42.259  26.795  29.371  1.00  0.00     0.037 A 
ATOM     52  C   UNL A   1      42.037  31.882  34.714  1.00  0.00     0.037 A 
ATOM     53  C   UNL A   1      43.340  27.287  30.224  1.00  0.00     0.049 A 
ATOM     54  C   UNL A   1      42.695  30.533  34.948  1.00  0.00     0.074 A 
ATOM     55  C   UNL A   1      44.245  28.331  30.120  1.00  0.00     0.029 A 
ATOM     56  N   UNL A   1      43.295  26.956  31.558  1.00  0.00    -0.354 N 
ATOM     57  N   UNL A   1      43.063  29.722  33.993  1.00  0.00    -0.248 NA
ATOM     58  C   UNL A   1      42.936  29.969  36.274  1.00  0.00     0.031 C 
ATOM     59  C   UNL A   1      44.732  28.616  31.433  1.00  0.00     0.029 A 
ATOM     60  C   UNL A   1      44.112  27.754  32.323  1.00  0.00     0.049 A 
ATOM     61  H   UNL A   1      42.742  26.229  31.924  1.00  0.00     0.167 HD
ATOM     62  C   UNL A   1      43.583  28.577  34.529  1.00  0.00     0.074 A 
ATOM     63  C   UNL A   1      43.434  28.759  35.963  1.00  0.00     0.031 C 
ATOM     64  C   UNL A   1      44.088  27.564  33.762  1.00  0.00     0.037 A 
BRANCH  51  65
ATOM     65  C   UNL A   1      42.515  25.983  28.137  1.00  0.00     0.064 A 
ATOM     66  C   UNL A   1      42.673  26.653  26.903  1.00  0.00     0.173 A 
ATOM     67  C   UNL A   1      42.638  24.582  28.073  1.00  0.00     0.173 A 
ATOM     68  F   UNL A   1      42.626  27.989  26.818  1.00  0.00    -0.203 F 
ATOM     69  C   UNL A   1      42.899  25.981  25.706  1.00  0.00     0.198 A 
ATOM     70  C   UNL A   1      42.845  23.907  26.865  1.00  0.00     0.198 A 
ATOM     71  F   UNL A   1      42.613  23.815  29.167  1.00  0.00    -0.203 F 
ATOM     72  F   UNL A   1      43.047  26.683  24.574  1.00  0.00    -0.200 F 
ATOM     73  C   UNL A   1      42.977  24.607  25.684  1.00  0.00     0.200 A 
ATOM     74  F   UNL A   1      42.930  22.569  26.860  1.00  0.00    -0.200 F 
ATOM     75  F   UNL A   1      43.200  23.961  24.532  1.00  0.00    -0.200 F 
ENDBRANCH  51  65
BRANCH  52  76
ATOM     76  C   UNL A   1      40.748  32.326  35.332  1.00  0.00     0.064 A 
ATOM     77  C   UNL A   1      40.649  33.668  35.758  1.00  0.00     0.173 A 
ATOM     78  C   UNL A   1      39.553  31.640  35.083  1.00  0.00     0.173 A 
ATOM     79  F   UNL A   1      41.764  34.367  36.031  1.00  0.00    -0.203 F 
ATOM     80  C   UNL A   1      39.425  34.336  35.776  1.00  0.00     0.198 A 
ATOM     81  C   UNL A   1      38.327  32.311  35.113  1.00  0.00     0.198 A 
ATOM     82  F   UNL A   1      39.573  30.357  34.694  1.00  0.00    -0.203 F 
ATOM     83  F   UNL A   1      39.381  35.647  36.060  1.00  0.00    -0.200 F 
ATOM     84  C   UNL A   1      38.269  33.664  35.420  1.00  0.00     0.200 A 
ATOM     85  F   UNL A   1      37.207  31.664  34.759  1.00  0.00    -0.200 F 
ATOM     86  F   UNL A   1      37.101  34.319  35.340  1.00  0.00    -0.200 F 
ENDBRANCH  52  76
BRANCH  64  87
ATOM     87  C   UNL A   1      44.584  26.266  34.335  1.00  0.00     0.064 A 
ATOM     88  C   UNL A   1      45.950  25.990  34.459  1.00  0.00     0.173 A 
ATOM     89  C   UNL A   1      43.706  25.222  34.714  1.00  0.00     0.173 A 
ATOM     90  F   UNL A   1      46.869  26.858  34.012  1.00  0.00    -0.203 F 
ATOM     91  C   UNL A   1      46.404  24.806  35.039  1.00  0.00     0.198 A 
ATOM     92  C   UNL A   1      44.164  24.010  35.213  1.00  0.00     0.198 A 
ATOM     93  F   UNL A   1      42.374  25.346  34.657  1.00  0.00    -0.203 F 
ATOM     94  F   UNL A   1      47.716  24.630  35.241  1.00  0.00    -0.200 F 
ATOM     95  C   UNL A   1      45.512  23.816  35.414  1.00  0.00     0.200 A 
ATOM     96  F   UNL A   1      43.284  23.047  35.521  1.00  0.00    -0.200 F 
ATOM     97  F   UNL A   1      45.948  22.681  35.973  1.00  0.00    -0.200 F 
ENDBRANCH  64  87
ENDBRANCH  38  39
ENDBRANCH  31  33
ENDBRANCH  30  31
ENDBRANCH  29  30
ENDBRANCH  28  29
ENDBRANCH  27  28
ENDBRANCH  26  27
ENDBRANCH  25  26
ENDBRANCH  24  25
ENDBRANCH   1  24
TORSDOF 23
ENDMDL
