MODEL 1
REMARK VINA RESULT:      -9.5      0.000      0.000
REMARK SMILES C[C@@H](C(=O)OCCOCCOCCOCCOC(=O)c1ccc(-c2c3nc(c(-c4c(F)c(F)c(F)c(F)c4F)c4ccc([nH]4)c(-c4c(F)c(F)c(F)c(F)c4F)c4nc(c(-c5c(F)c(F)c(F)c(F)c5F)c5ccc2[nH]5)C=C4)C=C3)cc1)c1ccc2c3cc(Cl)ccc3n(C(=O)c3ccc(Cl)cc3)c2c1
REMARK SMILES IDX 10 1 9 2 8 3 7 4 6 5 5 6 3 7 4 8 2 9 1 10 83 11 84 12 105 13
REMARK SMILES IDX 85 14 104 15 86 16 94 17 87 18 93 19 88 20 92 21 89 22 91 23
REMARK SMILES IDX 90 24 95 25 96 26 97 27 98 28 103 29 99 30 102 31 100 32
REMARK SMILES IDX 101 33 11 34 12 35 13 36 14 37 15 38 16 39 17 40 18 41 19 42
REMARK SMILES IDX 20 43 21 44 82 45 22 46 81 47 23 48 24 49 25 50 75 51 26 52
REMARK SMILES IDX 80 53 74 54 76 55 27 56 79 57 73 58 72 59 28 61 60 62 40 63
REMARK SMILES IDX 59 64 41 65 44 66 58 67 77 68 42 69 43 70 57 72 78 73 45 74
REMARK SMILES IDX 29 75 30 76 38 77 31 78 32 79 36 80 39 81 33 82 34 83 37 84
REMARK SMILES IDX 35 85 61 86 62 87 70 88 63 89 64 90 68 91 71 92 65 93 66 94
REMARK SMILES IDX 69 95 67 96 46 97 47 98 55 99 48 100 49 101 53 102 56 103
REMARK SMILES IDX 50 104 51 105 54 106 52 107
REMARK H PARENT 76 60 44 71
REMARK Flexibility Score: inf
ROOT
ATOM      1  C   UNL A   1      38.753  29.789  29.121  1.00  0.00     0.188 C 
ENDROOT
BRANCH   1   2
ATOM      2  C   UNL A   1      40.089  30.385  29.583  1.00  0.00     0.188 C 
BRANCH   2   3
ATOM      3  O   UNL A   1      40.612  29.864  30.787  1.00  0.00    -0.376 OA
BRANCH   3   4
ATOM      4  C   UNL A   1      41.998  29.934  31.070  1.00  0.00     0.202 C 
BRANCH   4   5
ATOM      5  C   UNL A   1      43.017  28.774  30.969  1.00  0.00     0.261 C 
BRANCH   5   6
ATOM      6  O   UNL A   1      42.531  27.470  30.627  1.00  0.00    -0.463 OA
BRANCH   6   7
ATOM      7  C   UNL A   1      42.901  26.971  29.423  1.00  0.00     0.313 C 
ATOM      8  O   UNL A   1      43.357  27.666  28.520  1.00  0.00    -0.252 OA
BRANCH   7   9
ATOM      9  C   UNL A   1      42.742  25.440  29.306  1.00  0.00     0.126 C 
ATOM     10  C   UNL A   1      44.022  24.630  29.052  1.00  0.00     0.025 C 
BRANCH   9  11
ATOM     11  C   UNL A   1      41.514  25.059  28.472  1.00  0.00    -0.032 A 
ATOM     12  C   UNL A   1      40.402  25.873  28.224  1.00  0.00     0.005 A 
ATOM     13  C   UNL A   1      41.500  23.755  27.956  1.00  0.00     0.032 A 
ATOM     14  C   UNL A   1      39.316  25.419  27.452  1.00  0.00     0.011 A 
ATOM     15  C   UNL A   1      40.392  23.285  27.231  1.00  0.00     0.057 A 
ATOM     16  C   UNL A   1      39.327  24.113  26.920  1.00  0.00     0.008 A 
ATOM     17  N   UNL A   1      40.144  22.012  26.715  1.00  0.00    -0.276 N 
ATOM     18  C   UNL A   1      38.455  23.368  26.077  1.00  0.00     0.009 A 
ATOM     19  C   UNL A   1      38.943  22.051  26.001  1.00  0.00     0.057 A 
ATOM     20  C   UNL A   1      37.265  23.710  25.399  1.00  0.00     0.031 A 
ATOM     21  C   UNL A   1      38.189  21.044  25.369  1.00  0.00     0.029 A 
ATOM     22  C   UNL A   1      36.562  22.724  24.712  1.00  0.00     0.041 A 
ATOM     23  C   UNL A   1      37.001  21.406  24.720  1.00  0.00     0.023 A 
ATOM     24  Cl  UNL A   1      35.122  23.147  23.868  1.00  0.00    -0.084 Cl
BRANCH  17  25
ATOM     25  C   UNL A   1      40.973  20.910  27.028  1.00  0.00     0.262 C 
ATOM     26  O   UNL A   1      40.669  20.306  28.059  1.00  0.00    -0.268 OA
BRANCH  25  27
ATOM     27  C   UNL A   1      42.208  20.439  26.340  1.00  0.00     0.040 A 
ATOM     28  C   UNL A   1      43.116  21.442  25.933  1.00  0.00     0.015 A 
ATOM     29  C   UNL A   1      42.465  19.117  25.970  1.00  0.00     0.015 A 
ATOM     30  C   UNL A   1      44.259  21.137  25.195  1.00  0.00     0.021 A 
ATOM     31  C   UNL A   1      43.632  18.807  25.250  1.00  0.00     0.021 A 
ATOM     32  C   UNL A   1      44.519  19.815  24.864  1.00  0.00     0.041 A 
ATOM     33  Cl  UNL A   1      45.927  19.429  23.955  1.00  0.00    -0.084 Cl
ENDBRANCH  25  27
ENDBRANCH  17  25
ENDBRANCH   9  11
ENDBRANCH   7   9
ENDBRANCH   6   7
ENDBRANCH   5   6
ENDBRANCH   4   5
ENDBRANCH   3   4
ENDBRANCH   2   3
ENDBRANCH   1   2
BRANCH   1  34
ATOM     34  O   UNL A   1      37.910  29.267  30.130  1.00  0.00    -0.377 OA
BRANCH  34  35
ATOM     35  C   UNL A   1      36.611  29.812  30.290  1.00  0.00     0.188 C 
BRANCH  35  36
ATOM     36  C   UNL A   1      36.281  30.802  31.426  1.00  0.00     0.188 C 
BRANCH  36  37
ATOM     37  O   UNL A   1      35.991  32.127  31.011  1.00  0.00    -0.376 OA
BRANCH  37  38
ATOM     38  C   UNL A   1      34.642  32.564  31.016  1.00  0.00     0.202 C 
BRANCH  38  39
ATOM     39  C   UNL A   1      34.393  34.079  31.024  1.00  0.00     0.261 C 
BRANCH  39  40
ATOM     40  O   UNL A   1      35.423  34.885  31.615  1.00  0.00    -0.460 OA
BRANCH  40  41
ATOM     41  C   UNL A   1      35.336  35.133  32.938  1.00  0.00     0.338 C 
ATOM     42  O   UNL A   1      34.418  35.675  33.531  1.00  0.00    -0.246 OA
BRANCH  41  43
ATOM     43  C   UNL A   1      36.474  34.463  33.596  1.00  0.00     0.060 A 
ATOM     44  C   UNL A   1      36.243  33.723  34.764  1.00  0.00     0.016 A 
ATOM     45  C   UNL A   1      37.758  34.542  33.049  1.00  0.00     0.016 A 
ATOM     46  C   UNL A   1      37.304  33.087  35.408  1.00  0.00     0.010 A 
ATOM     47  C   UNL A   1      38.823  33.928  33.710  1.00  0.00     0.010 A 
ATOM     48  C   UNL A   1      38.606  33.226  34.911  1.00  0.00    -0.014 A 
BRANCH  48  49
ATOM     49  C   UNL A   1      39.759  32.828  35.753  1.00  0.00     0.031 A 
ATOM     50  C   UNL A   1      40.248  33.801  36.788  1.00  0.00     0.074 A 
ATOM     51  C   UNL A   1      40.341  31.623  35.624  1.00  0.00     0.049 A 
ATOM     52  N   UNL A   1      41.263  33.706  37.609  1.00  0.00    -0.248 NA
ATOM     53  C   UNL A   1      39.487  35.055  36.916  1.00  0.00     0.031 C 
ATOM     54  C   UNL A   1      39.920  30.573  34.700  1.00  0.00     0.029 A 
ATOM     55  N   UNL A   1      41.421  31.085  36.280  1.00  0.00    -0.354 N 
ATOM     56  C   UNL A   1      41.270  34.890  38.334  1.00  0.00     0.074 A 
ATOM     57  C   UNL A   1      40.175  35.698  37.847  1.00  0.00     0.031 C 
ATOM     58  C   UNL A   1      40.736  29.514  34.845  1.00  0.00     0.029 A 
ATOM     59  C   UNL A   1      41.758  29.827  35.844  1.00  0.00     0.049 A 
ATOM     60  H   UNL A   1      41.906  31.555  36.995  1.00  0.00     0.167 HD
ATOM     61  C   UNL A   1      42.113  35.265  39.325  1.00  0.00     0.037 A 
ATOM     62  C   UNL A   1      42.787  29.033  36.200  1.00  0.00     0.037 A 
ATOM     63  C   UNL A   1      43.198  34.457  39.810  1.00  0.00     0.049 A 
ATOM     64  C   UNL A   1      43.762  29.512  37.247  1.00  0.00     0.074 A 
ATOM     65  C   UNL A   1      44.095  34.739  40.825  1.00  0.00     0.029 A 
ATOM     66  N   UNL A   1      43.540  33.210  39.309  1.00  0.00    -0.354 N 
ATOM     67  N   UNL A   1      43.756  30.624  37.941  1.00  0.00    -0.248 NA
ATOM     68  C   UNL A   1      44.890  28.621  37.558  1.00  0.00     0.031 C 
ATOM     69  C   UNL A   1      45.021  33.695  40.891  1.00  0.00     0.029 A 
ATOM     70  C   UNL A   1      44.657  32.726  39.970  1.00  0.00     0.049 A 
ATOM     71  H   UNL A   1      43.061  32.739  38.588  1.00  0.00     0.167 HD
ATOM     72  C   UNL A   1      44.851  30.550  38.794  1.00  0.00     0.074 A 
ATOM     73  C   UNL A   1      45.494  29.279  38.537  1.00  0.00     0.031 C 
ATOM     74  C   UNL A   1      45.282  31.452  39.712  1.00  0.00     0.037 A 
BRANCH  61  75
ATOM     75  C   UNL A   1      41.920  36.628  39.925  1.00  0.00     0.064 A 
ATOM     76  C   UNL A   1      41.130  36.834  41.065  1.00  0.00     0.173 A 
ATOM     77  C   UNL A   1      42.578  37.739  39.374  1.00  0.00     0.173 A 
ATOM     78  F   UNL A   1      40.466  35.809  41.622  1.00  0.00    -0.203 F 
ATOM     79  C   UNL A   1      40.991  38.104  41.621  1.00  0.00     0.198 A 
ATOM     80  C   UNL A   1      42.462  39.000  39.950  1.00  0.00     0.198 A 
ATOM     81  F   UNL A   1      43.346  37.598  38.282  1.00  0.00    -0.203 F 
ATOM     82  F   UNL A   1      40.197  38.285  42.684  1.00  0.00    -0.200 F 
ATOM     83  C   UNL A   1      41.665  39.183  41.069  1.00  0.00     0.200 A 
ATOM     84  F   UNL A   1      43.126  40.039  39.423  1.00  0.00    -0.200 F 
ATOM     85  F   UNL A   1      41.541  40.401  41.613  1.00  0.00    -0.200 F 
ENDBRANCH  61  75
BRANCH  62  86
ATOM     86  C   UNL A   1      42.953  27.697  35.567  1.00  0.00     0.064 A 
ATOM     87  C   UNL A   1      42.327  26.563  36.101  1.00  0.00     0.173 A 
ATOM     88  C   UNL A   1      43.755  27.523  34.429  1.00  0.00     0.173 A 
ATOM     89  F   UNL A   1      41.574  26.673  37.206  1.00  0.00    -0.203 F 
ATOM     90  C   UNL A   1      42.508  25.303  35.533  1.00  0.00     0.198 A 
ATOM     91  C   UNL A   1      43.910  26.268  33.842  1.00  0.00     0.198 A 
ATOM     92  F   UNL A   1      44.382  28.573  33.881  1.00  0.00    -0.203 F 
ATOM     93  F   UNL A   1      41.936  24.229  36.094  1.00  0.00    -0.200 F 
ATOM     94  C   UNL A   1      43.293  25.158  34.400  1.00  0.00     0.200 A 
ATOM     95  F   UNL A   1      44.662  26.134  32.741  1.00  0.00    -0.200 F 
ATOM     96  F   UNL A   1      43.463  23.948  33.850  1.00  0.00    -0.200 F 
ENDBRANCH  62  86
BRANCH  74  97
ATOM     97  C   UNL A   1      46.477  31.083  40.546  1.00  0.00     0.064 A 
ATOM     98  C   UNL A   1      47.781  31.443  40.176  1.00  0.00     0.173 A 
ATOM     99  C   UNL A   1      46.306  30.402  41.762  1.00  0.00     0.173 A 
ATOM    100  F   UNL A   1      48.002  32.085  39.019  1.00  0.00    -0.203 F 
ATOM    101  C   UNL A   1      48.871  31.108  40.977  1.00  0.00     0.198 A 
ATOM    102  C   UNL A   1      47.394  30.104  42.578  1.00  0.00     0.198 A 
ATOM    103  F   UNL A   1      45.079  30.045  42.171  1.00  0.00    -0.203 F 
ATOM    104  F   UNL A   1      50.112  31.416  40.577  1.00  0.00    -0.200 F 
ATOM    105  C   UNL A   1      48.676  30.448  42.180  1.00  0.00     0.200 A 
ATOM    106  F   UNL A   1      47.199  29.483  43.751  1.00  0.00    -0.200 F 
ATOM    107  F   UNL A   1      49.725  30.138  42.954  1.00  0.00    -0.200 F 
ENDBRANCH  74  97
ENDBRANCH  48  49
ENDBRANCH  41  43
ENDBRANCH  40  41
ENDBRANCH  39  40
ENDBRANCH  38  39
ENDBRANCH  37  38
ENDBRANCH  36  37
ENDBRANCH  35  36
ENDBRANCH  34  35
ENDBRANCH   1  34
TORSDOF 23
ENDMDL
MODEL 2
REMARK VINA RESULT:      -9.4      5.630     10.747
REMARK SMILES C[C@@H](C(=O)OCCOCCOCCOCCOC(=O)c1ccc(-c2c3nc(c(-c4c(F)c(F)c(F)c(F)c4F)c4ccc([nH]4)c(-c4c(F)c(F)c(F)c(F)c4F)c4nc(c(-c5c(F)c(F)c(F)c(F)c5F)c5ccc2[nH]5)C=C4)C=C3)cc1)c1ccc2c3cc(Cl)ccc3n(C(=O)c3ccc(Cl)cc3)c2c1
REMARK SMILES IDX 10 1 9 2 8 3 7 4 6 5 5 6 3 7 4 8 2 9 1 10 83 11 84 12 105 13
REMARK SMILES IDX 85 14 104 15 86 16 94 17 87 18 93 19 88 20 92 21 89 22 91 23
REMARK SMILES IDX 90 24 95 25 96 26 97 27 98 28 103 29 99 30 102 31 100 32
REMARK SMILES IDX 101 33 11 34 12 35 13 36 14 37 15 38 16 39 17 40 18 41 19 42
REMARK SMILES IDX 20 43 21 44 82 45 22 46 81 47 23 48 24 49 25 50 75 51 26 52
REMARK SMILES IDX 80 53 74 54 76 55 27 56 79 57 73 58 72 59 28 61 60 62 40 63
REMARK SMILES IDX 59 64 41 65 44 66 58 67 77 68 42 69 43 70 57 72 78 73 45 74
REMARK SMILES IDX 29 75 30 76 38 77 31 78 32 79 36 80 39 81 33 82 34 83 37 84
REMARK SMILES IDX 35 85 61 86 62 87 70 88 63 89 64 90 68 91 71 92 65 93 66 94
REMARK SMILES IDX 69 95 67 96 46 97 47 98 55 99 48 100 49 101 53 102 56 103
REMARK SMILES IDX 50 104 51 105 54 106 52 107
REMARK H PARENT 76 60 44 71
REMARK Flexibility Score: inf
ROOT
ATOM      1  C   UNL A   1      40.800  22.719  27.218  1.00  0.00     0.188 C 
ENDROOT
BRANCH   1   2
ATOM      2  C   UNL A   1      39.451  22.983  26.534  1.00  0.00     0.188 C 
BRANCH   2   3
ATOM      3  O   UNL A   1      38.844  21.867  25.919  1.00  0.00    -0.376 OA
BRANCH   3   4
ATOM      4  C   UNL A   1      37.445  21.827  25.701  1.00  0.00     0.202 C 
BRANCH   4   5
ATOM      5  C   UNL A   1      36.730  21.553  24.357  1.00  0.00     0.261 C 
BRANCH   5   6
ATOM      6  O   UNL A   1      35.644  22.408  23.977  1.00  0.00    -0.463 OA
BRANCH   6   7
ATOM      7  C   UNL A   1      34.390  21.947  24.204  1.00  0.00     0.313 C 
ATOM      8  O   UNL A   1      34.157  20.867  24.737  1.00  0.00    -0.252 OA
BRANCH   7   9
ATOM      9  C   UNL A   1      33.278  22.928  23.773  1.00  0.00     0.126 C 
ATOM     10  C   UNL A   1      32.931  22.965  22.278  1.00  0.00     0.025 C 
BRANCH   9  11
ATOM     11  C   UNL A   1      33.410  24.281  24.480  1.00  0.00    -0.032 A 
ATOM     12  C   UNL A   1      34.371  24.618  25.441  1.00  0.00     0.005 A 
ATOM     13  C   UNL A   1      32.442  25.243  24.156  1.00  0.00     0.032 A 
ATOM     14  C   UNL A   1      34.396  25.891  26.041  1.00  0.00     0.011 A 
ATOM     15  C   UNL A   1      32.436  26.494  24.795  1.00  0.00     0.057 A 
ATOM     16  C   UNL A   1      33.431  26.856  25.687  1.00  0.00     0.008 A 
ATOM     17  N   UNL A   1      31.521  27.543  24.683  1.00  0.00    -0.276 N 
ATOM     18  C   UNL A   1      33.197  28.215  26.039  1.00  0.00     0.009 A 
ATOM     19  C   UNL A   1      31.982  28.614  25.454  1.00  0.00     0.057 A 
ATOM     20  C   UNL A   1      33.916  29.127  26.842  1.00  0.00     0.031 A 
ATOM     21  C   UNL A   1      31.412  29.862  25.769  1.00  0.00     0.029 A 
ATOM     22  C   UNL A   1      33.382  30.389  27.090  1.00  0.00     0.041 A 
ATOM     23  C   UNL A   1      32.137  30.742  26.585  1.00  0.00     0.023 A 
ATOM     24  Cl  UNL A   1      34.269  31.507  28.052  1.00  0.00    -0.084 Cl
BRANCH  17  25
ATOM     25  C   UNL A   1      30.304  27.395  23.979  1.00  0.00     0.262 C 
ATOM     26  O   UNL A   1      29.800  26.271  24.042  1.00  0.00    -0.268 OA
BRANCH  25  27
ATOM     27  C   UNL A   1      29.600  28.373  23.103  1.00  0.00     0.040 A 
ATOM     28  C   UNL A   1      30.423  29.226  22.334  1.00  0.00     0.015 A 
ATOM     29  C   UNL A   1      28.220  28.584  23.084  1.00  0.00     0.015 A 
ATOM     30  C   UNL A   1      29.887  30.247  21.550  1.00  0.00     0.021 A 
ATOM     31  C   UNL A   1      27.679  29.596  22.272  1.00  0.00     0.021 A 
ATOM     32  C   UNL A   1      28.511  30.423  21.514  1.00  0.00     0.041 A 
ATOM     33  Cl  UNL A   1      27.841  31.678  20.550  1.00  0.00    -0.084 Cl
ENDBRANCH  25  27
ENDBRANCH  17  25
ENDBRANCH   9  11
ENDBRANCH   7   9
ENDBRANCH   6   7
ENDBRANCH   5   6
ENDBRANCH   4   5
ENDBRANCH   3   4
ENDBRANCH   2   3
ENDBRANCH   1   2
BRANCH   1  34
ATOM     34  O   UNL A   1      41.808  23.692  27.025  1.00  0.00    -0.377 OA
BRANCH  34  35
ATOM     35  C   UNL A   1      42.769  23.491  26.004  1.00  0.00     0.188 C 
BRANCH  35  36
ATOM     36  C   UNL A   1      43.339  22.092  25.689  1.00  0.00     0.188 C 
BRANCH  36  37
ATOM     37  O   UNL A   1      44.752  21.985  25.749  1.00  0.00    -0.376 OA
BRANCH  37  38
ATOM     38  C   UNL A   1      45.504  23.104  26.187  1.00  0.00     0.202 C 
BRANCH  38  39
ATOM     39  C   UNL A   1      46.315  23.866  25.128  1.00  0.00     0.261 C 
BRANCH  39  40
ATOM     40  O   UNL A   1      45.760  25.114  24.687  1.00  0.00    -0.460 OA
BRANCH  40  41
ATOM     41  C   UNL A   1      46.580  26.185  24.660  1.00  0.00     0.338 C 
ATOM     42  O   UNL A   1      47.475  26.413  23.863  1.00  0.00    -0.246 OA
BRANCH  41  43
ATOM     43  C   UNL A   1      46.089  27.151  25.662  1.00  0.00     0.060 A 
ATOM     44  C   UNL A   1      47.012  27.777  26.510  1.00  0.00     0.016 A 
ATOM     45  C   UNL A   1      44.728  27.456  25.747  1.00  0.00     0.016 A 
ATOM     46  C   UNL A   1      46.573  28.688  27.471  1.00  0.00     0.010 A 
ATOM     47  C   UNL A   1      44.286  28.347  26.727  1.00  0.00     0.010 A 
ATOM     48  C   UNL A   1      45.203  28.941  27.615  1.00  0.00    -0.014 A 
BRANCH  48  49
ATOM     49  C   UNL A   1      44.712  29.649  28.821  1.00  0.00     0.031 A 
ATOM     50  C   UNL A   1      44.483  31.131  28.726  1.00  0.00     0.074 A 
ATOM     51  C   UNL A   1      44.448  28.994  29.964  1.00  0.00     0.049 A 
ATOM     52  N   UNL A   1      44.106  31.979  29.649  1.00  0.00    -0.248 NA
ATOM     53  C   UNL A   1      44.711  31.743  27.406  1.00  0.00     0.031 C 
ATOM     54  C   UNL A   1      44.572  27.551  30.161  1.00  0.00     0.029 A 
ATOM     55  N   UNL A   1      44.019  29.466  31.180  1.00  0.00    -0.354 N 
ATOM     56  C   UNL A   1      44.068  33.219  29.026  1.00  0.00     0.074 A 
ATOM     57  C   UNL A   1      44.480  33.023  27.655  1.00  0.00     0.031 C 
ATOM     58  C   UNL A   1      44.230  27.255  31.428  1.00  0.00     0.029 A 
ATOM     59  C   UNL A   1      43.900  28.490  32.138  1.00  0.00     0.049 A 
ATOM     60  H   UNL A   1      43.816  30.414  31.348  1.00  0.00     0.167 HD
ATOM     61  C   UNL A   1      43.713  34.415  29.553  1.00  0.00     0.037 A 
ATOM     62  C   UNL A   1      43.580  28.592  33.443  1.00  0.00     0.037 A 
ATOM     63  C   UNL A   1      43.300  34.605  30.917  1.00  0.00     0.049 A 
ATOM     64  C   UNL A   1      43.273  29.950  34.026  1.00  0.00     0.074 A 
ATOM     65  C   UNL A   1      42.901  35.774  31.540  1.00  0.00     0.029 A 
ATOM     66  N   UNL A   1      43.241  33.602  31.872  1.00  0.00    -0.354 N 
ATOM     67  N   UNL A   1      43.223  31.117  33.431  1.00  0.00    -0.248 NA
ATOM     68  C   UNL A   1      42.977  30.001  35.466  1.00  0.00     0.031 C 
ATOM     69  C   UNL A   1      42.667  35.490  32.888  1.00  0.00     0.029 A 
ATOM     70  C   UNL A   1      42.846  34.131  33.089  1.00  0.00     0.049 A 
ATOM     71  H   UNL A   1      43.451  32.653  31.709  1.00  0.00     0.167 HD
ATOM     72  C   UNL A   1      42.855  32.032  34.411  1.00  0.00     0.074 A 
ATOM     73  C   UNL A   1      42.685  31.283  35.637  1.00  0.00     0.031 C 
ATOM     74  C   UNL A   1      42.670  33.371  34.302  1.00  0.00     0.037 A 
BRANCH  61  75
ATOM     75  C   UNL A   1      43.796  35.620  28.662  1.00  0.00     0.064 A 
ATOM     76  C   UNL A   1      42.668  36.146  28.015  1.00  0.00     0.173 A 
ATOM     77  C   UNL A   1      45.019  36.288  28.492  1.00  0.00     0.173 A 
ATOM     78  F   UNL A   1      41.478  35.536  28.130  1.00  0.00    -0.203 F 
ATOM     79  C   UNL A   1      42.765  37.283  27.217  1.00  0.00     0.198 A 
ATOM     80  C   UNL A   1      45.106  37.442  27.721  1.00  0.00     0.198 A 
ATOM     81  F   UNL A   1      46.130  35.827  29.089  1.00  0.00    -0.203 F 
ATOM     82  F   UNL A   1      41.683  37.743  26.573  1.00  0.00    -0.200 F 
ATOM     83  C   UNL A   1      43.980  37.936  27.079  1.00  0.00     0.200 A 
ATOM     84  F   UNL A   1      46.280  38.079  27.600  1.00  0.00    -0.200 F 
ATOM     85  F   UNL A   1      44.069  39.039  26.323  1.00  0.00    -0.200 F 
ENDBRANCH  61  75
BRANCH  62  86
ATOM     86  C   UNL A   1      43.529  27.374  34.297  1.00  0.00     0.064 A 
ATOM     87  C   UNL A   1      44.691  26.858  34.886  1.00  0.00     0.173 A 
ATOM     88  C   UNL A   1      42.325  26.692  34.525  1.00  0.00     0.173 A 
ATOM     89  F   UNL A   1      45.872  27.458  34.673  1.00  0.00    -0.203 F 
ATOM     90  C   UNL A   1      44.655  25.697  35.657  1.00  0.00     0.198 A 
ATOM     91  C   UNL A   1      42.284  25.549  35.322  1.00  0.00     0.198 A 
ATOM     92  F   UNL A   1      41.184  27.139  33.979  1.00  0.00    -0.203 F 
ATOM     93  F   UNL A   1      45.789  25.199  36.168  1.00  0.00    -0.200 F 
ATOM     94  C   UNL A   1      43.450  25.048  35.881  1.00  0.00     0.200 A 
ATOM     95  F   UNL A   1      41.116  24.931  35.544  1.00  0.00    -0.200 F 
ATOM     96  F   UNL A   1      43.414  23.936  36.626  1.00  0.00    -0.200 F 
ENDBRANCH  62  86
BRANCH  74  97
ATOM     97  C   UNL A   1      42.213  34.114  35.526  1.00  0.00     0.064 A 
ATOM     98  C   UNL A   1      40.858  34.209  35.875  1.00  0.00     0.173 A 
ATOM     99  C   UNL A   1      43.153  34.697  36.392  1.00  0.00     0.173 A 
ATOM    100  F   UNL A   1      39.917  33.679  35.079  1.00  0.00    -0.203 F 
ATOM    101  C   UNL A   1      40.460  34.885  37.027  1.00  0.00     0.198 A 
ATOM    102  C   UNL A   1      42.755  35.337  37.562  1.00  0.00     0.198 A 
ATOM    103  F   UNL A   1      44.464  34.625  36.113  1.00  0.00    -0.203 F 
ATOM    104  F   UNL A   1      39.156  35.007  37.312  1.00  0.00    -0.200 F 
ATOM    105  C   UNL A   1      41.408  35.440  37.873  1.00  0.00     0.200 A 
ATOM    106  F   UNL A   1      43.675  35.855  38.387  1.00  0.00    -0.200 F 
ATOM    107  F   UNL A   1      41.023  36.078  38.986  1.00  0.00    -0.200 F 
ENDBRANCH  74  97
ENDBRANCH  48  49
ENDBRANCH  41  43
ENDBRANCH  40  41
ENDBRANCH  39  40
ENDBRANCH  38  39
ENDBRANCH  37  38
ENDBRANCH  36  37
ENDBRANCH  35  36
ENDBRANCH  34  35
ENDBRANCH   1  34
TORSDOF 23
ENDMDL
MODEL 3
REMARK VINA RESULT:      -8.8      7.216      9.367
REMARK SMILES C[C@@H](C(=O)OCCOCCOCCOCCOC(=O)c1ccc(-c2c3nc(c(-c4c(F)c(F)c(F)c(F)c4F)c4ccc([nH]4)c(-c4c(F)c(F)c(F)c(F)c4F)c4nc(c(-c5c(F)c(F)c(F)c(F)c5F)c5ccc2[nH]5)C=C4)C=C3)cc1)c1ccc2c3cc(Cl)ccc3n(C(=O)c3ccc(Cl)cc3)c2c1
REMARK SMILES IDX 10 1 9 2 8 3 7 4 6 5 5 6 3 7 4 8 2 9 1 10 83 11 84 12 105 13
REMARK SMILES IDX 85 14 104 15 86 16 94 17 87 18 93 19 88 20 92 21 89 22 91 23
REMARK SMILES IDX 90 24 95 25 96 26 97 27 98 28 103 29 99 30 102 31 100 32
REMARK SMILES IDX 101 33 11 34 12 35 13 36 14 37 15 38 16 39 17 40 18 41 19 42
REMARK SMILES IDX 20 43 21 44 82 45 22 46 81 47 23 48 24 49 25 50 75 51 26 52
REMARK SMILES IDX 80 53 74 54 76 55 27 56 79 57 73 58 72 59 28 61 60 62 40 63
REMARK SMILES IDX 59 64 41 65 44 66 58 67 77 68 42 69 43 70 57 72 78 73 45 74
REMARK SMILES IDX 29 75 30 76 38 77 31 78 32 79 36 80 39 81 33 82 34 83 37 84
REMARK SMILES IDX 35 85 61 86 62 87 70 88 63 89 64 90 68 91 71 92 65 93 66 94
REMARK SMILES IDX 69 95 67 96 46 97 47 98 55 99 48 100 49 101 53 102 56 103
REMARK SMILES IDX 50 104 51 105 54 106 52 107
REMARK H PARENT 76 60 44 71
REMARK Flexibility Score: inf
ROOT
ATOM      1  C   UNL A   1      39.826  29.002  29.438  1.00  0.00     0.188 C 
ENDROOT
BRANCH   1   2
ATOM      2  C   UNL A   1      41.115  29.318  30.209  1.00  0.00     0.188 C 
BRANCH   2   3
ATOM      3  O   UNL A   1      41.446  28.422  31.248  1.00  0.00    -0.376 OA
BRANCH   3   4
ATOM      4  C   UNL A   1      42.646  28.573  31.986  1.00  0.00     0.202 C 
BRANCH   4   5
ATOM      5  C   UNL A   1      43.890  27.656  31.917  1.00  0.00     0.261 C 
BRANCH   5   6
ATOM      6  O   UNL A   1      43.752  26.368  31.303  1.00  0.00    -0.463 OA
BRANCH   6   7
ATOM      7  C   UNL A   1      44.009  26.289  29.976  1.00  0.00     0.313 C 
ATOM      8  O   UNL A   1      44.394  27.243  29.308  1.00  0.00    -0.252 OA
BRANCH   7   9
ATOM      9  C   UNL A   1      43.820  24.874  29.387  1.00  0.00     0.126 C 
ATOM     10  C   UNL A   1      45.034  24.253  28.680  1.00  0.00     0.025 C 
BRANCH   9  11
ATOM     11  C   UNL A   1      42.468  24.730  28.680  1.00  0.00    -0.032 A 
ATOM     12  C   UNL A   1      41.463  25.702  28.619  1.00  0.00     0.005 A 
ATOM     13  C   UNL A   1      42.213  23.485  28.085  1.00  0.00     0.032 A 
ATOM     14  C   UNL A   1      40.247  25.462  27.952  1.00  0.00     0.011 A 
ATOM     15  C   UNL A   1      40.978  23.228  27.467  1.00  0.00     0.057 A 
ATOM     16  C   UNL A   1      40.014  24.214  27.338  1.00  0.00     0.008 A 
ATOM     17  N   UNL A   1      40.497  22.046  26.903  1.00  0.00    -0.276 N 
ATOM     18  C   UNL A   1      38.960  23.663  26.558  1.00  0.00     0.009 A 
ATOM     19  C   UNL A   1      39.244  22.303  26.339  1.00  0.00     0.057 A 
ATOM     20  C   UNL A   1      37.765  24.215  26.048  1.00  0.00     0.031 A 
ATOM     21  C   UNL A   1      38.291  21.461  25.737  1.00  0.00     0.029 A 
ATOM     22  C   UNL A   1      36.858  23.391  25.387  1.00  0.00     0.041 A 
ATOM     23  C   UNL A   1      37.103  22.029  25.256  1.00  0.00     0.023 A 
ATOM     24  Cl  UNL A   1      35.411  24.069  24.748  1.00  0.00    -0.084 Cl
BRANCH  17  25
ATOM     25  C   UNL A   1      41.189  20.821  27.044  1.00  0.00     0.262 C 
ATOM     26  O   UNL A   1      40.771  20.086  27.940  1.00  0.00    -0.268 OA
BRANCH  25  27
ATOM     27  C   UNL A   1      42.404  20.341  26.325  1.00  0.00     0.040 A 
ATOM     28  C   UNL A   1      43.238  21.340  25.775  1.00  0.00     0.015 A 
ATOM     29  C   UNL A   1      42.702  19.003  26.058  1.00  0.00     0.015 A 
ATOM     30  C   UNL A   1      44.350  21.017  24.998  1.00  0.00     0.021 A 
ATOM     31  C   UNL A   1      43.838  18.678  25.298  1.00  0.00     0.021 A 
ATOM     32  C   UNL A   1      44.653  19.682  24.770  1.00  0.00     0.041 A 
ATOM     33  Cl  UNL A   1      46.023  19.274  23.814  1.00  0.00    -0.084 Cl
ENDBRANCH  25  27
ENDBRANCH  17  25
ENDBRANCH   9  11
ENDBRANCH   7   9
ENDBRANCH   6   7
ENDBRANCH   5   6
ENDBRANCH   4   5
ENDBRANCH   3   4
ENDBRANCH   2   3
ENDBRANCH   1   2
BRANCH   1  34
ATOM     34  O   UNL A   1      38.744  28.495  30.195  1.00  0.00    -0.377 OA
BRANCH  34  35
ATOM     35  C   UNL A   1      37.521  29.211  30.211  1.00  0.00     0.188 C 
BRANCH  35  36
ATOM     36  C   UNL A   1      36.936  29.789  31.516  1.00  0.00     0.188 C 
BRANCH  36  37
ATOM     37  O   UNL A   1      37.062  31.194  31.668  1.00  0.00    -0.376 OA
BRANCH  37  38
ATOM     38  C   UNL A   1      35.936  31.938  32.103  1.00  0.00     0.202 C 
BRANCH  38  39
ATOM     39  C   UNL A   1      35.800  33.377  31.584  1.00  0.00     0.261 C 
BRANCH  39  40
ATOM     40  O   UNL A   1      36.965  33.934  30.958  1.00  0.00    -0.460 OA
BRANCH  40  41
ATOM     41  C   UNL A   1      37.855  34.566  31.750  1.00  0.00     0.338 C 
ATOM     42  O   UNL A   1      37.657  35.041  32.856  1.00  0.00    -0.246 OA
BRANCH  41  43
ATOM     43  C   UNL A   1      39.187  34.424  31.130  1.00  0.00     0.060 A 
ATOM     44  C   UNL A   1      40.265  34.011  31.924  1.00  0.00     0.016 A 
ATOM     45  C   UNL A   1      39.366  34.672  29.766  1.00  0.00     0.016 A 
ATOM     46  C   UNL A   1      41.535  33.876  31.363  1.00  0.00     0.010 A 
ATOM     47  C   UNL A   1      40.642  34.564  29.211  1.00  0.00     0.010 A 
ATOM     48  C   UNL A   1      41.739  34.199  30.015  1.00  0.00    -0.014 A 
BRANCH  48  49
ATOM     49  C   UNL A   1      43.119  34.363  29.502  1.00  0.00     0.031 A 
ATOM     50  C   UNL A   1      43.634  35.760  29.294  1.00  0.00     0.074 A 
ATOM     51  C   UNL A   1      43.908  33.305  29.250  1.00  0.00     0.049 A 
ATOM     52  N   UNL A   1      44.782  36.163  28.812  1.00  0.00    -0.248 NA
ATOM     53  C   UNL A   1      42.729  36.853  29.686  1.00  0.00     0.031 C 
ATOM     54  C   UNL A   1      43.543  31.907  29.468  1.00  0.00     0.029 A 
ATOM     55  N   UNL A   1      45.186  33.248  28.752  1.00  0.00    -0.354 N 
ATOM     56  C   UNL A   1      44.729  37.550  28.828  1.00  0.00     0.074 A 
ATOM     57  C   UNL A   1      43.432  37.923  29.346  1.00  0.00     0.031 C 
ATOM     58  C   UNL A   1      44.576  31.127  29.101  1.00  0.00     0.029 A 
ATOM     59  C   UNL A   1      45.657  31.968  28.589  1.00  0.00     0.049 A 
ATOM     60  H   UNL A   1      45.715  34.048  28.534  1.00  0.00     0.167 HD
ATOM     61  C   UNL A   1      45.683  38.434  28.450  1.00  0.00     0.037 A 
ATOM     62  C   UNL A   1      46.820  31.533  28.066  1.00  0.00     0.037 A 
ATOM     63  C   UNL A   1      46.973  38.058  27.939  1.00  0.00     0.049 A 
ATOM     64  C   UNL A   1      47.831  32.539  27.572  1.00  0.00     0.074 A 
ATOM     65  C   UNL A   1      48.016  38.879  27.549  1.00  0.00     0.029 A 
ATOM     66  N   UNL A   1      47.395  36.752  27.739  1.00  0.00    -0.354 N 
ATOM     67  N   UNL A   1      47.784  33.848  27.603  1.00  0.00    -0.248 NA
ATOM     68  C   UNL A   1      49.060  32.000  26.969  1.00  0.00     0.031 C 
ATOM     69  C   UNL A   1      49.042  38.072  27.049  1.00  0.00     0.029 A 
ATOM     70  C   UNL A   1      48.669  36.745  27.198  1.00  0.00     0.049 A 
ATOM     71  H   UNL A   1      46.865  35.948  27.950  1.00  0.00     0.167 HD
ATOM     72  C   UNL A   1      48.985  34.289  27.062  1.00  0.00     0.074 A 
ATOM     73  C   UNL A   1      49.746  33.106  26.718  1.00  0.00     0.031 C 
ATOM     74  C   UNL A   1      49.421  35.559  26.870  1.00  0.00     0.037 A 
BRANCH  61  75
ATOM     75  C   UNL A   1      45.351  39.895  28.536  1.00  0.00     0.064 A 
ATOM     76  C   UNL A   1      45.609  40.650  29.689  1.00  0.00     0.173 A 
ATOM     77  C   UNL A   1      44.810  40.561  27.424  1.00  0.00     0.173 A 
ATOM     78  F   UNL A   1      46.110  40.060  30.785  1.00  0.00    -0.203 F 
ATOM     79  C   UNL A   1      45.320  42.012  29.734  1.00  0.00     0.198 A 
ATOM     80  C   UNL A   1      44.552  41.927  27.461  1.00  0.00     0.198 A 
ATOM     81  F   UNL A   1      44.544  39.886  26.295  1.00  0.00    -0.203 F 
ATOM     82  F   UNL A   1      45.534  42.704  30.860  1.00  0.00    -0.200 F 
ATOM     83  C   UNL A   1      44.802  42.651  28.617  1.00  0.00     0.200 A 
ATOM     84  F   UNL A   1      44.065  42.545  26.376  1.00  0.00    -0.200 F 
ATOM     85  F   UNL A   1      44.538  43.964  28.657  1.00  0.00    -0.200 F 
ENDBRANCH  61  75
BRANCH  62  86
ATOM     86  C   UNL A   1      47.101  30.074  27.981  1.00  0.00     0.064 A 
ATOM     87  C   UNL A   1      47.739  29.401  29.031  1.00  0.00     0.173 A 
ATOM     88  C   UNL A   1      46.756  29.329  26.844  1.00  0.00     0.173 A 
ATOM     89  F   UNL A   1      48.116  30.076  30.127  1.00  0.00    -0.203 F 
ATOM     90  C   UNL A   1      48.037  28.042  28.942  1.00  0.00     0.198 A 
ATOM     91  C   UNL A   1      47.025  27.963  26.769  1.00  0.00     0.198 A 
ATOM     92  F   UNL A   1      46.149  29.925  25.807  1.00  0.00    -0.203 F 
ATOM     93  F   UNL A   1      48.691  27.435  29.941  1.00  0.00    -0.200 F 
ATOM     94  C   UNL A   1      47.673  27.323  27.814  1.00  0.00     0.200 A 
ATOM     95  F   UNL A   1      46.663  27.270  25.680  1.00  0.00    -0.200 F 
ATOM     96  F   UNL A   1      47.954  26.016  27.730  1.00  0.00    -0.200 F 
ENDBRANCH  62  86
BRANCH  74  97
ATOM     97  C   UNL A   1      50.803  35.746  26.310  1.00  0.00     0.064 A 
ATOM     98  C   UNL A   1      51.946  35.701  27.121  1.00  0.00     0.173 A 
ATOM     99  C   UNL A   1      50.988  35.921  24.929  1.00  0.00     0.173 A 
ATOM    100  F   UNL A   1      51.827  35.546  28.448  1.00  0.00    -0.203 F 
ATOM    101  C   UNL A   1      53.219  35.855  26.574  1.00  0.00     0.198 A 
ATOM    102  C   UNL A   1      52.263  36.036  24.382  1.00  0.00     0.198 A 
ATOM    103  F   UNL A   1      49.930  35.960  24.104  1.00  0.00    -0.203 F 
ATOM    104  F   UNL A   1      54.293  35.861  27.376  1.00  0.00    -0.200 F 
ATOM    105  C   UNL A   1      53.377  36.014  25.206  1.00  0.00     0.200 A 
ATOM    106  F   UNL A   1      52.412  36.169  23.056  1.00  0.00    -0.200 F 
ATOM    107  F   UNL A   1      54.602  36.149  24.682  1.00  0.00    -0.200 F 
ENDBRANCH  74  97
ENDBRANCH  48  49
ENDBRANCH  41  43
ENDBRANCH  40  41
ENDBRANCH  39  40
ENDBRANCH  38  39
ENDBRANCH  37  38
ENDBRANCH  36  37
ENDBRANCH  35  36
ENDBRANCH  34  35
ENDBRANCH   1  34
TORSDOF 23
ENDMDL
