MODEL 1
REMARK VINA RESULT:      -9.4      0.000      0.000
REMARK SMILES C=CCN1C(=O)/C(=C/c2ccccn2)S/C1=[NH+]\c1ccc(C(=O)OCCOCCOCCOCCOC(=O)c2ccc(-c3c4nc(c(-c5c(F)c(F)c(F)c(F)c5F)c5ccc([nH]5)c(-c5c(F)c(F)c(F)c(F)c5F)c5nc(c(-c6c(F)c(F)c(F)c(F)c6F)c6ccc3[nH]6)C=C5)C=C4)cc2)cc1
REMARK SMILES IDX 29 1 28 2 27 3 26 4 25 5 24 6 22 7 23 8 21 9 18 10 19 11
REMARK SMILES IDX 103 12 20 13 102 14 17 15 4 16 5 17 16 18 6 19 7 20 15 21
REMARK SMILES IDX 8 22 3 24 2 25 1 26 9 27 10 28 14 29 11 30 13 31 12 32 30 33
REMARK SMILES IDX 31 34 32 35 33 36 34 37 35 38 36 39 37 40 38 41 39 42 40 43
REMARK SMILES IDX 101 44 41 45 100 46 42 47 43 48 44 49 94 50 45 51 99 52
REMARK SMILES IDX 93 53 95 54 46 55 98 56 92 57 91 58 47 60 79 61 59 62 78 63
REMARK SMILES IDX 60 64 63 65 77 66 96 67 61 68 62 69 76 71 97 72 64 73 48 74
REMARK SMILES IDX 49 75 57 76 50 77 51 78 55 79 58 80 52 81 53 82 56 83 54 84
REMARK SMILES IDX 80 85 81 86 89 87 82 88 83 89 87 90 90 91 84 92 85 93 88 94
REMARK SMILES IDX 86 95 65 96 66 97 74 98 67 99 68 100 72 101 75 102 69 103
REMARK SMILES IDX 70 104 73 105 71 106
REMARK H PARENT 17 23 95 59 63 70
REMARK Flexibility Score: inf
ROOT
ATOM      1  C   UNL A   1      38.088  22.521  25.729  1.00  0.00     0.188 C 
ENDROOT
BRANCH   1   2
ATOM      2  C   UNL A   1      36.645  22.305  25.230  1.00  0.00     0.188 C 
BRANCH   2   3
ATOM      3  O   UNL A   1      35.661  22.784  26.130  1.00  0.00    -0.376 OA
BRANCH   3   4
ATOM      4  C   UNL A   1      34.957  23.972  25.828  1.00  0.00     0.202 C 
BRANCH   4   5
ATOM      5  C   UNL A   1      33.490  23.904  25.374  1.00  0.00     0.261 C 
BRANCH   5   6
ATOM      6  O   UNL A   1      32.567  24.732  26.086  1.00  0.00    -0.460 OA
BRANCH   6   7
ATOM      7  C   UNL A   1      31.905  25.670  25.375  1.00  0.00     0.338 C 
ATOM      8  O   UNL A   1      30.981  25.479  24.604  1.00  0.00    -0.246 OA
BRANCH   7   9
ATOM      9  C   UNL A   1      32.350  27.006  25.847  1.00  0.00     0.060 A 
ATOM     10  C   UNL A   1      33.106  29.536  26.778  1.00  0.00     0.125 A 
ATOM     11  C   UNL A   1      32.207  28.759  27.511  1.00  0.00     0.052 A 
ATOM     12  C   UNL A   1      33.721  28.987  25.644  1.00  0.00     0.052 A 
ATOM     13  C   UNL A   1      31.821  27.499  27.045  1.00  0.00     0.020 A 
ATOM     14  C   UNL A   1      33.328  27.737  25.162  1.00  0.00     0.020 A 
BRANCH  10  15
ATOM     15  N   UNL A   1      33.306  30.877  27.149  1.00  0.00    -0.234 N 
ATOM     16  N   UNL A   1      34.792  32.488  28.011  1.00  0.00    -0.182 N 
ATOM     17  C   UNL A   1      36.012  32.658  28.643  1.00  0.00     0.349 C 
ATOM     18  C   UNL A   1      34.458  31.210  27.644  1.00  0.00     0.324 C 
ATOM     19  O   UNL A   1      36.506  33.715  29.010  1.00  0.00    -0.240 OA
ATOM     20  C   UNL A   1      36.694  31.343  28.790  1.00  0.00     0.111 C 
ATOM     21  S   UNL A   1      35.821  30.144  27.932  1.00  0.00     0.007 SA
ATOM     22  C   UNL A   1      37.797  31.155  29.524  1.00  0.00     0.052 C 
ATOM     23  H   UNL A   1      32.592  31.545  27.037  1.00  0.00     0.313 HD
BRANCH  16  24
ATOM     24  C   UNL A   1      33.969  33.633  27.680  1.00  0.00     0.275 C 
BRANCH  24  25
ATOM     25  C   UNL A   1      33.325  34.177  28.921  1.00  0.00     0.011 C 
ATOM     26  C   UNL A   1      33.273  35.482  29.222  1.00  0.00     0.008 C 
ENDBRANCH  24  25
ENDBRANCH  16  24
BRANCH  22  27
ATOM     27  C   UNL A   1      38.471  29.865  29.697  1.00  0.00     0.064 A 
ATOM     28  C   UNL A   1      38.162  29.012  30.754  1.00  0.00     0.028 A 
ATOM     29  N   UNL A   1      39.404  29.570  28.766  1.00  0.00    -0.257 NA
ATOM     30  C   UNL A   1      38.871  27.822  30.886  1.00  0.00     0.004 A 
ATOM     31  C   UNL A   1      40.077  28.407  28.921  1.00  0.00     0.111 A 
ATOM     32  C   UNL A   1      39.853  27.513  29.955  1.00  0.00     0.020 A 
ENDBRANCH  22  27
ENDBRANCH  10  15
ENDBRANCH   7   9
ENDBRANCH   6   7
ENDBRANCH   5   6
ENDBRANCH   4   5
ENDBRANCH   3   4
ENDBRANCH   2   3
ENDBRANCH   1   2
BRANCH   1  33
ATOM     33  O   UNL A   1      38.892  21.369  25.943  1.00  0.00    -0.377 OA
BRANCH  33  34
ATOM     34  C   UNL A   1      40.132  21.491  26.638  1.00  0.00     0.188 C 
BRANCH  34  35
ATOM     35  C   UNL A   1      41.450  20.862  26.119  1.00  0.00     0.188 C 
BRANCH  35  36
ATOM     36  O   UNL A   1      42.633  21.392  26.688  1.00  0.00    -0.376 OA
BRANCH  36  37
ATOM     37  C   UNL A   1      43.426  22.255  25.895  1.00  0.00     0.202 C 
BRANCH  37  38
ATOM     38  C   UNL A   1      43.328  23.755  26.204  1.00  0.00     0.261 C 
BRANCH  38  39
ATOM     39  O   UNL A   1      43.660  24.640  25.122  1.00  0.00    -0.460 OA
BRANCH  39  40
ATOM     40  C   UNL A   1      44.818  25.322  25.225  1.00  0.00     0.338 C 
ATOM     41  O   UNL A   1      45.860  25.105  24.622  1.00  0.00    -0.246 OA
BRANCH  40  42
ATOM     42  C   UNL A   1      44.576  26.515  26.059  1.00  0.00     0.060 A 
ATOM     43  C   UNL A   1      45.637  27.047  26.803  1.00  0.00     0.016 A 
ATOM     44  C   UNL A   1      43.310  27.102  26.112  1.00  0.00     0.016 A 
ATOM     45  C   UNL A   1      45.421  28.139  27.640  1.00  0.00     0.010 A 
ATOM     46  C   UNL A   1      43.090  28.186  26.966  1.00  0.00     0.010 A 
ATOM     47  C   UNL A   1      44.135  28.684  27.764  1.00  0.00    -0.014 A 
BRANCH  47  48
ATOM     48  C   UNL A   1      43.857  29.635  28.869  1.00  0.00     0.031 A 
ATOM     49  C   UNL A   1      43.610  29.082  30.246  1.00  0.00     0.074 A 
ATOM     50  C   UNL A   1      43.882  30.964  28.668  1.00  0.00     0.049 A 
ATOM     51  N   UNL A   1      43.366  29.713  31.367  1.00  0.00    -0.248 NA
ATOM     52  C   UNL A   1      43.645  27.617  30.377  1.00  0.00     0.031 C 
ATOM     53  C   UNL A   1      44.148  31.621  27.391  1.00  0.00     0.029 A 
ATOM     54  N   UNL A   1      43.682  32.000  29.546  1.00  0.00    -0.354 N 
ATOM     55  C   UNL A   1      43.218  28.724  32.332  1.00  0.00     0.074 A 
ATOM     56  C   UNL A   1      43.359  27.451  31.659  1.00  0.00     0.031 C 
ATOM     57  C   UNL A   1      44.094  32.952  27.568  1.00  0.00     0.029 A 
ATOM     58  C   UNL A   1      43.761  33.239  28.962  1.00  0.00     0.049 A 
ATOM     59  H   UNL A   1      43.500  31.866  30.505  1.00  0.00     0.167 HD
ATOM     60  C   UNL A   1      43.000  28.864  33.661  1.00  0.00     0.037 A 
ATOM     61  C   UNL A   1      43.568  34.463  29.493  1.00  0.00     0.037 A 
ATOM     62  C   UNL A   1      42.853  30.132  34.326  1.00  0.00     0.049 A 
ATOM     63  C   UNL A   1      43.249  34.588  30.962  1.00  0.00     0.074 A 
ATOM     64  C   UNL A   1      42.639  30.382  35.670  1.00  0.00     0.029 A 
ATOM     65  N   UNL A   1      42.895  31.366  33.693  1.00  0.00    -0.354 N 
ATOM     66  N   UNL A   1      43.142  33.651  31.873  1.00  0.00    -0.248 NA
ATOM     67  C   UNL A   1      43.035  35.948  31.476  1.00  0.00     0.031 C 
ATOM     68  C   UNL A   1      42.487  31.762  35.841  1.00  0.00     0.029 A 
ATOM     69  C   UNL A   1      42.680  32.380  34.615  1.00  0.00     0.049 A 
ATOM     70  H   UNL A   1      43.052  31.502  32.731  1.00  0.00     0.167 HD
ATOM     71  C   UNL A   1      42.881  34.308  33.070  1.00  0.00     0.074 A 
ATOM     72  C   UNL A   1      42.869  35.725  32.771  1.00  0.00     0.031 C 
ATOM     73  C   UNL A   1      42.673  33.787  34.306  1.00  0.00     0.037 A 
BRANCH  60  74
ATOM     74  C   UNL A   1      42.874  27.610  34.478  1.00  0.00     0.064 A 
ATOM     75  C   UNL A   1      41.649  26.939  34.623  1.00  0.00     0.173 A 
ATOM     76  C   UNL A   1      44.001  27.054  35.104  1.00  0.00     0.173 A 
ATOM     77  F   UNL A   1      40.537  27.434  34.058  1.00  0.00    -0.203 F 
ATOM     78  C   UNL A   1      41.553  25.778  35.387  1.00  0.00     0.198 A 
ATOM     79  C   UNL A   1      43.907  25.875  35.839  1.00  0.00     0.198 A 
ATOM     80  F   UNL A   1      45.197  27.652  34.997  1.00  0.00    -0.203 F 
ATOM     81  F   UNL A   1      40.361  25.186  35.555  1.00  0.00    -0.200 F 
ATOM     82  C   UNL A   1      42.682  25.243  35.987  1.00  0.00     0.200 A 
ATOM     83  F   UNL A   1      45.003  25.352  36.404  1.00  0.00    -0.200 F 
ATOM     84  F   UNL A   1      42.589  24.121  36.714  1.00  0.00    -0.200 F 
ENDBRANCH  60  74
BRANCH  61  85
ATOM     85  C   UNL A   1      43.666  35.674  28.634  1.00  0.00     0.064 A 
ATOM     86  C   UNL A   1      42.526  36.249  28.054  1.00  0.00     0.173 A 
ATOM     87  C   UNL A   1      44.908  36.263  28.349  1.00  0.00     0.173 A 
ATOM     88  F   UNL A   1      41.318  35.707  28.274  1.00  0.00    -0.203 F 
ATOM     89  C   UNL A   1      42.626  37.348  27.203  1.00  0.00     0.198 A 
ATOM     90  C   UNL A   1      45.002  37.384  27.526  1.00  0.00     0.198 A 
ATOM     91  F   UNL A   1      46.031  35.753  28.874  1.00  0.00    -0.203 F 
ATOM     92  F   UNL A   1      41.526  37.840  26.617  1.00  0.00    -0.200 F 
ATOM     93  C   UNL A   1      43.863  37.918  26.944  1.00  0.00     0.200 A 
ATOM     94  F   UNL A   1      46.199  37.939  27.290  1.00  0.00    -0.200 F 
ATOM     95  F   UNL A   1      43.959  38.976  26.128  1.00  0.00    -0.200 F 
ENDBRANCH  61  85
BRANCH  73  96
ATOM     96  C   UNL A   1      42.456  34.756  35.436  1.00  0.00     0.064 A 
ATOM     97  C   UNL A   1      43.525  35.294  36.169  1.00  0.00     0.173 A 
ATOM     98  C   UNL A   1      41.158  35.163  35.783  1.00  0.00     0.173 A 
ATOM     99  F   UNL A   1      44.786  34.932  35.890  1.00  0.00    -0.203 F 
ATOM    100  C   UNL A   1      43.300  36.165  37.234  1.00  0.00     0.198 A 
ATOM    101  C   UNL A   1      40.938  36.064  36.820  1.00  0.00     0.198 A 
ATOM    102  F   UNL A   1      40.098  34.691  35.108  1.00  0.00    -0.203 F 
ATOM    103  F   UNL A   1      44.332  36.609  37.963  1.00  0.00    -0.200 F 
ATOM    104  C   UNL A   1      42.007  36.554  37.554  1.00  0.00     0.200 A 
ATOM    105  F   UNL A   1      39.690  36.453  37.115  1.00  0.00    -0.200 F 
ATOM    106  F   UNL A   1      41.792  37.391  38.578  1.00  0.00    -0.200 F 
ENDBRANCH  73  96
ENDBRANCH  47  48
ENDBRANCH  40  42
ENDBRANCH  39  40
ENDBRANCH  38  39
ENDBRANCH  37  38
ENDBRANCH  36  37
ENDBRANCH  35  36
ENDBRANCH  34  35
ENDBRANCH  33  34
ENDBRANCH   1  33
TORSDOF 24
ENDMDL
MODEL 2
REMARK VINA RESULT:      -8.3      5.738     12.600
REMARK SMILES C=CCN1C(=O)/C(=C/c2ccccn2)S/C1=[NH+]\c1ccc(C(=O)OCCOCCOCCOCCOC(=O)c2ccc(-c3c4nc(c(-c5c(F)c(F)c(F)c(F)c5F)c5ccc([nH]5)c(-c5c(F)c(F)c(F)c(F)c5F)c5nc(c(-c6c(F)c(F)c(F)c(F)c6F)c6ccc3[nH]6)C=C5)C=C4)cc2)cc1
REMARK SMILES IDX 29 1 28 2 27 3 26 4 25 5 24 6 22 7 23 8 21 9 18 10 19 11
REMARK SMILES IDX 103 12 20 13 102 14 17 15 4 16 5 17 16 18 6 19 7 20 15 21
REMARK SMILES IDX 8 22 3 24 2 25 1 26 9 27 10 28 14 29 11 30 13 31 12 32 30 33
REMARK SMILES IDX 31 34 32 35 33 36 34 37 35 38 36 39 37 40 38 41 39 42 40 43
REMARK SMILES IDX 101 44 41 45 100 46 42 47 43 48 44 49 94 50 45 51 99 52
REMARK SMILES IDX 93 53 95 54 46 55 98 56 92 57 91 58 47 60 79 61 59 62 78 63
REMARK SMILES IDX 60 64 63 65 77 66 96 67 61 68 62 69 76 71 97 72 64 73 48 74
REMARK SMILES IDX 49 75 57 76 50 77 51 78 55 79 58 80 52 81 53 82 56 83 54 84
REMARK SMILES IDX 80 85 81 86 89 87 82 88 83 89 87 90 90 91 84 92 85 93 88 94
REMARK SMILES IDX 86 95 65 96 66 97 74 98 67 99 68 100 72 101 75 102 69 103
REMARK SMILES IDX 70 104 73 105 71 106
REMARK H PARENT 17 23 95 59 63 70
REMARK Flexibility Score: inf
ROOT
ATOM      1  C   UNL A   1      50.987  25.993  29.849  1.00  0.00     0.188 C 
ENDROOT
BRANCH   1   2
ATOM      2  C   UNL A   1      52.038  26.791  30.647  1.00  0.00     0.188 C 
BRANCH   2   3
ATOM      3  O   UNL A   1      52.419  26.162  31.859  1.00  0.00    -0.376 OA
BRANCH   3   4
ATOM      4  C   UNL A   1      53.006  24.876  31.824  1.00  0.00     0.202 C 
BRANCH   4   5
ATOM      5  C   UNL A   1      52.385  23.724  32.629  1.00  0.00     0.261 C 
BRANCH   5   6
ATOM      6  O   UNL A   1      53.292  22.743  33.135  1.00  0.00    -0.460 OA
BRANCH   6   7
ATOM      7  C   UNL A   1      52.910  21.450  33.059  1.00  0.00     0.338 C 
ATOM      8  O   UNL A   1      53.168  20.667  32.162  1.00  0.00    -0.246 OA
BRANCH   7   9
ATOM      9  C   UNL A   1      52.291  21.075  34.356  1.00  0.00     0.060 A 
ATOM     10  C   UNL A   1      51.058  20.318  36.753  1.00  0.00     0.125 A 
ATOM     11  C   UNL A   1      51.004  19.476  35.640  1.00  0.00     0.052 A 
ATOM     12  C   UNL A   1      51.840  21.480  36.696  1.00  0.00     0.052 A 
ATOM     13  C   UNL A   1      51.611  19.855  34.440  1.00  0.00     0.020 A 
ATOM     14  C   UNL A   1      52.434  21.874  35.496  1.00  0.00     0.020 A 
BRANCH  10  15
ATOM     15  N   UNL A   1      50.260  20.020  37.871  1.00  0.00    -0.234 N 
ATOM     16  N   UNL A   1      48.109  20.053  38.829  1.00  0.00    -0.182 N 
ATOM     17  C   UNL A   1      46.828  20.556  38.680  1.00  0.00     0.349 C 
ATOM     18  C   UNL A   1      49.000  20.324  37.822  1.00  0.00     0.324 C 
ATOM     19  O   UNL A   1      45.883  20.393  39.441  1.00  0.00    -0.240 OA
ATOM     20  C   UNL A   1      46.726  21.317  37.405  1.00  0.00     0.111 C 
ATOM     21  S   UNL A   1      48.163  21.106  36.494  1.00  0.00     0.007 SA
ATOM     22  C   UNL A   1      45.674  22.075  37.072  1.00  0.00     0.052 C 
ATOM     23  H   UNL A   1      50.647  19.593  38.670  1.00  0.00     0.313 HD
BRANCH  16  24
ATOM     24  C   UNL A   1      48.441  19.207  39.956  1.00  0.00     0.275 C 
BRANCH  24  25
ATOM     25  C   UNL A   1      47.600  17.966  39.932  1.00  0.00     0.011 C 
ATOM     26  C   UNL A   1      47.524  17.098  40.950  1.00  0.00     0.008 C 
ENDBRANCH  24  25
ENDBRANCH  16  24
BRANCH  22  27
ATOM     27  C   UNL A   1      45.566  22.847  35.831  1.00  0.00     0.064 A 
ATOM     28  C   UNL A   1      44.350  23.008  35.172  1.00  0.00     0.028 A 
ATOM     29  N   UNL A   1      46.721  23.382  35.378  1.00  0.00    -0.257 NA
ATOM     30  C   UNL A   1      44.323  23.713  33.972  1.00  0.00     0.004 A 
ATOM     31  C   UNL A   1      46.665  24.062  34.211  1.00  0.00     0.111 A 
ATOM     32  C   UNL A   1      45.505  24.248  33.477  1.00  0.00     0.020 A 
ENDBRANCH  22  27
ENDBRANCH  10  15
ENDBRANCH   7   9
ENDBRANCH   6   7
ENDBRANCH   5   6
ENDBRANCH   4   5
ENDBRANCH   3   4
ENDBRANCH   2   3
ENDBRANCH   1   2
BRANCH   1  33
ATOM     33  O   UNL A   1      49.628  26.113  30.243  1.00  0.00    -0.377 OA
BRANCH  33  34
ATOM     34  C   UNL A   1      48.599  25.583  29.409  1.00  0.00     0.188 C 
BRANCH  34  35
ATOM     35  C   UNL A   1      47.257  26.316  29.162  1.00  0.00     0.188 C 
BRANCH  35  36
ATOM     36  O   UNL A   1      46.456  25.771  28.130  1.00  0.00    -0.376 OA
BRANCH  36  37
ATOM     37  C   UNL A   1      47.092  24.992  27.134  1.00  0.00     0.202 C 
BRANCH  37  38
ATOM     38  C   UNL A   1      46.175  24.195  26.197  1.00  0.00     0.261 C 
BRANCH  38  39
ATOM     39  O   UNL A   1      45.409  24.970  25.261  1.00  0.00    -0.460 OA
BRANCH  39  40
ATOM     40  C   UNL A   1      44.091  24.702  25.180  1.00  0.00     0.338 C 
ATOM     41  O   UNL A   1      43.555  23.818  24.527  1.00  0.00    -0.246 OA
BRANCH  40  42
ATOM     42  C   UNL A   1      43.391  25.543  26.171  1.00  0.00     0.060 A 
ATOM     43  C   UNL A   1      43.765  26.886  26.303  1.00  0.00     0.016 A 
ATOM     44  C   UNL A   1      42.376  25.008  26.968  1.00  0.00     0.016 A 
ATOM     45  C   UNL A   1      43.157  27.686  27.269  1.00  0.00     0.010 A 
ATOM     46  C   UNL A   1      41.780  25.807  27.948  1.00  0.00     0.010 A 
ATOM     47  C   UNL A   1      42.196  27.137  28.130  1.00  0.00    -0.014 A 
BRANCH  47  48
ATOM     48  C   UNL A   1      41.783  27.902  29.333  1.00  0.00     0.031 A 
ATOM     49  C   UNL A   1      40.517  28.711  29.268  1.00  0.00     0.074 A 
ATOM     50  C   UNL A   1      42.485  27.833  30.478  1.00  0.00     0.049 A 
ATOM     51  N   UNL A   1      39.946  29.443  30.192  1.00  0.00    -0.248 NA
ATOM     52  C   UNL A   1      39.794  28.690  27.987  1.00  0.00     0.031 C 
ATOM     53  C   UNL A   1      43.705  27.055  30.677  1.00  0.00     0.029 A 
ATOM     54  N   UNL A   1      42.263  28.432  31.693  1.00  0.00    -0.354 N 
ATOM     55  C   UNL A   1      38.802  29.967  29.603  1.00  0.00     0.074 A 
ATOM     56  C   UNL A   1      38.780  29.505  28.233  1.00  0.00     0.031 C 
ATOM     57  C   UNL A   1      44.125  27.223  31.942  1.00  0.00     0.029 A 
ATOM     58  C   UNL A   1      43.223  28.144  32.632  1.00  0.00     0.049 A 
ATOM     59  H   UNL A   1      41.488  29.012  31.875  1.00  0.00     0.167 HD
ATOM     60  C   UNL A   1      37.848  30.751  30.159  1.00  0.00     0.037 A 
ATOM     61  C   UNL A   1      43.362  28.589  33.896  1.00  0.00     0.037 A 
ATOM     62  C   UNL A   1      37.876  31.216  31.521  1.00  0.00     0.049 A 
ATOM     63  C   UNL A   1      42.326  29.525  34.467  1.00  0.00     0.074 A 
ATOM     64  C   UNL A   1      36.953  32.006  32.184  1.00  0.00     0.029 A 
ATOM     65  N   UNL A   1      38.889  30.940  32.429  1.00  0.00    -0.354 N 
ATOM     66  N   UNL A   1      41.231  29.992  33.915  1.00  0.00    -0.248 NA
ATOM     67  C   UNL A   1      42.543  29.986  35.846  1.00  0.00     0.031 C 
ATOM     68  C   UNL A   1      37.438  32.262  33.470  1.00  0.00     0.029 A 
ATOM     69  C   UNL A   1      38.628  31.570  33.637  1.00  0.00     0.049 A 
ATOM     70  H   UNL A   1      39.677  30.380  32.243  1.00  0.00     0.167 HD
ATOM     71  C   UNL A   1      40.615  30.772  34.886  1.00  0.00     0.074 A 
ATOM     72  C   UNL A   1      41.447  30.697  36.068  1.00  0.00     0.031 C 
ATOM     73  C   UNL A   1      39.463  31.485  34.808  1.00  0.00     0.037 A 
BRANCH  60  74
ATOM     74  C   UNL A   1      36.708  31.184  29.281  1.00  0.00     0.064 A 
ATOM     75  C   UNL A   1      35.686  30.298  28.902  1.00  0.00     0.173 A 
ATOM     76  C   UNL A   1      36.622  32.511  28.834  1.00  0.00     0.173 A 
ATOM     77  F   UNL A   1      35.728  29.014  29.289  1.00  0.00    -0.203 F 
ATOM     78  C   UNL A   1      34.639  30.720  28.086  1.00  0.00     0.198 A 
ATOM     79  C   UNL A   1      35.555  32.937  28.046  1.00  0.00     0.198 A 
ATOM     80  F   UNL A   1      37.569  33.401  29.168  1.00  0.00    -0.203 F 
ATOM     81  F   UNL A   1      33.705  29.842  27.693  1.00  0.00    -0.200 F 
ATOM     82  C   UNL A   1      34.570  32.039  27.666  1.00  0.00     0.200 A 
ATOM     83  F   UNL A   1      35.482  34.216  27.655  1.00  0.00    -0.200 F 
ATOM     84  F   UNL A   1      33.557  32.444  26.888  1.00  0.00    -0.200 F 
ENDBRANCH  60  74
BRANCH  61  85
ATOM     85  C   UNL A   1      44.530  28.162  34.714  1.00  0.00     0.064 A 
ATOM     86  C   UNL A   1      45.779  28.784  34.578  1.00  0.00     0.173 A 
ATOM     87  C   UNL A   1      44.427  27.102  35.627  1.00  0.00     0.173 A 
ATOM     88  F   UNL A   1      45.937  29.785  33.699  1.00  0.00    -0.203 F 
ATOM     89  C   UNL A   1      46.886  28.344  35.303  1.00  0.00     0.198 A 
ATOM     90  C   UNL A   1      45.526  26.687  36.377  1.00  0.00     0.198 A 
ATOM     91  F   UNL A   1      43.256  26.470  35.795  1.00  0.00    -0.203 F 
ATOM     92  F   UNL A   1      48.081  28.918  35.110  1.00  0.00    -0.200 F 
ATOM     93  C   UNL A   1      46.757  27.300  36.206  1.00  0.00     0.200 A 
ATOM     94  F   UNL A   1      45.392  25.686  37.259  1.00  0.00    -0.200 F 
ATOM     95  F   UNL A   1      47.820  26.880  36.905  1.00  0.00    -0.200 F 
ENDBRANCH  61  85
BRANCH  73  96
ATOM     96  C   UNL A   1      39.012  32.207  36.049  1.00  0.00     0.064 A 
ATOM     97  C   UNL A   1      39.377  33.536  36.310  1.00  0.00     0.173 A 
ATOM     98  C   UNL A   1      38.191  31.560  36.986  1.00  0.00     0.173 A 
ATOM     99  F   UNL A   1      40.169  34.200  35.455  1.00  0.00    -0.203 F 
ATOM    100  C   UNL A   1      38.975  34.174  37.482  1.00  0.00     0.198 A 
ATOM    101  C   UNL A   1      37.758  32.212  38.136  1.00  0.00     0.198 A 
ATOM    102  F   UNL A   1      37.801  30.292  36.783  1.00  0.00    -0.203 F 
ATOM    103  F   UNL A   1      39.395  35.420  37.742  1.00  0.00    -0.200 F 
ATOM    104  C   UNL A   1      38.161  33.514  38.391  1.00  0.00     0.200 A 
ATOM    105  F   UNL A   1      36.956  31.579  39.003  1.00  0.00    -0.200 F 
ATOM    106  F   UNL A   1      37.776  34.129  39.517  1.00  0.00    -0.200 F 
ENDBRANCH  73  96
ENDBRANCH  47  48
ENDBRANCH  40  42
ENDBRANCH  39  40
ENDBRANCH  38  39
ENDBRANCH  37  38
ENDBRANCH  36  37
ENDBRANCH  35  36
ENDBRANCH  34  35
ENDBRANCH  33  34
ENDBRANCH   1  33
TORSDOF 24
ENDMDL
MODEL 3
REMARK VINA RESULT:      -7.9      6.640     13.456
REMARK SMILES C=CCN1C(=O)/C(=C/c2ccccn2)S/C1=[NH+]\c1ccc(C(=O)OCCOCCOCCOCCOC(=O)c2ccc(-c3c4nc(c(-c5c(F)c(F)c(F)c(F)c5F)c5ccc([nH]5)c(-c5c(F)c(F)c(F)c(F)c5F)c5nc(c(-c6c(F)c(F)c(F)c(F)c6F)c6ccc3[nH]6)C=C5)C=C4)cc2)cc1
REMARK SMILES IDX 29 1 28 2 27 3 26 4 25 5 24 6 22 7 23 8 21 9 18 10 19 11
REMARK SMILES IDX 103 12 20 13 102 14 17 15 4 16 5 17 16 18 6 19 7 20 15 21
REMARK SMILES IDX 8 22 3 24 2 25 1 26 9 27 10 28 14 29 11 30 13 31 12 32 30 33
REMARK SMILES IDX 31 34 32 35 33 36 34 37 35 38 36 39 37 40 38 41 39 42 40 43
REMARK SMILES IDX 101 44 41 45 100 46 42 47 43 48 44 49 94 50 45 51 99 52
REMARK SMILES IDX 93 53 95 54 46 55 98 56 92 57 91 58 47 60 79 61 59 62 78 63
REMARK SMILES IDX 60 64 63 65 77 66 96 67 61 68 62 69 76 71 97 72 64 73 48 74
REMARK SMILES IDX 49 75 57 76 50 77 51 78 55 79 58 80 52 81 53 82 56 83 54 84
REMARK SMILES IDX 80 85 81 86 89 87 82 88 83 89 87 90 90 91 84 92 85 93 88 94
REMARK SMILES IDX 86 95 65 96 66 97 74 98 67 99 68 100 72 101 75 102 69 103
REMARK SMILES IDX 70 104 73 105 71 106
REMARK H PARENT 17 23 95 59 63 70
REMARK Flexibility Score: inf
ROOT
ATOM      1  C   UNL A   1      47.133  33.065  38.675  1.00  0.00     0.188 C 
ENDROOT
BRANCH   1   2
ATOM      2  C   UNL A   1      45.676  32.572  38.573  1.00  0.00     0.188 C 
BRANCH   2   3
ATOM      3  O   UNL A   1      45.569  31.178  38.345  1.00  0.00    -0.376 OA
BRANCH   3   4
ATOM      4  C   UNL A   1      45.260  30.315  39.421  1.00  0.00     0.202 C 
BRANCH   4   5
ATOM      5  C   UNL A   1      46.366  29.468  40.072  1.00  0.00     0.261 C 
BRANCH   5   6
ATOM      6  O   UNL A   1      45.932  28.412  40.932  1.00  0.00    -0.460 OA
BRANCH   6   7
ATOM      7  C   UNL A   1      46.829  27.447  41.226  1.00  0.00     0.338 C 
ATOM      8  O   UNL A   1      47.589  27.426  42.178  1.00  0.00    -0.246 OA
BRANCH   7   9
ATOM      9  C   UNL A   1      46.595  26.305  40.306  1.00  0.00     0.060 A 
ATOM     10  C   UNL A   1      46.236  24.170  38.530  1.00  0.00     0.125 A 
ATOM     11  C   UNL A   1      47.523  24.562  38.905  1.00  0.00     0.052 A 
ATOM     12  C   UNL A   1      45.130  24.770  39.147  1.00  0.00     0.052 A 
ATOM     13  C   UNL A   1      47.706  25.632  39.784  1.00  0.00     0.020 A 
ATOM     14  C   UNL A   1      45.304  25.851  40.013  1.00  0.00     0.020 A 
BRANCH  10  15
ATOM     15  N   UNL A   1      46.085  23.244  37.483  1.00  0.00    -0.234 N 
ATOM     16  N   UNL A   1      45.900  20.982  36.856  1.00  0.00    -0.182 N 
ATOM     17  C   UNL A   1      46.046  19.682  37.310  1.00  0.00     0.349 C 
ATOM     18  C   UNL A   1      46.076  21.981  37.778  1.00  0.00     0.324 C 
ATOM     19  O   UNL A   1      45.892  18.657  36.660  1.00  0.00    -0.240 OA
ATOM     20  C   UNL A   1      46.388  19.685  38.758  1.00  0.00     0.111 C 
ATOM     21  S   UNL A   1      46.261  21.279  39.375  1.00  0.00     0.007 SA
ATOM     22  C   UNL A   1      46.774  18.596  39.435  1.00  0.00     0.052 C 
ATOM     23  H   UNL A   1      45.989  23.546  36.551  1.00  0.00     0.313 HD
BRANCH  16  24
ATOM     24  C   UNL A   1      45.489  21.244  35.493  1.00  0.00     0.275 C 
BRANCH  24  25
ATOM     25  C   UNL A   1      46.695  21.413  34.617  1.00  0.00     0.011 C 
ATOM     26  C   UNL A   1      47.479  20.399  34.226  1.00  0.00     0.008 C 
ENDBRANCH  24  25
ENDBRANCH  16  24
BRANCH  22  27
ATOM     27  C   UNL A   1      47.134  18.585  40.855  1.00  0.00     0.064 A 
ATOM     28  C   UNL A   1      48.461  18.628  41.275  1.00  0.00     0.028 A 
ATOM     29  N   UNL A   1      46.094  18.528  41.716  1.00  0.00    -0.257 NA
ATOM     30  C   UNL A   1      48.737  18.567  42.638  1.00  0.00     0.004 A 
ATOM     31  C   UNL A   1      46.393  18.470  43.034  1.00  0.00     0.111 A 
ATOM     32  C   UNL A   1      47.682  18.480  43.538  1.00  0.00     0.020 A 
ENDBRANCH  22  27
ENDBRANCH  10  15
ENDBRANCH   7   9
ENDBRANCH   6   7
ENDBRANCH   5   6
ENDBRANCH   4   5
ENDBRANCH   3   4
ENDBRANCH   2   3
ENDBRANCH   1   2
BRANCH   1  33
ATOM     33  O   UNL A   1      47.805  33.392  37.467  1.00  0.00    -0.377 OA
BRANCH  33  34
ATOM     34  C   UNL A   1      49.225  33.273  37.392  1.00  0.00     0.188 C 
BRANCH  34  35
ATOM     35  C   UNL A   1      49.933  32.188  36.541  1.00  0.00     0.188 C 
BRANCH  35  36
ATOM     36  O   UNL A   1      49.423  30.876  36.696  1.00  0.00    -0.376 OA
BRANCH  36  37
ATOM     37  C   UNL A   1      49.499  30.279  37.977  1.00  0.00     0.202 C 
BRANCH  37  38
ATOM     38  C   UNL A   1      49.456  28.745  38.023  1.00  0.00     0.261 C 
BRANCH  38  39
ATOM     39  O   UNL A   1      48.234  28.140  37.571  1.00  0.00    -0.460 OA
BRANCH  39  40
ATOM     40  C   UNL A   1      48.328  27.259  36.556  1.00  0.00     0.338 C 
ATOM     41  O   UNL A   1      49.101  26.316  36.465  1.00  0.00    -0.246 OA
BRANCH  40  42
ATOM     42  C   UNL A   1      47.202  27.501  35.633  1.00  0.00     0.060 A 
ATOM     43  C   UNL A   1      47.339  28.480  34.640  1.00  0.00     0.016 A 
ATOM     44  C   UNL A   1      46.016  26.771  35.748  1.00  0.00     0.016 A 
ATOM     45  C   UNL A   1      46.272  28.765  33.792  1.00  0.00     0.010 A 
ATOM     46  C   UNL A   1      44.940  27.071  34.908  1.00  0.00     0.010 A 
ATOM     47  C   UNL A   1      45.050  28.097  33.953  1.00  0.00    -0.014 A 
BRANCH  47  48
ATOM     48  C   UNL A   1      43.846  28.614  33.256  1.00  0.00     0.031 A 
ATOM     49  C   UNL A   1      43.591  28.171  31.842  1.00  0.00     0.074 A 
ATOM     50  C   UNL A   1      42.966  29.413  33.885  1.00  0.00     0.049 A 
ATOM     51  N   UNL A   1      42.601  28.472  31.039  1.00  0.00    -0.248 NA
ATOM     52  C   UNL A   1      44.587  27.261  31.253  1.00  0.00     0.031 C 
ATOM     53  C   UNL A   1      43.082  29.879  35.264  1.00  0.00     0.029 A 
ATOM     54  N   UNL A   1      41.794  29.970  33.436  1.00  0.00    -0.354 N 
ATOM     55  C   UNL A   1      42.857  27.791  29.854  1.00  0.00     0.074 A 
ATOM     56  C   UNL A   1      44.113  27.096  30.028  1.00  0.00     0.031 C 
ATOM     57  C   UNL A   1      42.022  30.654  35.551  1.00  0.00     0.029 A 
ATOM     58  C   UNL A   1      41.171  30.763  34.367  1.00  0.00     0.049 A 
ATOM     59  H   UNL A   1      41.435  29.815  32.533  1.00  0.00     0.167 HD
ATOM     60  C   UNL A   1      42.106  27.739  28.730  1.00  0.00     0.037 A 
ATOM     61  C   UNL A   1      40.049  31.503  34.266  1.00  0.00     0.037 A 
ATOM     62  C   UNL A   1      40.859  28.439  28.558  1.00  0.00     0.049 A 
ATOM     63  C   UNL A   1      39.270  31.489  32.974  1.00  0.00     0.074 A 
ATOM     64  C   UNL A   1      40.016  28.444  27.460  1.00  0.00     0.029 A 
ATOM     65  N   UNL A   1      40.281  29.269  29.508  1.00  0.00    -0.354 N 
ATOM     66  N   UNL A   1      39.501  30.820  31.870  1.00  0.00    -0.248 NA
ATOM     67  C   UNL A   1      38.065  32.329  32.922  1.00  0.00     0.031 C 
ATOM     68  C   UNL A   1      38.962  29.326  27.720  1.00  0.00     0.029 A 
ATOM     69  C   UNL A   1      39.107  29.815  29.009  1.00  0.00     0.049 A 
ATOM     70  H   UNL A   1      40.650  29.445  30.403  1.00  0.00     0.167 HD
ATOM     71  C   UNL A   1      38.457  31.131  31.007  1.00  0.00     0.074 A 
ATOM     72  C   UNL A   1      37.581  32.033  31.725  1.00  0.00     0.031 C 
ATOM     73  C   UNL A   1      38.242  30.709  29.735  1.00  0.00     0.037 A 
BRANCH  60  74
ATOM     74  C   UNL A   1      42.630  26.922  27.583  1.00  0.00     0.064 A 
ATOM     75  C   UNL A   1      42.258  25.581  27.397  1.00  0.00     0.173 A 
ATOM     76  C   UNL A   1      43.495  27.497  26.640  1.00  0.00     0.173 A 
ATOM     77  F   UNL A   1      41.445  24.977  28.277  1.00  0.00    -0.203 F 
ATOM     78  C   UNL A   1      42.757  24.840  26.328  1.00  0.00     0.198 A 
ATOM     79  C   UNL A   1      43.964  26.763  25.553  1.00  0.00     0.198 A 
ATOM     80  F   UNL A   1      43.881  28.776  26.767  1.00  0.00    -0.203 F 
ATOM     81  F   UNL A   1      42.430  23.546  26.202  1.00  0.00    -0.200 F 
ATOM     82  C   UNL A   1      43.602  25.434  25.404  1.00  0.00     0.200 A 
ATOM     83  F   UNL A   1      44.769  27.344  24.653  1.00  0.00    -0.200 F 
ATOM     84  F   UNL A   1      44.073  24.722  24.370  1.00  0.00    -0.200 F 
ENDBRANCH  60  74
BRANCH  61  85
ATOM     85  C   UNL A   1      39.591  32.327  35.417  1.00  0.00     0.064 A 
ATOM     86  C   UNL A   1      38.724  31.804  36.387  1.00  0.00     0.173 A 
ATOM     87  C   UNL A   1      39.987  33.667  35.553  1.00  0.00     0.173 A 
ATOM     88  F   UNL A   1      38.294  30.537  36.287  1.00  0.00    -0.203 F 
ATOM     89  C   UNL A   1      38.249  32.596  37.432  1.00  0.00     0.198 A 
ATOM     90  C   UNL A   1      39.540  34.446  36.618  1.00  0.00     0.198 A 
ATOM     91  F   UNL A   1      40.813  34.219  34.653  1.00  0.00    -0.203 F 
ATOM     92  F   UNL A   1      37.375  32.086  38.311  1.00  0.00    -0.200 F 
ATOM     93  C   UNL A   1      38.662  33.914  37.550  1.00  0.00     0.200 A 
ATOM     94  F   UNL A   1      39.953  35.715  36.736  1.00  0.00    -0.200 F 
ATOM     95  F   UNL A   1      38.208  34.673  38.556  1.00  0.00    -0.200 F 
ENDBRANCH  61  85
BRANCH  73  96
ATOM     96  C   UNL A   1      36.986  31.183  29.054  1.00  0.00     0.064 A 
ATOM     97  C   UNL A   1      36.843  32.499  28.591  1.00  0.00     0.173 A 
ATOM     98  C   UNL A   1      35.914  30.299  28.851  1.00  0.00     0.173 A 
ATOM     99  F   UNL A   1      37.831  33.389  28.768  1.00  0.00    -0.203 F 
ATOM    100  C   UNL A   1      35.659  32.925  27.992  1.00  0.00     0.198 A 
ATOM    101  C   UNL A   1      34.748  30.716  28.216  1.00  0.00     0.198 A 
ATOM    102  F   UNL A   1      35.999  29.024  29.262  1.00  0.00    -0.203 F 
ATOM    103  F   UNL A   1      35.520  34.206  27.622  1.00  0.00    -0.200 F 
ATOM    104  C   UNL A   1      34.614  32.032  27.800  1.00  0.00     0.200 A 
ATOM    105  F   UNL A   1      33.748  29.847  28.014  1.00  0.00    -0.200 F 
ATOM    106  F   UNL A   1      33.477  32.443  27.224  1.00  0.00    -0.200 F 
ENDBRANCH  73  96
ENDBRANCH  47  48
ENDBRANCH  40  42
ENDBRANCH  39  40
ENDBRANCH  38  39
ENDBRANCH  37  38
ENDBRANCH  36  37
ENDBRANCH  35  36
ENDBRANCH  34  35
ENDBRANCH  33  34
ENDBRANCH   1  33
TORSDOF 24
ENDMDL
