MODEL 1
REMARK VINA RESULT:     -10.7      0.000      0.000
REMARK SMILES C#Cc1ccc2c(c1)C=C(C(=O)OCCOCCOCCOCCOC(=O)c1ccc(-c3c4nc(c(-c5c(F)c(F)c(F)c(F)c5F)c5ccc([nH]5)c(-c5c(F)c(F)c(F)c(F)c5F)c5nc(c(-c6c(F)c(F)c(F)c(F)c6F)c6ccc3[nH]6)C=C5)C=C4)cc1)[C@@H](C(F)(F)F)O2
REMARK SMILES IDX 20 1 19 2 18 3 17 4 16 5 15 6 14 7 13 8 11 9 12 10 10 11
REMARK SMILES IDX 3 12 4 13 8 14 5 15 7 16 6 17 9 18 96 19 91 20 2 21 1 22
REMARK SMILES IDX 92 23 93 24 94 25 95 26 21 27 22 28 23 29 24 30 25 31 26 32
REMARK SMILES IDX 27 33 28 34 29 35 90 36 30 37 89 38 31 39 32 40 33 41 83 42
REMARK SMILES IDX 34 43 88 44 82 45 84 46 35 47 87 48 81 49 80 50 36 52 68 53
REMARK SMILES IDX 48 54 67 55 49 56 52 57 66 58 85 59 50 60 51 61 65 63 86 64
REMARK SMILES IDX 53 65 37 66 38 67 46 68 39 69 40 70 44 71 47 72 41 73 42 74
REMARK SMILES IDX 45 75 43 76 69 77 70 78 78 79 71 80 72 81 76 82 79 83 73 84
REMARK SMILES IDX 74 85 77 86 75 87 54 88 55 89 63 90 56 91 57 92 61 93 64 94
REMARK SMILES IDX 58 95 59 96 62 97 60 98
REMARK H PARENT 84 51 52 62
REMARK Flexibility Score: inf
ROOT
ATOM      1  C   UNL A   1      33.499  28.313  25.913  1.00  0.00     0.188 C 
ENDROOT
BRANCH   1   2
ATOM      2  O   UNL A   1      33.691  28.014  24.531  1.00  0.00    -0.377 OA
BRANCH   2   3
ATOM      3  C   UNL A   1      32.638  28.254  23.613  1.00  0.00     0.188 C 
BRANCH   3   4
ATOM      4  C   UNL A   1      31.238  27.759  24.038  1.00  0.00     0.188 C 
BRANCH   4   5
ATOM      5  O   UNL A   1      31.048  26.361  23.972  1.00  0.00    -0.376 OA
BRANCH   5   6
ATOM      6  C   UNL A   1      30.884  25.545  25.115  1.00  0.00     0.202 C 
BRANCH   6   7
ATOM      7  C   UNL A   1      31.962  25.270  26.176  1.00  0.00     0.261 C 
BRANCH   7   8
ATOM      8  O   UNL A   1      32.228  23.911  26.505  1.00  0.00    -0.460 OA
BRANCH   8   9
ATOM      9  C   UNL A   1      33.366  23.387  26.008  1.00  0.00     0.338 C 
ATOM     10  O   UNL A   1      34.505  23.692  26.317  1.00  0.00    -0.246 OA
BRANCH   9  11
ATOM     11  C   UNL A   1      33.004  22.245  25.144  1.00  0.00     0.087 C 
ATOM     12  C   UNL A   1      32.656  17.493  24.568  1.00  0.00     0.025 A 
ATOM     13  C   UNL A   1      32.435  17.679  23.203  1.00  0.00     0.021 A 
ATOM     14  C   UNL A   1      32.770  18.599  25.412  1.00  0.00     0.029 A 
ATOM     15  C   UNL A   1      32.306  18.972  22.687  1.00  0.00     0.048 A 
ATOM     16  C   UNL A   1      32.703  19.892  24.884  1.00  0.00     0.018 A 
ATOM     17  C   UNL A   1      32.441  20.077  23.526  1.00  0.00     0.128 A 
ATOM     18  C   UNL A   1      32.999  21.038  25.722  1.00  0.00     0.027 C 
ATOM     19  O   UNL A   1      32.324  21.300  22.933  1.00  0.00    -0.475 OA
ATOM     20  C   UNL A   1      32.617  22.494  23.709  1.00  0.00     0.316 C 
BRANCH  12  21
ATOM     21  C   UNL A   1      32.825  16.172  25.098  1.00  0.00    -0.070 C 
ATOM     22  C   UNL A   1      32.981  15.083  25.566  1.00  0.00     0.010 C 
ENDBRANCH  12  21
BRANCH  20  23
ATOM     23  C   UNL A   1      33.684  23.304  22.962  1.00  0.00     0.430 C 
ATOM     24  F   UNL A   1      34.933  22.873  23.262  1.00  0.00    -0.167 F 
ATOM     25  F   UNL A   1      33.551  23.199  21.619  1.00  0.00    -0.167 F 
ATOM     26  F   UNL A   1      33.622  24.620  23.270  1.00  0.00    -0.167 F 
ENDBRANCH  20  23
ENDBRANCH   9  11
ENDBRANCH   8   9
ENDBRANCH   7   8
ENDBRANCH   6   7
ENDBRANCH   5   6
ENDBRANCH   4   5
ENDBRANCH   3   4
ENDBRANCH   2   3
ENDBRANCH   1   2
BRANCH   1  27
ATOM     27  C   UNL A   1      33.629  29.738  26.511  1.00  0.00     0.188 C 
BRANCH  27  28
ATOM     28  O   UNL A   1      32.464  30.241  27.127  1.00  0.00    -0.376 OA
BRANCH  28  29
ATOM     29  C   UNL A   1      31.669  31.234  26.521  1.00  0.00     0.202 C 
BRANCH  29  30
ATOM     30  C   UNL A   1      31.773  32.705  26.949  1.00  0.00     0.261 C 
BRANCH  30  31
ATOM     31  O   UNL A   1      33.081  33.282  26.997  1.00  0.00    -0.460 OA
BRANCH  31  32
ATOM     32  C   UNL A   1      33.420  33.967  28.111  1.00  0.00     0.338 C 
ATOM     33  O   UNL A   1      32.796  34.860  28.649  1.00  0.00    -0.246 OA
BRANCH  32  34
ATOM     34  C   UNL A   1      34.611  33.291  28.676  1.00  0.00     0.060 A 
ATOM     35  C   UNL A   1      35.867  33.887  28.560  1.00  0.00     0.016 A 
ATOM     36  C   UNL A   1      34.479  32.023  29.258  1.00  0.00     0.016 A 
ATOM     37  C   UNL A   1      36.991  33.222  29.051  1.00  0.00     0.010 A 
ATOM     38  C   UNL A   1      35.608  31.352  29.738  1.00  0.00     0.010 A 
ATOM     39  C   UNL A   1      36.870  31.959  29.662  1.00  0.00    -0.014 A 
BRANCH  39  40
ATOM     40  C   UNL A   1      38.034  31.380  30.378  1.00  0.00     0.031 A 
ATOM     41  C   UNL A   1      38.365  31.734  31.795  1.00  0.00     0.074 A 
ATOM     42  C   UNL A   1      38.800  30.499  29.707  1.00  0.00     0.049 A 
ATOM     43  N   UNL A   1      39.294  31.229  32.570  1.00  0.00    -0.248 NA
ATOM     44  C   UNL A   1      37.563  32.792  32.424  1.00  0.00     0.031 C 
ATOM     45  C   UNL A   1      38.592  30.109  28.313  1.00  0.00     0.029 A 
ATOM     46  N   UNL A   1      39.887  29.762  30.103  1.00  0.00    -0.354 N 
ATOM     47  C   UNL A   1      39.174  31.886  33.786  1.00  0.00     0.074 A 
ATOM     48  C   UNL A   1      38.120  32.867  33.628  1.00  0.00     0.031 C 
ATOM     49  C   UNL A   1      39.490  29.171  27.982  1.00  0.00     0.029 A 
ATOM     50  C   UNL A   1      40.362  28.923  29.126  1.00  0.00     0.049 A 
ATOM     51  H   UNL A   1      40.288  29.829  31.000  1.00  0.00     0.167 HD
ATOM     52  C   UNL A   1      39.869  31.668  34.930  1.00  0.00     0.037 A 
ATOM     53  C   UNL A   1      41.384  28.046  29.146  1.00  0.00     0.037 A 
ATOM     54  C   UNL A   1      40.931  30.700  35.069  1.00  0.00     0.049 A 
ATOM     55  C   UNL A   1      42.172  27.866  30.412  1.00  0.00     0.074 A 
ATOM     56  C   UNL A   1      41.667  30.386  36.200  1.00  0.00     0.029 A 
ATOM     57  N   UNL A   1      41.420  29.901  34.045  1.00  0.00    -0.354 N 
ATOM     58  N   UNL A   1      41.995  28.430  31.582  1.00  0.00    -0.248 NA
ATOM     59  C   UNL A   1      43.296  26.922  30.364  1.00  0.00     0.031 C 
ATOM     60  C   UNL A   1      42.645  29.452  35.844  1.00  0.00     0.029 A 
ATOM     61  C   UNL A   1      42.474  29.125  34.510  1.00  0.00     0.049 A 
ATOM     62  H   UNL A   1      41.072  29.887  33.124  1.00  0.00     0.167 HD
ATOM     63  C   UNL A   1      42.970  27.897  32.414  1.00  0.00     0.074 A 
ATOM     64  C   UNL A   1      43.720  26.945  31.621  1.00  0.00     0.031 C 
ATOM     65  C   UNL A   1      43.221  28.178  33.716  1.00  0.00     0.037 A 
BRANCH  52  66
ATOM     66  C   UNL A   1      39.505  32.483  36.141  1.00  0.00     0.064 A 
ATOM     67  C   UNL A   1      40.104  33.728  36.392  1.00  0.00     0.173 A 
ATOM     68  C   UNL A   1      38.484  32.064  37.009  1.00  0.00     0.173 A 
ATOM     69  F   UNL A   1      41.084  34.179  35.594  1.00  0.00    -0.203 F 
ATOM     70  C   UNL A   1      39.710  34.510  37.477  1.00  0.00     0.198 A 
ATOM     71  C   UNL A   1      38.070  32.864  38.071  1.00  0.00     0.198 A 
ATOM     72  F   UNL A   1      37.865  30.891  36.810  1.00  0.00    -0.203 F 
ATOM     73  F   UNL A   1      40.323  35.677  37.715  1.00  0.00    -0.200 F 
ATOM     74  C   UNL A   1      38.687  34.082  38.309  1.00  0.00     0.200 A 
ATOM     75  F   UNL A   1      37.064  32.459  38.861  1.00  0.00    -0.200 F 
ATOM     76  F   UNL A   1      38.296  34.845  39.339  1.00  0.00    -0.200 F 
ENDBRANCH  52  66
BRANCH  53  77
ATOM     77  C   UNL A   1      41.683  27.248  27.928  1.00  0.00     0.064 A 
ATOM     78  C   UNL A   1      42.557  27.731  26.946  1.00  0.00     0.173 A 
ATOM     79  C   UNL A   1      41.133  25.970  27.742  1.00  0.00     0.173 A 
ATOM     80  F   UNL A   1      43.095  28.953  27.070  1.00  0.00    -0.203 F 
ATOM     81  C   UNL A   1      42.863  26.971  25.820  1.00  0.00     0.198 A 
ATOM     82  C   UNL A   1      41.467  25.198  26.633  1.00  0.00     0.198 A 
ATOM     83  F   UNL A   1      40.296  25.458  28.657  1.00  0.00    -0.203 F 
ATOM     84  F   UNL A   1      43.674  27.472  24.878  1.00  0.00    -0.200 F 
ATOM     85  C   UNL A   1      42.327  25.701  25.670  1.00  0.00     0.200 A 
ATOM     86  F   UNL A   1      40.964  23.963  26.503  1.00  0.00    -0.200 F 
ATOM     87  F   UNL A   1      42.638  24.963  24.594  1.00  0.00    -0.200 F 
ENDBRANCH  53  77
BRANCH  65  88
ATOM     88  C   UNL A   1      44.350  27.444  34.386  1.00  0.00     0.064 A 
ATOM     89  C   UNL A   1      45.639  27.994  34.468  1.00  0.00     0.173 A 
ATOM     90  C   UNL A   1      44.125  26.210  35.017  1.00  0.00     0.173 A 
ATOM     91  F   UNL A   1      45.914  29.163  33.871  1.00  0.00    -0.203 F 
ATOM     92  C   UNL A   1      46.661  27.329  35.141  1.00  0.00     0.198 A 
ATOM     93  C   UNL A   1      45.139  25.566  35.721  1.00  0.00     0.198 A 
ATOM     94  F   UNL A   1      42.911  25.640  34.976  1.00  0.00    -0.203 F 
ATOM     95  F   UNL A   1      47.894  27.854  35.170  1.00  0.00    -0.200 F 
ATOM     96  C   UNL A   1      46.408  26.123  35.778  1.00  0.00     0.200 A 
ATOM     97  F   UNL A   1      44.886  24.411  36.353  1.00  0.00    -0.200 F 
ATOM     98  F   UNL A   1      47.387  25.497  36.444  1.00  0.00    -0.200 F 
ENDBRANCH  65  88
ENDBRANCH  39  40
ENDBRANCH  32  34
ENDBRANCH  31  32
ENDBRANCH  30  31
ENDBRANCH  29  30
ENDBRANCH  28  29
ENDBRANCH  27  28
ENDBRANCH   1  27
TORSDOF 22
ENDMDL
MODEL 2
REMARK VINA RESULT:     -10.4      0.806      7.075
REMARK SMILES C#Cc1ccc2c(c1)C=C(C(=O)OCCOCCOCCOCCOC(=O)c1ccc(-c3c4nc(c(-c5c(F)c(F)c(F)c(F)c5F)c5ccc([nH]5)c(-c5c(F)c(F)c(F)c(F)c5F)c5nc(c(-c6c(F)c(F)c(F)c(F)c6F)c6ccc3[nH]6)C=C5)C=C4)cc1)[C@@H](C(F)(F)F)O2
REMARK SMILES IDX 20 1 19 2 18 3 17 4 16 5 15 6 14 7 13 8 11 9 12 10 10 11
REMARK SMILES IDX 3 12 4 13 8 14 5 15 7 16 6 17 9 18 96 19 91 20 2 21 1 22
REMARK SMILES IDX 92 23 93 24 94 25 95 26 21 27 22 28 23 29 24 30 25 31 26 32
REMARK SMILES IDX 27 33 28 34 29 35 90 36 30 37 89 38 31 39 32 40 33 41 83 42
REMARK SMILES IDX 34 43 88 44 82 45 84 46 35 47 87 48 81 49 80 50 36 52 68 53
REMARK SMILES IDX 48 54 67 55 49 56 52 57 66 58 85 59 50 60 51 61 65 63 86 64
REMARK SMILES IDX 53 65 37 66 38 67 46 68 39 69 40 70 44 71 47 72 41 73 42 74
REMARK SMILES IDX 45 75 43 76 69 77 70 78 78 79 71 80 72 81 76 82 79 83 73 84
REMARK SMILES IDX 74 85 77 86 75 87 54 88 55 89 63 90 56 91 57 92 61 93 64 94
REMARK SMILES IDX 58 95 59 96 62 97 60 98
REMARK H PARENT 84 51 52 62
REMARK Flexibility Score: inf
ROOT
ATOM      1  C   UNL A   1      32.988  27.784  24.128  1.00  0.00     0.188 C 
ENDROOT
BRANCH   1   2
ATOM      2  O   UNL A   1      32.381  27.141  23.008  1.00  0.00    -0.377 OA
BRANCH   2   3
ATOM      3  C   UNL A   1      31.105  26.543  23.154  1.00  0.00     0.188 C 
BRANCH   3   4
ATOM      4  C   UNL A   1      30.260  27.025  24.353  1.00  0.00     0.188 C 
BRANCH   4   5
ATOM      5  O   UNL A   1      29.821  26.007  25.228  1.00  0.00    -0.376 OA
BRANCH   5   6
ATOM      6  C   UNL A   1      30.595  24.867  25.545  1.00  0.00     0.202 C 
BRANCH   6   7
ATOM      7  C   UNL A   1      31.806  24.847  26.491  1.00  0.00     0.261 C 
BRANCH   7   8
ATOM      8  O   UNL A   1      32.327  23.576  26.864  1.00  0.00    -0.460 OA
BRANCH   8   9
ATOM      9  C   UNL A   1      33.450  23.181  26.232  1.00  0.00     0.338 C 
ATOM     10  O   UNL A   1      34.586  23.557  26.461  1.00  0.00    -0.246 OA
BRANCH   9  11
ATOM     11  C   UNL A   1      33.095  22.073  25.321  1.00  0.00     0.087 C 
ATOM     12  C   UNL A   1      32.757  17.347  24.558  1.00  0.00     0.025 A 
ATOM     13  C   UNL A   1      32.546  17.586  23.200  1.00  0.00     0.021 A 
ATOM     14  C   UNL A   1      32.863  18.419  25.446  1.00  0.00     0.029 A 
ATOM     15  C   UNL A   1      32.420  18.897  22.733  1.00  0.00     0.048 A 
ATOM     16  C   UNL A   1      32.798  19.732  24.968  1.00  0.00     0.018 A 
ATOM     17  C   UNL A   1      32.547  19.969  23.616  1.00  0.00     0.128 A 
ATOM     18  C   UNL A   1      33.087  20.844  25.852  1.00  0.00     0.027 C 
ATOM     19  O   UNL A   1      32.434  21.214  23.070  1.00  0.00    -0.475 OA
ATOM     20  C   UNL A   1      32.719  22.377  23.894  1.00  0.00     0.316 C 
BRANCH  12  21
ATOM     21  C   UNL A   1      32.922  16.006  25.038  1.00  0.00    -0.070 C 
ATOM     22  C   UNL A   1      33.029  14.880  25.425  1.00  0.00     0.010 C 
ENDBRANCH  12  21
BRANCH  20  23
ATOM     23  C   UNL A   1      33.792  23.217  23.188  1.00  0.00     0.430 C 
ATOM     24  F   UNL A   1      35.036  22.741  23.436  1.00  0.00    -0.167 F 
ATOM     25  F   UNL A   1      33.637  23.208  21.843  1.00  0.00    -0.167 F 
ATOM     26  F   UNL A   1      33.762  24.508  23.588  1.00  0.00    -0.167 F 
ENDBRANCH  20  23
ENDBRANCH   9  11
ENDBRANCH   8   9
ENDBRANCH   7   8
ENDBRANCH   6   7
ENDBRANCH   5   6
ENDBRANCH   4   5
ENDBRANCH   3   4
ENDBRANCH   2   3
ENDBRANCH   1   2
BRANCH   1  27
ATOM     27  C   UNL A   1      32.947  29.317  24.366  1.00  0.00     0.188 C 
BRANCH  27  28
ATOM     28  O   UNL A   1      32.596  29.714  25.672  1.00  0.00    -0.376 OA
BRANCH  28  29
ATOM     29  C   UNL A   1      31.448  30.490  25.934  1.00  0.00     0.202 C 
BRANCH  29  30
ATOM     30  C   UNL A   1      31.562  31.897  26.536  1.00  0.00     0.261 C 
BRANCH  30  31
ATOM     31  O   UNL A   1      32.851  32.517  26.515  1.00  0.00    -0.460 OA
BRANCH  31  32
ATOM     32  C   UNL A   1      33.205  33.260  27.587  1.00  0.00     0.338 C 
ATOM     33  O   UNL A   1      32.600  34.197  28.070  1.00  0.00    -0.246 OA
BRANCH  32  34
ATOM     34  C   UNL A   1      34.380  32.592  28.193  1.00  0.00     0.060 A 
ATOM     35  C   UNL A   1      35.522  33.337  28.493  1.00  0.00     0.016 A 
ATOM     36  C   UNL A   1      34.365  31.205  28.394  1.00  0.00     0.016 A 
ATOM     37  C   UNL A   1      36.643  32.693  29.019  1.00  0.00     0.010 A 
ATOM     38  C   UNL A   1      35.494  30.561  28.909  1.00  0.00     0.010 A 
ATOM     39  C   UNL A   1      36.632  31.304  29.251  1.00  0.00    -0.014 A 
BRANCH  39  40
ATOM     40  C   UNL A   1      37.740  30.684  30.019  1.00  0.00     0.031 A 
ATOM     41  C   UNL A   1      38.701  29.713  29.404  1.00  0.00     0.074 A 
ATOM     42  C   UNL A   1      37.869  31.031  31.313  1.00  0.00     0.049 A 
ATOM     43  N   UNL A   1      39.771  29.171  29.934  1.00  0.00    -0.248 NA
ATOM     44  C   UNL A   1      38.427  29.285  28.026  1.00  0.00     0.031 C 
ATOM     45  C   UNL A   1      36.970  31.939  32.025  1.00  0.00     0.029 A 
ATOM     46  N   UNL A   1      38.807  30.683  32.253  1.00  0.00    -0.354 N 
ATOM     47  C   UNL A   1      40.315  28.360  28.949  1.00  0.00     0.074 A 
ATOM     48  C   UNL A   1      39.425  28.434  27.808  1.00  0.00     0.031 C 
ATOM     49  C   UNL A   1      37.423  32.114  33.273  1.00  0.00     0.029 A 
ATOM     50  C   UNL A   1      38.620  31.302  33.464  1.00  0.00     0.049 A 
ATOM     51  H   UNL A   1      39.542  30.052  32.075  1.00  0.00     0.167 HD
ATOM     52  C   UNL A   1      41.464  27.640  28.994  1.00  0.00     0.037 A 
ATOM     53  C   UNL A   1      39.334  31.228  34.603  1.00  0.00     0.037 A 
ATOM     54  C   UNL A   1      42.332  27.559  30.145  1.00  0.00     0.049 A 
ATOM     55  C   UNL A   1      40.573  30.379  34.640  1.00  0.00     0.074 A 
ATOM     56  C   UNL A   1      43.534  26.882  30.269  1.00  0.00     0.029 A 
ATOM     57  N   UNL A   1      42.087  28.158  31.372  1.00  0.00    -0.354 N 
ATOM     58  N   UNL A   1      41.126  29.683  33.677  1.00  0.00    -0.248 NA
ATOM     59  C   UNL A   1      41.290  30.310  35.920  1.00  0.00     0.031 C 
ATOM     60  C   UNL A   1      43.979  27.013  31.588  1.00  0.00     0.029 A 
ATOM     61  C   UNL A   1      43.096  27.833  32.270  1.00  0.00     0.049 A 
ATOM     62  H   UNL A   1      41.312  28.730  31.577  1.00  0.00     0.167 HD
ATOM     63  C   UNL A   1      42.265  29.110  34.225  1.00  0.00     0.074 A 
ATOM     64  C   UNL A   1      42.337  29.561  35.600  1.00  0.00     0.031 C 
ATOM     65  C   UNL A   1      43.164  28.282  33.640  1.00  0.00     0.037 A 
BRANCH  52  66
ATOM     66  C   UNL A   1      41.868  26.881  27.760  1.00  0.00     0.064 A 
ATOM     67  C   UNL A   1      42.742  27.436  26.812  1.00  0.00     0.173 A 
ATOM     68  C   UNL A   1      41.456  25.552  27.567  1.00  0.00     0.173 A 
ATOM     69  F   UNL A   1      43.169  28.701  26.948  1.00  0.00    -0.203 F 
ATOM     70  C   UNL A   1      43.169  26.700  25.709  1.00  0.00     0.198 A 
ATOM     71  C   UNL A   1      41.913  24.808  26.482  1.00  0.00     0.198 A 
ATOM     72  F   UNL A   1      40.635  24.963  28.449  1.00  0.00    -0.203 F 
ATOM     73  F   UNL A   1      43.974  27.266  24.800  1.00  0.00    -0.200 F 
ATOM     74  C   UNL A   1      42.762  25.384  25.550  1.00  0.00     0.200 A 
ATOM     75  F   UNL A   1      41.537  23.529  26.343  1.00  0.00    -0.200 F 
ATOM     76  F   UNL A   1      43.190  24.671  24.499  1.00  0.00    -0.200 F 
ENDBRANCH  52  66
BRANCH  53  77
ATOM     77  C   UNL A   1      38.904  32.021  35.785  1.00  0.00     0.064 A 
ATOM     78  C   UNL A   1      38.151  31.435  36.811  1.00  0.00     0.173 A 
ATOM     79  C   UNL A   1      39.271  33.367  35.932  1.00  0.00     0.173 A 
ATOM     80  F   UNL A   1      37.762  30.155  36.709  1.00  0.00    -0.203 F 
ATOM     81  C   UNL A   1      37.774  32.167  37.933  1.00  0.00     0.198 A 
ATOM     82  C   UNL A   1      38.922  34.088  37.071  1.00  0.00     0.198 A 
ATOM     83  F   UNL A   1      39.997  33.974  34.981  1.00  0.00    -0.203 F 
ATOM     84  F   UNL A   1      37.023  31.592  38.883  1.00  0.00    -0.200 F 
ATOM     85  C   UNL A   1      38.169  33.489  38.068  1.00  0.00     0.200 A 
ATOM     86  F   UNL A   1      39.325  35.359  37.206  1.00  0.00    -0.200 F 
ATOM     87  F   UNL A   1      37.821  34.186  39.159  1.00  0.00    -0.200 F 
ENDBRANCH  53  77
BRANCH  65  88
ATOM     88  C   UNL A   1      44.323  27.805  34.473  1.00  0.00     0.064 A 
ATOM     89  C   UNL A   1      45.507  28.551  34.582  1.00  0.00     0.173 A 
ATOM     90  C   UNL A   1      44.221  26.627  35.230  1.00  0.00     0.173 A 
ATOM     91  F   UNL A   1      45.664  29.677  33.870  1.00  0.00    -0.203 F 
ATOM     92  C   UNL A   1      46.550  28.126  35.402  1.00  0.00     0.198 A 
ATOM     93  C   UNL A   1      45.250  26.225  36.077  1.00  0.00     0.198 A 
ATOM     94  F   UNL A   1      43.110  25.877  35.169  1.00  0.00    -0.203 F 
ATOM     95  F   UNL A   1      47.687  28.833  35.456  1.00  0.00    -0.200 F 
ATOM     96  C   UNL A   1      46.416  26.972  36.158  1.00  0.00     0.200 A 
ATOM     97  F   UNL A   1      45.110  25.120  36.823  1.00  0.00    -0.200 F 
ATOM     98  F   UNL A   1      47.411  26.578  36.964  1.00  0.00    -0.200 F 
ENDBRANCH  65  88
ENDBRANCH  39  40
ENDBRANCH  32  34
ENDBRANCH  31  32
ENDBRANCH  30  31
ENDBRANCH  29  30
ENDBRANCH  28  29
ENDBRANCH  27  28
ENDBRANCH   1  27
TORSDOF 22
ENDMDL
MODEL 3
REMARK VINA RESULT:     -10.4      2.164      3.965
REMARK SMILES C#Cc1ccc2c(c1)C=C(C(=O)OCCOCCOCCOCCOC(=O)c1ccc(-c3c4nc(c(-c5c(F)c(F)c(F)c(F)c5F)c5ccc([nH]5)c(-c5c(F)c(F)c(F)c(F)c5F)c5nc(c(-c6c(F)c(F)c(F)c(F)c6F)c6ccc3[nH]6)C=C5)C=C4)cc1)[C@@H](C(F)(F)F)O2
REMARK SMILES IDX 20 1 19 2 18 3 17 4 16 5 15 6 14 7 13 8 11 9 12 10 10 11
REMARK SMILES IDX 3 12 4 13 8 14 5 15 7 16 6 17 9 18 96 19 91 20 2 21 1 22
REMARK SMILES IDX 92 23 93 24 94 25 95 26 21 27 22 28 23 29 24 30 25 31 26 32
REMARK SMILES IDX 27 33 28 34 29 35 90 36 30 37 89 38 31 39 32 40 33 41 83 42
REMARK SMILES IDX 34 43 88 44 82 45 84 46 35 47 87 48 81 49 80 50 36 52 68 53
REMARK SMILES IDX 48 54 67 55 49 56 52 57 66 58 85 59 50 60 51 61 65 63 86 64
REMARK SMILES IDX 53 65 37 66 38 67 46 68 39 69 40 70 44 71 47 72 41 73 42 74
REMARK SMILES IDX 45 75 43 76 69 77 70 78 78 79 71 80 72 81 76 82 79 83 73 84
REMARK SMILES IDX 74 85 77 86 75 87 54 88 55 89 63 90 56 91 57 92 61 93 64 94
REMARK SMILES IDX 58 95 59 96 62 97 60 98
REMARK H PARENT 84 51 52 62
REMARK Flexibility Score: inf
ROOT
ATOM      1  C   UNL A   1      30.488  29.659  24.081  1.00  0.00     0.188 C 
ENDROOT
BRANCH   1   2
ATOM      2  O   UNL A   1      31.770  29.054  23.916  1.00  0.00    -0.377 OA
BRANCH   2   3
ATOM      3  C   UNL A   1      32.059  28.348  22.722  1.00  0.00     0.188 C 
BRANCH   3   4
ATOM      4  C   UNL A   1      31.514  26.906  22.634  1.00  0.00     0.188 C 
BRANCH   4   5
ATOM      5  O   UNL A   1      32.008  26.140  21.554  1.00  0.00    -0.376 OA
BRANCH   5   6
ATOM      6  C   UNL A   1      32.812  24.990  21.722  1.00  0.00     0.202 C 
BRANCH   6   7
ATOM      7  C   UNL A   1      32.586  23.889  22.772  1.00  0.00     0.261 C 
BRANCH   7   8
ATOM      8  O   UNL A   1      33.736  23.345  23.411  1.00  0.00    -0.460 OA
BRANCH   8   9
ATOM      9  C   UNL A   1      33.655  23.177  24.745  1.00  0.00     0.338 C 
ATOM     10  O   UNL A   1      34.139  22.267  25.396  1.00  0.00    -0.246 OA
BRANCH   9  11
ATOM     11  C   UNL A   1      33.026  24.383  25.320  1.00  0.00     0.087 C 
ATOM     12  C   UNL A   1      33.521  28.834  27.047  1.00  0.00     0.025 A 
ATOM     13  C   UNL A   1      32.208  28.793  27.517  1.00  0.00     0.021 A 
ATOM     14  C   UNL A   1      34.028  27.768  26.302  1.00  0.00     0.029 A 
ATOM     15  C   UNL A   1      31.396  27.694  27.223  1.00  0.00     0.048 A 
ATOM     16  C   UNL A   1      33.234  26.642  26.062  1.00  0.00     0.018 A 
ATOM     17  C   UNL A   1      31.908  26.620  26.497  1.00  0.00     0.128 A 
ATOM     18  C   UNL A   1      33.810  25.461  25.447  1.00  0.00     0.027 C 
ATOM     19  O   UNL A   1      31.052  25.580  26.277  1.00  0.00    -0.475 OA
ATOM     20  C   UNL A   1      31.562  24.359  25.675  1.00  0.00     0.316 C 
BRANCH  12  21
ATOM     21  C   UNL A   1      34.370  29.941  27.374  1.00  0.00    -0.070 C 
ATOM     22  C   UNL A   1      35.102  30.853  27.626  1.00  0.00     0.010 C 
ENDBRANCH  12  21
BRANCH  20  23
ATOM     23  C   UNL A   1      31.219  23.185  26.602  1.00  0.00     0.430 C 
ATOM     24  F   UNL A   1      30.028  23.374  27.219  1.00  0.00    -0.167 F 
ATOM     25  F   UNL A   1      31.122  22.018  25.924  1.00  0.00    -0.167 F 
ATOM     26  F   UNL A   1      32.154  23.015  27.564  1.00  0.00    -0.167 F 
ENDBRANCH  20  23
ENDBRANCH   9  11
ENDBRANCH   8   9
ENDBRANCH   7   8
ENDBRANCH   6   7
ENDBRANCH   5   6
ENDBRANCH   4   5
ENDBRANCH   3   4
ENDBRANCH   2   3
ENDBRANCH   1   2
BRANCH   1  27
ATOM     27  C   UNL A   1      30.279  31.093  24.634  1.00  0.00     0.188 C 
BRANCH  27  28
ATOM     28  O   UNL A   1      30.929  31.368  25.855  1.00  0.00    -0.376 OA
BRANCH  28  29
ATOM     29  C   UNL A   1      31.396  32.658  26.179  1.00  0.00     0.202 C 
BRANCH  29  30
ATOM     30  C   UNL A   1      32.148  32.924  27.490  1.00  0.00     0.261 C 
BRANCH  30  31
ATOM     31  O   UNL A   1      33.126  33.967  27.485  1.00  0.00    -0.460 OA
BRANCH  31  32
ATOM     32  C   UNL A   1      33.285  34.681  28.622  1.00  0.00     0.338 C 
ATOM     33  O   UNL A   1      32.528  35.511  29.085  1.00  0.00    -0.246 OA
BRANCH  32  34
ATOM     34  C   UNL A   1      34.469  34.119  29.310  1.00  0.00     0.060 A 
ATOM     35  C   UNL A   1      34.304  33.388  30.488  1.00  0.00     0.016 A 
ATOM     36  C   UNL A   1      35.753  34.385  28.815  1.00  0.00     0.016 A 
ATOM     37  C   UNL A   1      35.427  32.902  31.158  1.00  0.00     0.010 A 
ATOM     38  C   UNL A   1      36.878  33.907  29.495  1.00  0.00     0.010 A 
ATOM     39  C   UNL A   1      36.722  33.139  30.657  1.00  0.00    -0.014 A 
BRANCH  39  40
ATOM     40  C   UNL A   1      37.877  32.423  31.253  1.00  0.00     0.031 A 
ATOM     41  C   UNL A   1      38.383  32.718  32.632  1.00  0.00     0.074 A 
ATOM     42  C   UNL A   1      38.470  31.472  30.508  1.00  0.00     0.049 A 
ATOM     43  N   UNL A   1      39.320  32.102  33.310  1.00  0.00    -0.248 NA
ATOM     44  C   UNL A   1      37.771  33.851  33.339  1.00  0.00     0.031 C 
ATOM     45  C   UNL A   1      38.084  31.126  29.140  1.00  0.00     0.029 A 
ATOM     46  N   UNL A   1      39.500  30.612  30.793  1.00  0.00    -0.354 N 
ATOM     47  C   UNL A   1      39.394  32.751  34.534  1.00  0.00     0.074 A 
ATOM     48  C   UNL A   1      38.447  33.847  34.483  1.00  0.00     0.031 C 
ATOM     49  C   UNL A   1      38.834  30.099  28.720  1.00  0.00     0.029 A 
ATOM     50  C   UNL A   1      39.780  29.738  29.771  1.00  0.00     0.049 A 
ATOM     51  H   UNL A   1      39.991  30.621  31.647  1.00  0.00     0.167 HD
ATOM     52  C   UNL A   1      40.169  32.441  35.604  1.00  0.00     0.037 A 
ATOM     53  C   UNL A   1      40.693  28.752  29.688  1.00  0.00     0.037 A 
ATOM     54  C   UNL A   1      41.123  31.358  35.634  1.00  0.00     0.049 A 
ATOM     55  C   UNL A   1      41.575  28.467  30.870  1.00  0.00     0.074 A 
ATOM     56  C   UNL A   1      41.926  30.948  36.686  1.00  0.00     0.029 A 
ATOM     57  N   UNL A   1      41.417  30.524  34.565  1.00  0.00    -0.354 N 
ATOM     58  N   UNL A   1      41.579  29.032  32.053  1.00  0.00    -0.248 NA
ATOM     59  C   UNL A   1      42.576  27.404  30.709  1.00  0.00     0.031 C 
ATOM     60  C   UNL A   1      42.752  29.915  36.234  1.00  0.00     0.029 A 
ATOM     61  C   UNL A   1      42.416  29.628  34.921  1.00  0.00     0.049 A 
ATOM     62  H   UNL A   1      40.981  30.561  33.683  1.00  0.00     0.167 HD
ATOM     63  C   UNL A   1      42.564  28.381  32.784  1.00  0.00     0.074 A 
ATOM     64  C   UNL A   1      43.120  27.362  31.918  1.00  0.00     0.031 C 
ATOM     65  C   UNL A   1      42.970  28.614  34.056  1.00  0.00     0.037 A 
BRANCH  52  66
ATOM     66  C   UNL A   1      40.020  33.275  36.847  1.00  0.00     0.064 A 
ATOM     67  C   UNL A   1      40.827  34.401  37.074  1.00  0.00     0.173 A 
ATOM     68  C   UNL A   1      39.000  33.005  37.775  1.00  0.00     0.173 A 
ATOM     69  F   UNL A   1      41.814  34.707  36.219  1.00  0.00    -0.203 F 
ATOM     70  C   UNL A   1      40.634  35.210  38.192  1.00  0.00     0.198 A 
ATOM     71  C   UNL A   1      38.789  33.836  38.872  1.00  0.00     0.198 A 
ATOM     72  F   UNL A   1      38.188  31.953  37.601  1.00  0.00    -0.203 F 
ATOM     73  F   UNL A   1      41.442  36.257  38.405  1.00  0.00    -0.200 F 
ATOM     74  C   UNL A   1      39.610  34.933  39.084  1.00  0.00     0.200 A 
ATOM     75  F   UNL A   1      37.784  33.580  39.721  1.00  0.00    -0.200 F 
ATOM     76  F   UNL A   1      39.413  35.724  40.148  1.00  0.00    -0.200 F 
ENDBRANCH  52  66
BRANCH  53  77
ATOM     77  C   UNL A   1      40.780  27.942  28.445  1.00  0.00     0.064 A 
ATOM     78  C   UNL A   1      41.591  28.345  27.377  1.00  0.00     0.173 A 
ATOM     79  C   UNL A   1      40.085  26.730  28.316  1.00  0.00     0.173 A 
ATOM     80  F   UNL A   1      42.262  29.505  27.446  1.00  0.00    -0.203 F 
ATOM     81  C   UNL A   1      41.698  27.572  26.224  1.00  0.00     0.198 A 
ATOM     82  C   UNL A   1      40.220  25.940  27.177  1.00  0.00     0.198 A 
ATOM     83  F   UNL A   1      39.300  26.295  29.313  1.00  0.00    -0.203 F 
ATOM     84  F   UNL A   1      42.454  27.998  25.203  1.00  0.00    -0.200 F 
ATOM     85  C   UNL A   1      41.022  26.365  26.130  1.00  0.00     0.200 A 
ATOM     86  F   UNL A   1      39.582  24.765  27.100  1.00  0.00    -0.200 F 
ATOM     87  F   UNL A   1      41.142  25.612  25.027  1.00  0.00    -0.200 F 
ENDBRANCH  53  77
BRANCH  65  88
ATOM     88  C   UNL A   1      44.069  27.749  34.609  1.00  0.00     0.064 A 
ATOM     89  C   UNL A   1      43.796  26.517  35.225  1.00  0.00     0.173 A 
ATOM     90  C   UNL A   1      45.415  28.120  34.458  1.00  0.00     0.173 A 
ATOM     91  F   UNL A   1      42.528  26.120  35.408  1.00  0.00    -0.203 F 
ATOM     92  C   UNL A   1      44.827  25.700  35.681  1.00  0.00     0.198 A 
ATOM     93  C   UNL A   1      46.444  27.282  34.882  1.00  0.00     0.198 A 
ATOM     94  F   UNL A   1      45.735  29.284  33.872  1.00  0.00    -0.203 F 
ATOM     95  F   UNL A   1      44.540  24.547  36.303  1.00  0.00    -0.200 F 
ATOM     96  C   UNL A   1      46.149  26.076  35.498  1.00  0.00     0.200 A 
ATOM     97  F   UNL A   1      47.721  27.639  34.685  1.00  0.00    -0.200 F 
ATOM     98  F   UNL A   1      47.139  25.277  35.918  1.00  0.00    -0.200 F 
ENDBRANCH  65  88
ENDBRANCH  39  40
ENDBRANCH  32  34
ENDBRANCH  31  32
ENDBRANCH  30  31
ENDBRANCH  29  30
ENDBRANCH  28  29
ENDBRANCH  27  28
ENDBRANCH   1  27
TORSDOF 22
ENDMDL
