MODEL 1
REMARK VINA RESULT:      -8.7      0.000      0.000
REMARK SMILES Cc1ccc(Cn2nc(C)c3c(C(=O)OCCOCCOCCOCCOC(=O)c4ccc(-c5c6nc(c(-c7c(F)c(F)c(F)c(F)c7F)c7ccc([nH]7)c(-c7c(F)c(F)c(F)c(F)c7F)c7nc(c(-c8c(F)c(F)c(F)c(F)c8F)c8ccc5[nH]8)C=C7)C=C6)cc4)cc(-c4ccccc4)nc32)cc1
REMARK SMILES IDX 21 1 20 2 19 3 18 4 17 5 16 6 15 7 13 8 14 9 12 10 7 11 8 12
REMARK SMILES IDX 102 13 9 14 11 15 101 16 10 17 94 18 93 19 6 20 5 21 1 22
REMARK SMILES IDX 2 23 3 24 104 25 4 26 103 27 95 28 96 29 100 30 97 31 99 32
REMARK SMILES IDX 98 33 22 34 23 35 24 36 25 37 26 38 27 39 28 40 29 41 30 42
REMARK SMILES IDX 31 43 92 44 32 45 91 46 33 47 34 48 35 49 85 50 36 51 90 52
REMARK SMILES IDX 84 53 86 54 37 55 89 56 83 57 82 58 38 60 70 61 50 62 69 63
REMARK SMILES IDX 51 64 54 65 68 66 87 67 52 68 53 69 67 71 88 72 55 73 39 74
REMARK SMILES IDX 40 75 48 76 41 77 42 78 46 79 49 80 43 81 44 82 47 83 45 84
REMARK SMILES IDX 71 85 72 86 80 87 73 88 74 89 78 90 81 91 75 92 76 93 79 94
REMARK SMILES IDX 77 95 56 96 57 97 65 98 58 99 59 100 63 101 66 102 60 103
REMARK SMILES IDX 61 104 64 105 62 106
REMARK H PARENT 86 59 54 70
REMARK Flexibility Score: inf
ROOT
ATOM      1  O   UNL A   1      48.023  28.641  27.704  1.00  0.00    -0.377 OA
ENDROOT
BRANCH   1   2
ATOM      2  C   UNL A   1      47.041  29.679  27.767  1.00  0.00     0.188 C 
BRANCH   2   3
ATOM      3  C   UNL A   1      46.395  30.097  26.438  1.00  0.00     0.188 C 
BRANCH   3   4
ATOM      4  O   UNL A   1      45.072  29.648  26.162  1.00  0.00    -0.376 OA
BRANCH   4   5
ATOM      5  C   UNL A   1      44.882  28.231  26.085  1.00  0.00     0.202 C 
BRANCH   5   6
ATOM      6  C   UNL A   1      43.434  27.790  25.942  1.00  0.00     0.261 C 
BRANCH   6   7
ATOM      7  O   UNL A   1      43.432  26.357  25.869  1.00  0.00    -0.460 OA
BRANCH   7   8
ATOM      8  C   UNL A   1      43.054  25.683  26.962  1.00  0.00     0.339 C 
ATOM      9  O   UNL A   1      42.791  26.094  28.070  1.00  0.00    -0.246 OA
BRANCH   8  10
ATOM     10  C   UNL A   1      42.568  24.395  26.506  1.00  0.00     0.075 A 
ATOM     11  N   UNL A   1      39.326  23.120  26.299  1.00  0.00    -0.243 N 
ATOM     12  N   UNL A   1      38.945  24.340  26.739  1.00  0.00    -0.175 NA
ATOM     13  C   UNL A   1      40.689  22.993  26.150  1.00  0.00     0.159 A 
ATOM     14  C   UNL A   1      40.049  25.071  26.704  1.00  0.00     0.070 A 
ATOM     15  C   UNL A   1      41.182  24.244  26.498  1.00  0.00     0.056 A 
ATOM     16  N   UNL A   1      41.425  21.919  25.762  1.00  0.00    -0.228 NA
ATOM     17  C   UNL A   1      39.892  26.538  26.843  1.00  0.00     0.069 C 
ATOM     18  C   UNL A   1      42.781  22.135  25.776  1.00  0.00     0.074 A 
ATOM     19  C   UNL A   1      43.386  23.341  26.138  1.00  0.00     0.045 A 
BRANCH  11  20
ATOM     20  C   UNL A   1      38.269  22.142  26.100  1.00  0.00     0.182 C 
BRANCH  20  21
ATOM     21  C   UNL A   1      37.126  22.726  25.286  1.00  0.00    -0.026 A 
ATOM     22  C   UNL A   1      33.703  24.097  23.029  1.00  0.00     0.044 C 
ATOM     23  C   UNL A   1      34.907  23.662  23.808  1.00  0.00    -0.051 A 
ATOM     24  C   UNL A   1      35.920  22.948  23.170  1.00  0.00     0.004 A 
ATOM     25  C   UNL A   1      35.017  23.920  25.180  1.00  0.00     0.004 A 
ATOM     26  C   UNL A   1      37.030  22.517  23.894  1.00  0.00     0.006 A 
ATOM     27  C   UNL A   1      36.113  23.453  25.913  1.00  0.00     0.006 A 
ENDBRANCH  20  21
ENDBRANCH  11  20
BRANCH  18  28
ATOM     28  C   UNL A   1      43.651  21.001  25.398  1.00  0.00     0.000 A 
ATOM     29  C   UNL A   1      44.890  21.197  24.769  1.00  0.00     0.010 A 
ATOM     30  C   UNL A   1      43.301  19.682  25.755  1.00  0.00     0.010 A 
ATOM     31  C   UNL A   1      45.758  20.120  24.534  1.00  0.00     0.001 A 
ATOM     32  C   UNL A   1      44.162  18.608  25.518  1.00  0.00     0.001 A 
ATOM     33  C   UNL A   1      45.395  18.829  24.914  1.00  0.00     0.000 A 
ENDBRANCH  18  28
ENDBRANCH   8  10
ENDBRANCH   7   8
ENDBRANCH   6   7
ENDBRANCH   5   6
ENDBRANCH   4   5
ENDBRANCH   3   4
ENDBRANCH   2   3
ENDBRANCH   1   2
BRANCH   1  34
ATOM     34  C   UNL A   1      49.116  29.012  26.854  1.00  0.00     0.188 C 
BRANCH  34  35
ATOM     35  C   UNL A   1      49.484  27.886  25.890  1.00  0.00     0.188 C 
BRANCH  35  36
ATOM     36  O   UNL A   1      48.655  27.800  24.741  1.00  0.00    -0.376 OA
BRANCH  36  37
ATOM     37  C   UNL A   1      47.787  26.682  24.613  1.00  0.00     0.202 C 
BRANCH  37  38
ATOM     38  C   UNL A   1      48.005  25.596  25.675  1.00  0.00     0.261 C 
BRANCH  38  39
ATOM     39  O   UNL A   1      46.903  25.598  26.601  1.00  0.00    -0.460 OA
BRANCH  39  40
ATOM     40  C   UNL A   1      46.782  24.466  27.346  1.00  0.00     0.338 C 
ATOM     41  O   UNL A   1      46.699  23.333  26.900  1.00  0.00    -0.246 OA
BRANCH  40  42
ATOM     42  C   UNL A   1      46.435  24.834  28.751  1.00  0.00     0.060 A 
ATOM     43  C   UNL A   1      45.236  24.355  29.307  1.00  0.00     0.016 A 
ATOM     44  C   UNL A   1      47.100  25.891  29.363  1.00  0.00     0.016 A 
ATOM     45  C   UNL A   1      44.616  25.052  30.360  1.00  0.00     0.010 A 
ATOM     46  C   UNL A   1      46.452  26.603  30.361  1.00  0.00     0.010 A 
ATOM     47  C   UNL A   1      45.176  26.242  30.833  1.00  0.00    -0.014 A 
BRANCH  47  48
ATOM     48  C   UNL A   1      44.447  27.263  31.628  1.00  0.00     0.031 A 
ATOM     49  C   UNL A   1      43.709  28.387  30.930  1.00  0.00     0.074 A 
ATOM     50  C   UNL A   1      44.125  26.985  32.926  1.00  0.00     0.049 A 
ATOM     51  N   UNL A   1      42.939  29.240  31.525  1.00  0.00    -0.248 NA
ATOM     52  C   UNL A   1      43.733  28.638  29.487  1.00  0.00     0.031 C 
ATOM     53  C   UNL A   1      42.984  27.538  33.650  1.00  0.00     0.029 A 
ATOM     54  N   UNL A   1      44.656  26.075  33.874  1.00  0.00    -0.354 N 
ATOM     55  C   UNL A   1      42.075  29.773  30.596  1.00  0.00     0.074 A 
ATOM     56  C   UNL A   1      42.712  29.493  29.336  1.00  0.00     0.031 C 
ATOM     57  C   UNL A   1      42.889  27.050  34.888  1.00  0.00     0.029 A 
ATOM     58  C   UNL A   1      44.171  26.483  35.151  1.00  0.00     0.049 A 
ATOM     59  H   UNL A   1      45.244  25.308  33.687  1.00  0.00     0.167 HD
ATOM     60  C   UNL A   1      40.856  30.241  31.010  1.00  0.00     0.037 A 
ATOM     61  C   UNL A   1      44.963  27.041  36.115  1.00  0.00     0.037 A 
ATOM     62  C   UNL A   1      40.771  30.354  32.480  1.00  0.00     0.049 A 
ATOM     63  C   UNL A   1      44.563  28.476  36.433  1.00  0.00     0.074 A 
ATOM     64  C   UNL A   1      39.832  29.978  33.421  1.00  0.00     0.029 A 
ATOM     65  N   UNL A   1      41.858  30.845  33.221  1.00  0.00    -0.354 N 
ATOM     66  N   UNL A   1      44.029  29.277  35.540  1.00  0.00    -0.248 NA
ATOM     67  C   UNL A   1      44.533  29.058  37.773  1.00  0.00     0.031 C 
ATOM     68  C   UNL A   1      40.409  30.112  34.715  1.00  0.00     0.029 A 
ATOM     69  C   UNL A   1      41.673  30.659  34.576  1.00  0.00     0.049 A 
ATOM     70  H   UNL A   1      42.653  31.267  32.823  1.00  0.00     0.167 HD
ATOM     71  C   UNL A   1      43.462  30.352  36.167  1.00  0.00     0.074 A 
ATOM     72  C   UNL A   1      43.880  30.218  37.554  1.00  0.00     0.031 C 
ATOM     73  C   UNL A   1      42.582  31.214  35.569  1.00  0.00     0.037 A 
BRANCH  60  74
ATOM     74  C   UNL A   1      39.627  30.443  30.106  1.00  0.00     0.064 A 
ATOM     75  C   UNL A   1      39.040  31.724  29.941  1.00  0.00     0.173 A 
ATOM     76  C   UNL A   1      38.912  29.408  29.461  1.00  0.00     0.173 A 
ATOM     77  F   UNL A   1      39.591  32.819  30.479  1.00  0.00    -0.203 F 
ATOM     78  C   UNL A   1      37.858  31.940  29.213  1.00  0.00     0.198 A 
ATOM     79  C   UNL A   1      37.776  29.637  28.669  1.00  0.00     0.198 A 
ATOM     80  F   UNL A   1      39.238  28.121  29.614  1.00  0.00    -0.203 F 
ATOM     81  F   UNL A   1      37.322  33.168  29.158  1.00  0.00    -0.200 F 
ATOM     82  C   UNL A   1      37.240  30.899  28.555  1.00  0.00     0.200 A 
ATOM     83  F   UNL A   1      37.193  28.609  28.034  1.00  0.00    -0.200 F 
ATOM     84  F   UNL A   1      36.131  31.107  27.831  1.00  0.00    -0.200 F 
ENDBRANCH  60  74
BRANCH  61  85
ATOM     85  C   UNL A   1      46.247  26.315  36.238  1.00  0.00     0.064 A 
ATOM     86  C   UNL A   1      46.138  25.033  36.821  1.00  0.00     0.173 A 
ATOM     87  C   UNL A   1      47.249  26.507  35.277  1.00  0.00     0.173 A 
ATOM     88  F   UNL A   1      45.195  24.803  37.750  1.00  0.00    -0.203 F 
ATOM     89  C   UNL A   1      46.838  23.945  36.305  1.00  0.00     0.198 A 
ATOM     90  C   UNL A   1      47.960  25.413  34.773  1.00  0.00     0.198 A 
ATOM     91  F   UNL A   1      47.399  27.701  34.688  1.00  0.00    -0.203 F 
ATOM     92  F   UNL A   1      46.568  22.707  36.743  1.00  0.00    -0.200 F 
ATOM     93  C   UNL A   1      47.713  24.131  35.249  1.00  0.00     0.200 A 
ATOM     94  F   UNL A   1      48.793  25.578  33.734  1.00  0.00    -0.200 F 
ATOM     95  F   UNL A   1      48.269  23.068  34.647  1.00  0.00    -0.200 F 
ENDBRANCH  61  85
BRANCH  73  96
ATOM     96  C   UNL A   1      42.377  32.664  35.952  1.00  0.00     0.064 A 
ATOM     97  C   UNL A   1      42.901  33.726  35.199  1.00  0.00     0.173 A 
ATOM     98  C   UNL A   1      41.433  33.032  36.948  1.00  0.00     0.173 A 
ATOM     99  F   UNL A   1      43.741  33.508  34.179  1.00  0.00    -0.203 F 
ATOM    100  C   UNL A   1      42.524  35.050  35.434  1.00  0.00     0.198 A 
ATOM    101  C   UNL A   1      41.030  34.348  37.151  1.00  0.00     0.198 A 
ATOM    102  F   UNL A   1      40.822  32.130  37.728  1.00  0.00    -0.203 F 
ATOM    103  F   UNL A   1      43.055  36.028  34.688  1.00  0.00    -0.200 F 
ATOM    104  C   UNL A   1      41.578  35.359  36.394  1.00  0.00     0.200 A 
ATOM    105  F   UNL A   1      40.079  34.622  38.055  1.00  0.00    -0.200 F 
ATOM    106  F   UNL A   1      41.180  36.625  36.574  1.00  0.00    -0.200 F 
ENDBRANCH  73  96
ENDBRANCH  47  48
ENDBRANCH  40  42
ENDBRANCH  39  40
ENDBRANCH  38  39
ENDBRANCH  37  38
ENDBRANCH  36  37
ENDBRANCH  35  36
ENDBRANCH  34  35
ENDBRANCH   1  34
TORSDOF 23
ENDMDL
MODEL 2
REMARK VINA RESULT:      -8.5      3.721      8.208
REMARK SMILES Cc1ccc(Cn2nc(C)c3c(C(=O)OCCOCCOCCOCCOC(=O)c4ccc(-c5c6nc(c(-c7c(F)c(F)c(F)c(F)c7F)c7ccc([nH]7)c(-c7c(F)c(F)c(F)c(F)c7F)c7nc(c(-c8c(F)c(F)c(F)c(F)c8F)c8ccc5[nH]8)C=C7)C=C6)cc4)cc(-c4ccccc4)nc32)cc1
REMARK SMILES IDX 21 1 20 2 19 3 18 4 17 5 16 6 15 7 13 8 14 9 12 10 7 11 8 12
REMARK SMILES IDX 102 13 9 14 11 15 101 16 10 17 94 18 93 19 6 20 5 21 1 22
REMARK SMILES IDX 2 23 3 24 104 25 4 26 103 27 95 28 96 29 100 30 97 31 99 32
REMARK SMILES IDX 98 33 22 34 23 35 24 36 25 37 26 38 27 39 28 40 29 41 30 42
REMARK SMILES IDX 31 43 92 44 32 45 91 46 33 47 34 48 35 49 85 50 36 51 90 52
REMARK SMILES IDX 84 53 86 54 37 55 89 56 83 57 82 58 38 60 70 61 50 62 69 63
REMARK SMILES IDX 51 64 54 65 68 66 87 67 52 68 53 69 67 71 88 72 55 73 39 74
REMARK SMILES IDX 40 75 48 76 41 77 42 78 46 79 49 80 43 81 44 82 47 83 45 84
REMARK SMILES IDX 71 85 72 86 80 87 73 88 74 89 78 90 81 91 75 92 76 93 79 94
REMARK SMILES IDX 77 95 56 96 57 97 65 98 58 99 59 100 63 101 66 102 60 103
REMARK SMILES IDX 61 104 64 105 62 106
REMARK H PARENT 86 59 54 70
REMARK Flexibility Score: inf
ROOT
ATOM      1  O   UNL A   1      43.267  23.425  30.077  1.00  0.00    -0.377 OA
ENDROOT
BRANCH   1   2
ATOM      2  C   UNL A   1      43.435  22.577  28.937  1.00  0.00     0.188 C 
BRANCH   2   3
ATOM      3  C   UNL A   1      43.168  23.210  27.563  1.00  0.00     0.188 C 
BRANCH   3   4
ATOM      4  O   UNL A   1      44.287  23.569  26.759  1.00  0.00    -0.376 OA
BRANCH   4   5
ATOM      5  C   UNL A   1      44.548  24.969  26.616  1.00  0.00     0.202 C 
BRANCH   5   6
ATOM      6  C   UNL A   1      43.546  25.877  27.310  1.00  0.00     0.261 C 
BRANCH   6   7
ATOM      7  O   UNL A   1      43.541  27.125  26.600  1.00  0.00    -0.460 OA
BRANCH   7   8
ATOM      8  C   UNL A   1      42.492  27.381  25.808  1.00  0.00     0.339 C 
ATOM      9  O   UNL A   1      42.467  27.686  24.636  1.00  0.00    -0.246 OA
BRANCH   8  10
ATOM     10  C   UNL A   1      41.332  26.801  26.457  1.00  0.00     0.075 A 
ATOM     11  N   UNL A   1      39.549  27.817  29.279  1.00  0.00    -0.243 N 
ATOM     12  N   UNL A   1      40.400  28.866  29.293  1.00  0.00    -0.175 NA
ATOM     13  C   UNL A   1      39.775  26.942  28.239  1.00  0.00     0.159 A 
ATOM     14  C   UNL A   1      41.070  28.773  28.155  1.00  0.00     0.070 A 
ATOM     15  C   UNL A   1      40.831  27.516  27.544  1.00  0.00     0.056 A 
ATOM     16  N   UNL A   1      39.146  25.779  27.928  1.00  0.00    -0.228 NA
ATOM     17  C   UNL A   1      41.868  29.951  27.743  1.00  0.00     0.069 C 
ATOM     18  C   UNL A   1      39.675  25.131  26.840  1.00  0.00     0.074 A 
ATOM     19  C   UNL A   1      40.754  25.599  26.086  1.00  0.00     0.045 A 
BRANCH  11  20
ATOM     20  C   UNL A   1      38.580  27.750  30.360  1.00  0.00     0.182 C 
BRANCH  20  21
ATOM     21  C   UNL A   1      37.595  28.906  30.287  1.00  0.00    -0.026 A 
ATOM     22  C   UNL A   1      35.061  32.403  30.068  1.00  0.00     0.044 C 
ATOM     23  C   UNL A   1      35.904  31.166  30.138  1.00  0.00    -0.051 A 
ATOM     24  C   UNL A   1      36.310  30.678  31.379  1.00  0.00     0.004 A 
ATOM     25  C   UNL A   1      36.331  30.510  28.976  1.00  0.00     0.004 A 
ATOM     26  C   UNL A   1      37.116  29.542  31.451  1.00  0.00     0.006 A 
ATOM     27  C   UNL A   1      37.172  29.394  29.049  1.00  0.00     0.006 A 
ENDBRANCH  20  21
ENDBRANCH  11  20
BRANCH  18  28
ATOM     28  C   UNL A   1      39.065  23.839  26.459  1.00  0.00     0.000 A 
ATOM     29  C   UNL A   1      37.778  23.764  25.903  1.00  0.00     0.010 A 
ATOM     30  C   UNL A   1      39.807  22.643  26.552  1.00  0.00     0.010 A 
ATOM     31  C   UNL A   1      37.267  22.547  25.430  1.00  0.00     0.001 A 
ATOM     32  C   UNL A   1      39.297  21.428  26.085  1.00  0.00     0.001 A 
ATOM     33  C   UNL A   1      38.028  21.382  25.517  1.00  0.00     0.000 A 
ENDBRANCH  18  28
ENDBRANCH   8  10
ENDBRANCH   7   8
ENDBRANCH   6   7
ENDBRANCH   5   6
ENDBRANCH   4   5
ENDBRANCH   3   4
ENDBRANCH   2   3
ENDBRANCH   1   2
BRANCH   1  34
ATOM     34  C   UNL A   1      44.530  23.883  30.573  1.00  0.00     0.188 C 
BRANCH  34  35
ATOM     35  C   UNL A   1      44.462  24.214  32.063  1.00  0.00     0.188 C 
BRANCH  35  36
ATOM     36  O   UNL A   1      44.367  23.082  32.913  1.00  0.00    -0.376 OA
BRANCH  36  37
ATOM     37  C   UNL A   1      43.789  23.248  34.201  1.00  0.00     0.202 C 
BRANCH  37  38
ATOM     38  C   UNL A   1      44.539  22.516  35.322  1.00  0.00     0.261 C 
BRANCH  38  39
ATOM     39  O   UNL A   1      45.957  22.638  35.113  1.00  0.00    -0.460 OA
BRANCH  39  40
ATOM     40  C   UNL A   1      46.593  23.470  35.984  1.00  0.00     0.338 C 
ATOM     41  O   UNL A   1      46.478  23.439  37.199  1.00  0.00    -0.246 OA
BRANCH  40  42
ATOM     42  C   UNL A   1      47.179  24.618  35.232  1.00  0.00     0.060 A 
ATOM     43  C   UNL A   1      46.908  25.928  35.664  1.00  0.00     0.016 A 
ATOM     44  C   UNL A   1      47.684  24.410  33.953  1.00  0.00     0.016 A 
ATOM     45  C   UNL A   1      46.968  27.000  34.755  1.00  0.00     0.010 A 
ATOM     46  C   UNL A   1      47.685  25.463  33.052  1.00  0.00     0.010 A 
ATOM     47  C   UNL A   1      47.268  26.758  33.412  1.00  0.00    -0.014 A 
BRANCH  47  48
ATOM     48  C   UNL A   1      46.977  27.698  32.298  1.00  0.00     0.031 A 
ATOM     49  C   UNL A   1      48.086  28.138  31.365  1.00  0.00     0.074 A 
ATOM     50  C   UNL A   1      45.684  27.859  31.888  1.00  0.00     0.049 A 
ATOM     51  N   UNL A   1      47.909  28.842  30.294  1.00  0.00    -0.248 NA
ATOM     52  C   UNL A   1      49.503  27.798  31.525  1.00  0.00     0.031 C 
ATOM     53  C   UNL A   1      45.266  28.230  30.539  1.00  0.00     0.029 A 
ATOM     54  N   UNL A   1      44.439  27.629  32.524  1.00  0.00    -0.354 N 
ATOM     55  C   UNL A   1      48.982  28.644  29.456  1.00  0.00     0.074 A 
ATOM     56  C   UNL A   1      50.005  28.127  30.326  1.00  0.00     0.031 C 
ATOM     57  C   UNL A   1      43.938  28.264  30.415  1.00  0.00     0.029 A 
ATOM     58  C   UNL A   1      43.453  28.314  31.756  1.00  0.00     0.049 A 
ATOM     59  H   UNL A   1      44.284  27.097  33.339  1.00  0.00     0.167 HD
ATOM     60  C   UNL A   1      48.810  28.795  28.106  1.00  0.00     0.037 A 
ATOM     61  C   UNL A   1      42.804  29.436  32.190  1.00  0.00     0.037 A 
ATOM     62  C   UNL A   1      47.523  29.438  27.774  1.00  0.00     0.049 A 
ATOM     63  C   UNL A   1      43.117  30.654  31.331  1.00  0.00     0.074 A 
ATOM     64  C   UNL A   1      46.518  29.168  26.866  1.00  0.00     0.029 A 
ATOM     65  N   UNL A   1      47.046  30.515  28.540  1.00  0.00    -0.354 N 
ATOM     66  N   UNL A   1      44.268  30.811  30.716  1.00  0.00    -0.248 NA
ATOM     67  C   UNL A   1      42.144  31.667  30.928  1.00  0.00     0.031 C 
ATOM     68  C   UNL A   1      45.394  29.983  27.177  1.00  0.00     0.029 A 
ATOM     69  C   UNL A   1      45.740  30.823  28.222  1.00  0.00     0.049 A 
ATOM     70  H   UNL A   1      47.578  30.989  29.218  1.00  0.00     0.167 HD
ATOM     71  C   UNL A   1      44.152  31.786  29.764  1.00  0.00     0.074 A 
ATOM     72  C   UNL A   1      42.832  32.354  29.993  1.00  0.00     0.031 C 
ATOM     73  C   UNL A   1      45.062  31.993  28.762  1.00  0.00     0.037 A 
BRANCH  60  74
ATOM     74  C   UNL A   1      49.725  28.201  27.020  1.00  0.00     0.064 A 
ATOM     75  C   UNL A   1      49.868  26.797  26.867  1.00  0.00     0.173 A 
ATOM     76  C   UNL A   1      50.570  28.949  26.169  1.00  0.00     0.173 A 
ATOM     77  F   UNL A   1      49.137  25.939  27.589  1.00  0.00    -0.203 F 
ATOM     78  C   UNL A   1      50.768  26.210  25.964  1.00  0.00     0.198 A 
ATOM     79  C   UNL A   1      51.412  28.361  25.212  1.00  0.00     0.198 A 
ATOM     80  F   UNL A   1      50.671  30.278  26.262  1.00  0.00    -0.203 F 
ATOM     81  F   UNL A   1      50.901  24.876  25.923  1.00  0.00    -0.200 F 
ATOM     82  C   UNL A   1      51.523  26.992  25.117  1.00  0.00     0.200 A 
ATOM     83  F   UNL A   1      52.134  29.143  24.395  1.00  0.00    -0.200 F 
ATOM     84  F   UNL A   1      52.358  26.435  24.229  1.00  0.00    -0.200 F 
ENDBRANCH  60  74
BRANCH  61  85
ATOM     85  C   UNL A   1      42.379  29.295  33.601  1.00  0.00     0.064 A 
ATOM     86  C   UNL A   1      41.515  28.205  33.842  1.00  0.00     0.173 A 
ATOM     87  C   UNL A   1      43.252  29.672  34.631  1.00  0.00     0.173 A 
ATOM     88  F   UNL A   1      40.657  27.810  32.887  1.00  0.00    -0.203 F 
ATOM     89  C   UNL A   1      41.677  27.392  34.963  1.00  0.00     0.198 A 
ATOM     90  C   UNL A   1      43.399  28.860  35.760  1.00  0.00     0.198 A 
ATOM     91  F   UNL A   1      44.097  30.697  34.458  1.00  0.00    -0.203 F 
ATOM     92  F   UNL A   1      40.979  26.252  35.069  1.00  0.00    -0.200 F 
ATOM     93  C   UNL A   1      42.653  27.697  35.896  1.00  0.00     0.200 A 
ATOM     94  F   UNL A   1      44.358  29.133  36.658  1.00  0.00    -0.200 F 
ATOM     95  F   UNL A   1      42.918  26.836  36.890  1.00  0.00    -0.200 F 
ENDBRANCH  61  85
BRANCH  73  96
ATOM     96  C   UNL A   1      45.321  33.315  28.073  1.00  0.00     0.064 A 
ATOM     97  C   UNL A   1      46.270  34.238  28.540  1.00  0.00     0.173 A 
ATOM     98  C   UNL A   1      44.802  33.581  26.778  1.00  0.00     0.173 A 
ATOM     99  F   UNL A   1      46.894  34.062  29.712  1.00  0.00    -0.203 F 
ATOM    100  C   UNL A   1      46.656  35.345  27.780  1.00  0.00     0.198 A 
ATOM    101  C   UNL A   1      45.219  34.662  26.008  1.00  0.00     0.198 A 
ATOM    102  F   UNL A   1      43.910  32.777  26.183  1.00  0.00    -0.203 F 
ATOM    103  F   UNL A   1      47.564  36.197  28.273  1.00  0.00    -0.200 F 
ATOM    104  C   UNL A   1      46.145  35.547  26.511  1.00  0.00     0.200 A 
ATOM    105  F   UNL A   1      44.746  34.815  24.763  1.00  0.00    -0.200 F 
ATOM    106  F   UNL A   1      46.562  36.578  25.766  1.00  0.00    -0.200 F 
ENDBRANCH  73  96
ENDBRANCH  47  48
ENDBRANCH  40  42
ENDBRANCH  39  40
ENDBRANCH  38  39
ENDBRANCH  37  38
ENDBRANCH  36  37
ENDBRANCH  35  36
ENDBRANCH  34  35
ENDBRANCH   1  34
TORSDOF 23
ENDMDL
MODEL 3
REMARK VINA RESULT:      -8.5      7.311     12.335
REMARK SMILES Cc1ccc(Cn2nc(C)c3c(C(=O)OCCOCCOCCOCCOC(=O)c4ccc(-c5c6nc(c(-c7c(F)c(F)c(F)c(F)c7F)c7ccc([nH]7)c(-c7c(F)c(F)c(F)c(F)c7F)c7nc(c(-c8c(F)c(F)c(F)c(F)c8F)c8ccc5[nH]8)C=C7)C=C6)cc4)cc(-c4ccccc4)nc32)cc1
REMARK SMILES IDX 21 1 20 2 19 3 18 4 17 5 16 6 15 7 13 8 14 9 12 10 7 11 8 12
REMARK SMILES IDX 102 13 9 14 11 15 101 16 10 17 94 18 93 19 6 20 5 21 1 22
REMARK SMILES IDX 2 23 3 24 104 25 4 26 103 27 95 28 96 29 100 30 97 31 99 32
REMARK SMILES IDX 98 33 22 34 23 35 24 36 25 37 26 38 27 39 28 40 29 41 30 42
REMARK SMILES IDX 31 43 92 44 32 45 91 46 33 47 34 48 35 49 85 50 36 51 90 52
REMARK SMILES IDX 84 53 86 54 37 55 89 56 83 57 82 58 38 60 70 61 50 62 69 63
REMARK SMILES IDX 51 64 54 65 68 66 87 67 52 68 53 69 67 71 88 72 55 73 39 74
REMARK SMILES IDX 40 75 48 76 41 77 42 78 46 79 49 80 43 81 44 82 47 83 45 84
REMARK SMILES IDX 71 85 72 86 80 87 73 88 74 89 78 90 81 91 75 92 76 93 79 94
REMARK SMILES IDX 77 95 56 96 57 97 65 98 58 99 59 100 63 101 66 102 60 103
REMARK SMILES IDX 61 104 64 105 62 106
REMARK H PARENT 86 59 54 70
REMARK Flexibility Score: inf
ROOT
ATOM      1  O   UNL A   1      35.660  32.674  32.942  1.00  0.00    -0.377 OA
ENDROOT
BRANCH   1   2
ATOM      2  C   UNL A   1      35.372  33.515  34.063  1.00  0.00     0.188 C 
BRANCH   2   3
ATOM      3  C   UNL A   1      34.861  34.929  33.749  1.00  0.00     0.188 C 
BRANCH   3   4
ATOM      4  O   UNL A   1      34.797  35.335  32.386  1.00  0.00    -0.376 OA
BRANCH   4   5
ATOM      5  C   UNL A   1      33.829  34.670  31.567  1.00  0.00     0.202 C 
BRANCH   5   6
ATOM      6  C   UNL A   1      33.995  34.897  30.074  1.00  0.00     0.261 C 
BRANCH   6   7
ATOM      7  O   UNL A   1      33.848  33.622  29.431  1.00  0.00    -0.460 OA
BRANCH   7   8
ATOM      8  C   UNL A   1      34.179  33.540  28.137  1.00  0.00     0.339 C 
ATOM      9  O   UNL A   1      34.307  34.421  27.316  1.00  0.00    -0.246 OA
BRANCH   8  10
ATOM     10  C   UNL A   1      34.805  32.245  27.950  1.00  0.00     0.075 A 
ATOM     11  N   UNL A   1      33.449  29.161  27.045  1.00  0.00    -0.243 N 
ATOM     12  N   UNL A   1      32.284  29.837  26.942  1.00  0.00    -0.175 NA
ATOM     13  C   UNL A   1      34.512  29.955  27.413  1.00  0.00     0.159 A 
ATOM     14  C   UNL A   1      32.620  31.112  27.067  1.00  0.00     0.070 A 
ATOM     15  C   UNL A   1      33.961  31.225  27.517  1.00  0.00     0.056 A 
ATOM     16  N   UNL A   1      35.809  29.622  27.639  1.00  0.00    -0.228 NA
ATOM     17  C   UNL A   1      31.599  32.119  26.698  1.00  0.00     0.069 C 
ATOM     18  C   UNL A   1      36.593  30.672  28.049  1.00  0.00     0.074 A 
ATOM     19  C   UNL A   1      36.138  31.982  28.217  1.00  0.00     0.045 A 
BRANCH  11  20
ATOM     20  C   UNL A   1      33.394  27.729  26.801  1.00  0.00     0.182 C 
BRANCH  20  21
ATOM     21  C   UNL A   1      32.178  27.360  25.966  1.00  0.00    -0.026 A 
ATOM     22  C   UNL A   1      28.538  26.525  23.787  1.00  0.00     0.044 C 
ATOM     23  C   UNL A   1      29.822  26.792  24.512  1.00  0.00    -0.051 A 
ATOM     24  C   UNL A   1      30.157  26.027  25.628  1.00  0.00     0.004 A 
ATOM     25  C   UNL A   1      30.678  27.828  24.117  1.00  0.00     0.004 A 
ATOM     26  C   UNL A   1      31.336  26.286  26.323  1.00  0.00     0.006 A 
ATOM     27  C   UNL A   1      31.842  28.113  24.840  1.00  0.00     0.006 A 
ENDBRANCH  20  21
ENDBRANCH  11  20
BRANCH  18  28
ATOM     28  C   UNL A   1      38.012  30.381  28.348  1.00  0.00     0.000 A 
ATOM     29  C   UNL A   1      38.697  31.027  29.389  1.00  0.00     0.010 A 
ATOM     30  C   UNL A   1      38.694  29.361  27.651  1.00  0.00     0.010 A 
ATOM     31  C   UNL A   1      40.000  30.647  29.740  1.00  0.00     0.001 A 
ATOM     32  C   UNL A   1      39.995  28.985  27.997  1.00  0.00     0.001 A 
ATOM     33  C   UNL A   1      40.645  29.623  29.047  1.00  0.00     0.000 A 
ENDBRANCH  18  28
ENDBRANCH   8  10
ENDBRANCH   7   8
ENDBRANCH   6   7
ENDBRANCH   5   6
ENDBRANCH   4   5
ENDBRANCH   3   4
ENDBRANCH   2   3
ENDBRANCH   1   2
BRANCH   1  34
ATOM     34  C   UNL A   1      36.928  32.025  33.093  1.00  0.00     0.188 C 
BRANCH  34  35
ATOM     35  C   UNL A   1      37.981  32.976  33.660  1.00  0.00     0.188 C 
BRANCH  35  36
ATOM     36  O   UNL A   1      39.039  32.335  34.356  1.00  0.00    -0.376 OA
BRANCH  36  37
ATOM     37  C   UNL A   1      38.830  31.958  35.710  1.00  0.00     0.202 C 
BRANCH  37  38
ATOM     38  C   UNL A   1      39.585  32.828  36.724  1.00  0.00     0.261 C 
BRANCH  38  39
ATOM     39  O   UNL A   1      39.713  34.166  36.211  1.00  0.00    -0.460 OA
BRANCH  39  40
ATOM     40  C   UNL A   1      40.762  34.873  36.715  1.00  0.00     0.338 C 
ATOM     41  O   UNL A   1      40.731  35.557  37.726  1.00  0.00    -0.246 OA
BRANCH  40  42
ATOM     42  C   UNL A   1      41.842  34.955  35.688  1.00  0.00     0.060 A 
ATOM     43  C   UNL A   1      43.072  35.540  36.034  1.00  0.00     0.016 A 
ATOM     44  C   UNL A   1      41.522  34.775  34.346  1.00  0.00     0.016 A 
ATOM     45  C   UNL A   1      43.890  36.109  35.041  1.00  0.00     0.010 A 
ATOM     46  C   UNL A   1      42.306  35.389  33.382  1.00  0.00     0.010 A 
ATOM     47  C   UNL A   1      43.464  36.120  33.710  1.00  0.00    -0.014 A 
BRANCH  47  48
ATOM     48  C   UNL A   1      44.009  37.012  32.654  1.00  0.00     0.031 A 
ATOM     49  C   UNL A   1      43.777  38.507  32.727  1.00  0.00     0.074 A 
ATOM     50  C   UNL A   1      45.015  36.552  31.852  1.00  0.00     0.049 A 
ATOM     51  N   UNL A   1      44.320  39.374  31.935  1.00  0.00    -0.248 NA
ATOM     52  C   UNL A   1      42.938  39.180  33.724  1.00  0.00     0.031 C 
ATOM     53  C   UNL A   1      46.029  37.381  31.209  1.00  0.00     0.029 A 
ATOM     54  N   UNL A   1      45.444  35.247  31.504  1.00  0.00    -0.354 N 
ATOM     55  C   UNL A   1      44.307  40.603  32.554  1.00  0.00     0.074 A 
ATOM     56  C   UNL A   1      43.304  40.461  33.576  1.00  0.00     0.031 C 
ATOM     57  C   UNL A   1      46.914  36.655  30.525  1.00  0.00     0.029 A 
ATOM     58  C   UNL A   1      46.288  35.383  30.363  1.00  0.00     0.049 A 
ATOM     59  H   UNL A   1      45.208  34.408  31.963  1.00  0.00     0.167 HD
ATOM     60  C   UNL A   1      45.262  41.527  32.222  1.00  0.00     0.037 A 
ATOM     61  C   UNL A   1      45.934  34.967  29.110  1.00  0.00     0.037 A 
ATOM     62  C   UNL A   1      46.013  41.144  31.010  1.00  0.00     0.049 A 
ATOM     63  C   UNL A   1      45.822  36.125  28.127  1.00  0.00     0.074 A 
ATOM     64  C   UNL A   1      47.354  41.110  30.680  1.00  0.00     0.029 A 
ATOM     65  N   UNL A   1      45.349  40.580  29.909  1.00  0.00    -0.354 N 
ATOM     66  N   UNL A   1      45.466  37.335  28.494  1.00  0.00    -0.248 NA
ATOM     67  C   UNL A   1      46.278  36.091  26.739  1.00  0.00     0.031 C 
ATOM     68  C   UNL A   1      47.501  40.405  29.452  1.00  0.00     0.029 A 
ATOM     69  C   UNL A   1      46.240  40.084  28.979  1.00  0.00     0.049 A 
ATOM     70  H   UNL A   1      44.370  40.544  29.812  1.00  0.00     0.167 HD
ATOM     71  C   UNL A   1      45.781  38.227  27.507  1.00  0.00     0.074 A 
ATOM     72  C   UNL A   1      46.204  37.393  26.393  1.00  0.00     0.031 C 
ATOM     73  C   UNL A   1      45.813  39.585  27.680  1.00  0.00     0.037 A 
BRANCH  60  74
ATOM     74  C   UNL A   1      45.676  42.730  33.088  1.00  0.00     0.064 A 
ATOM     75  C   UNL A   1      46.807  42.666  33.942  1.00  0.00     0.173 A 
ATOM     76  C   UNL A   1      44.946  43.935  33.209  1.00  0.00     0.173 A 
ATOM     77  F   UNL A   1      47.616  41.599  33.950  1.00  0.00    -0.203 F 
ATOM     78  C   UNL A   1      47.162  43.698  34.827  1.00  0.00     0.198 A 
ATOM     79  C   UNL A   1      45.346  44.996  34.036  1.00  0.00     0.198 A 
ATOM     80  F   UNL A   1      43.780  44.122  32.583  1.00  0.00    -0.203 F 
ATOM     81  F   UNL A   1      48.204  43.539  35.656  1.00  0.00    -0.200 F 
ATOM     82  C   UNL A   1      46.445  44.874  34.855  1.00  0.00     0.200 A 
ATOM     83  F   UNL A   1      44.636  46.134  34.044  1.00  0.00    -0.200 F 
ATOM     84  F   UNL A   1      46.801  45.875  35.674  1.00  0.00    -0.200 F 
ENDBRANCH  60  74
BRANCH  61  85
ATOM     85  C   UNL A   1      45.301  33.630  29.150  1.00  0.00     0.064 A 
ATOM     86  C   UNL A   1      46.158  32.593  29.581  1.00  0.00     0.173 A 
ATOM     87  C   UNL A   1      43.938  33.515  29.455  1.00  0.00     0.173 A 
ATOM     88  F   UNL A   1      47.471  32.657  29.307  1.00  0.00    -0.203 F 
ATOM     89  C   UNL A   1      45.713  31.614  30.467  1.00  0.00     0.198 A 
ATOM     90  C   UNL A   1      43.496  32.520  30.333  1.00  0.00     0.198 A 
ATOM     91  F   UNL A   1      43.078  34.469  29.075  1.00  0.00    -0.203 F 
ATOM     92  F   UNL A   1      46.590  30.761  31.016  1.00  0.00    -0.200 F 
ATOM     93  C   UNL A   1      44.392  31.609  30.878  1.00  0.00     0.200 A 
ATOM     94  F   UNL A   1      42.222  32.521  30.757  1.00  0.00    -0.200 F 
ATOM     95  F   UNL A   1      43.997  30.770  31.847  1.00  0.00    -0.200 F 
ENDBRANCH  61  85
BRANCH  73  96
ATOM     96  C   UNL A   1      45.577  40.613  26.594  1.00  0.00     0.064 A 
ATOM     97  C   UNL A   1      46.524  40.891  25.597  1.00  0.00     0.173 A 
ATOM     98  C   UNL A   1      44.286  41.166  26.377  1.00  0.00     0.173 A 
ATOM     99  F   UNL A   1      47.755  40.365  25.640  1.00  0.00    -0.203 F 
ATOM    100  C   UNL A   1      46.212  41.672  24.482  1.00  0.00     0.198 A 
ATOM    101  C   UNL A   1      43.968  41.910  25.246  1.00  0.00     0.198 A 
ATOM    102  F   UNL A   1      43.267  40.966  27.224  1.00  0.00    -0.203 F 
ATOM    103  F   UNL A   1      47.153  41.909  23.560  1.00  0.00    -0.200 F 
ATOM    104  C   UNL A   1      44.933  42.166  24.298  1.00  0.00     0.200 A 
ATOM    105  F   UNL A   1      42.712  42.342  25.063  1.00  0.00    -0.200 F 
ATOM    106  F   UNL A   1      44.626  42.866  23.199  1.00  0.00    -0.200 F 
ENDBRANCH  73  96
ENDBRANCH  47  48
ENDBRANCH  40  42
ENDBRANCH  39  40
ENDBRANCH  38  39
ENDBRANCH  37  38
ENDBRANCH  36  37
ENDBRANCH  35  36
ENDBRANCH  34  35
ENDBRANCH   1  34
TORSDOF 23
ENDMDL
