MODEL 1
REMARK VINA RESULT:     -10.8      0.000      0.000
REMARK SMILES O=C(CSc1nc(-c2cccc(F)c2)n[nH]1)OCCOCCOCCOCCOC(=O)c1ccc(-c2c3nc(c(-c4c(F)c(F)c(F)c(F)c4F)c4ccc([nH]4)c(-c4c(F)c(F)c(F)c(F)c4F)c4nc(c(-c5c(F)c(F)c(F)c(F)c5F)c5ccc2[nH]5)C=C4)C=C3)cc1
REMARK SMILES IDX 22 1 21 2 20 3 19 4 18 5 17 6 2 7 1 8 3 9 4 10 5 11 6 12
REMARK SMILES IDX 16 13 7 14 15 15 8 17 9 18 14 19 10 20 12 21 11 22 13 23
REMARK SMILES IDX 23 24 24 25 25 26 26 27 27 28 28 29 29 30 30 31 31 32 32 33
REMARK SMILES IDX 33 34 94 35 34 36 93 37 35 38 36 39 37 40 87 41 38 42 92 43
REMARK SMILES IDX 86 44 88 45 39 46 91 47 85 48 84 49 40 51 72 52 52 53 71 54
REMARK SMILES IDX 53 55 56 56 70 57 89 58 54 59 55 60 69 62 90 63 57 64 41 65
REMARK SMILES IDX 42 66 50 67 43 68 44 69 48 70 51 71 45 72 46 73 49 74 47 75
REMARK SMILES IDX 73 76 74 77 82 78 75 79 76 80 80 81 83 82 77 83 78 84 81 85
REMARK SMILES IDX 79 86 58 87 59 88 67 89 60 90 61 91 65 92 68 93 62 94 63 95
REMARK SMILES IDX 66 96 64 97
REMARK H PARENT 16 16 88 50 56 61
REMARK Flexibility Score: inf
ROOT
ATOM      1  C   UNL A   1      38.181  21.927  25.783  1.00  0.00     0.188 C 
ENDROOT
BRANCH   1   2
ATOM      2  C   UNL A   1      37.330  21.082  24.822  1.00  0.00     0.188 C 
BRANCH   2   3
ATOM      3  O   UNL A   1      36.045  21.556  24.470  1.00  0.00    -0.376 OA
BRANCH   3   4
ATOM      4  C   UNL A   1      35.648  22.759  23.852  1.00  0.00     0.202 C 
BRANCH   4   5
ATOM      5  C   UNL A   1      35.184  23.956  24.659  1.00  0.00     0.261 C 
BRANCH   5   6
ATOM      6  O   UNL A   1      33.927  23.832  25.333  1.00  0.00    -0.463 OA
BRANCH   6   7
ATOM      7  C   UNL A   1      33.698  23.299  26.541  1.00  0.00     0.316 C 
ATOM      8  O   UNL A   1      34.657  22.903  27.208  1.00  0.00    -0.251 OA
BRANCH   7   9
ATOM      9  C   UNL A   1      32.308  23.177  27.121  1.00  0.00     0.200 C 
BRANCH   9  10
ATOM     10  S   UNL A   1      31.077  22.906  25.865  1.00  0.00    -0.075 SA
BRANCH  10  11
ATOM     11  C   UNL A   1      31.764  21.639  24.940  1.00  0.00     0.184 A 
ATOM     12  N   UNL A   1      31.999  20.459  25.435  1.00  0.00    -0.201 NA
ATOM     13  N   UNL A   1      32.157  21.680  23.634  1.00  0.00    -0.254 N 
ATOM     14  C   UNL A   1      32.571  19.804  24.384  1.00  0.00     0.182 A 
ATOM     15  N   UNL A   1      32.718  20.523  23.268  1.00  0.00    -0.153 NA
ATOM     16  H   UNL A   1      32.041  22.458  23.041  1.00  0.00     0.192 HD
BRANCH  14  17
ATOM     17  C   UNL A   1      32.913  18.422  24.505  1.00  0.00     0.024 A 
ATOM     18  C   UNL A   1      33.693  17.845  23.495  1.00  0.00     0.012 A 
ATOM     19  C   UNL A   1      32.429  17.665  25.568  1.00  0.00     0.051 A 
ATOM     20  C   UNL A   1      33.994  16.492  23.547  1.00  0.00     0.004 A 
ATOM     21  C   UNL A   1      32.722  16.314  25.595  1.00  0.00     0.123 A 
ATOM     22  C   UNL A   1      33.498  15.723  24.598  1.00  0.00     0.039 A 
ATOM     23  F   UNL A   1      32.237  15.559  26.589  1.00  0.00    -0.207 F 
ENDBRANCH  14  17
ENDBRANCH  10  11
ENDBRANCH   9  10
ENDBRANCH   7   9
ENDBRANCH   6   7
ENDBRANCH   5   6
ENDBRANCH   4   5
ENDBRANCH   3   4
ENDBRANCH   2   3
ENDBRANCH   1   2
BRANCH   1  24
ATOM     24  O   UNL A   1      39.592  21.787  25.766  1.00  0.00    -0.377 OA
BRANCH  24  25
ATOM     25  C   UNL A   1      40.109  20.639  26.410  1.00  0.00     0.188 C 
BRANCH  25  26
ATOM     26  C   UNL A   1      41.216  20.956  27.441  1.00  0.00     0.188 C 
BRANCH  26  27
ATOM     27  O   UNL A   1      42.572  20.757  27.099  1.00  0.00    -0.376 OA
BRANCH  27  28
ATOM     28  C   UNL A   1      43.088  20.974  25.798  1.00  0.00     0.202 C 
BRANCH  28  29
ATOM     29  C   UNL A   1      43.908  22.184  25.309  1.00  0.00     0.261 C 
BRANCH  29  30
ATOM     30  O   UNL A   1      43.226  23.391  24.980  1.00  0.00    -0.460 OA
BRANCH  30  31
ATOM     31  C   UNL A   1      43.919  24.533  25.147  1.00  0.00     0.338 C 
ATOM     32  O   UNL A   1      44.908  24.898  24.530  1.00  0.00    -0.246 OA
BRANCH  31  33
ATOM     33  C   UNL A   1      43.138  25.399  26.051  1.00  0.00     0.060 A 
ATOM     34  C   UNL A   1      43.575  26.717  26.250  1.00  0.00     0.016 A 
ATOM     35  C   UNL A   1      41.970  24.939  26.665  1.00  0.00     0.016 A 
ATOM     36  C   UNL A   1      42.865  27.571  27.085  1.00  0.00     0.010 A 
ATOM     37  C   UNL A   1      41.285  25.779  27.544  1.00  0.00     0.010 A 
ATOM     38  C   UNL A   1      41.756  27.084  27.784  1.00  0.00    -0.014 A 
BRANCH  38  39
ATOM     39  C   UNL A   1      41.271  27.851  28.952  1.00  0.00     0.031 A 
ATOM     40  C   UNL A   1      42.058  27.741  30.229  1.00  0.00     0.074 A 
ATOM     41  C   UNL A   1      40.220  28.682  28.861  1.00  0.00     0.049 A 
ATOM     42  N   UNL A   1      41.843  28.305  31.388  1.00  0.00    -0.248 NA
ATOM     43  C   UNL A   1      43.257  26.885  30.190  1.00  0.00     0.031 C 
ATOM     44  C   UNL A   1      39.432  28.924  27.655  1.00  0.00     0.029 A 
ATOM     45  N   UNL A   1      39.640  29.486  29.811  1.00  0.00    -0.354 N 
ATOM     46  C   UNL A   1      42.876  27.874  32.209  1.00  0.00     0.074 A 
ATOM     47  C   UNL A   1      43.700  26.976  31.434  1.00  0.00     0.031 C 
ATOM     48  C   UNL A   1      38.468  29.817  27.938  1.00  0.00     0.029 A 
ATOM     49  C   UNL A   1      38.551  30.184  29.351  1.00  0.00     0.049 A 
ATOM     50  H   UNL A   1      39.974  29.556  30.735  1.00  0.00     0.167 HD
ATOM     51  C   UNL A   1      43.122  28.213  33.494  1.00  0.00     0.037 A 
ATOM     52  C   UNL A   1      37.713  31.009  30.009  1.00  0.00     0.037 A 
ATOM     53  C   UNL A   1      42.301  29.110  34.261  1.00  0.00     0.049 A 
ATOM     54  C   UNL A   1      37.951  31.286  31.474  1.00  0.00     0.074 A 
ATOM     55  C   UNL A   1      42.459  29.507  35.575  1.00  0.00     0.029 A 
ATOM     56  N   UNL A   1      41.166  29.745  33.780  1.00  0.00    -0.354 N 
ATOM     57  N   UNL A   1      38.927  30.875  32.247  1.00  0.00    -0.248 NA
ATOM     58  C   UNL A   1      36.973  32.145  32.156  1.00  0.00     0.031 C 
ATOM     59  C   UNL A   1      41.390  30.340  35.908  1.00  0.00     0.029 A 
ATOM     60  C   UNL A   1      40.602  30.517  34.782  1.00  0.00     0.049 A 
ATOM     61  H   UNL A   1      40.815  29.661  32.864  1.00  0.00     0.167 HD
ATOM     62  C   UNL A   1      38.701  31.451  33.491  1.00  0.00     0.074 A 
ATOM     63  C   UNL A   1      37.502  32.252  33.367  1.00  0.00     0.031 C 
ATOM     64  C   UNL A   1      39.419  31.325  34.634  1.00  0.00     0.037 A 
BRANCH  51  65
ATOM     65  C   UNL A   1      44.322  27.614  34.165  1.00  0.00     0.064 A 
ATOM     66  C   UNL A   1      45.581  28.219  34.036  1.00  0.00     0.173 A 
ATOM     67  C   UNL A   1      44.244  26.397  34.856  1.00  0.00     0.173 A 
ATOM     68  F   UNL A   1      45.707  29.387  33.387  1.00  0.00    -0.203 F 
ATOM     69  C   UNL A   1      46.723  27.610  34.545  1.00  0.00     0.198 A 
ATOM     70  C   UNL A   1      45.385  25.804  35.389  1.00  0.00     0.198 A 
ATOM     71  F   UNL A   1      43.059  25.789  35.024  1.00  0.00    -0.203 F 
ATOM     72  F   UNL A   1      47.922  28.182  34.368  1.00  0.00    -0.200 F 
ATOM     73  C   UNL A   1      46.625  26.402  35.220  1.00  0.00     0.200 A 
ATOM     74  F   UNL A   1      45.285  24.649  36.062  1.00  0.00    -0.200 F 
ATOM     75  F   UNL A   1      47.727  25.814  35.706  1.00  0.00    -0.200 F 
ENDBRANCH  51  65
BRANCH  52  76
ATOM     76  C   UNL A   1      36.568  31.636  29.295  1.00  0.00     0.064 A 
ATOM     77  C   UNL A   1      35.464  30.879  28.876  1.00  0.00     0.173 A 
ATOM     78  C   UNL A   1      36.546  33.013  29.033  1.00  0.00     0.173 A 
ATOM     79  F   UNL A   1      35.428  29.558  29.106  1.00  0.00    -0.203 F 
ATOM     80  C   UNL A   1      34.392  31.471  28.211  1.00  0.00     0.198 A 
ATOM     81  C   UNL A   1      35.460  33.610  28.396  1.00  0.00     0.198 A 
ATOM     82  F   UNL A   1      37.566  33.787  29.435  1.00  0.00    -0.203 F 
ATOM     83  F   UNL A   1      33.364  30.718  27.797  1.00  0.00    -0.200 F 
ATOM     84  C   UNL A   1      34.387  32.838  27.979  1.00  0.00     0.200 A 
ATOM     85  F   UNL A   1      35.445  34.937  28.203  1.00  0.00    -0.200 F 
ATOM     86  F   UNL A   1      33.346  33.411  27.360  1.00  0.00    -0.200 F 
ENDBRANCH  52  76
BRANCH  64  87
ATOM     87  C   UNL A   1      38.964  32.100  35.839  1.00  0.00     0.064 A 
ATOM     88  C   UNL A   1      39.400  33.420  36.039  1.00  0.00     0.173 A 
ATOM     89  C   UNL A   1      38.172  31.514  36.836  1.00  0.00     0.173 A 
ATOM     90  F   UNL A   1      40.173  34.023  35.121  1.00  0.00    -0.203 F 
ATOM     91  C   UNL A   1      39.074  34.117  37.198  1.00  0.00     0.198 A 
ATOM     92  C   UNL A   1      37.816  32.227  37.979  1.00  0.00     0.198 A 
ATOM     93  F   UNL A   1      37.723  30.259  36.691  1.00  0.00    -0.203 F 
ATOM     94  F   UNL A   1      39.539  35.359  37.384  1.00  0.00    -0.200 F 
ATOM     95  C   UNL A   1      38.277  33.522  38.164  1.00  0.00     0.200 A 
ATOM     96  F   UNL A   1      37.025  31.661  38.899  1.00  0.00    -0.200 F 
ATOM     97  F   UNL A   1      37.951  34.199  39.273  1.00  0.00    -0.200 F 
ENDBRANCH  64  87
ENDBRANCH  38  39
ENDBRANCH  31  33
ENDBRANCH  30  31
ENDBRANCH  29  30
ENDBRANCH  28  29
ENDBRANCH  27  28
ENDBRANCH  26  27
ENDBRANCH  25  26
ENDBRANCH  24  25
ENDBRANCH   1  24
TORSDOF 23
ENDMDL
MODEL 2
REMARK VINA RESULT:     -10.8      1.222      2.379
REMARK SMILES O=C(CSc1nc(-c2cccc(F)c2)n[nH]1)OCCOCCOCCOCCOC(=O)c1ccc(-c2c3nc(c(-c4c(F)c(F)c(F)c(F)c4F)c4ccc([nH]4)c(-c4c(F)c(F)c(F)c(F)c4F)c4nc(c(-c5c(F)c(F)c(F)c(F)c5F)c5ccc2[nH]5)C=C4)C=C3)cc1
REMARK SMILES IDX 22 1 21 2 20 3 19 4 18 5 17 6 2 7 1 8 3 9 4 10 5 11 6 12
REMARK SMILES IDX 16 13 7 14 15 15 8 17 9 18 14 19 10 20 12 21 11 22 13 23
REMARK SMILES IDX 23 24 24 25 25 26 26 27 27 28 28 29 29 30 30 31 31 32 32 33
REMARK SMILES IDX 33 34 94 35 34 36 93 37 35 38 36 39 37 40 87 41 38 42 92 43
REMARK SMILES IDX 86 44 88 45 39 46 91 47 85 48 84 49 40 51 72 52 52 53 71 54
REMARK SMILES IDX 53 55 56 56 70 57 89 58 54 59 55 60 69 62 90 63 57 64 41 65
REMARK SMILES IDX 42 66 50 67 43 68 44 69 48 70 51 71 45 72 46 73 49 74 47 75
REMARK SMILES IDX 73 76 74 77 82 78 75 79 76 80 80 81 83 82 77 83 78 84 81 85
REMARK SMILES IDX 79 86 58 87 59 88 67 89 60 90 61 91 65 92 68 93 62 94 63 95
REMARK SMILES IDX 66 96 64 97
REMARK H PARENT 16 16 88 50 56 61
REMARK Flexibility Score: inf
ROOT
ATOM      1  C   UNL A   1      42.597  18.926  26.121  1.00  0.00     0.188 C 
ENDROOT
BRANCH   1   2
ATOM      2  C   UNL A   1      42.281  19.954  27.218  1.00  0.00     0.188 C 
BRANCH   2   3
ATOM      3  O   UNL A   1      40.941  20.375  27.378  1.00  0.00    -0.376 OA
BRANCH   3   4
ATOM      4  C   UNL A   1      40.391  21.671  27.463  1.00  0.00     0.202 C 
BRANCH   4   5
ATOM      5  C   UNL A   1      39.831  22.382  26.245  1.00  0.00     0.261 C 
BRANCH   5   6
ATOM      6  O   UNL A   1      38.493  22.048  25.861  1.00  0.00    -0.463 OA
BRANCH   6   7
ATOM      7  C   UNL A   1      37.528  22.884  25.453  1.00  0.00     0.316 C 
ATOM      8  O   UNL A   1      37.476  24.014  25.941  1.00  0.00    -0.251 OA
BRANCH   7   9
ATOM      9  C   UNL A   1      36.511  22.494  24.406  1.00  0.00     0.200 C 
BRANCH   9  10
ATOM     10  S   UNL A   1      34.847  22.878  24.908  1.00  0.00    -0.075 SA
BRANCH  10  11
ATOM     11  C   UNL A   1      34.013  21.421  24.570  1.00  0.00     0.184 A 
ATOM     12  N   UNL A   1      34.447  20.259  24.962  1.00  0.00    -0.201 NA
ATOM     13  N   UNL A   1      32.850  21.270  23.872  1.00  0.00    -0.254 N 
ATOM     14  C   UNL A   1      33.516  19.405  24.449  1.00  0.00     0.182 A 
ATOM     15  N   UNL A   1      32.534  19.977  23.746  1.00  0.00    -0.153 NA
ATOM     16  H   UNL A   1      32.316  22.014  23.511  1.00  0.00     0.192 HD
BRANCH  14  17
ATOM     17  C   UNL A   1      33.598  18.006  24.731  1.00  0.00     0.024 A 
ATOM     18  C   UNL A   1      32.408  17.316  24.997  1.00  0.00     0.012 A 
ATOM     19  C   UNL A   1      34.834  17.371  24.795  1.00  0.00     0.051 A 
ATOM     20  C   UNL A   1      32.454  15.971  25.334  1.00  0.00     0.004 A 
ATOM     21  C   UNL A   1      34.864  16.035  25.150  1.00  0.00     0.123 A 
ATOM     22  C   UNL A   1      33.689  15.332  25.419  1.00  0.00     0.039 A 
ATOM     23  F   UNL A   1      36.044  15.411  25.254  1.00  0.00    -0.207 F 
ENDBRANCH  14  17
ENDBRANCH  10  11
ENDBRANCH   9  10
ENDBRANCH   7   9
ENDBRANCH   6   7
ENDBRANCH   5   6
ENDBRANCH   4   5
ENDBRANCH   3   4
ENDBRANCH   2   3
ENDBRANCH   1   2
BRANCH   1  24
ATOM     24  O   UNL A   1      43.368  19.323  24.999  1.00  0.00    -0.377 OA
BRANCH  24  25
ATOM     25  C   UNL A   1      44.602  18.655  24.827  1.00  0.00     0.188 C 
BRANCH  25  26
ATOM     26  C   UNL A   1      45.732  19.571  24.304  1.00  0.00     0.188 C 
BRANCH  26  27
ATOM     27  O   UNL A   1      46.261  20.582  25.138  1.00  0.00    -0.376 OA
BRANCH  27  28
ATOM     28  C   UNL A   1      45.804  21.923  25.120  1.00  0.00     0.202 C 
BRANCH  28  29
ATOM     29  C   UNL A   1      44.779  22.573  26.070  1.00  0.00     0.261 C 
BRANCH  29  30
ATOM     30  O   UNL A   1      43.843  23.506  25.538  1.00  0.00    -0.460 OA
BRANCH  30  31
ATOM     31  C   UNL A   1      44.262  24.782  25.442  1.00  0.00     0.338 C 
ATOM     32  O   UNL A   1      45.047  25.247  24.630  1.00  0.00    -0.246 OA
BRANCH  31  33
ATOM     33  C   UNL A   1      43.422  25.594  26.345  1.00  0.00     0.060 A 
ATOM     34  C   UNL A   1      43.711  26.961  26.469  1.00  0.00     0.016 A 
ATOM     35  C   UNL A   1      42.342  25.032  27.030  1.00  0.00     0.016 A 
ATOM     36  C   UNL A   1      42.941  27.766  27.300  1.00  0.00     0.010 A 
ATOM     37  C   UNL A   1      41.600  25.828  27.904  1.00  0.00     0.010 A 
ATOM     38  C   UNL A   1      41.925  27.188  28.068  1.00  0.00    -0.014 A 
BRANCH  38  39
ATOM     39  C   UNL A   1      41.402  27.948  29.224  1.00  0.00     0.031 A 
ATOM     40  C   UNL A   1      42.155  27.840  30.522  1.00  0.00     0.074 A 
ATOM     41  C   UNL A   1      40.347  28.771  29.107  1.00  0.00     0.049 A 
ATOM     42  N   UNL A   1      41.904  28.399  31.677  1.00  0.00    -0.248 NA
ATOM     43  C   UNL A   1      43.361  26.994  30.514  1.00  0.00     0.031 C 
ATOM     44  C   UNL A   1      39.591  29.010  27.881  1.00  0.00     0.029 A 
ATOM     45  N   UNL A   1      39.735  29.568  30.043  1.00  0.00    -0.354 N 
ATOM     46  C   UNL A   1      42.917  27.974  32.525  1.00  0.00     0.074 A 
ATOM     47  C   UNL A   1      43.770  27.085  31.769  1.00  0.00     0.031 C 
ATOM     48  C   UNL A   1      38.613  29.894  28.139  1.00  0.00     0.029 A 
ATOM     49  C   UNL A   1      38.654  30.257  29.555  1.00  0.00     0.049 A 
ATOM     50  H   UNL A   1      40.044  29.637  30.976  1.00  0.00     0.167 HD
ATOM     51  C   UNL A   1      43.126  28.312  33.816  1.00  0.00     0.037 A 
ATOM     52  C   UNL A   1      37.791  31.074  30.192  1.00  0.00     0.037 A 
ATOM     53  C   UNL A   1      42.276  29.199  34.563  1.00  0.00     0.049 A 
ATOM     54  C   UNL A   1      37.987  31.349  31.663  1.00  0.00     0.074 A 
ATOM     55  C   UNL A   1      42.395  29.594  35.882  1.00  0.00     0.029 A 
ATOM     56  N   UNL A   1      41.150  29.827  34.053  1.00  0.00    -0.354 N 
ATOM     57  N   UNL A   1      38.945  30.944  32.462  1.00  0.00    -0.248 NA
ATOM     58  C   UNL A   1      36.984  32.199  32.321  1.00  0.00     0.031 C 
ATOM     59  C   UNL A   1      41.311  30.418  36.188  1.00  0.00     0.029 A 
ATOM     60  C   UNL A   1      40.553  30.592  35.041  1.00  0.00     0.049 A 
ATOM     61  H   UNL A   1      40.825  29.743  33.128  1.00  0.00     0.167 HD
ATOM     62  C   UNL A   1      38.680  31.514  33.701  1.00  0.00     0.074 A 
ATOM     63  C   UNL A   1      37.478  32.306  33.546  1.00  0.00     0.031 C 
ATOM     64  C   UNL A   1      39.368  31.391  34.863  1.00  0.00     0.037 A 
BRANCH  51  65
ATOM     65  C   UNL A   1      44.311  27.721  34.518  1.00  0.00     0.064 A 
ATOM     66  C   UNL A   1      44.233  26.440  35.087  1.00  0.00     0.173 A 
ATOM     67  C   UNL A   1      45.491  28.454  34.708  1.00  0.00     0.173 A 
ATOM     68  F   UNL A   1      43.126  25.698  34.930  1.00  0.00    -0.203 F 
ATOM     69  C   UNL A   1      45.279  25.930  35.849  1.00  0.00     0.198 A 
ATOM     70  C   UNL A   1      46.548  27.928  35.446  1.00  0.00     0.198 A 
ATOM     71  F   UNL A   1      45.623  29.675  34.166  1.00  0.00    -0.203 F 
ATOM     72  F   UNL A   1      45.163  24.725  36.422  1.00  0.00    -0.200 F 
ATOM     73  C   UNL A   1      46.435  26.675  36.029  1.00  0.00     0.200 A 
ATOM     74  F   UNL A   1      47.674  28.639  35.600  1.00  0.00    -0.200 F 
ATOM     75  F   UNL A   1      47.441  26.184  36.767  1.00  0.00    -0.200 F 
ENDBRANCH  51  65
BRANCH  52  76
ATOM     76  C   UNL A   1      36.661  31.695  29.449  1.00  0.00     0.064 A 
ATOM     77  C   UNL A   1      35.581  30.928  28.987  1.00  0.00     0.173 A 
ATOM     78  C   UNL A   1      36.630  33.074  29.200  1.00  0.00     0.173 A 
ATOM     79  F   UNL A   1      35.556  29.604  29.202  1.00  0.00    -0.203 F 
ATOM     80  C   UNL A   1      34.523  31.513  28.294  1.00  0.00     0.198 A 
ATOM     81  C   UNL A   1      35.556  33.664  28.535  1.00  0.00     0.198 A 
ATOM     82  F   UNL A   1      37.626  33.856  29.642  1.00  0.00    -0.203 F 
ATOM     83  F   UNL A   1      33.519  30.751  27.840  1.00  0.00    -0.200 F 
ATOM     84  C   UNL A   1      34.507  32.882  28.076  1.00  0.00     0.200 A 
ATOM     85  F   UNL A   1      35.530  34.991  28.355  1.00  0.00    -0.200 F 
ATOM     86  F   UNL A   1      33.479  33.449  27.430  1.00  0.00    -0.200 F 
ENDBRANCH  52  76
BRANCH  64  87
ATOM     87  C   UNL A   1      38.874  32.158  36.057  1.00  0.00     0.064 A 
ATOM     88  C   UNL A   1      39.263  33.494  36.251  1.00  0.00     0.173 A 
ATOM     89  C   UNL A   1      38.091  31.553  37.050  1.00  0.00     0.173 A 
ATOM     90  F   UNL A   1      40.024  34.116  35.337  1.00  0.00    -0.203 F 
ATOM     91  C   UNL A   1      38.900  34.188  37.401  1.00  0.00     0.198 A 
ATOM     92  C   UNL A   1      37.699  32.261  38.183  1.00  0.00     0.198 A 
ATOM     93  F   UNL A   1      37.686  30.282  36.910  1.00  0.00    -0.203 F 
ATOM     94  F   UNL A   1      39.321  35.447  37.583  1.00  0.00    -0.200 F 
ATOM     95  C   UNL A   1      38.114  33.573  38.364  1.00  0.00     0.200 A 
ATOM     96  F   UNL A   1      36.917  31.676  39.100  1.00  0.00    -0.200 F 
ATOM     97  F   UNL A   1      37.752  34.246  39.464  1.00  0.00    -0.200 F 
ENDBRANCH  64  87
ENDBRANCH  38  39
ENDBRANCH  31  33
ENDBRANCH  30  31
ENDBRANCH  29  30
ENDBRANCH  28  29
ENDBRANCH  27  28
ENDBRANCH  26  27
ENDBRANCH  25  26
ENDBRANCH  24  25
ENDBRANCH   1  24
TORSDOF 23
ENDMDL
MODEL 3
REMARK VINA RESULT:     -10.7      2.250      3.537
REMARK SMILES O=C(CSc1nc(-c2cccc(F)c2)n[nH]1)OCCOCCOCCOCCOC(=O)c1ccc(-c2c3nc(c(-c4c(F)c(F)c(F)c(F)c4F)c4ccc([nH]4)c(-c4c(F)c(F)c(F)c(F)c4F)c4nc(c(-c5c(F)c(F)c(F)c(F)c5F)c5ccc2[nH]5)C=C4)C=C3)cc1
REMARK SMILES IDX 22 1 21 2 20 3 19 4 18 5 17 6 2 7 1 8 3 9 4 10 5 11 6 12
REMARK SMILES IDX 16 13 7 14 15 15 8 17 9 18 14 19 10 20 12 21 11 22 13 23
REMARK SMILES IDX 23 24 24 25 25 26 26 27 27 28 28 29 29 30 30 31 31 32 32 33
REMARK SMILES IDX 33 34 94 35 34 36 93 37 35 38 36 39 37 40 87 41 38 42 92 43
REMARK SMILES IDX 86 44 88 45 39 46 91 47 85 48 84 49 40 51 72 52 52 53 71 54
REMARK SMILES IDX 53 55 56 56 70 57 89 58 54 59 55 60 69 62 90 63 57 64 41 65
REMARK SMILES IDX 42 66 50 67 43 68 44 69 48 70 51 71 45 72 46 73 49 74 47 75
REMARK SMILES IDX 73 76 74 77 82 78 75 79 76 80 80 81 83 82 77 83 78 84 81 85
REMARK SMILES IDX 79 86 58 87 59 88 67 89 60 90 61 91 65 92 68 93 62 94 63 95
REMARK SMILES IDX 66 96 64 97
REMARK H PARENT 16 16 88 50 56 61
REMARK Flexibility Score: inf
ROOT
ATOM      1  C   UNL A   1      40.770  20.088  26.181  1.00  0.00     0.188 C 
ENDROOT
BRANCH   1   2
ATOM      2  C   UNL A   1      40.848  21.614  26.339  1.00  0.00     0.188 C 
BRANCH   2   3
ATOM      3  O   UNL A   1      39.768  22.281  26.962  1.00  0.00    -0.376 OA
BRANCH   3   4
ATOM      4  C   UNL A   1      39.247  23.575  26.756  1.00  0.00     0.202 C 
BRANCH   4   5
ATOM      5  C   UNL A   1      37.907  23.799  26.083  1.00  0.00     0.261 C 
BRANCH   5   6
ATOM      6  O   UNL A   1      37.033  22.668  25.992  1.00  0.00    -0.463 OA
BRANCH   6   7
ATOM      7  C   UNL A   1      36.409  22.205  24.900  1.00  0.00     0.316 C 
ATOM      8  O   UNL A   1      36.943  22.359  23.800  1.00  0.00    -0.251 OA
BRANCH   7   9
ATOM      9  C   UNL A   1      35.080  21.489  24.972  1.00  0.00     0.200 C 
BRANCH   9  10
ATOM     10  S   UNL A   1      34.373  21.544  26.604  1.00  0.00    -0.075 SA
BRANCH  10  11
ATOM     11  C   UNL A   1      33.436  22.977  26.553  1.00  0.00     0.184 A 
ATOM     12  N   UNL A   1      33.830  24.049  25.931  1.00  0.00    -0.201 NA
ATOM     13  N   UNL A   1      32.220  23.197  27.132  1.00  0.00    -0.254 N 
ATOM     14  C   UNL A   1      32.818  24.927  26.182  1.00  0.00     0.182 A 
ATOM     15  N   UNL A   1      31.823  24.460  26.942  1.00  0.00    -0.153 NA
ATOM     16  H   UNL A   1      31.704  22.517  27.624  1.00  0.00     0.192 HD
BRANCH  14  17
ATOM     17  C   UNL A   1      32.840  26.230  25.594  1.00  0.00     0.024 A 
ATOM     18  C   UNL A   1      33.754  26.471  24.559  1.00  0.00     0.012 A 
ATOM     19  C   UNL A   1      32.016  27.239  26.082  1.00  0.00     0.051 A 
ATOM     20  C   UNL A   1      33.846  27.739  24.005  1.00  0.00     0.004 A 
ATOM     21  C   UNL A   1      32.133  28.502  25.532  1.00  0.00     0.123 A 
ATOM     22  C   UNL A   1      33.037  28.760  24.501  1.00  0.00     0.039 A 
ATOM     23  F   UNL A   1      31.377  29.498  26.010  1.00  0.00    -0.207 F 
ENDBRANCH  14  17
ENDBRANCH  10  11
ENDBRANCH   9  10
ENDBRANCH   7   9
ENDBRANCH   6   7
ENDBRANCH   5   6
ENDBRANCH   4   5
ENDBRANCH   3   4
ENDBRANCH   2   3
ENDBRANCH   1   2
BRANCH   1  24
ATOM     24  O   UNL A   1      41.729  19.424  25.375  1.00  0.00    -0.377 OA
BRANCH  24  25
ATOM     25  C   UNL A   1      42.967  19.135  25.994  1.00  0.00     0.188 C 
BRANCH  25  26
ATOM     26  C   UNL A   1      44.151  19.067  25.003  1.00  0.00     0.188 C 
BRANCH  26  27
ATOM     27  O   UNL A   1      45.005  20.183  24.851  1.00  0.00    -0.376 OA
BRANCH  27  28
ATOM     28  C   UNL A   1      44.631  21.503  25.203  1.00  0.00     0.202 C 
BRANCH  28  29
ATOM     29  C   UNL A   1      44.473  22.711  24.258  1.00  0.00     0.261 C 
BRANCH  29  30
ATOM     30  O   UNL A   1      43.741  23.847  24.710  1.00  0.00    -0.460 OA
BRANCH  30  31
ATOM     31  C   UNL A   1      44.469  24.879  25.176  1.00  0.00     0.338 C 
ATOM     32  O   UNL A   1      45.564  25.253  24.784  1.00  0.00    -0.246 OA
BRANCH  31  33
ATOM     33  C   UNL A   1      43.610  25.648  26.099  1.00  0.00     0.060 A 
ATOM     34  C   UNL A   1      43.785  27.038  26.164  1.00  0.00     0.016 A 
ATOM     35  C   UNL A   1      42.619  25.021  26.859  1.00  0.00     0.016 A 
ATOM     36  C   UNL A   1      42.992  27.804  27.011  1.00  0.00     0.010 A 
ATOM     37  C   UNL A   1      41.857  25.781  27.747  1.00  0.00     0.010 A 
ATOM     38  C   UNL A   1      42.071  27.169  27.851  1.00  0.00    -0.014 A 
BRANCH  38  39
ATOM     39  C   UNL A   1      41.545  27.922  29.010  1.00  0.00     0.031 A 
ATOM     40  C   UNL A   1      42.324  27.851  30.294  1.00  0.00     0.074 A 
ATOM     41  C   UNL A   1      40.462  28.709  28.905  1.00  0.00     0.049 A 
ATOM     42  N   UNL A   1      42.076  28.411  31.449  1.00  0.00    -0.248 NA
ATOM     43  C   UNL A   1      43.557  27.044  30.271  1.00  0.00     0.031 C 
ATOM     44  C   UNL A   1      39.676  28.912  27.691  1.00  0.00     0.029 A 
ATOM     45  N   UNL A   1      39.841  29.494  29.845  1.00  0.00    -0.354 N 
ATOM     46  C   UNL A   1      43.118  28.027  32.281  1.00  0.00     0.074 A 
ATOM     47  C   UNL A   1      43.985  27.160  31.518  1.00  0.00     0.031 C 
ATOM     48  C   UNL A   1      38.674  29.767  27.960  1.00  0.00     0.029 A 
ATOM     49  C   UNL A   1      38.729  30.144  29.372  1.00  0.00     0.049 A 
ATOM     50  H   UNL A   1      40.164  29.582  30.772  1.00  0.00     0.167 HD
ATOM     51  C   UNL A   1      43.338  28.383  33.566  1.00  0.00     0.037 A 
ATOM     52  C   UNL A   1      37.852  30.938  30.017  1.00  0.00     0.037 A 
ATOM     53  C   UNL A   1      42.474  29.249  34.321  1.00  0.00     0.049 A 
ATOM     54  C   UNL A   1      38.066  31.233  31.482  1.00  0.00     0.074 A 
ATOM     55  C   UNL A   1      42.604  29.660  35.634  1.00  0.00     0.029 A 
ATOM     56  N   UNL A   1      41.319  29.836  33.826  1.00  0.00    -0.354 N 
ATOM     57  N   UNL A   1      39.051  30.866  32.266  1.00  0.00    -0.248 NA
ATOM     58  C   UNL A   1      37.047  32.055  32.151  1.00  0.00     0.031 C 
ATOM     59  C   UNL A   1      41.499  30.451  35.953  1.00  0.00     0.029 A 
ATOM     60  C   UNL A   1      40.715  30.590  34.819  1.00  0.00     0.049 A 
ATOM     61  H   UNL A   1      40.980  29.733  32.908  1.00  0.00     0.167 HD
ATOM     62  C   UNL A   1      38.789  31.439  33.505  1.00  0.00     0.074 A 
ATOM     63  C   UNL A   1      37.560  32.190  33.365  1.00  0.00     0.031 C 
ATOM     64  C   UNL A   1      39.502  31.349  34.656  1.00  0.00     0.037 A 
BRANCH  51  65
ATOM     65  C   UNL A   1      44.555  27.837  34.251  1.00  0.00     0.064 A 
ATOM     66  C   UNL A   1      45.790  28.493  34.132  1.00  0.00     0.173 A 
ATOM     67  C   UNL A   1      44.521  26.620  34.947  1.00  0.00     0.173 A 
ATOM     68  F   UNL A   1      45.873  29.662  33.478  1.00  0.00    -0.203 F 
ATOM     69  C   UNL A   1      46.951  27.933  34.654  1.00  0.00     0.198 A 
ATOM     70  C   UNL A   1      45.680  26.077  35.494  1.00  0.00     0.198 A 
ATOM     71  F   UNL A   1      43.360  25.965  35.107  1.00  0.00    -0.203 F 
ATOM     72  F   UNL A   1      48.126  28.553  34.486  1.00  0.00    -0.200 F 
ATOM     73  C   UNL A   1      46.896  26.725  35.334  1.00  0.00     0.200 A 
ATOM     74  F   UNL A   1      45.621  24.922  36.172  1.00  0.00    -0.200 F 
ATOM     75  F   UNL A   1      48.016  26.185  35.833  1.00  0.00    -0.200 F 
ENDBRANCH  51  65
BRANCH  52  76
ATOM     76  C   UNL A   1      36.690  31.515  29.289  1.00  0.00     0.064 A 
ATOM     77  C   UNL A   1      35.607  30.716  28.891  1.00  0.00     0.173 A 
ATOM     78  C   UNL A   1      36.629  32.884  28.993  1.00  0.00     0.173 A 
ATOM     79  F   UNL A   1      35.609  29.401  29.154  1.00  0.00    -0.203 F 
ATOM     80  C   UNL A   1      34.518  31.261  28.213  1.00  0.00     0.198 A 
ATOM     81  C   UNL A   1      35.525  33.434  28.343  1.00  0.00     0.198 A 
ATOM     82  F   UNL A   1      37.626  33.696  29.374  1.00  0.00    -0.203 F 
ATOM     83  F   UNL A   1      33.512  30.469  27.819  1.00  0.00    -0.200 F 
ATOM     84  C   UNL A   1      34.474  32.621  27.946  1.00  0.00     0.200 A 
ATOM     85  F   UNL A   1      35.473  34.754  28.117  1.00  0.00    -0.200 F 
ATOM     86  F   UNL A   1      33.417  33.149  27.315  1.00  0.00    -0.200 F 
ENDBRANCH  52  76
BRANCH  64  87
ATOM     87  C   UNL A   1      39.005  32.110  35.852  1.00  0.00     0.064 A 
ATOM     88  C   UNL A   1      39.381  33.450  36.045  1.00  0.00     0.173 A 
ATOM     89  C   UNL A   1      38.233  31.497  36.848  1.00  0.00     0.173 A 
ATOM     90  F   UNL A   1      40.131  34.080  35.128  1.00  0.00    -0.203 F 
ATOM     91  C   UNL A   1      39.016  34.140  37.196  1.00  0.00     0.198 A 
ATOM     92  C   UNL A   1      37.838  32.201  37.983  1.00  0.00     0.198 A 
ATOM     93  F   UNL A   1      37.841  30.222  36.709  1.00  0.00    -0.203 F 
ATOM     94  F   UNL A   1      39.424  35.403  37.377  1.00  0.00    -0.200 F 
ATOM     95  C   UNL A   1      38.240  33.517  38.162  1.00  0.00     0.200 A 
ATOM     96  F   UNL A   1      37.067  31.606  38.903  1.00  0.00    -0.200 F 
ATOM     97  F   UNL A   1      37.876  34.186  39.264  1.00  0.00    -0.200 F 
ENDBRANCH  64  87
ENDBRANCH  38  39
ENDBRANCH  31  33
ENDBRANCH  30  31
ENDBRANCH  29  30
ENDBRANCH  28  29
ENDBRANCH  27  28
ENDBRANCH  26  27
ENDBRANCH  25  26
ENDBRANCH  24  25
ENDBRANCH   1  24
TORSDOF 23
ENDMDL
