MODEL 1
REMARK VINA RESULT:      -9.6      0.000      0.000
REMARK SMILES Cc1cc(C(=O)OCCOCCOCCOCCOC(=O)c2ccc(-c3c4nc(c(-c5c(F)c(F)c(F)c(F)c5F)c5ccc([nH]5)c(-c5c(F)c(F)c(F)c(F)c5F)c5nc(c(-c6c(F)c(F)c(F)c(F)c6F)c6ccc3[nH]6)C=C5)C=C4)cc2)c(NC(=O)c2nc(C(C)(C)C)n[nH]2)s1
REMARK SMILES IDX 12 1 11 2 10 3 9 4 8 5 7 6 5 7 6 8 4 9 1 10 2 11 3 12 98 13
REMARK SMILES IDX 85 14 86 15 87 16 88 18 89 19 90 20 97 21 91 22 96 23 92 25
REMARK SMILES IDX 93 26 94 27 95 28 13 29 14 30 15 31 16 32 17 33 18 34 19 35
REMARK SMILES IDX 20 36 21 37 22 38 23 39 84 40 24 41 83 42 25 43 26 44 27 45
REMARK SMILES IDX 77 46 28 47 82 48 76 49 78 50 29 51 81 52 75 53 74 54 30 56
REMARK SMILES IDX 62 57 42 58 61 59 43 60 46 61 60 62 79 63 44 64 45 65 59 67
REMARK SMILES IDX 80 68 47 69 31 70 32 71 40 72 33 73 34 74 38 75 41 76 35 77
REMARK SMILES IDX 36 78 39 79 37 80 63 81 64 82 72 83 65 84 66 85 70 86 73 87
REMARK SMILES IDX 67 88 68 89 71 90 69 91 48 92 49 93 57 94 50 95 51 96 55 97
REMARK SMILES IDX 58 98 52 99 53 100 56 101 54 102
REMARK H PARENT 86 17 97 24 78 55 46 66
REMARK Flexibility Score: inf
ROOT
ATOM      1  C   UNL A   1      38.854  20.980  26.139  1.00  0.00     0.188 C 
ENDROOT
BRANCH   1   2
ATOM      2  C   UNL A   1      37.920  21.346  24.974  1.00  0.00     0.188 C 
BRANCH   2   3
ATOM      3  O   UNL A   1      37.484  22.705  25.024  1.00  0.00    -0.376 OA
BRANCH   3   4
ATOM      4  C   UNL A   1      36.334  22.978  25.815  1.00  0.00     0.202 C 
BRANCH   4   5
ATOM      5  C   UNL A   1      35.794  24.418  25.754  1.00  0.00     0.261 C 
BRANCH   5   6
ATOM      6  O   UNL A   1      34.410  24.606  26.095  1.00  0.00    -0.460 OA
BRANCH   6   7
ATOM      7  C   UNL A   1      33.781  25.740  25.700  1.00  0.00     0.341 C 
ATOM      8  O   UNL A   1      34.029  26.867  26.113  1.00  0.00    -0.246 OA
BRANCH   7   9
ATOM      9  C   UNL A   1      32.893  25.483  24.573  1.00  0.00     0.095 A 
ATOM     10  C   UNL A   1      31.970  25.847  20.910  1.00  0.00     0.056 C 
ATOM     11  C   UNL A   1      32.089  25.606  22.375  1.00  0.00     0.004 A 
ATOM     12  C   UNL A   1      33.157  25.853  23.208  1.00  0.00     0.033 A 
ATOM     13  S   UNL A   1      30.769  24.974  23.242  1.00  0.00    -0.122 S 
ATOM     14  C   UNL A   1      31.620  24.947  24.713  1.00  0.00     0.110 A 
BRANCH  14  15
ATOM     15  N   UNL A   1      31.011  24.580  25.906  1.00  0.00    -0.310 N 
ATOM     16  C   UNL A   1      30.828  23.349  26.508  1.00  0.00     0.293 C 
ATOM     17  H   UNL A   1      30.641  25.336  26.416  1.00  0.00     0.171 HD
ATOM     18  O   UNL A   1      29.888  23.262  27.303  1.00  0.00    -0.265 OA
BRANCH  16  19
ATOM     19  C   UNL A   1      31.765  22.274  26.294  1.00  0.00     0.214 A 
ATOM     20  N   UNL A   1      31.624  21.276  25.443  1.00  0.00    -0.207 NA
ATOM     21  N   UNL A   1      32.915  22.084  27.000  1.00  0.00    -0.255 N 
ATOM     22  C   UNL A   1      32.769  20.535  25.620  1.00  0.00     0.156 A 
ATOM     23  N   UNL A   1      33.580  20.997  26.584  1.00  0.00    -0.158 NA
ATOM     24  H   UNL A   1      33.220  22.672  27.728  1.00  0.00     0.192 HD
BRANCH  22  25
ATOM     25  C   UNL A   1      33.057  19.286  24.825  1.00  0.00     0.024 C 
ATOM     26  C   UNL A   1      32.414  19.411  23.432  1.00  0.00     0.019 C 
ATOM     27  C   UNL A   1      34.577  19.089  24.659  1.00  0.00     0.019 C 
ATOM     28  C   UNL A   1      32.493  18.030  25.523  1.00  0.00     0.019 C 
ENDBRANCH  22  25
ENDBRANCH  16  19
ENDBRANCH  14  15
ENDBRANCH   7   9
ENDBRANCH   6   7
ENDBRANCH   5   6
ENDBRANCH   4   5
ENDBRANCH   3   4
ENDBRANCH   2   3
ENDBRANCH   1   2
BRANCH   1  29
ATOM     29  O   UNL A   1      40.223  21.138  25.785  1.00  0.00    -0.377 OA
BRANCH  29  30
ATOM     30  C   UNL A   1      40.952  22.086  26.561  1.00  0.00     0.188 C 
BRANCH  30  31
ATOM     31  C   UNL A   1      42.385  21.733  27.004  1.00  0.00     0.188 C 
BRANCH  31  32
ATOM     32  O   UNL A   1      43.086  20.949  26.034  1.00  0.00    -0.376 OA
BRANCH  32  33
ATOM     33  C   UNL A   1      43.808  21.671  25.041  1.00  0.00     0.202 C 
BRANCH  33  34
ATOM     34  C   UNL A   1      44.618  22.839  25.619  1.00  0.00     0.261 C 
BRANCH  34  35
ATOM     35  O   UNL A   1      44.211  24.133  25.146  1.00  0.00    -0.460 OA
BRANCH  35  36
ATOM     36  C   UNL A   1      45.072  25.152  25.345  1.00  0.00     0.338 C 
ATOM     37  O   UNL A   1      45.921  25.566  24.577  1.00  0.00    -0.246 OA
BRANCH  36  38
ATOM     38  C   UNL A   1      44.693  25.831  26.599  1.00  0.00     0.060 A 
ATOM     39  C   UNL A   1      43.782  25.197  27.452  1.00  0.00     0.016 A 
ATOM     40  C   UNL A   1      45.222  27.083  26.924  1.00  0.00     0.016 A 
ATOM     41  C   UNL A   1      43.354  25.840  28.613  1.00  0.00     0.010 A 
ATOM     42  C   UNL A   1      44.781  27.734  28.076  1.00  0.00     0.010 A 
ATOM     43  C   UNL A   1      43.818  27.130  28.903  1.00  0.00    -0.014 A 
BRANCH  43  44
ATOM     44  C   UNL A   1      43.142  27.938  29.943  1.00  0.00     0.031 A 
ATOM     45  C   UNL A   1      43.787  28.031  31.297  1.00  0.00     0.074 A 
ATOM     46  C   UNL A   1      41.980  28.565  29.697  1.00  0.00     0.049 A 
ATOM     47  N   UNL A   1      43.371  28.639  32.378  1.00  0.00    -0.248 NA
ATOM     48  C   UNL A   1      45.076  27.337  31.453  1.00  0.00     0.031 C 
ATOM     49  C   UNL A   1      41.273  28.566  28.420  1.00  0.00     0.029 A 
ATOM     50  N   UNL A   1      41.187  29.316  30.527  1.00  0.00    -0.354 N 
ATOM     51  C   UNL A   1      44.347  28.404  33.337  1.00  0.00     0.074 A 
ATOM     52  C   UNL A   1      45.360  27.574  32.724  1.00  0.00     0.031 C 
ATOM     53  C   UNL A   1      40.135  29.272  28.555  1.00  0.00     0.029 A 
ATOM     54  C   UNL A   1      40.029  29.751  29.933  1.00  0.00     0.049 A 
ATOM     55  H   UNL A   1      41.424  29.522  31.460  1.00  0.00     0.167 HD
ATOM     56  C   UNL A   1      44.397  28.848  34.615  1.00  0.00     0.037 A 
ATOM     57  C   UNL A   1      38.997  30.443  30.454  1.00  0.00     0.037 A 
ATOM     58  C   UNL A   1      43.384  29.661  35.229  1.00  0.00     0.049 A 
ATOM     59  C   UNL A   1      39.044  30.870  31.898  1.00  0.00     0.074 A 
ATOM     60  C   UNL A   1      43.349  30.175  36.513  1.00  0.00     0.029 A 
ATOM     61  N   UNL A   1      42.216  30.067  34.600  1.00  0.00    -0.354 N 
ATOM     62  N   UNL A   1      39.987  30.679  32.788  1.00  0.00    -0.248 NA
ATOM     63  C   UNL A   1      37.881  31.611  32.409  1.00  0.00     0.031 C 
ATOM     64  C   UNL A   1      42.139  30.859  36.675  1.00  0.00     0.029 A 
ATOM     65  C   UNL A   1      41.442  30.806  35.478  1.00  0.00     0.049 A 
ATOM     66  H   UNL A   1      41.974  29.861  33.669  1.00  0.00     0.167 HD
ATOM     67  C   UNL A   1      39.548  31.298  33.952  1.00  0.00     0.074 A 
ATOM     68  C   UNL A   1      38.254  31.877  33.654  1.00  0.00     0.031 C 
ATOM     69  C   UNL A   1      40.161  31.382  35.158  1.00  0.00     0.037 A 
BRANCH  56  70
ATOM     70  C   UNL A   1      45.583  28.439  35.433  1.00  0.00     0.064 A 
ATOM     71  C   UNL A   1      45.554  27.293  36.242  1.00  0.00     0.173 A 
ATOM     72  C   UNL A   1      46.763  29.196  35.403  1.00  0.00     0.173 A 
ATOM     73  F   UNL A   1      44.441  26.549  36.320  1.00  0.00    -0.203 F 
ATOM     74  C   UNL A   1      46.658  26.933  37.011  1.00  0.00     0.198 A 
ATOM     75  C   UNL A   1      47.873  28.820  36.155  1.00  0.00     0.198 A 
ATOM     76  F   UNL A   1      46.838  30.301  34.646  1.00  0.00    -0.203 F 
ATOM     77  F   UNL A   1      46.594  25.862  37.813  1.00  0.00    -0.200 F 
ATOM     78  C   UNL A   1      47.817  27.694  36.963  1.00  0.00     0.200 A 
ATOM     79  F   UNL A   1      48.994  29.552  36.103  1.00  0.00    -0.200 F 
ATOM     80  F   UNL A   1      48.879  27.347  37.703  1.00  0.00    -0.200 F 
ENDBRANCH  56  70
BRANCH  57  81
ATOM     81  C   UNL A   1      37.824  30.773  29.605  1.00  0.00     0.064 A 
ATOM     82  C   UNL A   1      36.865  29.800  29.290  1.00  0.00     0.173 A 
ATOM     83  C   UNL A   1      37.646  32.060  29.079  1.00  0.00     0.173 A 
ATOM     84  F   UNL A   1      37.006  28.548  29.749  1.00  0.00    -0.203 F 
ATOM     85  C   UNL A   1      35.779  30.100  28.470  1.00  0.00     0.198 A 
ATOM     86  C   UNL A   1      36.548  32.365  28.278  1.00  0.00     0.198 A 
ATOM     87  F   UNL A   1      38.539  33.024  29.347  1.00  0.00    -0.203 F 
ATOM     88  F   UNL A   1      34.897  29.142  28.153  1.00  0.00    -0.200 F 
ATOM     89  C   UNL A   1      35.618  31.383  27.970  1.00  0.00     0.200 A 
ATOM     90  F   UNL A   1      36.392  33.608  27.802  1.00  0.00    -0.200 F 
ATOM     91  F   UNL A   1      34.573  31.672  27.183  1.00  0.00    -0.200 F 
ENDBRANCH  57  81
BRANCH  69  92
ATOM     92  C   UNL A   1      39.460  32.153  36.236  1.00  0.00     0.064 A 
ATOM     93  C   UNL A   1      39.734  33.508  36.467  1.00  0.00     0.173 A 
ATOM     94  C   UNL A   1      38.462  31.542  37.010  1.00  0.00     0.173 A 
ATOM     95  F   UNL A   1      40.689  34.133  35.762  1.00  0.00    -0.203 F 
ATOM     96  C   UNL A   1      39.045  34.220  37.446  1.00  0.00     0.198 A 
ATOM     97  C   UNL A   1      37.758  32.262  37.971  1.00  0.00     0.198 A 
ATOM     98  F   UNL A   1      38.158  30.248  36.822  1.00  0.00    -0.203 F 
ATOM     99  F   UNL A   1      39.349  35.506  37.675  1.00  0.00    -0.200 F 
ATOM    100  C   UNL A   1      38.054  33.599  38.191  1.00  0.00     0.200 A 
ATOM    101  F   UNL A   1      36.792  31.664  38.682  1.00  0.00    -0.200 F 
ATOM    102  F   UNL A   1      37.387  34.289  39.127  1.00  0.00    -0.200 F 
ENDBRANCH  69  92
ENDBRANCH  43  44
ENDBRANCH  36  38
ENDBRANCH  35  36
ENDBRANCH  34  35
ENDBRANCH  33  34
ENDBRANCH  32  33
ENDBRANCH  31  32
ENDBRANCH  30  31
ENDBRANCH  29  30
ENDBRANCH   1  29
TORSDOF 23
ENDMDL
MODEL 2
REMARK VINA RESULT:      -9.4      6.433     12.319
REMARK SMILES Cc1cc(C(=O)OCCOCCOCCOCCOC(=O)c2ccc(-c3c4nc(c(-c5c(F)c(F)c(F)c(F)c5F)c5ccc([nH]5)c(-c5c(F)c(F)c(F)c(F)c5F)c5nc(c(-c6c(F)c(F)c(F)c(F)c6F)c6ccc3[nH]6)C=C5)C=C4)cc2)c(NC(=O)c2nc(C(C)(C)C)n[nH]2)s1
REMARK SMILES IDX 12 1 11 2 10 3 9 4 8 5 7 6 5 7 6 8 4 9 1 10 2 11 3 12 98 13
REMARK SMILES IDX 85 14 86 15 87 16 88 18 89 19 90 20 97 21 91 22 96 23 92 25
REMARK SMILES IDX 93 26 94 27 95 28 13 29 14 30 15 31 16 32 17 33 18 34 19 35
REMARK SMILES IDX 20 36 21 37 22 38 23 39 84 40 24 41 83 42 25 43 26 44 27 45
REMARK SMILES IDX 77 46 28 47 82 48 76 49 78 50 29 51 81 52 75 53 74 54 30 56
REMARK SMILES IDX 62 57 42 58 61 59 43 60 46 61 60 62 79 63 44 64 45 65 59 67
REMARK SMILES IDX 80 68 47 69 31 70 32 71 40 72 33 73 34 74 38 75 41 76 35 77
REMARK SMILES IDX 36 78 39 79 37 80 63 81 64 82 72 83 65 84 66 85 70 86 73 87
REMARK SMILES IDX 67 88 68 89 71 90 69 91 48 92 49 93 57 94 50 95 51 96 55 97
REMARK SMILES IDX 58 98 52 99 53 100 56 101 54 102
REMARK H PARENT 86 17 97 24 78 55 46 66
REMARK Flexibility Score: inf
ROOT
ATOM      1  C   UNL A   1      47.445  35.994  25.941  1.00  0.00     0.188 C 
ENDROOT
BRANCH   1   2
ATOM      2  C   UNL A   1      46.151  35.219  25.646  1.00  0.00     0.188 C 
BRANCH   2   3
ATOM      3  O   UNL A   1      46.389  33.842  25.350  1.00  0.00    -0.376 OA
BRANCH   3   4
ATOM      4  C   UNL A   1      45.923  32.895  26.303  1.00  0.00     0.202 C 
BRANCH   4   5
ATOM      5  C   UNL A   1      44.403  32.660  26.340  1.00  0.00     0.261 C 
BRANCH   5   6
ATOM      6  O   UNL A   1      43.956  31.294  26.297  1.00  0.00    -0.460 OA
BRANCH   6   7
ATOM      7  C   UNL A   1      43.932  30.571  27.444  1.00  0.00     0.341 C 
ATOM      8  O   UNL A   1      44.635  30.779  28.426  1.00  0.00    -0.246 OA
BRANCH   7   9
ATOM      9  C   UNL A   1      42.826  29.622  27.443  1.00  0.00     0.095 A 
ATOM     10  C   UNL A   1      39.693  28.158  29.007  1.00  0.00     0.056 C 
ATOM     11  C   UNL A   1      40.912  28.524  28.232  1.00  0.00     0.004 A 
ATOM     12  C   UNL A   1      41.743  29.610  28.390  1.00  0.00     0.033 A 
ATOM     13  S   UNL A   1      41.459  27.510  26.981  1.00  0.00    -0.122 S 
ATOM     14  C   UNL A   1      42.755  28.534  26.583  1.00  0.00     0.110 A 
BRANCH  14  15
ATOM     15  N   UNL A   1      43.692  28.189  25.618  1.00  0.00    -0.310 N 
ATOM     16  C   UNL A   1      45.022  27.821  25.714  1.00  0.00     0.293 C 
ATOM     17  H   UNL A   1      43.347  28.212  24.697  1.00  0.00     0.171 HD
ATOM     18  O   UNL A   1      45.716  28.010  24.711  1.00  0.00    -0.265 OA
BRANCH  16  19
ATOM     19  C   UNL A   1      45.520  27.147  26.887  1.00  0.00     0.214 A 
ATOM     20  N   UNL A   1      46.585  27.487  27.588  1.00  0.00    -0.207 NA
ATOM     21  N   UNL A   1      45.006  25.998  27.411  1.00  0.00    -0.255 N 
ATOM     22  C   UNL A   1      46.631  26.544  28.587  1.00  0.00     0.156 A 
ATOM     23  N   UNL A   1      45.681  25.602  28.498  1.00  0.00    -0.158 NA
ATOM     24  H   UNL A   1      44.233  25.519  27.035  1.00  0.00     0.192 HD
BRANCH  22  25
ATOM     25  C   UNL A   1      47.692  26.550  29.659  1.00  0.00     0.024 C 
ATOM     26  C   UNL A   1      48.844  25.618  29.241  1.00  0.00     0.019 C 
ATOM     27  C   UNL A   1      48.249  27.974  29.860  1.00  0.00     0.019 C 
ATOM     28  C   UNL A   1      47.129  26.070  31.013  1.00  0.00     0.019 C 
ENDBRANCH  22  25
ENDBRANCH  16  19
ENDBRANCH  14  15
ENDBRANCH   7   9
ENDBRANCH   6   7
ENDBRANCH   5   6
ENDBRANCH   4   5
ENDBRANCH   3   4
ENDBRANCH   2   3
ENDBRANCH   1   2
BRANCH   1  29
ATOM     29  O   UNL A   1      47.417  37.300  25.378  1.00  0.00    -0.377 OA
BRANCH  29  30
ATOM     30  C   UNL A   1      47.219  38.364  26.306  1.00  0.00     0.188 C 
BRANCH  30  31
ATOM     31  C   UNL A   1      45.835  39.038  26.376  1.00  0.00     0.188 C 
BRANCH  31  32
ATOM     32  O   UNL A   1      45.643  40.012  25.347  1.00  0.00    -0.376 OA
BRANCH  32  33
ATOM     33  C   UNL A   1      45.051  41.245  25.746  1.00  0.00     0.202 C 
BRANCH  33  34
ATOM     34  C   UNL A   1      43.526  41.260  25.575  1.00  0.00     0.261 C 
BRANCH  34  35
ATOM     35  O   UNL A   1      42.792  41.020  26.787  1.00  0.00    -0.460 OA
BRANCH  35  36
ATOM     36  C   UNL A   1      41.823  40.081  26.735  1.00  0.00     0.338 C 
ATOM     37  O   UNL A   1      40.759  40.147  26.150  1.00  0.00    -0.246 OA
BRANCH  36  38
ATOM     38  C   UNL A   1      42.347  38.853  27.361  1.00  0.00     0.060 A 
ATOM     39  C   UNL A   1      42.391  37.680  26.597  1.00  0.00     0.016 A 
ATOM     40  C   UNL A   1      42.779  38.854  28.690  1.00  0.00     0.016 A 
ATOM     41  C   UNL A   1      42.820  36.488  27.178  1.00  0.00     0.010 A 
ATOM     42  C   UNL A   1      43.192  37.658  29.276  1.00  0.00     0.010 A 
ATOM     43  C   UNL A   1      43.177  36.465  28.533  1.00  0.00    -0.014 A 
BRANCH  43  44
ATOM     44  C   UNL A   1      43.326  35.169  29.232  1.00  0.00     0.031 A 
ATOM     45  C   UNL A   1      42.078  34.443  29.650  1.00  0.00     0.074 A 
ATOM     46  C   UNL A   1      44.537  34.653  29.500  1.00  0.00     0.049 A 
ATOM     47  N   UNL A   1      41.948  33.320  30.308  1.00  0.00    -0.248 NA
ATOM     48  C   UNL A   1      40.802  35.076  29.278  1.00  0.00     0.031 C 
ATOM     49  C   UNL A   1      45.814  35.253  29.126  1.00  0.00     0.029 A 
ATOM     50  N   UNL A   1      44.881  33.504  30.166  1.00  0.00    -0.354 N 
ATOM     51  C   UNL A   1      40.581  33.112  30.424  1.00  0.00     0.074 A 
ATOM     52  C   UNL A   1      39.921  34.236  29.798  1.00  0.00     0.031 C 
ATOM     53  C   UNL A   1      46.810  34.472  29.584  1.00  0.00     0.029 A 
ATOM     54  C   UNL A   1      46.236  33.333  30.300  1.00  0.00     0.049 A 
ATOM     55  H   UNL A   1      44.220  32.863  30.515  1.00  0.00     0.167 HD
ATOM     56  C   UNL A   1      39.932  32.070  30.996  1.00  0.00     0.037 A 
ATOM     57  C   UNL A   1      46.927  32.373  30.944  1.00  0.00     0.037 A 
ATOM     58  C   UNL A   1      40.587  30.961  31.631  1.00  0.00     0.049 A 
ATOM     59  C   UNL A   1      46.182  31.258  31.631  1.00  0.00     0.074 A 
ATOM     60  C   UNL A   1      40.020  29.848  32.227  1.00  0.00     0.029 A 
ATOM     61  N   UNL A   1      41.962  30.831  31.763  1.00  0.00    -0.354 N 
ATOM     62  N   UNL A   1      44.890  31.045  31.703  1.00  0.00    -0.248 NA
ATOM     63  C   UNL A   1      46.994  30.248  32.326  1.00  0.00     0.031 C 
ATOM     64  C   UNL A   1      41.052  29.065  32.757  1.00  0.00     0.029 A 
ATOM     65  C   UNL A   1      42.262  29.669  32.453  1.00  0.00     0.049 A 
ATOM     66  H   UNL A   1      42.625  31.471  31.418  1.00  0.00     0.167 HD
ATOM     67  C   UNL A   1      44.735  29.867  32.424  1.00  0.00     0.074 A 
ATOM     68  C   UNL A   1      46.065  29.406  32.762  1.00  0.00     0.031 C 
ATOM     69  C   UNL A   1      43.594  29.223  32.771  1.00  0.00     0.037 A 
BRANCH  56  70
ATOM     70  C   UNL A   1      38.435  32.104  30.975  1.00  0.00     0.064 A 
ATOM     71  C   UNL A   1      37.698  32.606  32.058  1.00  0.00     0.173 A 
ATOM     72  C   UNL A   1      37.730  31.636  29.858  1.00  0.00     0.173 A 
ATOM     73  F   UNL A   1      38.328  33.045  33.158  1.00  0.00    -0.203 F 
ATOM     74  C   UNL A   1      36.306  32.616  32.032  1.00  0.00     0.198 A 
ATOM     75  C   UNL A   1      36.338  31.669  29.825  1.00  0.00     0.198 A 
ATOM     76  F   UNL A   1      38.390  31.145  28.798  1.00  0.00    -0.203 F 
ATOM     77  F   UNL A   1      35.621  33.057  33.096  1.00  0.00    -0.200 F 
ATOM     78  C   UNL A   1      35.628  32.152  30.914  1.00  0.00     0.200 A 
ATOM     79  F   UNL A   1      35.683  31.227  28.743  1.00  0.00    -0.200 F 
ATOM     80  F   UNL A   1      34.288  32.163  30.890  1.00  0.00    -0.200 F 
ENDBRANCH  56  70
BRANCH  57  81
ATOM     81  C   UNL A   1      48.411  32.423  30.975  1.00  0.00     0.064 A 
ATOM     82  C   UNL A   1      49.088  33.101  31.998  1.00  0.00     0.173 A 
ATOM     83  C   UNL A   1      49.180  31.811  29.976  1.00  0.00     0.173 A 
ATOM     84  F   UNL A   1      48.394  33.724  32.961  1.00  0.00    -0.203 F 
ATOM     85  C   UNL A   1      50.480  33.174  32.013  1.00  0.00     0.198 A 
ATOM     86  C   UNL A   1      50.572  31.865  30.005  1.00  0.00     0.198 A 
ATOM     87  F   UNL A   1      48.579  31.155  28.972  1.00  0.00    -0.203 F 
ATOM     88  F   UNL A   1      51.101  33.861  32.982  1.00  0.00    -0.200 F 
ATOM     89  C   UNL A   1      51.220  32.551  31.020  1.00  0.00     0.200 A 
ATOM     90  F   UNL A   1      51.284  31.256  29.047  1.00  0.00    -0.200 F 
ATOM     91  F   UNL A   1      52.558  32.620  31.037  1.00  0.00    -0.200 F 
ENDBRANCH  57  81
BRANCH  69  92
ATOM     92  C   UNL A   1      43.731  27.936  33.527  1.00  0.00     0.064 A 
ATOM     93  C   UNL A   1      43.673  27.896  34.927  1.00  0.00     0.173 A 
ATOM     94  C   UNL A   1      43.864  26.720  32.839  1.00  0.00     0.173 A 
ATOM     95  F   UNL A   1      43.559  29.034  35.630  1.00  0.00    -0.203 F 
ATOM     96  C   UNL A   1      43.761  26.688  35.613  1.00  0.00     0.198 A 
ATOM     97  C   UNL A   1      43.928  25.511  33.526  1.00  0.00     0.198 A 
ATOM     98  F   UNL A   1      43.917  26.705  31.498  1.00  0.00    -0.203 F 
ATOM     99  F   UNL A   1      43.740  26.676  36.953  1.00  0.00    -0.200 F 
ATOM    100  C   UNL A   1      43.881  25.496  34.912  1.00  0.00     0.200 A 
ATOM    101  F   UNL A   1      44.032  24.360  32.847  1.00  0.00    -0.200 F 
ATOM    102  F   UNL A   1      43.957  24.334  35.573  1.00  0.00    -0.200 F 
ENDBRANCH  69  92
ENDBRANCH  43  44
ENDBRANCH  36  38
ENDBRANCH  35  36
ENDBRANCH  34  35
ENDBRANCH  33  34
ENDBRANCH  32  33
ENDBRANCH  31  32
ENDBRANCH  30  31
ENDBRANCH  29  30
ENDBRANCH   1  29
TORSDOF 23
ENDMDL
MODEL 3
REMARK VINA RESULT:      -9.3      1.365      2.410
REMARK SMILES Cc1cc(C(=O)OCCOCCOCCOCCOC(=O)c2ccc(-c3c4nc(c(-c5c(F)c(F)c(F)c(F)c5F)c5ccc([nH]5)c(-c5c(F)c(F)c(F)c(F)c5F)c5nc(c(-c6c(F)c(F)c(F)c(F)c6F)c6ccc3[nH]6)C=C5)C=C4)cc2)c(NC(=O)c2nc(C(C)(C)C)n[nH]2)s1
REMARK SMILES IDX 12 1 11 2 10 3 9 4 8 5 7 6 5 7 6 8 4 9 1 10 2 11 3 12 98 13
REMARK SMILES IDX 85 14 86 15 87 16 88 18 89 19 90 20 97 21 91 22 96 23 92 25
REMARK SMILES IDX 93 26 94 27 95 28 13 29 14 30 15 31 16 32 17 33 18 34 19 35
REMARK SMILES IDX 20 36 21 37 22 38 23 39 84 40 24 41 83 42 25 43 26 44 27 45
REMARK SMILES IDX 77 46 28 47 82 48 76 49 78 50 29 51 81 52 75 53 74 54 30 56
REMARK SMILES IDX 62 57 42 58 61 59 43 60 46 61 60 62 79 63 44 64 45 65 59 67
REMARK SMILES IDX 80 68 47 69 31 70 32 71 40 72 33 73 34 74 38 75 41 76 35 77
REMARK SMILES IDX 36 78 39 79 37 80 63 81 64 82 72 83 65 84 66 85 70 86 73 87
REMARK SMILES IDX 67 88 68 89 71 90 69 91 48 92 49 93 57 94 50 95 51 96 55 97
REMARK SMILES IDX 58 98 52 99 53 100 56 101 54 102
REMARK H PARENT 86 17 97 24 78 55 46 66
REMARK Flexibility Score: inf
ROOT
ATOM      1  C   UNL A   1      39.811  23.882  27.472  1.00  0.00     0.188 C 
ENDROOT
BRANCH   1   2
ATOM      2  C   UNL A   1      38.493  24.492  26.968  1.00  0.00     0.188 C 
BRANCH   2   3
ATOM      3  O   UNL A   1      37.596  23.510  26.448  1.00  0.00    -0.376 OA
BRANCH   3   4
ATOM      4  C   UNL A   1      36.794  23.901  25.340  1.00  0.00     0.202 C 
BRANCH   4   5
ATOM      5  C   UNL A   1      35.282  24.017  25.603  1.00  0.00     0.261 C 
BRANCH   5   6
ATOM      6  O   UNL A   1      34.659  25.268  25.265  1.00  0.00    -0.460 OA
BRANCH   6   7
ATOM      7  C   UNL A   1      34.078  25.408  24.048  1.00  0.00     0.341 C 
ATOM      8  O   UNL A   1      34.663  25.349  22.973  1.00  0.00    -0.246 OA
BRANCH   7   9
ATOM      9  C   UNL A   1      32.625  25.448  24.162  1.00  0.00     0.095 A 
ATOM     10  C   UNL A   1      29.455  25.830  26.214  1.00  0.00     0.056 C 
ATOM     11  C   UNL A   1      30.538  25.601  25.216  1.00  0.00     0.004 A 
ATOM     12  C   UNL A   1      31.896  25.771  25.359  1.00  0.00     0.033 A 
ATOM     13  S   UNL A   1      30.154  25.016  23.665  1.00  0.00    -0.122 S 
ATOM     14  C   UNL A   1      31.769  25.055  23.141  1.00  0.00     0.110 A 
BRANCH  14  15
ATOM     15  N   UNL A   1      32.147  24.583  21.891  1.00  0.00    -0.310 N 
ATOM     16  C   UNL A   1      32.815  23.436  21.501  1.00  0.00     0.293 C 
ATOM     17  H   UNL A   1      31.892  25.173  21.146  1.00  0.00     0.171 HD
ATOM     18  O   UNL A   1      33.403  23.487  20.418  1.00  0.00    -0.265 OA
BRANCH  16  19
ATOM     19  C   UNL A   1      32.718  22.224  22.276  1.00  0.00     0.214 A 
ATOM     20  N   UNL A   1      33.411  21.937  23.362  1.00  0.00    -0.207 NA
ATOM     21  N   UNL A   1      31.945  21.149  21.958  1.00  0.00    -0.255 N 
ATOM     22  C   UNL A   1      32.959  20.687  23.713  1.00  0.00     0.156 A 
ATOM     23  N   UNL A   1      32.066  20.165  22.860  1.00  0.00    -0.158 NA
ATOM     24  H   UNL A   1      31.367  21.100  21.162  1.00  0.00     0.192 HD
BRANCH  22  25
ATOM     25  C   UNL A   1      33.466  19.955  24.931  1.00  0.00     0.024 C 
ATOM     26  C   UNL A   1      32.710  18.622  25.074  1.00  0.00     0.019 C 
ATOM     27  C   UNL A   1      34.974  19.662  24.797  1.00  0.00     0.019 C 
ATOM     28  C   UNL A   1      33.260  20.785  26.215  1.00  0.00     0.019 C 
ENDBRANCH  22  25
ENDBRANCH  16  19
ENDBRANCH  14  15
ENDBRANCH   7   9
ENDBRANCH   6   7
ENDBRANCH   5   6
ENDBRANCH   4   5
ENDBRANCH   3   4
ENDBRANCH   2   3
ENDBRANCH   1   2
BRANCH   1  29
ATOM     29  O   UNL A   1      40.638  23.454  26.397  1.00  0.00    -0.377 OA
BRANCH  29  30
ATOM     30  C   UNL A   1      40.710  22.043  26.202  1.00  0.00     0.188 C 
BRANCH  30  31
ATOM     31  C   UNL A   1      41.144  21.154  27.384  1.00  0.00     0.188 C 
BRANCH  31  32
ATOM     32  O   UNL A   1      42.494  20.699  27.265  1.00  0.00    -0.376 OA
BRANCH  32  33
ATOM     33  C   UNL A   1      42.963  20.449  25.944  1.00  0.00     0.202 C 
BRANCH  33  34
ATOM     34  C   UNL A   1      44.046  21.440  25.495  1.00  0.00     0.261 C 
BRANCH  34  35
ATOM     35  O   UNL A   1      44.281  22.517  26.416  1.00  0.00    -0.460 OA
BRANCH  35  36
ATOM     36  C   UNL A   1      44.177  23.770  25.926  1.00  0.00     0.338 C 
ATOM     37  O   UNL A   1      44.104  24.105  24.758  1.00  0.00    -0.246 OA
BRANCH  36  38
ATOM     38  C   UNL A   1      43.972  24.688  27.062  1.00  0.00     0.060 A 
ATOM     39  C   UNL A   1      43.397  24.182  28.234  1.00  0.00     0.016 A 
ATOM     40  C   UNL A   1      44.330  26.035  26.968  1.00  0.00     0.016 A 
ATOM     41  C   UNL A   1      43.131  25.037  29.303  1.00  0.00     0.010 A 
ATOM     42  C   UNL A   1      44.048  26.894  28.030  1.00  0.00     0.010 A 
ATOM     43  C   UNL A   1      43.413  26.404  29.184  1.00  0.00    -0.014 A 
BRANCH  43  44
ATOM     44  C   UNL A   1      42.852  27.359  30.168  1.00  0.00     0.031 A 
ATOM     45  C   UNL A   1      43.536  27.486  31.500  1.00  0.00     0.074 A 
ATOM     46  C   UNL A   1      41.758  28.087  29.891  1.00  0.00     0.049 A 
ATOM     47  N   UNL A   1      43.215  28.217  32.535  1.00  0.00    -0.248 NA
ATOM     48  C   UNL A   1      44.748  26.671  31.689  1.00  0.00     0.031 C 
ATOM     49  C   UNL A   1      41.024  28.065  28.630  1.00  0.00     0.029 A 
ATOM     50  N   UNL A   1      41.069  28.980  30.672  1.00  0.00    -0.354 N 
ATOM     51  C   UNL A   1      44.182  27.953  33.494  1.00  0.00     0.074 A 
ATOM     52  C   UNL A   1      45.086  26.973  32.933  1.00  0.00     0.031 C 
ATOM     53  C   UNL A   1      39.971  28.898  28.727  1.00  0.00     0.029 A 
ATOM     54  C   UNL A   1      39.950  29.491  30.063  1.00  0.00     0.049 A 
ATOM     55  H   UNL A   1      41.350  29.231  31.581  1.00  0.00     0.167 HD
ATOM     56  C   UNL A   1      44.311  28.486  34.731  1.00  0.00     0.037 A 
ATOM     57  C   UNL A   1      39.011  30.328  30.544  1.00  0.00     0.037 A 
ATOM     58  C   UNL A   1      43.405  29.448  35.295  1.00  0.00     0.049 A 
ATOM     59  C   UNL A   1      39.138  30.858  31.949  1.00  0.00     0.074 A 
ATOM     60  C   UNL A   1      43.457  30.061  36.535  1.00  0.00     0.029 A 
ATOM     61  N   UNL A   1      42.273  29.929  34.655  1.00  0.00    -0.354 N 
ATOM     62  N   UNL A   1      40.078  30.636  32.836  1.00  0.00    -0.248 NA
ATOM     63  C   UNL A   1      38.074  31.758  32.418  1.00  0.00     0.031 C 
ATOM     64  C   UNL A   1      42.331  30.882  36.661  1.00  0.00     0.029 A 
ATOM     65  C   UNL A   1      41.603  30.813  35.484  1.00  0.00     0.049 A 
ATOM     66  H   UNL A   1      41.987  29.678  33.747  1.00  0.00     0.167 HD
ATOM     67  C   UNL A   1      39.735  31.387  33.954  1.00  0.00     0.074 A 
ATOM     68  C   UNL A   1      38.504  32.077  33.632  1.00  0.00     0.031 C 
ATOM     69  C   UNL A   1      40.383  31.497  35.139  1.00  0.00     0.037 A 
BRANCH  56  70
ATOM     70  C   UNL A   1      45.466  28.016  35.561  1.00  0.00     0.064 A 
ATOM     71  C   UNL A   1      46.699  28.687  35.548  1.00  0.00     0.173 A 
ATOM     72  C   UNL A   1      45.338  26.889  36.384  1.00  0.00     0.173 A 
ATOM     73  F   UNL A   1      46.876  29.758  34.761  1.00  0.00    -0.203 F 
ATOM     74  C   UNL A   1      47.770  28.229  36.311  1.00  0.00     0.198 A 
ATOM     75  C   UNL A   1      46.403  26.447  37.164  1.00  0.00     0.198 A 
ATOM     76  F   UNL A   1      44.180  26.212  36.429  1.00  0.00    -0.203 F 
ATOM     77  F   UNL A   1      48.952  28.857  36.248  1.00  0.00    -0.200 F 
ATOM     78  C   UNL A   1      47.620  27.114  37.122  1.00  0.00     0.200 A 
ATOM     79  F   UNL A   1      46.257  25.373  37.951  1.00  0.00    -0.200 F 
ATOM     80  F   UNL A   1      48.651  26.674  37.856  1.00  0.00    -0.200 F 
ENDBRANCH  56  70
BRANCH  57  81
ATOM     81  C   UNL A   1      37.859  30.716  29.691  1.00  0.00     0.064 A 
ATOM     82  C   UNL A   1      36.823  29.811  29.422  1.00  0.00     0.173 A 
ATOM     83  C   UNL A   1      37.779  31.991  29.114  1.00  0.00     0.173 A 
ATOM     84  F   UNL A   1      36.870  28.571  29.931  1.00  0.00    -0.203 F 
ATOM     85  C   UNL A   1      35.756  30.164  28.598  1.00  0.00     0.198 A 
ATOM     86  C   UNL A   1      36.700  32.351  28.309  1.00  0.00     0.198 A 
ATOM     87  F   UNL A   1      38.748  32.891  29.337  1.00  0.00    -0.203 F 
ATOM     88  F   UNL A   1      34.798  29.267  28.326  1.00  0.00    -0.200 F 
ATOM     89  C   UNL A   1      35.692  31.435  28.047  1.00  0.00     0.200 A 
ATOM     90  F   UNL A   1      36.639  33.582  27.784  1.00  0.00    -0.200 F 
ATOM     91  F   UNL A   1      34.665  31.774  27.257  1.00  0.00    -0.200 F 
ENDBRANCH  57  81
BRANCH  69  92
ATOM     92  C   UNL A   1      39.795  32.420  36.164  1.00  0.00     0.064 A 
ATOM     93  C   UNL A   1      38.724  32.027  36.979  1.00  0.00     0.173 A 
ATOM     94  C   UNL A   1      40.347  33.693  36.372  1.00  0.00     0.173 A 
ATOM     95  F   UNL A   1      38.153  30.824  36.810  1.00  0.00    -0.203 F 
ATOM     96  C   UNL A   1      38.215  32.882  37.953  1.00  0.00     0.198 A 
ATOM     97  C   UNL A   1      39.853  34.537  37.363  1.00  0.00     0.198 A 
ATOM     98  F   UNL A   1      41.378  34.113  35.622  1.00  0.00    -0.203 F 
ATOM     99  F   UNL A   1      37.167  32.500  38.697  1.00  0.00    -0.200 F 
ATOM    100  C   UNL A   1      38.785  34.132  38.149  1.00  0.00     0.200 A 
ATOM    101  F   UNL A   1      40.411  35.739  37.559  1.00  0.00    -0.200 F 
ATOM    102  F   UNL A   1      38.299  34.949  39.094  1.00  0.00    -0.200 F 
ENDBRANCH  69  92
ENDBRANCH  43  44
ENDBRANCH  36  38
ENDBRANCH  35  36
ENDBRANCH  34  35
ENDBRANCH  33  34
ENDBRANCH  32  33
ENDBRANCH  31  32
ENDBRANCH  30  31
ENDBRANCH  29  30
ENDBRANCH   1  29
TORSDOF 23
ENDMDL
