MODEL 1
REMARK VINA RESULT:      -9.9      0.000      0.000
REMARK SMILES C[C@](NC(=O)c1ccc(Br)o1)(C(=O)OCCOCCOCCOCCOC(=O)c1ccc(-c2c3nc(c(-c4c(F)c(F)c(F)c(F)c4F)c4ccc([nH]4)c(-c4c(F)c(F)c(F)c(F)c4F)c4nc(c(-c5c(F)c(F)c(F)c(F)c5F)c5ccc2[nH]5)C=C4)C=C3)cc1)C(F)(F)F
REMARK SMILES IDX 20 1 19 2 18 3 17 4 16 5 15 6 14 7 12 8 13 9 2 10 1 11 92 12
REMARK SMILES IDX 93 13 94 14 95 15 3 16 4 17 5 19 6 20 7 21 11 22 8 23 9 24
REMARK SMILES IDX 10 25 21 26 22 27 23 28 24 29 25 30 26 31 27 32 28 33 29 34
REMARK SMILES IDX 30 35 91 36 31 37 90 38 32 39 33 40 34 41 84 42 35 43 89 44
REMARK SMILES IDX 83 45 85 46 36 47 88 48 82 49 81 50 37 52 69 53 49 54 68 55
REMARK SMILES IDX 50 56 53 57 67 58 86 59 51 60 52 61 66 63 87 64 54 65 38 66
REMARK SMILES IDX 39 67 47 68 40 69 41 70 45 71 48 72 42 73 43 74 46 75 44 76
REMARK SMILES IDX 70 77 71 78 79 79 72 80 73 81 77 82 80 83 74 84 75 85 78 86
REMARK SMILES IDX 76 87 55 88 56 89 64 90 57 91 58 92 62 93 65 94 59 95 60 96
REMARK SMILES IDX 63 97 61 98
REMARK H PARENT 3 18 85 51 53 62
REMARK Flexibility Score: inf
ROOT
ATOM      1  O   UNL A   1      29.824  29.240  23.548  1.00  0.00    -0.377 OA
ENDROOT
BRANCH   1   2
ATOM      2  C   UNL A   1      29.239  28.227  22.751  1.00  0.00     0.188 C 
BRANCH   2   3
ATOM      3  C   UNL A   1      28.428  27.178  23.535  1.00  0.00     0.188 C 
BRANCH   3   4
ATOM      4  O   UNL A   1      28.955  25.886  23.818  1.00  0.00    -0.376 OA
BRANCH   4   5
ATOM      5  C   UNL A   1      30.317  25.697  24.174  1.00  0.00     0.202 C 
BRANCH   5   6
ATOM      6  C   UNL A   1      30.777  25.998  25.601  1.00  0.00     0.261 C 
BRANCH   6   7
ATOM      7  O   UNL A   1      32.044  25.425  25.950  1.00  0.00    -0.461 OA
BRANCH   7   8
ATOM      8  C   UNL A   1      32.006  24.196  26.538  1.00  0.00     0.341 C 
ATOM      9  O   UNL A   1      31.370  23.944  27.554  1.00  0.00    -0.249 OA
BRANCH   8  10
ATOM     10  C   UNL A   1      32.937  23.203  25.839  1.00  0.00     0.231 C 
ATOM     11  C   UNL A   1      33.712  22.515  26.968  1.00  0.00     0.058 C 
BRANCH  10  12
ATOM     12  C   UNL A   1      32.002  22.193  25.148  1.00  0.00     0.422 C 
ATOM     13  F   UNL A   1      32.485  20.929  25.213  1.00  0.00    -0.168 F 
ATOM     14  F   UNL A   1      30.790  22.174  25.761  1.00  0.00    -0.168 F 
ATOM     15  F   UNL A   1      31.768  22.473  23.850  1.00  0.00    -0.168 F 
ENDBRANCH  10  12
BRANCH  10  16
ATOM     16  N   UNL A   1      33.822  23.916  24.854  1.00  0.00    -0.326 N 
ATOM     17  C   UNL A   1      34.707  23.363  23.960  1.00  0.00     0.288 C 
ATOM     18  H   UNL A   1      33.760  24.898  24.849  1.00  0.00     0.165 HD
ATOM     19  O   UNL A   1      34.732  23.785  22.807  1.00  0.00    -0.266 OA
BRANCH  17  20
ATOM     20  C   UNL A   1      35.641  22.405  24.482  1.00  0.00     0.192 A 
ATOM     21  C   UNL A   1      35.617  21.032  24.620  1.00  0.00     0.057 A 
ATOM     22  O   UNL A   1      36.824  22.897  24.960  1.00  0.00    -0.444 OA
ATOM     23  C   UNL A   1      36.841  20.674  25.246  1.00  0.00     0.059 A 
ATOM     24  C   UNL A   1      37.552  21.841  25.400  1.00  0.00     0.170 A 
ATOM     25  Br  UNL A   1      39.264  21.984  26.125  1.00  0.00    -0.008 Br
ENDBRANCH  17  20
ENDBRANCH  10  16
ENDBRANCH   8  10
ENDBRANCH   7   8
ENDBRANCH   6   7
ENDBRANCH   5   6
ENDBRANCH   4   5
ENDBRANCH   3   4
ENDBRANCH   2   3
ENDBRANCH   1   2
BRANCH   1  26
ATOM     26  C   UNL A   1      31.250  29.203  23.615  1.00  0.00     0.188 C 
BRANCH  26  27
ATOM     27  C   UNL A   1      31.890  29.514  24.983  1.00  0.00     0.188 C 
BRANCH  27  28
ATOM     28  O   UNL A   1      31.372  30.704  25.580  1.00  0.00    -0.376 OA
BRANCH  28  29
ATOM     29  C   UNL A   1      31.880  31.046  26.868  1.00  0.00     0.202 C 
BRANCH  29  30
ATOM     30  C   UNL A   1      32.006  32.555  27.131  1.00  0.00     0.261 C 
BRANCH  30  31
ATOM     31  O   UNL A   1      33.289  32.983  27.624  1.00  0.00    -0.460 OA
BRANCH  31  32
ATOM     32  C   UNL A   1      33.318  34.078  28.410  1.00  0.00     0.338 C 
ATOM     33  O   UNL A   1      32.528  35.001  28.420  1.00  0.00    -0.246 OA
BRANCH  32  34
ATOM     34  C   UNL A   1      34.376  33.891  29.423  1.00  0.00     0.060 A 
ATOM     35  C   UNL A   1      35.693  34.205  29.067  1.00  0.00     0.016 A 
ATOM     36  C   UNL A   1      34.086  33.362  30.683  1.00  0.00     0.016 A 
ATOM     37  C   UNL A   1      36.737  33.913  29.942  1.00  0.00     0.010 A 
ATOM     38  C   UNL A   1      35.134  33.052  31.554  1.00  0.00     0.010 A 
ATOM     39  C   UNL A   1      36.465  33.273  31.159  1.00  0.00    -0.014 A 
BRANCH  39  40
ATOM     40  C   UNL A   1      37.570  32.582  31.862  1.00  0.00     0.031 A 
ATOM     41  C   UNL A   1      38.239  31.433  31.154  1.00  0.00     0.074 A 
ATOM     42  C   UNL A   1      38.004  32.982  33.068  1.00  0.00     0.049 A 
ATOM     43  N   UNL A   1      39.245  30.689  31.534  1.00  0.00    -0.248 NA
ATOM     44  C   UNL A   1      37.694  31.080  29.832  1.00  0.00     0.031 C 
ATOM     45  C   UNL A   1      37.463  34.099  33.836  1.00  0.00     0.029 A 
ATOM     46  N   UNL A   1      39.011  32.483  33.856  1.00  0.00    -0.354 N 
ATOM     47  C   UNL A   1      39.451  29.783  30.501  1.00  0.00     0.074 A 
ATOM     48  C   UNL A   1      38.449  30.047  29.494  1.00  0.00     0.031 C 
ATOM     49  C   UNL A   1      38.146  34.202  34.991  1.00  0.00     0.029 A 
ATOM     50  C   UNL A   1      39.157  33.147  35.047  1.00  0.00     0.049 A 
ATOM     51  H   UNL A   1      39.575  31.721  33.591  1.00  0.00     0.167 HD
ATOM     52  C   UNL A   1      40.399  28.823  30.395  1.00  0.00     0.037 A 
ATOM     53  C   UNL A   1      40.010  32.919  36.064  1.00  0.00     0.037 A 
ATOM     54  C   UNL A   1      41.390  28.553  31.399  1.00  0.00     0.049 A 
ATOM     55  C   UNL A   1      41.016  31.801  35.951  1.00  0.00     0.074 A 
ATOM     56  C   UNL A   1      42.400  27.609  31.386  1.00  0.00     0.029 A 
ATOM     57  N   UNL A   1      41.484  29.226  32.608  1.00  0.00    -0.354 N 
ATOM     58  N   UNL A   1      41.232  30.974  34.957  1.00  0.00    -0.248 NA
ATOM     59  C   UNL A   1      41.903  31.591  37.105  1.00  0.00     0.031 C 
ATOM     60  C   UNL A   1      43.079  27.681  32.607  1.00  0.00     0.029 A 
ATOM     61  C   UNL A   1      42.523  28.704  33.360  1.00  0.00     0.049 A 
ATOM     62  H   UNL A   1      40.899  29.966  32.890  1.00  0.00     0.167 HD
ATOM     63  C   UNL A   1      42.300  30.176  35.345  1.00  0.00     0.074 A 
ATOM     64  C   UNL A   1      42.689  30.617  36.669  1.00  0.00     0.031 C 
ATOM     65  C   UNL A   1      42.907  29.170  34.667  1.00  0.00     0.037 A 
BRANCH  52  66
ATOM     66  C   UNL A   1      40.374  27.976  29.157  1.00  0.00     0.064 A 
ATOM     67  C   UNL A   1      39.619  26.795  29.087  1.00  0.00     0.173 A 
ATOM     68  C   UNL A   1      41.126  28.344  28.032  1.00  0.00     0.173 A 
ATOM     69  F   UNL A   1      38.901  26.389  30.145  1.00  0.00    -0.203 F 
ATOM     70  C   UNL A   1      39.644  25.997  27.947  1.00  0.00     0.198 A 
ATOM     71  C   UNL A   1      41.126  27.557  26.883  1.00  0.00     0.198 A 
ATOM     72  F   UNL A   1      41.867  29.462  28.049  1.00  0.00    -0.203 F 
ATOM     73  F   UNL A   1      38.961  24.844  27.923  1.00  0.00    -0.200 F 
ATOM     74  C   UNL A   1      40.394  26.381  26.845  1.00  0.00     0.200 A 
ATOM     75  F   UNL A   1      41.846  27.932  25.818  1.00  0.00    -0.200 F 
ATOM     76  F   UNL A   1      40.420  25.609  25.749  1.00  0.00    -0.200 F 
ENDBRANCH  52  66
BRANCH  53  77
ATOM     77  C   UNL A   1      39.969  33.780  37.274  1.00  0.00     0.064 A 
ATOM     78  C   UNL A   1      39.105  33.486  38.338  1.00  0.00     0.173 A 
ATOM     79  C   UNL A   1      40.778  34.920  37.384  1.00  0.00     0.173 A 
ATOM     80  F   UNL A   1      38.293  32.421  38.266  1.00  0.00    -0.203 F 
ATOM     81  C   UNL A   1      39.043  34.308  39.461  1.00  0.00     0.198 A 
ATOM     82  C   UNL A   1      40.732  35.728  38.518  1.00  0.00     0.198 A 
ATOM     83  F   UNL A   1      41.617  35.247  36.390  1.00  0.00    -0.203 F 
ATOM     84  F   UNL A   1      38.180  34.027  40.447  1.00  0.00    -0.200 F 
ATOM     85  C   UNL A   1      39.859  35.425  39.553  1.00  0.00     0.200 A 
ATOM     86  F   UNL A   1      41.527  36.802  38.606  1.00  0.00    -0.200 F 
ATOM     87  F   UNL A   1      39.800  36.214  40.634  1.00  0.00    -0.200 F 
ENDBRANCH  53  77
BRANCH  65  88
ATOM     88  C   UNL A   1      44.089  28.513  35.317  1.00  0.00     0.064 A 
ATOM     89  C   UNL A   1      43.953  27.378  36.128  1.00  0.00     0.173 A 
ATOM     90  C   UNL A   1      45.384  29.003  35.085  1.00  0.00     0.173 A 
ATOM     91  F   UNL A   1      42.735  26.879  36.391  1.00  0.00    -0.203 F 
ATOM     92  C   UNL A   1      45.067  26.772  36.704  1.00  0.00     0.198 A 
ATOM     93  C   UNL A   1      46.498  28.378  35.638  1.00  0.00     0.198 A 
ATOM     94  F   UNL A   1      45.570  30.081  34.309  1.00  0.00    -0.203 F 
ATOM     95  F   UNL A   1      44.909  25.714  37.512  1.00  0.00    -0.200 F 
ATOM     96  C   UNL A   1      46.338  27.268  36.452  1.00  0.00     0.200 A 
ATOM     97  F   UNL A   1      47.726  28.851  35.384  1.00  0.00    -0.200 F 
ATOM     98  F   UNL A   1      47.409  26.679  37.002  1.00  0.00    -0.200 F 
ENDBRANCH  65  88
ENDBRANCH  39  40
ENDBRANCH  32  34
ENDBRANCH  31  32
ENDBRANCH  30  31
ENDBRANCH  29  30
ENDBRANCH  28  29
ENDBRANCH  27  28
ENDBRANCH  26  27
ENDBRANCH   1  26
TORSDOF 23
ENDMDL
MODEL 2
REMARK VINA RESULT:      -9.7      2.975      8.202
REMARK SMILES C[C@](NC(=O)c1ccc(Br)o1)(C(=O)OCCOCCOCCOCCOC(=O)c1ccc(-c2c3nc(c(-c4c(F)c(F)c(F)c(F)c4F)c4ccc([nH]4)c(-c4c(F)c(F)c(F)c(F)c4F)c4nc(c(-c5c(F)c(F)c(F)c(F)c5F)c5ccc2[nH]5)C=C4)C=C3)cc1)C(F)(F)F
REMARK SMILES IDX 20 1 19 2 18 3 17 4 16 5 15 6 14 7 12 8 13 9 2 10 1 11 92 12
REMARK SMILES IDX 93 13 94 14 95 15 3 16 4 17 5 19 6 20 7 21 11 22 8 23 9 24
REMARK SMILES IDX 10 25 21 26 22 27 23 28 24 29 25 30 26 31 27 32 28 33 29 34
REMARK SMILES IDX 30 35 91 36 31 37 90 38 32 39 33 40 34 41 84 42 35 43 89 44
REMARK SMILES IDX 83 45 85 46 36 47 88 48 82 49 81 50 37 52 69 53 49 54 68 55
REMARK SMILES IDX 50 56 53 57 67 58 86 59 51 60 52 61 66 63 87 64 54 65 38 66
REMARK SMILES IDX 39 67 47 68 40 69 41 70 45 71 48 72 42 73 43 74 46 75 44 76
REMARK SMILES IDX 70 77 71 78 79 79 72 80 73 81 77 82 80 83 74 84 75 85 78 86
REMARK SMILES IDX 76 87 55 88 56 89 64 90 57 91 58 92 62 93 65 94 59 95 60 96
REMARK SMILES IDX 63 97 61 98
REMARK H PARENT 3 18 85 51 53 62
REMARK Flexibility Score: inf
ROOT
ATOM      1  O   UNL A   1      29.571  29.834  23.090  1.00  0.00    -0.377 OA
ENDROOT
BRANCH   1   2
ATOM      2  C   UNL A   1      28.379  29.152  22.747  1.00  0.00     0.188 C 
BRANCH   2   3
ATOM      3  C   UNL A   1      28.232  27.755  23.379  1.00  0.00     0.188 C 
BRANCH   3   4
ATOM      4  O   UNL A   1      29.368  26.957  23.699  1.00  0.00    -0.376 OA
BRANCH   4   5
ATOM      5  C   UNL A   1      29.354  26.041  24.785  1.00  0.00     0.202 C 
BRANCH   5   6
ATOM      6  C   UNL A   1      30.304  24.843  24.779  1.00  0.00     0.261 C 
BRANCH   6   7
ATOM      7  O   UNL A   1      31.521  25.047  25.510  1.00  0.00    -0.461 OA
BRANCH   7   8
ATOM      8  C   UNL A   1      31.917  24.022  26.316  1.00  0.00     0.341 C 
ATOM      9  O   UNL A   1      31.406  23.769  27.399  1.00  0.00    -0.249 OA
BRANCH   8  10
ATOM     10  C   UNL A   1      33.144  23.301  25.754  1.00  0.00     0.231 C 
ATOM     11  C   UNL A   1      34.002  22.956  26.976  1.00  0.00     0.058 C 
BRANCH  10  12
ATOM     12  C   UNL A   1      32.595  22.012  25.114  1.00  0.00     0.422 C 
ATOM     13  F   UNL A   1      32.149  22.223  23.853  1.00  0.00    -0.168 F 
ATOM     14  F   UNL A   1      33.574  21.074  25.025  1.00  0.00    -0.168 F 
ATOM     15  F   UNL A   1      31.589  21.447  25.813  1.00  0.00    -0.168 F 
ENDBRANCH  10  12
BRANCH  10  16
ATOM     16  N   UNL A   1      33.853  24.169  24.752  1.00  0.00    -0.326 N 
ATOM     17  C   UNL A   1      34.920  23.838  23.953  1.00  0.00     0.288 C 
ATOM     18  H   UNL A   1      33.511  25.087  24.656  1.00  0.00     0.165 HD
ATOM     19  O   UNL A   1      34.903  24.165  22.769  1.00  0.00    -0.266 OA
BRANCH  17  20
ATOM     20  C   UNL A   1      36.051  23.236  24.601  1.00  0.00     0.192 A 
ATOM     21  C   UNL A   1      37.000  23.704  25.488  1.00  0.00     0.057 A 
ATOM     22  O   UNL A   1      36.294  21.920  24.318  1.00  0.00    -0.444 OA
ATOM     23  C   UNL A   1      37.886  22.620  25.732  1.00  0.00     0.059 A 
ATOM     24  C   UNL A   1      37.392  21.550  25.022  1.00  0.00     0.170 A 
ATOM     25  Br  UNL A   1      38.117  19.833  24.998  1.00  0.00    -0.008 Br
ENDBRANCH  17  20
ENDBRANCH  10  16
ENDBRANCH   8  10
ENDBRANCH   7   8
ENDBRANCH   6   7
ENDBRANCH   5   6
ENDBRANCH   4   5
ENDBRANCH   3   4
ENDBRANCH   2   3
ENDBRANCH   1   2
BRANCH   1  26
ATOM     26  C   UNL A   1      30.639  29.684  22.153  1.00  0.00     0.188 C 
BRANCH  26  27
ATOM     27  C   UNL A   1      31.948  29.065  22.685  1.00  0.00     0.188 C 
BRANCH  27  28
ATOM     28  O   UNL A   1      32.003  29.025  24.111  1.00  0.00    -0.376 OA
BRANCH  28  29
ATOM     29  C   UNL A   1      33.003  28.189  24.689  1.00  0.00     0.202 C 
BRANCH  29  30
ATOM     30  C   UNL A   1      33.029  28.184  26.227  1.00  0.00     0.261 C 
BRANCH  30  31
ATOM     31  O   UNL A   1      34.309  28.478  26.816  1.00  0.00    -0.460 OA
BRANCH  31  32
ATOM     32  C   UNL A   1      34.447  29.667  27.437  1.00  0.00     0.338 C 
ATOM     33  O   UNL A   1      33.593  30.514  27.610  1.00  0.00    -0.246 OA
BRANCH  32  34
ATOM     34  C   UNL A   1      35.782  29.705  28.068  1.00  0.00     0.060 A 
ATOM     35  C   UNL A   1      36.882  30.022  27.262  1.00  0.00     0.016 A 
ATOM     36  C   UNL A   1      35.955  29.379  29.415  1.00  0.00     0.016 A 
ATOM     37  C   UNL A   1      38.172  29.934  27.783  1.00  0.00     0.010 A 
ATOM     38  C   UNL A   1      37.249  29.272  29.933  1.00  0.00     0.010 A 
ATOM     39  C   UNL A   1      38.360  29.492  29.100  1.00  0.00    -0.014 A 
BRANCH  39  40
ATOM     40  C   UNL A   1      39.694  28.985  29.496  1.00  0.00     0.031 A 
ATOM     41  C   UNL A   1      40.478  29.791  30.499  1.00  0.00     0.074 A 
ATOM     42  C   UNL A   1      40.183  27.828  29.024  1.00  0.00     0.049 A 
ATOM     43  N   UNL A   1      41.647  29.550  31.033  1.00  0.00    -0.248 NA
ATOM     44  C   UNL A   1      39.849  31.040  30.962  1.00  0.00     0.031 C 
ATOM     45  C   UNL A   1      39.506  26.944  28.080  1.00  0.00     0.029 A 
ATOM     46  N   UNL A   1      41.374  27.199  29.285  1.00  0.00    -0.354 N 
ATOM     47  C   UNL A   1      41.891  30.615  31.891  1.00  0.00     0.074 A 
ATOM     48  C   UNL A   1      40.768  31.519  31.785  1.00  0.00     0.031 C 
ATOM     49  C   UNL A   1      40.296  25.882  27.838  1.00  0.00     0.029 A 
ATOM     50  C   UNL A   1      41.538  26.023  28.597  1.00  0.00     0.049 A 
ATOM     51  H   UNL A   1      42.048  27.557  29.907  1.00  0.00     0.167 HD
ATOM     52  C   UNL A   1      42.953  30.819  32.706  1.00  0.00     0.037 A 
ATOM     53  C   UNL A   1      42.578  25.168  28.584  1.00  0.00     0.037 A 
ATOM     54  C   UNL A   1      44.075  29.927  32.807  1.00  0.00     0.049 A 
ATOM     55  C   UNL A   1      43.780  25.448  29.452  1.00  0.00     0.074 A 
ATOM     56  C   UNL A   1      45.197  30.036  33.607  1.00  0.00     0.029 A 
ATOM     57  N   UNL A   1      44.219  28.763  32.067  1.00  0.00    -0.354 N 
ATOM     58  N   UNL A   1      43.987  26.434  30.290  1.00  0.00    -0.248 NA
ATOM     59  C   UNL A   1      44.889  24.486  29.374  1.00  0.00     0.031 C 
ATOM     60  C   UNL A   1      46.043  28.958  33.320  1.00  0.00     0.029 A 
ATOM     61  C   UNL A   1      45.423  28.153  32.377  1.00  0.00     0.049 A 
ATOM     62  H   UNL A   1      43.563  28.419  31.419  1.00  0.00     0.167 HD
ATOM     63  C   UNL A   1      45.228  26.194  30.866  1.00  0.00     0.074 A 
ATOM     64  C   UNL A   1      45.727  24.965  30.282  1.00  0.00     0.031 C 
ATOM     65  C   UNL A   1      45.893  26.920  31.799  1.00  0.00     0.037 A 
BRANCH  52  66
ATOM     66  C   UNL A   1      42.954  32.077  33.522  1.00  0.00     0.064 A 
ATOM     67  C   UNL A   1      43.538  33.262  33.047  1.00  0.00     0.173 A 
ATOM     68  C   UNL A   1      42.375  32.095  34.799  1.00  0.00     0.173 A 
ATOM     69  F   UNL A   1      44.124  33.290  31.841  1.00  0.00    -0.203 F 
ATOM     70  C   UNL A   1      43.571  34.408  33.837  1.00  0.00     0.198 A 
ATOM     71  C   UNL A   1      42.386  33.251  35.574  1.00  0.00     0.198 A 
ATOM     72  F   UNL A   1      41.806  30.987  35.299  1.00  0.00    -0.203 F 
ATOM     73  F   UNL A   1      44.185  35.512  33.387  1.00  0.00    -0.200 F 
ATOM     74  C   UNL A   1      42.991  34.403  35.097  1.00  0.00     0.200 A 
ATOM     75  F   UNL A   1      41.820  33.246  36.788  1.00  0.00    -0.200 F 
ATOM     76  F   UNL A   1      43.028  35.507  35.857  1.00  0.00    -0.200 F 
ENDBRANCH  52  66
BRANCH  53  77
ATOM     77  C   UNL A   1      42.525  23.949  27.736  1.00  0.00     0.064 A 
ATOM     78  C   UNL A   1      42.846  24.005  26.373  1.00  0.00     0.173 A 
ATOM     79  C   UNL A   1      42.138  22.710  28.266  1.00  0.00     0.173 A 
ATOM     80  F   UNL A   1      43.195  25.174  25.816  1.00  0.00    -0.203 F 
ATOM     81  C   UNL A   1      42.769  22.870  25.569  1.00  0.00     0.198 A 
ATOM     82  C   UNL A   1      42.084  21.570  27.466  1.00  0.00     0.198 A 
ATOM     83  F   UNL A   1      41.815  22.605  29.564  1.00  0.00    -0.203 F 
ATOM     84  F   UNL A   1      43.042  22.959  24.260  1.00  0.00    -0.200 F 
ATOM     85  C   UNL A   1      42.393  21.653  26.116  1.00  0.00     0.200 A 
ATOM     86  F   UNL A   1      41.727  20.395  28.000  1.00  0.00    -0.200 F 
ATOM     87  F   UNL A   1      42.321  20.561  25.343  1.00  0.00    -0.200 F 
ENDBRANCH  53  77
BRANCH  65  88
ATOM     88  C   UNL A   1      47.206  26.382  32.287  1.00  0.00     0.064 A 
ATOM     89  C   UNL A   1      48.430  26.900  31.843  1.00  0.00     0.173 A 
ATOM     90  C   UNL A   1      47.235  25.362  33.251  1.00  0.00     0.173 A 
ATOM     91  F   UNL A   1      48.455  27.867  30.912  1.00  0.00    -0.203 F 
ATOM     92  C   UNL A   1      49.636  26.399  32.327  1.00  0.00     0.198 A 
ATOM     93  C   UNL A   1      48.441  24.884  33.754  1.00  0.00     0.198 A 
ATOM     94  F   UNL A   1      46.091  24.839  33.716  1.00  0.00    -0.203 F 
ATOM     95  F   UNL A   1      50.796  26.879  31.855  1.00  0.00    -0.200 F 
ATOM     96  C   UNL A   1      49.641  25.398  33.286  1.00  0.00     0.200 A 
ATOM     97  F   UNL A   1      48.443  23.925  34.690  1.00  0.00    -0.200 F 
ATOM     98  F   UNL A   1      50.803  24.923  33.755  1.00  0.00    -0.200 F 
ENDBRANCH  65  88
ENDBRANCH  39  40
ENDBRANCH  32  34
ENDBRANCH  31  32
ENDBRANCH  30  31
ENDBRANCH  29  30
ENDBRANCH  28  29
ENDBRANCH  27  28
ENDBRANCH  26  27
ENDBRANCH   1  26
TORSDOF 23
ENDMDL
MODEL 3
REMARK VINA RESULT:      -9.6      2.558      7.855
REMARK SMILES C[C@](NC(=O)c1ccc(Br)o1)(C(=O)OCCOCCOCCOCCOC(=O)c1ccc(-c2c3nc(c(-c4c(F)c(F)c(F)c(F)c4F)c4ccc([nH]4)c(-c4c(F)c(F)c(F)c(F)c4F)c4nc(c(-c5c(F)c(F)c(F)c(F)c5F)c5ccc2[nH]5)C=C4)C=C3)cc1)C(F)(F)F
REMARK SMILES IDX 20 1 19 2 18 3 17 4 16 5 15 6 14 7 12 8 13 9 2 10 1 11 92 12
REMARK SMILES IDX 93 13 94 14 95 15 3 16 4 17 5 19 6 20 7 21 11 22 8 23 9 24
REMARK SMILES IDX 10 25 21 26 22 27 23 28 24 29 25 30 26 31 27 32 28 33 29 34
REMARK SMILES IDX 30 35 91 36 31 37 90 38 32 39 33 40 34 41 84 42 35 43 89 44
REMARK SMILES IDX 83 45 85 46 36 47 88 48 82 49 81 50 37 52 69 53 49 54 68 55
REMARK SMILES IDX 50 56 53 57 67 58 86 59 51 60 52 61 66 63 87 64 54 65 38 66
REMARK SMILES IDX 39 67 47 68 40 69 41 70 45 71 48 72 42 73 43 74 46 75 44 76
REMARK SMILES IDX 70 77 71 78 79 79 72 80 73 81 77 82 80 83 74 84 75 85 78 86
REMARK SMILES IDX 76 87 55 88 56 89 64 90 57 91 58 92 62 93 65 94 59 95 60 96
REMARK SMILES IDX 63 97 61 98
REMARK H PARENT 3 18 85 51 53 62
REMARK Flexibility Score: inf
ROOT
ATOM      1  O   UNL A   1      29.319  30.147  23.069  1.00  0.00    -0.377 OA
ENDROOT
BRANCH   1   2
ATOM      2  C   UNL A   1      28.084  29.473  22.916  1.00  0.00     0.188 C 
BRANCH   2   3
ATOM      3  C   UNL A   1      28.030  28.073  23.556  1.00  0.00     0.188 C 
BRANCH   3   4
ATOM      4  O   UNL A   1      29.040  27.099  23.309  1.00  0.00    -0.376 OA
BRANCH   4   5
ATOM      5  C   UNL A   1      29.100  25.884  24.042  1.00  0.00     0.202 C 
BRANCH   5   6
ATOM      6  C   UNL A   1      30.335  24.990  23.929  1.00  0.00     0.261 C 
BRANCH   6   7
ATOM      7  O   UNL A   1      31.480  25.464  24.651  1.00  0.00    -0.461 OA
BRANCH   7   8
ATOM      8  C   UNL A   1      31.814  24.766  25.773  1.00  0.00     0.341 C 
ATOM      9  O   UNL A   1      31.358  25.002  26.884  1.00  0.00    -0.249 OA
BRANCH   8  10
ATOM     10  C   UNL A   1      32.905  23.730  25.494  1.00  0.00     0.231 C 
ATOM     11  C   UNL A   1      33.761  23.695  26.764  1.00  0.00     0.058 C 
BRANCH  10  12
ATOM     12  C   UNL A   1      32.157  22.394  25.324  1.00  0.00     0.422 C 
ATOM     13  F   UNL A   1      31.950  22.092  24.020  1.00  0.00    -0.168 F 
ATOM     14  F   UNL A   1      32.889  21.374  25.843  1.00  0.00    -0.168 F 
ATOM     15  F   UNL A   1      30.961  22.361  25.946  1.00  0.00    -0.168 F 
ENDBRANCH  10  12
BRANCH  10  16
ATOM     16  N   UNL A   1      33.680  24.102  24.260  1.00  0.00    -0.326 N 
ATOM     17  C   UNL A   1      34.541  23.315  23.535  1.00  0.00     0.288 C 
ATOM     18  H   UNL A   1      33.556  25.022  23.932  1.00  0.00     0.165 HD
ATOM     19  O   UNL A   1      34.467  23.323  22.308  1.00  0.00    -0.266 OA
BRANCH  17  20
ATOM     20  C   UNL A   1      35.564  22.626  24.270  1.00  0.00     0.192 A 
ATOM     21  C   UNL A   1      35.832  21.292  24.504  1.00  0.00     0.057 A 
ATOM     22  O   UNL A   1      36.502  23.402  24.894  1.00  0.00    -0.444 OA
ATOM     23  C   UNL A   1      36.978  21.259  25.344  1.00  0.00     0.059 A 
ATOM     24  C   UNL A   1      37.364  22.567  25.523  1.00  0.00     0.170 A 
ATOM     25  Br  UNL A   1      38.844  23.139  26.501  1.00  0.00    -0.008 Br
ENDBRANCH  17  20
ENDBRANCH  10  16
ENDBRANCH   8  10
ENDBRANCH   7   8
ENDBRANCH   6   7
ENDBRANCH   5   6
ENDBRANCH   4   5
ENDBRANCH   3   4
ENDBRANCH   2   3
ENDBRANCH   1   2
BRANCH   1  26
ATOM     26  C   UNL A   1      30.279  29.884  22.045  1.00  0.00     0.188 C 
BRANCH  26  27
ATOM     27  C   UNL A   1      31.556  29.130  22.466  1.00  0.00     0.188 C 
BRANCH  27  28
ATOM     28  O   UNL A   1      31.692  29.017  23.883  1.00  0.00    -0.376 OA
BRANCH  28  29
ATOM     29  C   UNL A   1      33.020  29.033  24.402  1.00  0.00     0.202 C 
BRANCH  29  30
ATOM     30  C   UNL A   1      33.169  28.431  25.809  1.00  0.00     0.261 C 
BRANCH  30  31
ATOM     31  O   UNL A   1      34.402  28.749  26.480  1.00  0.00    -0.460 OA
BRANCH  31  32
ATOM     32  C   UNL A   1      34.405  29.824  27.296  1.00  0.00     0.338 C 
ATOM     33  O   UNL A   1      33.478  30.573  27.533  1.00  0.00    -0.246 OA
BRANCH  32  34
ATOM     34  C   UNL A   1      35.685  29.840  28.031  1.00  0.00     0.060 A 
ATOM     35  C   UNL A   1      36.849  30.161  27.321  1.00  0.00     0.016 A 
ATOM     36  C   UNL A   1      35.748  29.492  29.383  1.00  0.00     0.016 A 
ATOM     37  C   UNL A   1      38.092  30.053  27.942  1.00  0.00     0.010 A 
ATOM     38  C   UNL A   1      36.995  29.367  30.000  1.00  0.00     0.010 A 
ATOM     39  C   UNL A   1      38.171  29.589  29.262  1.00  0.00    -0.014 A 
BRANCH  39  40
ATOM     40  C   UNL A   1      39.465  29.065  29.756  1.00  0.00     0.031 A 
ATOM     41  C   UNL A   1      40.075  29.732  30.960  1.00  0.00     0.074 A 
ATOM     42  C   UNL A   1      40.064  28.005  29.190  1.00  0.00     0.049 A 
ATOM     43  N   UNL A   1      41.176  29.446  31.605  1.00  0.00    -0.248 NA
ATOM     44  C   UNL A   1      39.336  30.880  31.511  1.00  0.00     0.031 C 
ATOM     45  C   UNL A   1      39.555  27.255  28.046  1.00  0.00     0.029 A 
ATOM     46  N   UNL A   1      41.240  27.377  29.514  1.00  0.00    -0.354 N 
ATOM     47  C   UNL A   1      41.259  30.377  32.633  1.00  0.00     0.074 A 
ATOM     48  C   UNL A   1      40.118  31.255  32.510  1.00  0.00     0.031 C 
ATOM     49  C   UNL A   1      40.418  26.263  27.760  1.00  0.00     0.029 A 
ATOM     50  C   UNL A   1      41.545  26.322  28.691  1.00  0.00     0.049 A 
ATOM     51  H   UNL A   1      41.811  27.655  30.266  1.00  0.00     0.167 HD
ATOM     52  C   UNL A   1      42.197  30.484  33.604  1.00  0.00     0.037 A 
ATOM     53  C   UNL A   1      42.617  25.507  28.693  1.00  0.00     0.037 A 
ATOM     54  C   UNL A   1      43.337  29.618  33.723  1.00  0.00     0.049 A 
ATOM     55  C   UNL A   1      43.683  25.686  29.745  1.00  0.00     0.074 A 
ATOM     56  C   UNL A   1      44.341  29.636  34.673  1.00  0.00     0.029 A 
ATOM     57  N   UNL A   1      43.629  28.582  32.848  1.00  0.00    -0.354 N 
ATOM     58  N   UNL A   1      43.735  26.541  30.737  1.00  0.00    -0.248 NA
ATOM     59  C   UNL A   1      44.837  24.777  29.677  1.00  0.00     0.031 C 
ATOM     60  C   UNL A   1      45.266  28.637  34.349  1.00  0.00     0.029 A 
ATOM     61  C   UNL A   1      44.810  27.965  33.225  1.00  0.00     0.049 A 
ATOM     62  H   UNL A   1      43.078  28.322  32.075  1.00  0.00     0.167 HD
ATOM     63  C   UNL A   1      44.901  26.250  31.433  1.00  0.00     0.074 A 
ATOM     64  C   UNL A   1      45.528  25.137  30.749  1.00  0.00     0.031 C 
ATOM     65  C   UNL A   1      45.407  26.847  32.542  1.00  0.00     0.037 A 
BRANCH  52  66
ATOM     66  C   UNL A   1      42.035  31.606  34.586  1.00  0.00     0.064 A 
ATOM     67  C   UNL A   1      41.208  31.484  35.713  1.00  0.00     0.173 A 
ATOM     68  C   UNL A   1      42.705  32.822  34.390  1.00  0.00     0.173 A 
ATOM     69  F   UNL A   1      40.528  30.349  35.933  1.00  0.00    -0.203 F 
ATOM     70  C   UNL A   1      41.033  32.551  36.590  1.00  0.00     0.198 A 
ATOM     71  C   UNL A   1      42.549  33.877  35.284  1.00  0.00     0.198 A 
ATOM     72  F   UNL A   1      43.506  32.990  33.327  1.00  0.00    -0.203 F 
ATOM     73  F   UNL A   1      40.193  32.433  37.628  1.00  0.00    -0.200 F 
ATOM     74  C   UNL A   1      41.706  33.745  36.377  1.00  0.00     0.200 A 
ATOM     75  F   UNL A   1      43.205  35.028  35.080  1.00  0.00    -0.200 F 
ATOM     76  F   UNL A   1      41.533  34.773  37.220  1.00  0.00    -0.200 F 
ENDBRANCH  52  66
BRANCH  53  77
ATOM     77  C   UNL A   1      42.729  24.427  27.678  1.00  0.00     0.064 A 
ATOM     78  C   UNL A   1      42.292  23.125  27.959  1.00  0.00     0.173 A 
ATOM     79  C   UNL A   1      43.290  24.671  26.417  1.00  0.00     0.173 A 
ATOM     80  F   UNL A   1      41.775  22.839  29.164  1.00  0.00    -0.203 F 
ATOM     81  C   UNL A   1      42.424  22.105  27.021  1.00  0.00     0.198 A 
ATOM     82  C   UNL A   1      43.398  23.655  25.469  1.00  0.00     0.198 A 
ATOM     83  F   UNL A   1      43.727  25.899  26.101  1.00  0.00    -0.203 F 
ATOM     84  F   UNL A   1      42.036  20.860  27.329  1.00  0.00    -0.200 F 
ATOM     85  C   UNL A   1      42.972  22.371  25.775  1.00  0.00     0.200 A 
ATOM     86  F   UNL A   1      43.922  23.917  24.264  1.00  0.00    -0.200 F 
ATOM     87  F   UNL A   1      43.097  21.389  24.872  1.00  0.00    -0.200 F 
ENDBRANCH  53  77
BRANCH  65  88
ATOM     88  C   UNL A   1      46.670  26.277  33.118  1.00  0.00     0.064 A 
ATOM     89  C   UNL A   1      46.653  25.221  34.040  1.00  0.00     0.173 A 
ATOM     90  C   UNL A   1      47.918  26.767  32.703  1.00  0.00     0.173 A 
ATOM     91  F   UNL A   1      45.485  24.726  34.477  1.00  0.00    -0.203 F 
ATOM     92  C   UNL A   1      47.839  24.693  34.545  1.00  0.00     0.198 A 
ATOM     93  C   UNL A   1      49.102  26.219  33.188  1.00  0.00     0.198 A 
ATOM     94  F   UNL A   1      47.989  27.771  31.816  1.00  0.00    -0.203 F 
ATOM     95  F   UNL A   1      47.799  23.714  35.459  1.00  0.00    -0.200 F 
ATOM     96  C   UNL A   1      49.061  25.187  34.113  1.00  0.00     0.200 A 
ATOM     97  F   UNL A   1      50.282  26.689  32.760  1.00  0.00    -0.200 F 
ATOM     98  F   UNL A   1      50.201  24.673  34.596  1.00  0.00    -0.200 F 
ENDBRANCH  65  88
ENDBRANCH  39  40
ENDBRANCH  32  34
ENDBRANCH  31  32
ENDBRANCH  30  31
ENDBRANCH  29  30
ENDBRANCH  28  29
ENDBRANCH  27  28
ENDBRANCH  26  27
ENDBRANCH   1  26
TORSDOF 23
ENDMDL
