MODEL 1
REMARK VINA RESULT:      -8.3      0.000      0.000
REMARK SMILES COc1cccc(-n2cc(C(=O)OCCOCCOCCOCCOC(=O)c3ccc(-c4c5nc(c(-c6c(F)c(F)c(F)c(F)c6F)c6ccc([nH]6)c(-c6c(F)c(F)c(F)c(F)c6F)c6nc(c(-c7c(F)c(F)c(F)c(F)c7F)c7ccc4[nH]7)C=C6)C=C5)cc3)c3c2[C@H](c2cc(OC)c(OC)c(OC)c2)CC(=O)N3)c1
REMARK SMILES IDX 19 1 18 2 17 3 16 4 15 5 14 6 13 7 11 8 12 9 10 10 8 11 9 12
REMARK SMILES IDX 92 13 91 14 93 15 109 16 106 17 107 18 108 20 7 21 3 22 4 23
REMARK SMILES IDX 110 24 5 25 6 26 2 27 1 28 94 29 95 30 105 31 96 32 102 33
REMARK SMILES IDX 99 34 97 35 98 36 103 37 104 38 100 39 101 40 20 41 21 42
REMARK SMILES IDX 22 43 23 44 24 45 25 46 26 47 27 48 28 49 29 50 90 51 30 52
REMARK SMILES IDX 89 53 31 54 32 55 33 56 83 57 34 58 88 59 82 60 84 61 35 62
REMARK SMILES IDX 87 63 81 64 80 65 36 67 68 68 48 69 67 70 49 71 52 72 66 73
REMARK SMILES IDX 85 74 50 75 51 76 65 78 86 79 53 80 37 81 38 82 46 83 39 84
REMARK SMILES IDX 40 85 44 86 47 87 41 88 42 89 45 90 43 91 69 92 70 93 78 94
REMARK SMILES IDX 71 95 72 96 76 97 79 98 73 99 74 100 77 101 75 102 54 103
REMARK SMILES IDX 55 104 63 105 56 106 57 107 61 108 64 109 58 110 59 111
REMARK SMILES IDX 62 112 60 113
REMARK H PARENT 109 19 84 66 52 77
REMARK Flexibility Score: inf
ROOT
ATOM      1  O   UNL A   1      48.144  23.400  37.199  1.00  0.00    -0.377 OA
ENDROOT
BRANCH   1   2
ATOM      2  C   UNL A   1      48.151  24.283  36.089  1.00  0.00     0.188 C 
BRANCH   2   3
ATOM      3  C   UNL A   1      48.215  23.631  34.692  1.00  0.00     0.188 C 
BRANCH   3   4
ATOM      4  O   UNL A   1      47.840  24.518  33.656  1.00  0.00    -0.376 OA
BRANCH   4   5
ATOM      5  C   UNL A   1      46.595  25.174  33.661  1.00  0.00     0.202 C 
BRANCH   5   6
ATOM      6  C   UNL A   1      45.555  24.962  32.549  1.00  0.00     0.261 C 
BRANCH   6   7
ATOM      7  O   UNL A   1      45.253  26.070  31.697  1.00  0.00    -0.460 OA
BRANCH   7   8
ATOM      8  C   UNL A   1      45.828  26.083  30.471  1.00  0.00     0.341 C 
ATOM      9  O   UNL A   1      46.978  25.702  30.236  1.00  0.00    -0.246 OA
BRANCH   8  10
ATOM     10  C   UNL A   1      44.865  26.428  29.440  1.00  0.00     0.102 A 
ATOM     11  N   UNL A   1      42.989  27.246  28.475  1.00  0.00    -0.317 N 
ATOM     12  C   UNL A   1      43.625  27.001  29.676  1.00  0.00     0.109 A 
ATOM     13  C   UNL A   1      43.775  26.716  27.472  1.00  0.00     0.055 A 
ATOM     14  C   UNL A   1      44.981  26.356  28.033  1.00  0.00     0.078 A 
ATOM     15  C   UNL A   1      43.442  26.453  26.024  1.00  0.00     0.078 C 
ATOM     16  N   UNL A   1      46.024  25.933  27.243  1.00  0.00    -0.324 N 
ATOM     17  C   UNL A   1      44.754  26.652  25.231  1.00  0.00     0.115 C 
ATOM     18  C   UNL A   1      45.968  25.975  25.872  1.00  0.00     0.225 C 
ATOM     19  H   UNL A   1      46.838  25.590  27.675  1.00  0.00     0.170 HD
ATOM     20  O   UNL A   1      46.891  25.531  25.189  1.00  0.00    -0.275 OA
BRANCH  11  21
ATOM     21  C   UNL A   1      41.669  27.734  28.396  1.00  0.00     0.049 A 
ATOM     22  C   UNL A   1      39.417  27.922  29.234  1.00  0.00     0.120 A 
ATOM     23  C   UNL A   1      39.092  28.695  28.111  1.00  0.00     0.046 A 
ATOM     24  C   UNL A   1      40.726  27.453  29.398  1.00  0.00     0.073 A 
ATOM     25  C   UNL A   1      40.033  28.947  27.116  1.00  0.00     0.006 A 
ATOM     26  C   UNL A   1      41.309  28.417  27.232  1.00  0.00     0.027 A 
BRANCH  22  27
ATOM     27  O   UNL A   1      38.342  27.683  30.044  1.00  0.00    -0.497 OA
ATOM     28  C   UNL A   1      38.298  28.309  31.315  1.00  0.00     0.278 C 
ENDBRANCH  22  27
ENDBRANCH  11  21
BRANCH  15  29
ATOM     29  C   UNL A   1      42.819  25.055  25.864  1.00  0.00    -0.031 A 
ATOM     30  C   UNL A   1      41.537  24.833  26.368  1.00  0.00     0.055 A 
ATOM     31  C   UNL A   1      43.496  23.937  25.354  1.00  0.00     0.055 A 
ATOM     32  C   UNL A   1      41.039  23.543  26.573  1.00  0.00     0.164 A 
ATOM     33  C   UNL A   1      42.955  22.635  25.420  1.00  0.00     0.164 A 
ATOM     34  C   UNL A   1      41.728  22.424  26.075  1.00  0.00     0.203 A 
BRANCH  32  35
ATOM     35  O   UNL A   1      39.847  23.511  27.260  1.00  0.00    -0.493 OA
ATOM     36  C   UNL A   1      39.182  24.771  27.359  1.00  0.00     0.278 C 
ENDBRANCH  32  35
BRANCH  33  37
ATOM     37  O   UNL A   1      43.626  21.546  24.922  1.00  0.00    -0.493 OA
ATOM     38  C   UNL A   1      44.857  21.774  24.243  1.00  0.00     0.278 C 
ENDBRANCH  33  37
BRANCH  34  39
ATOM     39  O   UNL A   1      41.109  21.222  26.300  1.00  0.00    -0.490 OA
ATOM     40  C   UNL A   1      41.477  20.439  27.420  1.00  0.00     0.278 C 
ENDBRANCH  34  39
ENDBRANCH  15  29
ENDBRANCH   8  10
ENDBRANCH   7   8
ENDBRANCH   6   7
ENDBRANCH   5   6
ENDBRANCH   4   5
ENDBRANCH   3   4
ENDBRANCH   2   3
ENDBRANCH   1   2
BRANCH   1  41
ATOM     41  C   UNL A   1      47.048  22.501  37.384  1.00  0.00     0.188 C 
BRANCH  41  42
ATOM     42  C   UNL A   1      46.099  22.516  38.620  1.00  0.00     0.188 C 
BRANCH  42  43
ATOM     43  O   UNL A   1      45.236  23.636  38.728  1.00  0.00    -0.376 OA
BRANCH  43  44
ATOM     44  C   UNL A   1      44.950  24.488  37.641  1.00  0.00     0.202 C 
BRANCH  44  45
ATOM     45  C   UNL A   1      43.873  24.013  36.678  1.00  0.00     0.261 C 
BRANCH  45  46
ATOM     46  O   UNL A   1      43.831  24.773  35.487  1.00  0.00    -0.460 OA
BRANCH  46  47
ATOM     47  C   UNL A   1      42.690  25.456  35.305  1.00  0.00     0.338 C 
ATOM     48  O   UNL A   1      41.556  25.003  35.191  1.00  0.00    -0.246 OA
BRANCH  47  49
ATOM     49  C   UNL A   1      43.037  26.853  35.089  1.00  0.00     0.060 A 
ATOM     50  C   UNL A   1      43.335  27.585  36.238  1.00  0.00     0.016 A 
ATOM     51  C   UNL A   1      42.594  27.444  33.897  1.00  0.00     0.016 A 
ATOM     52  C   UNL A   1      42.891  28.879  36.289  1.00  0.00     0.010 A 
ATOM     53  C   UNL A   1      42.106  28.715  33.965  1.00  0.00     0.010 A 
ATOM     54  C   UNL A   1      42.182  29.373  35.189  1.00  0.00    -0.014 A 
BRANCH  54  55
ATOM     55  C   UNL A   1      41.603  30.686  35.300  1.00  0.00     0.031 A 
ATOM     56  C   UNL A   1      42.641  31.706  35.521  1.00  0.00     0.074 A 
ATOM     57  C   UNL A   1      40.290  30.894  35.103  1.00  0.00     0.049 A 
ATOM     58  N   UNL A   1      42.843  32.400  36.589  1.00  0.00    -0.248 NA
ATOM     59  C   UNL A   1      43.722  31.802  34.523  1.00  0.00     0.031 C 
ATOM     60  C   UNL A   1      39.297  29.940  34.602  1.00  0.00     0.029 A 
ATOM     61  N   UNL A   1      39.585  32.050  35.203  1.00  0.00    -0.354 N 
ATOM     62  C   UNL A   1      43.948  33.191  36.295  1.00  0.00     0.074 A 
ATOM     63  C   UNL A   1      44.581  32.600  35.153  1.00  0.00     0.031 C 
ATOM     64  C   UNL A   1      38.186  30.615  34.227  1.00  0.00     0.029 A 
ATOM     65  C   UNL A   1      38.353  32.018  34.565  1.00  0.00     0.049 A 
ATOM     66  H   UNL A   1      39.918  32.841  35.686  1.00  0.00     0.167 HD
ATOM     67  C   UNL A   1      44.006  34.459  36.779  1.00  0.00     0.037 A 
ATOM     68  C   UNL A   1      37.593  33.099  34.260  1.00  0.00     0.037 A 
ATOM     69  C   UNL A   1      43.146  34.590  37.936  1.00  0.00     0.049 A 
ATOM     70  C   UNL A   1      38.069  34.222  35.108  1.00  0.00     0.074 A 
ATOM     71  C   UNL A   1      43.077  34.005  39.184  1.00  0.00     0.029 A 
ATOM     72  N   UNL A   1      41.924  35.174  37.719  1.00  0.00    -0.354 N 
ATOM     73  N   UNL A   1      37.911  34.280  36.402  1.00  0.00    -0.248 NA
ATOM     74  C   UNL A   1      39.088  35.112  34.569  1.00  0.00     0.031 C 
ATOM     75  C   UNL A   1      41.688  33.961  39.515  1.00  0.00     0.029 A 
ATOM     76  C   UNL A   1      40.970  34.559  38.478  1.00  0.00     0.049 A 
ATOM     77  H   UNL A   1      41.759  35.927  37.106  1.00  0.00     0.167 HD
ATOM     78  C   UNL A   1      39.080  34.858  36.873  1.00  0.00     0.074 A 
ATOM     79  C   UNL A   1      39.689  35.481  35.703  1.00  0.00     0.031 C 
ATOM     80  C   UNL A   1      39.575  34.506  38.097  1.00  0.00     0.037 A 
BRANCH  67  81
ATOM     81  C   UNL A   1      44.369  35.656  35.906  1.00  0.00     0.064 A 
ATOM     82  C   UNL A   1      45.255  36.611  36.445  1.00  0.00     0.173 A 
ATOM     83  C   UNL A   1      43.657  36.087  34.761  1.00  0.00     0.173 A 
ATOM     84  F   UNL A   1      46.009  36.314  37.515  1.00  0.00    -0.203 F 
ATOM     85  C   UNL A   1      45.299  37.927  35.980  1.00  0.00     0.198 A 
ATOM     86  C   UNL A   1      43.734  37.390  34.275  1.00  0.00     0.198 A 
ATOM     87  F   UNL A   1      42.787  35.318  34.102  1.00  0.00    -0.203 F 
ATOM     88  F   UNL A   1      46.039  38.834  36.632  1.00  0.00    -0.200 F 
ATOM     89  C   UNL A   1      44.520  38.322  34.911  1.00  0.00     0.200 A 
ATOM     90  F   UNL A   1      42.967  37.749  33.235  1.00  0.00    -0.200 F 
ATOM     91  F   UNL A   1      44.495  39.601  34.517  1.00  0.00    -0.200 F 
ENDBRANCH  67  81
BRANCH  68  92
ATOM     92  C   UNL A   1      36.710  33.312  33.088  1.00  0.00     0.064 A 
ATOM     93  C   UNL A   1      35.376  33.719  33.258  1.00  0.00     0.173 A 
ATOM     94  C   UNL A   1      37.222  33.392  31.777  1.00  0.00     0.173 A 
ATOM     95  F   UNL A   1      34.821  33.718  34.479  1.00  0.00    -0.203 F 
ATOM     96  C   UNL A   1      34.613  34.205  32.191  1.00  0.00     0.198 A 
ATOM     97  C   UNL A   1      36.456  33.865  30.711  1.00  0.00     0.198 A 
ATOM     98  F   UNL A   1      38.505  33.105  31.517  1.00  0.00    -0.203 F 
ATOM     99  F   UNL A   1      33.367  34.649  32.409  1.00  0.00    -0.200 F 
ATOM    100  C   UNL A   1      35.157  34.286  30.921  1.00  0.00     0.200 A 
ATOM    101  F   UNL A   1      37.007  33.970  29.494  1.00  0.00    -0.200 F 
ATOM    102  F   UNL A   1      34.448  34.810  29.911  1.00  0.00    -0.200 F 
ENDBRANCH  68  92
BRANCH  80 103
ATOM    103  C   UNL A   1      38.629  33.832  39.049  1.00  0.00     0.064 A 
ATOM    104  C   UNL A   1      38.138  32.525  38.893  1.00  0.00     0.173 A 
ATOM    105  C   UNL A   1      38.277  34.519  40.219  1.00  0.00     0.173 A 
ATOM    106  F   UNL A   1      38.508  31.768  37.852  1.00  0.00    -0.203 F 
ATOM    107  C   UNL A   1      37.285  31.959  39.839  1.00  0.00     0.198 A 
ATOM    108  C   UNL A   1      37.461  33.936  41.183  1.00  0.00     0.198 A 
ATOM    109  F   UNL A   1      38.760  35.752  40.446  1.00  0.00    -0.203 F 
ATOM    110  F   UNL A   1      36.802  30.721  39.653  1.00  0.00    -0.200 F 
ATOM    111  C   UNL A   1      36.952  32.662  40.985  1.00  0.00     0.200 A 
ATOM    112  F   UNL A   1      37.183  34.601  42.311  1.00  0.00    -0.200 F 
ATOM    113  F   UNL A   1      36.159  32.105  41.911  1.00  0.00    -0.200 F 
ENDBRANCH  80 103
ENDBRANCH  54  55
ENDBRANCH  47  49
ENDBRANCH  46  47
ENDBRANCH  45  46
ENDBRANCH  44  45
ENDBRANCH  43  44
ENDBRANCH  42  43
ENDBRANCH  41  42
ENDBRANCH   1  41
TORSDOF 26
ENDMDL
MODEL 2
REMARK VINA RESULT:      -8.0      4.164      8.856
REMARK SMILES COc1cccc(-n2cc(C(=O)OCCOCCOCCOCCOC(=O)c3ccc(-c4c5nc(c(-c6c(F)c(F)c(F)c(F)c6F)c6ccc([nH]6)c(-c6c(F)c(F)c(F)c(F)c6F)c6nc(c(-c7c(F)c(F)c(F)c(F)c7F)c7ccc4[nH]7)C=C6)C=C5)cc3)c3c2[C@H](c2cc(OC)c(OC)c(OC)c2)CC(=O)N3)c1
REMARK SMILES IDX 19 1 18 2 17 3 16 4 15 5 14 6 13 7 11 8 12 9 10 10 8 11 9 12
REMARK SMILES IDX 92 13 91 14 93 15 109 16 106 17 107 18 108 20 7 21 3 22 4 23
REMARK SMILES IDX 110 24 5 25 6 26 2 27 1 28 94 29 95 30 105 31 96 32 102 33
REMARK SMILES IDX 99 34 97 35 98 36 103 37 104 38 100 39 101 40 20 41 21 42
REMARK SMILES IDX 22 43 23 44 24 45 25 46 26 47 27 48 28 49 29 50 90 51 30 52
REMARK SMILES IDX 89 53 31 54 32 55 33 56 83 57 34 58 88 59 82 60 84 61 35 62
REMARK SMILES IDX 87 63 81 64 80 65 36 67 68 68 48 69 67 70 49 71 52 72 66 73
REMARK SMILES IDX 85 74 50 75 51 76 65 78 86 79 53 80 37 81 38 82 46 83 39 84
REMARK SMILES IDX 40 85 44 86 47 87 41 88 42 89 45 90 43 91 69 92 70 93 78 94
REMARK SMILES IDX 71 95 72 96 76 97 79 98 73 99 74 100 77 101 75 102 54 103
REMARK SMILES IDX 55 104 63 105 56 106 57 107 61 108 64 109 58 110 59 111
REMARK SMILES IDX 62 112 60 113
REMARK H PARENT 109 19 84 66 52 77
REMARK Flexibility Score: inf
ROOT
ATOM      1  O   UNL A   1      43.386  37.508  28.452  1.00  0.00    -0.377 OA
ENDROOT
BRANCH   1   2
ATOM      2  C   UNL A   1      44.802  37.464  28.385  1.00  0.00     0.188 C 
BRANCH   2   3
ATOM      3  C   UNL A   1      45.411  36.543  27.307  1.00  0.00     0.188 C 
BRANCH   3   4
ATOM      4  O   UNL A   1      44.744  35.300  27.208  1.00  0.00    -0.376 OA
BRANCH   4   5
ATOM      5  C   UNL A   1      45.431  34.080  27.355  1.00  0.00     0.202 C 
BRANCH   5   6
ATOM      6  C   UNL A   1      44.844  32.747  26.861  1.00  0.00     0.261 C 
BRANCH   6   7
ATOM      7  O   UNL A   1      44.828  31.647  27.774  1.00  0.00    -0.460 OA
BRANCH   7   8
ATOM      8  C   UNL A   1      44.715  30.405  27.246  1.00  0.00     0.341 C 
ATOM      9  O   UNL A   1      45.175  30.069  26.152  1.00  0.00    -0.246 OA
BRANCH   8  10
ATOM     10  C   UNL A   1      44.144  29.474  28.203  1.00  0.00     0.102 A 
ATOM     11  N   UNL A   1      43.976  28.125  30.012  1.00  0.00    -0.317 N 
ATOM     12  C   UNL A   1      44.828  28.926  29.277  1.00  0.00     0.109 A 
ATOM     13  C   UNL A   1      42.774  28.065  29.335  1.00  0.00     0.055 A 
ATOM     14  C   UNL A   1      42.818  28.998  28.322  1.00  0.00     0.078 A 
ATOM     15  C   UNL A   1      41.604  27.131  29.529  1.00  0.00     0.078 C 
ATOM     16  N   UNL A   1      41.701  29.269  27.569  1.00  0.00    -0.324 N 
ATOM     17  C   UNL A   1      40.337  27.938  29.163  1.00  0.00     0.115 C 
ATOM     18  C   UNL A   1      40.470  28.738  27.865  1.00  0.00     0.225 C 
ATOM     19  H   UNL A   1      41.786  29.865  26.791  1.00  0.00     0.170 HD
ATOM     20  O   UNL A   1      39.500  28.947  27.137  1.00  0.00    -0.275 OA
BRANCH  11  21
ATOM     21  C   UNL A   1      44.408  27.353  31.109  1.00  0.00     0.049 A 
ATOM     22  C   UNL A   1      44.156  26.527  33.359  1.00  0.00     0.120 A 
ATOM     23  C   UNL A   1      45.378  25.853  33.219  1.00  0.00     0.046 A 
ATOM     24  C   UNL A   1      43.647  27.268  32.286  1.00  0.00     0.073 A 
ATOM     25  C   UNL A   1      46.131  25.965  32.054  1.00  0.00     0.006 A 
ATOM     26  C   UNL A   1      45.671  26.763  31.017  1.00  0.00     0.027 A 
BRANCH  22  27
ATOM     27  O   UNL A   1      43.617  26.395  34.608  1.00  0.00    -0.497 OA
ATOM     28  C   UNL A   1      43.298  25.095  35.075  1.00  0.00     0.278 C 
ENDBRANCH  22  27
ENDBRANCH  11  21
BRANCH  15  29
ATOM     29  C   UNL A   1      41.796  25.853  28.694  1.00  0.00    -0.031 A 
ATOM     30  C   UNL A   1      43.076  25.305  28.595  1.00  0.00     0.055 A 
ATOM     31  C   UNL A   1      40.796  25.256  27.913  1.00  0.00     0.055 A 
ATOM     32  C   UNL A   1      43.403  24.372  27.607  1.00  0.00     0.164 A 
ATOM     33  C   UNL A   1      41.072  24.211  27.005  1.00  0.00     0.164 A 
ATOM     34  C   UNL A   1      42.401  23.788  26.815  1.00  0.00     0.203 A 
BRANCH  32  35
ATOM     35  O   UNL A   1      44.749  24.095  27.530  1.00  0.00    -0.493 OA
ATOM     36  C   UNL A   1      45.599  25.240  27.604  1.00  0.00     0.278 C 
ENDBRANCH  32  35
BRANCH  33  37
ATOM     37  O   UNL A   1      40.087  23.636  26.241  1.00  0.00    -0.493 OA
ATOM     38  C   UNL A   1      39.747  22.278  26.504  1.00  0.00     0.278 C 
ENDBRANCH  33  37
BRANCH  34  39
ATOM     39  O   UNL A   1      42.848  22.853  25.919  1.00  0.00    -0.490 OA
ATOM     40  C   UNL A   1      43.379  23.268  24.674  1.00  0.00     0.278 C 
ENDBRANCH  34  39
ENDBRANCH  15  29
ENDBRANCH   8  10
ENDBRANCH   7   8
ENDBRANCH   6   7
ENDBRANCH   5   6
ENDBRANCH   4   5
ENDBRANCH   3   4
ENDBRANCH   2   3
ENDBRANCH   1   2
BRANCH   1  41
ATOM     41  C   UNL A   1      42.735  38.677  28.954  1.00  0.00     0.188 C 
BRANCH  41  42
ATOM     42  C   UNL A   1      43.149  40.136  28.594  1.00  0.00     0.188 C 
BRANCH  42  43
ATOM     43  O   UNL A   1      44.238  40.673  29.325  1.00  0.00    -0.376 OA
BRANCH  43  44
ATOM     44  C   UNL A   1      44.068  41.513  30.445  1.00  0.00     0.202 C 
BRANCH  44  45
ATOM     45  C   UNL A   1      42.684  41.521  31.077  1.00  0.00     0.261 C 
BRANCH  45  46
ATOM     46  O   UNL A   1      42.511  40.489  32.027  1.00  0.00    -0.460 OA
BRANCH  46  47
ATOM     47  C   UNL A   1      43.290  40.600  33.114  1.00  0.00     0.338 C 
ATOM     48  O   UNL A   1      43.676  41.629  33.658  1.00  0.00    -0.246 OA
BRANCH  47  49
ATOM     49  C   UNL A   1      43.758  39.266  33.464  1.00  0.00     0.060 A 
ATOM     50  C   UNL A   1      43.771  38.340  32.422  1.00  0.00     0.016 A 
ATOM     51  C   UNL A   1      43.689  38.899  34.816  1.00  0.00     0.016 A 
ATOM     52  C   UNL A   1      43.402  37.056  32.721  1.00  0.00     0.010 A 
ATOM     53  C   UNL A   1      43.270  37.635  35.107  1.00  0.00     0.010 A 
ATOM     54  C   UNL A   1      43.046  36.766  34.042  1.00  0.00    -0.014 A 
BRANCH  54  55
ATOM     55  C   UNL A   1      42.531  35.453  34.325  1.00  0.00     0.031 A 
ATOM     56  C   UNL A   1      43.489  34.410  33.924  1.00  0.00     0.074 A 
ATOM     57  C   UNL A   1      41.368  35.279  34.976  1.00  0.00     0.049 A 
ATOM     58  N   UNL A   1      43.365  33.558  32.964  1.00  0.00    -0.248 NA
ATOM     59  C   UNL A   1      44.841  34.470  34.508  1.00  0.00     0.031 C 
ATOM     60  C   UNL A   1      40.547  36.301  35.633  1.00  0.00     0.029 A 
ATOM     61  N   UNL A   1      40.730  34.122  35.288  1.00  0.00    -0.354 N 
ATOM     62  C   UNL A   1      44.544  32.821  32.987  1.00  0.00     0.074 A 
ATOM     63  C   UNL A   1      45.486  33.583  33.754  1.00  0.00     0.031 C 
ATOM     64  C   UNL A   1      39.658  35.693  36.450  1.00  0.00     0.029 A 
ATOM     65  C   UNL A   1      39.776  34.254  36.287  1.00  0.00     0.049 A 
ATOM     66  H   UNL A   1      40.925  33.265  34.843  1.00  0.00     0.167 HD
ATOM     67  C   UNL A   1      44.505  31.493  32.704  1.00  0.00     0.037 A 
ATOM     68  C   UNL A   1      39.214  33.235  36.983  1.00  0.00     0.037 A 
ATOM     69  C   UNL A   1      43.320  31.185  31.932  1.00  0.00     0.049 A 
ATOM     70  C   UNL A   1      39.442  31.992  36.201  1.00  0.00     0.074 A 
ATOM     71  C   UNL A   1      42.815  31.567  30.706  1.00  0.00     0.029 A 
ATOM     72  N   UNL A   1      42.269  30.642  32.627  1.00  0.00    -0.354 N 
ATOM     73  N   UNL A   1      38.872  31.734  35.056  1.00  0.00    -0.248 NA
ATOM     74  C   UNL A   1      40.626  31.197  36.494  1.00  0.00     0.031 C 
ATOM     75  C   UNL A   1      41.394  31.560  30.853  1.00  0.00     0.029 A 
ATOM     76  C   UNL A   1      41.088  31.132  32.146  1.00  0.00     0.049 A 
ATOM     77  H   UNL A   1      42.353  29.994  33.363  1.00  0.00     0.167 HD
ATOM     78  C   UNL A   1      39.849  31.088  34.314  1.00  0.00     0.074 A 
ATOM     79  C   UNL A   1      40.839  30.655  35.293  1.00  0.00     0.031 C 
ATOM     80  C   UNL A   1      39.895  31.244  32.957  1.00  0.00     0.037 A 
BRANCH  67  81
ATOM     81  C   UNL A   1      45.195  30.447  33.574  1.00  0.00     0.064 A 
ATOM     82  C   UNL A   1      44.908  30.456  34.954  1.00  0.00     0.173 A 
ATOM     83  C   UNL A   1      46.338  29.697  33.208  1.00  0.00     0.173 A 
ATOM     84  F   UNL A   1      43.834  31.109  35.424  1.00  0.00    -0.203 F 
ATOM     85  C   UNL A   1      45.780  29.904  35.895  1.00  0.00     0.198 A 
ATOM     86  C   UNL A   1      47.184  29.113  34.149  1.00  0.00     0.198 A 
ATOM     87  F   UNL A   1      46.757  29.557  31.949  1.00  0.00    -0.203 F 
ATOM     88  F   UNL A   1      45.542  30.082  37.201  1.00  0.00    -0.200 F 
ATOM     89  C   UNL A   1      46.930  29.254  35.493  1.00  0.00     0.200 A 
ATOM     90  F   UNL A   1      48.295  28.487  33.733  1.00  0.00    -0.200 F 
ATOM     91  F   UNL A   1      47.810  28.800  36.394  1.00  0.00    -0.200 F 
ENDBRANCH  67  81
BRANCH  68  92
ATOM     92  C   UNL A   1      38.778  33.208  38.400  1.00  0.00     0.064 A 
ATOM     93  C   UNL A   1      37.426  33.017  38.732  1.00  0.00     0.173 A 
ATOM     94  C   UNL A   1      39.700  33.091  39.459  1.00  0.00     0.173 A 
ATOM     95  F   UNL A   1      36.484  33.067  37.778  1.00  0.00    -0.203 F 
ATOM     96  C   UNL A   1      37.025  32.698  40.033  1.00  0.00     0.198 A 
ATOM     97  C   UNL A   1      39.299  32.785  40.760  1.00  0.00     0.198 A 
ATOM     98  F   UNL A   1      41.020  33.174  39.240  1.00  0.00    -0.203 F 
ATOM     99  F   UNL A   1      35.733  32.454  40.294  1.00  0.00    -0.200 F 
ATOM    100  C   UNL A   1      37.963  32.573  41.043  1.00  0.00     0.200 A 
ATOM    101  F   UNL A   1      40.220  32.633  41.721  1.00  0.00    -0.200 F 
ATOM    102  F   UNL A   1      37.587  32.206  42.277  1.00  0.00    -0.200 F 
ENDBRANCH  68  92
BRANCH  80 103
ATOM    103  C   UNL A   1      38.655  31.762  32.286  1.00  0.00     0.064 A 
ATOM    104  C   UNL A   1      38.360  33.123  32.096  1.00  0.00     0.173 A 
ATOM    105  C   UNL A   1      37.771  30.827  31.732  1.00  0.00     0.173 A 
ATOM    106  F   UNL A   1      39.206  34.077  32.507  1.00  0.00    -0.203 F 
ATOM    107  C   UNL A   1      37.201  33.523  31.435  1.00  0.00     0.198 A 
ATOM    108  C   UNL A   1      36.636  31.228  31.034  1.00  0.00     0.198 A 
ATOM    109  F   UNL A   1      38.029  29.513  31.837  1.00  0.00    -0.203 F 
ATOM    110  F   UNL A   1      36.923  34.828  31.293  1.00  0.00    -0.200 F 
ATOM    111  C   UNL A   1      36.343  32.576  30.900  1.00  0.00     0.200 A 
ATOM    112  F   UNL A   1      35.838  30.309  30.478  1.00  0.00    -0.200 F 
ATOM    113  F   UNL A   1      35.246  32.960  30.234  1.00  0.00    -0.200 F 
ENDBRANCH  80 103
ENDBRANCH  54  55
ENDBRANCH  47  49
ENDBRANCH  46  47
ENDBRANCH  45  46
ENDBRANCH  44  45
ENDBRANCH  43  44
ENDBRANCH  42  43
ENDBRANCH  41  42
ENDBRANCH   1  41
TORSDOF 26
ENDMDL
MODEL 3
REMARK VINA RESULT:      -7.7      4.739     12.477
REMARK SMILES COc1cccc(-n2cc(C(=O)OCCOCCOCCOCCOC(=O)c3ccc(-c4c5nc(c(-c6c(F)c(F)c(F)c(F)c6F)c6ccc([nH]6)c(-c6c(F)c(F)c(F)c(F)c6F)c6nc(c(-c7c(F)c(F)c(F)c(F)c7F)c7ccc4[nH]7)C=C6)C=C5)cc3)c3c2[C@H](c2cc(OC)c(OC)c(OC)c2)CC(=O)N3)c1
REMARK SMILES IDX 19 1 18 2 17 3 16 4 15 5 14 6 13 7 11 8 12 9 10 10 8 11 9 12
REMARK SMILES IDX 92 13 91 14 93 15 109 16 106 17 107 18 108 20 7 21 3 22 4 23
REMARK SMILES IDX 110 24 5 25 6 26 2 27 1 28 94 29 95 30 105 31 96 32 102 33
REMARK SMILES IDX 99 34 97 35 98 36 103 37 104 38 100 39 101 40 20 41 21 42
REMARK SMILES IDX 22 43 23 44 24 45 25 46 26 47 27 48 28 49 29 50 90 51 30 52
REMARK SMILES IDX 89 53 31 54 32 55 33 56 83 57 34 58 88 59 82 60 84 61 35 62
REMARK SMILES IDX 87 63 81 64 80 65 36 67 68 68 48 69 67 70 49 71 52 72 66 73
REMARK SMILES IDX 85 74 50 75 51 76 65 78 86 79 53 80 37 81 38 82 46 83 39 84
REMARK SMILES IDX 40 85 44 86 47 87 41 88 42 89 45 90 43 91 69 92 70 93 78 94
REMARK SMILES IDX 71 95 72 96 76 97 79 98 73 99 74 100 77 101 75 102 54 103
REMARK SMILES IDX 55 104 63 105 56 106 57 107 61 108 64 109 58 110 59 111
REMARK SMILES IDX 62 112 60 113
REMARK H PARENT 109 19 84 66 52 77
REMARK Flexibility Score: inf
ROOT
ATOM      1  O   UNL A   1      46.026  28.794  38.581  1.00  0.00    -0.377 OA
ENDROOT
BRANCH   1   2
ATOM      2  C   UNL A   1      46.461  28.374  37.298  1.00  0.00     0.188 C 
BRANCH   2   3
ATOM      3  C   UNL A   1      45.480  27.498  36.491  1.00  0.00     0.188 C 
BRANCH   3   4
ATOM      4  O   UNL A   1      44.132  27.892  36.654  1.00  0.00    -0.376 OA
BRANCH   4   5
ATOM      5  C   UNL A   1      43.657  29.122  36.160  1.00  0.00     0.202 C 
BRANCH   5   6
ATOM      6  C   UNL A   1      42.344  29.749  36.656  1.00  0.00     0.261 C 
BRANCH   6   7
ATOM      7  O   UNL A   1      41.123  29.289  36.070  1.00  0.00    -0.460 OA
BRANCH   7   8
ATOM      8  C   UNL A   1      40.481  30.136  35.230  1.00  0.00     0.341 C 
ATOM      9  O   UNL A   1      39.850  29.781  34.231  1.00  0.00    -0.246 OA
BRANCH   8  10
ATOM     10  C   UNL A   1      40.477  31.492  35.750  1.00  0.00     0.102 A 
ATOM     11  N   UNL A   1      41.048  33.665  36.019  1.00  0.00    -0.317 N 
ATOM     12  C   UNL A   1      41.367  32.487  35.375  1.00  0.00     0.109 A 
ATOM     13  C   UNL A   1      40.023  33.391  36.904  1.00  0.00     0.055 A 
ATOM     14  C   UNL A   1      39.570  32.117  36.637  1.00  0.00     0.078 A 
ATOM     15  C   UNL A   1      39.484  34.224  38.041  1.00  0.00     0.078 C 
ATOM     16  N   UNL A   1      38.451  31.625  37.265  1.00  0.00    -0.324 N 
ATOM     17  C   UNL A   1      37.975  33.901  38.141  1.00  0.00     0.115 C 
ATOM     18  C   UNL A   1      37.660  32.405  38.071  1.00  0.00     0.225 C 
ATOM     19  H   UNL A   1      38.209  30.681  37.131  1.00  0.00     0.170 HD
ATOM     20  O   UNL A   1      36.700  31.922  38.671  1.00  0.00    -0.275 OA
BRANCH  11  21
ATOM     21  C   UNL A   1      41.834  34.830  35.915  1.00  0.00     0.049 A 
ATOM     22  C   UNL A   1      42.555  36.812  34.748  1.00  0.00     0.120 A 
ATOM     23  C   UNL A   1      43.464  37.060  35.787  1.00  0.00     0.046 A 
ATOM     24  C   UNL A   1      41.709  35.699  34.819  1.00  0.00     0.073 A 
ATOM     25  C   UNL A   1      43.590  36.178  36.857  1.00  0.00     0.006 A 
ATOM     26  C   UNL A   1      42.812  35.030  36.892  1.00  0.00     0.027 A 
BRANCH  22  27
ATOM     27  O   UNL A   1      42.651  37.719  33.730  1.00  0.00    -0.497 OA
ATOM     28  C   UNL A   1      43.281  38.963  33.987  1.00  0.00     0.278 C 
ENDBRANCH  22  27
ENDBRANCH  11  21
BRANCH  15  29
ATOM     29  C   UNL A   1      40.272  33.939  39.332  1.00  0.00    -0.031 A 
ATOM     30  C   UNL A   1      40.264  34.898  40.346  1.00  0.00     0.055 A 
ATOM     31  C   UNL A   1      41.110  32.830  39.523  1.00  0.00     0.055 A 
ATOM     32  C   UNL A   1      41.203  34.883  41.381  1.00  0.00     0.164 A 
ATOM     33  C   UNL A   1      41.970  32.719  40.637  1.00  0.00     0.164 A 
ATOM     34  C   UNL A   1      42.052  33.778  41.561  1.00  0.00     0.203 A 
BRANCH  32  35
ATOM     35  O   UNL A   1      41.175  36.009  42.172  1.00  0.00    -0.493 OA
ATOM     36  C   UNL A   1      39.961  36.758  42.100  1.00  0.00     0.278 C 
ENDBRANCH  32  35
BRANCH  33  37
ATOM     37  O   UNL A   1      42.789  31.632  40.814  1.00  0.00    -0.493 OA
ATOM     38  C   UNL A   1      44.040  31.622  40.134  1.00  0.00     0.278 C 
ENDBRANCH  33  37
BRANCH  34  39
ATOM     39  O   UNL A   1      42.890  33.867  42.641  1.00  0.00    -0.490 OA
ATOM     40  C   UNL A   1      42.547  33.221  43.853  1.00  0.00     0.278 C 
ENDBRANCH  34  39
ENDBRANCH  15  29
ENDBRANCH   8  10
ENDBRANCH   7   8
ENDBRANCH   6   7
ENDBRANCH   5   6
ENDBRANCH   4   5
ENDBRANCH   3   4
ENDBRANCH   2   3
ENDBRANCH   1   2
BRANCH   1  41
ATOM     41  C   UNL A   1      46.147  27.908  39.696  1.00  0.00     0.188 C 
BRANCH  41  42
ATOM     42  C   UNL A   1      45.410  26.540  39.816  1.00  0.00     0.188 C 
BRANCH  42  43
ATOM     43  O   UNL A   1      46.174  25.392  39.487  1.00  0.00    -0.376 OA
BRANCH  43  44
ATOM     44  C   UNL A   1      45.589  24.136  39.219  1.00  0.00     0.202 C 
BRANCH  44  45
ATOM     45  C   UNL A   1      46.294  23.272  38.185  1.00  0.00     0.261 C 
BRANCH  45  46
ATOM     46  O   UNL A   1      45.396  22.653  37.286  1.00  0.00    -0.460 OA
BRANCH  46  47
ATOM     47  C   UNL A   1      45.828  22.605  36.016  1.00  0.00     0.338 C 
ATOM     48  O   UNL A   1      46.450  21.700  35.470  1.00  0.00    -0.246 OA
BRANCH  47  49
ATOM     49  C   UNL A   1      45.580  23.906  35.412  1.00  0.00     0.060 A 
ATOM     50  C   UNL A   1      44.241  24.283  35.320  1.00  0.00     0.016 A 
ATOM     51  C   UNL A   1      46.582  24.424  34.578  1.00  0.00     0.016 A 
ATOM     52  C   UNL A   1      43.854  24.946  34.186  1.00  0.00     0.010 A 
ATOM     53  C   UNL A   1      46.190  25.037  33.425  1.00  0.00     0.010 A 
ATOM     54  C   UNL A   1      44.824  25.203  33.212  1.00  0.00    -0.014 A 
BRANCH  54  55
ATOM     55  C   UNL A   1      44.388  25.779  31.967  1.00  0.00     0.031 A 
ATOM     56  C   UNL A   1      44.527  24.817  30.861  1.00  0.00     0.074 A 
ATOM     57  C   UNL A   1      43.833  27.001  31.915  1.00  0.00     0.049 A 
ATOM     58  N   UNL A   1      45.347  24.876  29.869  1.00  0.00    -0.248 NA
ATOM     59  C   UNL A   1      43.832  23.524  30.997  1.00  0.00     0.031 C 
ATOM     60  C   UNL A   1      43.427  27.850  33.038  1.00  0.00     0.029 A 
ATOM     61  N   UNL A   1      43.405  27.698  30.831  1.00  0.00    -0.354 N 
ATOM     62  C   UNL A   1      45.096  23.725  29.130  1.00  0.00     0.074 A 
ATOM     63  C   UNL A   1      44.372  22.837  29.993  1.00  0.00     0.031 C 
ATOM     64  C   UNL A   1      42.613  28.828  32.581  1.00  0.00     0.029 A 
ATOM     65  C   UNL A   1      42.535  28.736  31.133  1.00  0.00     0.049 A 
ATOM     66  H   UNL A   1      43.688  27.486  29.911  1.00  0.00     0.167 HD
ATOM     67  C   UNL A   1      45.168  23.775  27.774  1.00  0.00     0.037 A 
ATOM     68  C   UNL A   1      41.744  29.387  30.245  1.00  0.00     0.037 A 
ATOM     69  C   UNL A   1      45.992  24.892  27.362  1.00  0.00     0.049 A 
ATOM     70  C   UNL A   1      42.295  29.123  28.891  1.00  0.00     0.074 A 
ATOM     71  C   UNL A   1      47.306  25.270  27.550  1.00  0.00     0.029 A 
ATOM     72  N   UNL A   1      45.324  26.017  26.951  1.00  0.00    -0.354 N 
ATOM     73  N   UNL A   1      43.433  29.593  28.460  1.00  0.00    -0.248 NA
ATOM     74  C   UNL A   1      41.768  27.994  28.137  1.00  0.00     0.031 C 
ATOM     75  C   UNL A   1      47.295  26.698  27.585  1.00  0.00     0.029 A 
ATOM     76  C   UNL A   1      45.987  27.134  27.373  1.00  0.00     0.049 A 
ATOM     77  H   UNL A   1      44.490  26.020  26.428  1.00  0.00     0.167 HD
ATOM     78  C   UNL A   1      43.968  28.570  27.692  1.00  0.00     0.074 A 
ATOM     79  C   UNL A   1      42.843  27.686  27.408  1.00  0.00     0.031 C 
ATOM     80  C   UNL A   1      45.321  28.393  27.629  1.00  0.00     0.037 A 
BRANCH  67  81
ATOM     81  C   UNL A   1      44.083  23.198  26.871  1.00  0.00     0.064 A 
ATOM     82  C   UNL A   1      42.757  23.622  27.095  1.00  0.00     0.173 A 
ATOM     83  C   UNL A   1      44.209  22.039  26.069  1.00  0.00     0.173 A 
ATOM     84  F   UNL A   1      42.506  24.725  27.817  1.00  0.00    -0.203 F 
ATOM     85  C   UNL A   1      41.657  22.861  26.691  1.00  0.00     0.198 A 
ATOM     86  C   UNL A   1      43.108  21.305  25.633  1.00  0.00     0.198 A 
ATOM     87  F   UNL A   1      45.383  21.498  25.735  1.00  0.00    -0.203 F 
ATOM     88  F   UNL A   1      40.426  23.227  27.069  1.00  0.00    -0.200 F 
ATOM     89  C   UNL A   1      41.835  21.690  25.981  1.00  0.00     0.200 A 
ATOM     90  F   UNL A   1      43.307  20.170  24.946  1.00  0.00    -0.200 F 
ATOM     91  F   UNL A   1      40.790  20.915  25.667  1.00  0.00    -0.200 F 
ENDBRANCH  67  81
BRANCH  68  92
ATOM     92  C   UNL A   1      40.388  29.953  30.450  1.00  0.00     0.064 A 
ATOM     93  C   UNL A   1      40.132  31.312  30.199  1.00  0.00     0.173 A 
ATOM     94  C   UNL A   1      39.259  29.130  30.628  1.00  0.00     0.173 A 
ATOM     95  F   UNL A   1      41.147  32.160  29.974  1.00  0.00    -0.203 F 
ATOM     96  C   UNL A   1      38.828  31.809  30.101  1.00  0.00     0.198 A 
ATOM     97  C   UNL A   1      37.958  29.629  30.541  1.00  0.00     0.198 A 
ATOM     98  F   UNL A   1      39.387  27.806  30.792  1.00  0.00    -0.203 F 
ATOM     99  F   UNL A   1      38.626  33.097  29.790  1.00  0.00    -0.200 F 
ATOM    100  C   UNL A   1      37.743  30.965  30.262  1.00  0.00     0.200 A 
ATOM    101  F   UNL A   1      36.918  28.794  30.666  1.00  0.00    -0.200 F 
ATOM    102  F   UNL A   1      36.495  31.427  30.106  1.00  0.00    -0.200 F 
ENDBRANCH  68  92
BRANCH  80 103
ATOM    103  C   UNL A   1      46.182  29.551  28.049  1.00  0.00     0.064 A 
ATOM    104  C   UNL A   1      46.579  29.811  29.372  1.00  0.00     0.173 A 
ATOM    105  C   UNL A   1      46.697  30.382  27.045  1.00  0.00     0.173 A 
ATOM    106  F   UNL A   1      46.210  29.003  30.374  1.00  0.00    -0.203 F 
ATOM    107  C   UNL A   1      47.405  30.890  29.676  1.00  0.00     0.198 A 
ATOM    108  C   UNL A   1      47.557  31.434  27.347  1.00  0.00     0.198 A 
ATOM    109  F   UNL A   1      46.393  30.149  25.757  1.00  0.00    -0.203 F 
ATOM    110  F   UNL A   1      47.746  31.138  30.950  1.00  0.00    -0.200 F 
ATOM    111  C   UNL A   1      47.897  31.698  28.663  1.00  0.00     0.200 A 
ATOM    112  F   UNL A   1      48.068  32.179  26.359  1.00  0.00    -0.200 F 
ATOM    113  F   UNL A   1      48.719  32.715  28.953  1.00  0.00    -0.200 F 
ENDBRANCH  80 103
ENDBRANCH  54  55
ENDBRANCH  47  49
ENDBRANCH  46  47
ENDBRANCH  45  46
ENDBRANCH  44  45
ENDBRANCH  43  44
ENDBRANCH  42  43
ENDBRANCH  41  42
ENDBRANCH   1  41
TORSDOF 26
ENDMDL
