MODEL 1
REMARK VINA RESULT:     -10.4      0.000      0.000
REMARK SMILES NS(=O)(=O)CCNC(=O)N1[C@@H]2CC[C@H]1C[C@H](CC(=O)OCCOCCOCCOCCOC(=O)c1ccc(-c3c4nc(c(-c5c(F)c(F)c(F)c(F)c5F)c5ccc([nH]5)c(-c5c(F)c(F)c(F)c(F)c5F)c5nc(c(-c6c(F)c(F)c(F)c(F)c6F)c6ccc3[nH]6)C=C5)C=C4)cc1)C2
REMARK SMILES IDX 24 1 23 2 22 3 21 4 20 5 18 6 19 7 17 8 16 9 10 10 11 11
REMARK SMILES IDX 14 12 12 13 98 14 13 15 15 16 8 17 7 18 9 20 6 21 5 22 2 23
REMARK SMILES IDX 3 24 4 25 1 26 25 29 26 30 27 31 28 32 29 33 30 34 31 35
REMARK SMILES IDX 32 36 33 37 34 38 35 39 36 40 97 41 37 42 96 43 38 44 39 45
REMARK SMILES IDX 40 46 90 47 41 48 95 49 89 50 91 51 42 52 94 53 88 54 87 55
REMARK SMILES IDX 43 57 75 58 55 59 74 60 56 61 59 62 73 63 92 64 57 65 58 66
REMARK SMILES IDX 72 68 93 69 60 70 44 71 45 72 53 73 46 74 47 75 51 76 54 77
REMARK SMILES IDX 48 78 49 79 52 80 50 81 76 82 77 83 85 84 78 85 79 86 83 87
REMARK SMILES IDX 86 88 80 89 81 90 84 91 82 92 61 93 62 94 70 95 63 96 64 97
REMARK SMILES IDX 68 98 71 99 65 100 66 101 69 102 67 103
REMARK H PARENT 7 19 1 27 1 28 91 56 59 67
REMARK Flexibility Score: inf
ROOT
ATOM      1  C   UNL A   1      35.282  31.373  27.622  1.00  0.00     0.188 C 
ENDROOT
BRANCH   1   2
ATOM      2  O   UNL A   1      35.186  30.079  28.166  1.00  0.00    -0.376 OA
BRANCH   2   3
ATOM      3  C   UNL A   1      34.733  29.004  27.367  1.00  0.00     0.202 C 
BRANCH   3   4
ATOM      4  C   UNL A   1      33.582  29.079  26.340  1.00  0.00     0.261 C 
BRANCH   4   5
ATOM      5  O   UNL A   1      33.048  27.856  25.813  1.00  0.00    -0.463 OA
BRANCH   5   6
ATOM      6  C   UNL A   1      33.634  27.366  24.699  1.00  0.00     0.306 C 
ATOM      7  O   UNL A   1      33.871  28.040  23.700  1.00  0.00    -0.252 OA
BRANCH   6   8
ATOM      8  C   UNL A   1      34.013  25.895  24.757  1.00  0.00     0.126 C 
BRANCH   8   9
ATOM      9  C   UNL A   1      33.020  24.781  25.142  1.00  0.00     0.004 C 
ATOM     10  N   UNL A   1      33.077  21.996  25.814  1.00  0.00    -0.319 N 
ATOM     11  C   UNL A   1      32.685  22.904  26.877  1.00  0.00     0.087 C 
ATOM     12  C   UNL A   1      32.285  22.367  24.658  1.00  0.00     0.087 C 
ATOM     13  C   UNL A   1      31.164  23.003  26.729  1.00  0.00     0.027 C 
ATOM     14  C   UNL A   1      33.389  24.234  26.555  1.00  0.00     0.029 C 
ATOM     15  C   UNL A   1      30.894  22.613  25.269  1.00  0.00     0.027 C 
ATOM     16  C   UNL A   1      32.880  23.664  24.084  1.00  0.00     0.029 C 
BRANCH  10  17
ATOM     17  C   UNL A   1      34.027  21.055  26.004  1.00  0.00     0.317 C 
ATOM     18  N   UNL A   1      33.732  19.738  25.974  1.00  0.00    -0.337 N 
ATOM     19  H   UNL A   1      34.322  19.182  26.531  1.00  0.00     0.165 HD
ATOM     20  O   UNL A   1      35.214  21.348  26.167  1.00  0.00    -0.249 OA
BRANCH  18  21
ATOM     21  C   UNL A   1      32.700  18.990  25.271  1.00  0.00     0.135 C 
BRANCH  21  22
ATOM     22  C   UNL A   1      32.931  17.485  25.319  1.00  0.00     0.175 C 
BRANCH  22  23
ATOM     23  S   UNL A   1      34.261  16.958  24.257  1.00  0.00     0.210 S 
ATOM     24  O   UNL A   1      35.382  17.857  24.432  1.00  0.00    -0.213 OA
ATOM     25  O   UNL A   1      33.740  16.638  22.953  1.00  0.00    -0.213 OA
BRANCH  23  26
ATOM     26  N   UNL A   1      34.740  15.508  24.938  1.00  0.00    -0.229 NA
ATOM     27  H   UNL A   1      35.097  14.892  24.208  1.00  0.00     0.137 HD
ATOM     28  H   UNL A   1      33.942  15.067  25.395  1.00  0.00     0.137 HD
ENDBRANCH  23  26
ENDBRANCH  22  23
ENDBRANCH  21  22
ENDBRANCH  18  21
ENDBRANCH  10  17
ENDBRANCH   8   9
ENDBRANCH   6   8
ENDBRANCH   5   6
ENDBRANCH   4   5
ENDBRANCH   3   4
ENDBRANCH   2   3
ENDBRANCH   1   2
BRANCH   1  29
ATOM     29  C   UNL A   1      34.220  32.349  28.140  1.00  0.00     0.188 C 
BRANCH  29  30
ATOM     30  O   UNL A   1      34.156  33.657  27.591  1.00  0.00    -0.377 OA
BRANCH  30  31
ATOM     31  C   UNL A   1      34.368  34.793  28.427  1.00  0.00     0.188 C 
BRANCH  31  32
ATOM     32  C   UNL A   1      33.282  35.257  29.418  1.00  0.00     0.188 C 
BRANCH  32  33
ATOM     33  O   UNL A   1      33.712  35.369  30.762  1.00  0.00    -0.376 OA
BRANCH  33  34
ATOM     34  C   UNL A   1      34.689  34.453  31.232  1.00  0.00     0.202 C 
BRANCH  34  35
ATOM     35  C   UNL A   1      34.257  33.395  32.261  1.00  0.00     0.261 C 
BRANCH  35  36
ATOM     36  O   UNL A   1      34.993  32.161  32.258  1.00  0.00    -0.460 OA
BRANCH  36  37
ATOM     37  C   UNL A   1      36.130  32.104  32.982  1.00  0.00     0.338 C 
ATOM     38  O   UNL A   1      36.301  32.472  34.128  1.00  0.00    -0.246 OA
BRANCH  37  39
ATOM     39  C   UNL A   1      37.124  31.345  32.196  1.00  0.00     0.060 A 
ATOM     40  C   UNL A   1      38.086  30.582  32.869  1.00  0.00     0.016 A 
ATOM     41  C   UNL A   1      37.114  31.406  30.802  1.00  0.00     0.016 A 
ATOM     42  C   UNL A   1      39.070  29.906  32.146  1.00  0.00     0.010 A 
ATOM     43  C   UNL A   1      38.112  30.744  30.080  1.00  0.00     0.010 A 
ATOM     44  C   UNL A   1      39.116  30.022  30.752  1.00  0.00    -0.014 A 
BRANCH  44  45
ATOM     45  C   UNL A   1      40.316  29.559  30.015  1.00  0.00     0.031 A 
ATOM     46  C   UNL A   1      41.453  30.527  29.825  1.00  0.00     0.074 A 
ATOM     47  C   UNL A   1      40.412  28.304  29.544  1.00  0.00     0.049 A 
ATOM     48  N   UNL A   1      42.575  30.378  29.169  1.00  0.00    -0.248 NA
ATOM     49  C   UNL A   1      41.300  31.846  30.462  1.00  0.00     0.031 C 
ATOM     50  C   UNL A   1      39.403  27.261  29.707  1.00  0.00     0.029 A 
ATOM     51  N   UNL A   1      41.410  27.699  28.820  1.00  0.00    -0.354 N 
ATOM     52  C   UNL A   1      43.255  31.582  29.307  1.00  0.00     0.074 A 
ATOM     53  C   UNL A   1      42.407  32.462  30.080  1.00  0.00     0.031 C 
ATOM     54  C   UNL A   1      39.826  26.145  29.089  1.00  0.00     0.029 A 
ATOM     55  C   UNL A   1      41.118  26.408  28.453  1.00  0.00     0.049 A 
ATOM     56  H   UNL A   1      42.254  28.148  28.586  1.00  0.00     0.167 HD
ATOM     57  C   UNL A   1      44.479  31.920  28.837  1.00  0.00     0.037 A 
ATOM     58  C   UNL A   1      41.804  25.551  27.672  1.00  0.00     0.037 A 
ATOM     59  C   UNL A   1      45.318  31.041  28.066  1.00  0.00     0.049 A 
ATOM     60  C   UNL A   1      43.127  25.982  27.087  1.00  0.00     0.074 A 
ATOM     61  C   UNL A   1      46.581  31.283  27.556  1.00  0.00     0.029 A 
ATOM     62  N   UNL A   1      44.972  29.752  27.684  1.00  0.00    -0.354 N 
ATOM     63  N   UNL A   1      43.774  27.112  27.240  1.00  0.00    -0.248 NA
ATOM     64  C   UNL A   1      43.817  25.014  26.221  1.00  0.00     0.031 C 
ATOM     65  C   UNL A   1      46.972  30.166  26.811  1.00  0.00     0.029 A 
ATOM     66  C   UNL A   1      45.985  29.199  26.918  1.00  0.00     0.049 A 
ATOM     67  H   UNL A   1      44.132  29.299  27.923  1.00  0.00     0.167 HD
ATOM     68  C   UNL A   1      44.959  26.977  26.525  1.00  0.00     0.074 A 
ATOM     69  C   UNL A   1      44.947  25.650  25.948  1.00  0.00     0.031 C 
ATOM     70  C   UNL A   1      45.967  27.871  26.361  1.00  0.00     0.037 A 
BRANCH  57  71
ATOM     71  C   UNL A   1      44.971  33.311  29.112  1.00  0.00     0.064 A 
ATOM     72  C   UNL A   1      44.693  34.383  28.250  1.00  0.00     0.173 A 
ATOM     73  C   UNL A   1      45.704  33.584  30.279  1.00  0.00     0.173 A 
ATOM     74  F   UNL A   1      44.010  34.174  27.113  1.00  0.00    -0.203 F 
ATOM     75  C   UNL A   1      45.149  35.668  28.532  1.00  0.00     0.198 A 
ATOM     76  C   UNL A   1      46.128  34.876  30.574  1.00  0.00     0.198 A 
ATOM     77  F   UNL A   1      45.996  32.597  31.139  1.00  0.00    -0.203 F 
ATOM     78  F   UNL A   1      44.913  36.665  27.668  1.00  0.00    -0.200 F 
ATOM     79  C   UNL A   1      45.858  35.915  29.697  1.00  0.00     0.200 A 
ATOM     80  F   UNL A   1      46.800  35.116  31.709  1.00  0.00    -0.200 F 
ATOM     81  F   UNL A   1      46.287  37.155  29.972  1.00  0.00    -0.200 F 
ENDBRANCH  57  71
BRANCH  58  82
ATOM     82  C   UNL A   1      41.251  24.202  27.372  1.00  0.00     0.064 A 
ATOM     83  C   UNL A   1      40.119  24.045  26.560  1.00  0.00     0.173 A 
ATOM     84  C   UNL A   1      41.819  23.044  27.925  1.00  0.00     0.173 A 
ATOM     85  F   UNL A   1      39.523  25.123  26.028  1.00  0.00    -0.203 F 
ATOM     86  C   UNL A   1      39.562  22.787  26.334  1.00  0.00     0.198 A 
ATOM     87  C   UNL A   1      41.282  21.784  27.669  1.00  0.00     0.198 A 
ATOM     88  F   UNL A   1      42.902  23.134  28.710  1.00  0.00    -0.203 F 
ATOM     89  F   UNL A   1      38.445  22.675  25.601  1.00  0.00    -0.200 F 
ATOM     90  C   UNL A   1      40.146  21.658  26.884  1.00  0.00     0.200 A 
ATOM     91  F   UNL A   1      41.860  20.694  28.192  1.00  0.00    -0.200 F 
ATOM     92  F   UNL A   1      39.610  20.449  26.666  1.00  0.00    -0.200 F 
ENDBRANCH  58  82
BRANCH  70  93
ATOM     93  C   UNL A   1      47.167  27.429  25.571  1.00  0.00     0.064 A 
ATOM     94  C   UNL A   1      47.300  27.708  24.202  1.00  0.00     0.173 A 
ATOM     95  C   UNL A   1      48.222  26.756  26.206  1.00  0.00     0.173 A 
ATOM     96  F   UNL A   1      46.317  28.338  23.542  1.00  0.00    -0.203 F 
ATOM     97  C   UNL A   1      48.428  27.301  23.494  1.00  0.00     0.198 A 
ATOM     98  C   UNL A   1      49.366  26.384  25.504  1.00  0.00     0.198 A 
ATOM     99  F   UNL A   1      48.154  26.472  27.515  1.00  0.00    -0.203 F 
ATOM    100  F   UNL A   1      48.509  27.529  22.175  1.00  0.00    -0.200 F 
ATOM    101  C   UNL A   1      49.464  26.648  24.147  1.00  0.00     0.200 A 
ATOM    102  F   UNL A   1      50.373  25.771  26.141  1.00  0.00    -0.200 F 
ATOM    103  F   UNL A   1      50.553  26.267  23.466  1.00  0.00    -0.200 F 
ENDBRANCH  70  93
ENDBRANCH  44  45
ENDBRANCH  37  39
ENDBRANCH  36  37
ENDBRANCH  35  36
ENDBRANCH  34  35
ENDBRANCH  33  34
ENDBRANCH  32  33
ENDBRANCH  31  32
ENDBRANCH  30  31
ENDBRANCH  29  30
ENDBRANCH   1  29
TORSDOF 26
ENDMDL
MODEL 2
REMARK VINA RESULT:     -10.0      0.757      7.004
REMARK SMILES NS(=O)(=O)CCNC(=O)N1[C@@H]2CC[C@H]1C[C@H](CC(=O)OCCOCCOCCOCCOC(=O)c1ccc(-c3c4nc(c(-c5c(F)c(F)c(F)c(F)c5F)c5ccc([nH]5)c(-c5c(F)c(F)c(F)c(F)c5F)c5nc(c(-c6c(F)c(F)c(F)c(F)c6F)c6ccc3[nH]6)C=C5)C=C4)cc1)C2
REMARK SMILES IDX 24 1 23 2 22 3 21 4 20 5 18 6 19 7 17 8 16 9 10 10 11 11
REMARK SMILES IDX 14 12 12 13 98 14 13 15 15 16 8 17 7 18 9 20 6 21 5 22 2 23
REMARK SMILES IDX 3 24 4 25 1 26 25 29 26 30 27 31 28 32 29 33 30 34 31 35
REMARK SMILES IDX 32 36 33 37 34 38 35 39 36 40 97 41 37 42 96 43 38 44 39 45
REMARK SMILES IDX 40 46 90 47 41 48 95 49 89 50 91 51 42 52 94 53 88 54 87 55
REMARK SMILES IDX 43 57 75 58 55 59 74 60 56 61 59 62 73 63 92 64 57 65 58 66
REMARK SMILES IDX 72 68 93 69 60 70 44 71 45 72 53 73 46 74 47 75 51 76 54 77
REMARK SMILES IDX 48 78 49 79 52 80 50 81 76 82 77 83 85 84 78 85 79 86 83 87
REMARK SMILES IDX 86 88 80 89 81 90 84 91 82 92 61 93 62 94 70 95 63 96 64 97
REMARK SMILES IDX 68 98 71 99 65 100 66 101 69 102 67 103
REMARK H PARENT 7 19 1 27 1 28 91 56 59 67
REMARK Flexibility Score: inf
ROOT
ATOM      1  C   UNL A   1      35.208  31.436  27.689  1.00  0.00     0.188 C 
ENDROOT
BRANCH   1   2
ATOM      2  O   UNL A   1      35.193  30.112  28.166  1.00  0.00    -0.376 OA
BRANCH   2   3
ATOM      3  C   UNL A   1      34.728  29.064  27.338  1.00  0.00     0.202 C 
BRANCH   3   4
ATOM      4  C   UNL A   1      33.686  29.214  26.208  1.00  0.00     0.261 C 
BRANCH   4   5
ATOM      5  O   UNL A   1      33.240  28.036  25.522  1.00  0.00    -0.463 OA
BRANCH   5   6
ATOM      6  C   UNL A   1      33.756  27.815  24.293  1.00  0.00     0.306 C 
ATOM      7  O   UNL A   1      34.185  28.704  23.563  1.00  0.00    -0.252 OA
BRANCH   6   8
ATOM      8  C   UNL A   1      33.796  26.359  23.857  1.00  0.00     0.126 C 
BRANCH   8   9
ATOM      9  C   UNL A   1      32.967  25.251  24.536  1.00  0.00     0.004 C 
ATOM     10  N   UNL A   1      33.393  22.677  25.721  1.00  0.00    -0.319 N 
ATOM     11  C   UNL A   1      32.973  23.735  26.622  1.00  0.00     0.087 C 
ATOM     12  C   UNL A   1      32.485  22.727  24.592  1.00  0.00     0.087 C 
ATOM     13  C   UNL A   1      31.444  23.650  26.596  1.00  0.00     0.027 C 
ATOM     14  C   UNL A   1      33.495  25.037  25.989  1.00  0.00     0.029 C 
ATOM     15  C   UNL A   1      31.120  22.950  25.268  1.00  0.00     0.027 C 
ATOM     16  C   UNL A   1      32.885  23.936  23.729  1.00  0.00     0.029 C 
BRANCH  10  17
ATOM     17  C   UNL A   1      34.457  21.892  26.000  1.00  0.00     0.317 C 
ATOM     18  N   UNL A   1      34.353  20.546  26.026  1.00  0.00    -0.337 N 
ATOM     19  H   UNL A   1      34.988  20.106  26.636  1.00  0.00     0.165 HD
ATOM     20  O   UNL A   1      35.579  22.360  26.199  1.00  0.00    -0.249 OA
BRANCH  18  21
ATOM     21  C   UNL A   1      33.475  19.625  25.318  1.00  0.00     0.135 C 
BRANCH  21  22
ATOM     22  C   UNL A   1      34.240  18.624  24.465  1.00  0.00     0.175 C 
BRANCH  22  23
ATOM     23  S   UNL A   1      33.449  17.028  24.398  1.00  0.00     0.210 S 
ATOM     24  O   UNL A   1      33.891  16.241  25.529  1.00  0.00    -0.213 OA
ATOM     25  O   UNL A   1      33.501  16.520  23.051  1.00  0.00    -0.213 OA
BRANCH  23  26
ATOM     26  N   UNL A   1      31.844  17.386  24.702  1.00  0.00    -0.229 NA
ATOM     27  H   UNL A   1      31.573  18.209  24.167  1.00  0.00     0.137 HD
ATOM     28  H   UNL A   1      31.721  17.571  25.698  1.00  0.00     0.137 HD
ENDBRANCH  23  26
ENDBRANCH  22  23
ENDBRANCH  21  22
ENDBRANCH  18  21
ENDBRANCH  10  17
ENDBRANCH   8   9
ENDBRANCH   6   8
ENDBRANCH   5   6
ENDBRANCH   4   5
ENDBRANCH   3   4
ENDBRANCH   2   3
ENDBRANCH   1   2
BRANCH   1  29
ATOM     29  C   UNL A   1      34.047  32.297  28.197  1.00  0.00     0.188 C 
BRANCH  29  30
ATOM     30  O   UNL A   1      33.938  33.642  27.753  1.00  0.00    -0.377 OA
BRANCH  30  31
ATOM     31  C   UNL A   1      34.303  34.712  28.622  1.00  0.00     0.188 C 
BRANCH  31  32
ATOM     32  C   UNL A   1      33.449  35.049  29.861  1.00  0.00     0.188 C 
BRANCH  32  33
ATOM     33  O   UNL A   1      34.158  35.065  31.086  1.00  0.00    -0.376 OA
BRANCH  33  34
ATOM     34  C   UNL A   1      35.054  33.998  31.357  1.00  0.00     0.202 C 
BRANCH  34  35
ATOM     35  C   UNL A   1      34.670  32.988  32.451  1.00  0.00     0.261 C 
BRANCH  35  36
ATOM     36  O   UNL A   1      35.420  31.762  32.483  1.00  0.00    -0.460 OA
BRANCH  36  37
ATOM     37  C   UNL A   1      36.582  31.752  33.168  1.00  0.00     0.338 C 
ATOM     38  O   UNL A   1      36.764  32.068  34.328  1.00  0.00    -0.246 OA
BRANCH  37  39
ATOM     39  C   UNL A   1      37.602  31.118  32.309  1.00  0.00     0.060 A 
ATOM     40  C   UNL A   1      38.748  30.574  32.901  1.00  0.00     0.016 A 
ATOM     41  C   UNL A   1      37.433  31.082  30.924  1.00  0.00     0.016 A 
ATOM     42  C   UNL A   1      39.752  30.023  32.103  1.00  0.00     0.010 A 
ATOM     43  C   UNL A   1      38.448  30.548  30.124  1.00  0.00     0.010 A 
ATOM     44  C   UNL A   1      39.627  30.050  30.708  1.00  0.00    -0.014 A 
BRANCH  44  45
ATOM     45  C   UNL A   1      40.804  29.746  29.859  1.00  0.00     0.031 A 
ATOM     46  C   UNL A   1      40.903  28.378  29.240  1.00  0.00     0.074 A 
ATOM     47  C   UNL A   1      41.754  30.665  29.621  1.00  0.00     0.049 A 
ATOM     48  N   UNL A   1      41.858  27.857  28.514  1.00  0.00    -0.248 NA
ATOM     49  C   UNL A   1      39.766  27.472  29.476  1.00  0.00     0.031 C 
ATOM     50  C   UNL A   1      41.748  32.038  30.120  1.00  0.00     0.029 A 
ATOM     51  N   UNL A   1      42.920  30.574  28.900  1.00  0.00    -0.354 N 
ATOM     52  C   UNL A   1      41.443  26.565  28.215  1.00  0.00     0.074 A 
ATOM     53  C   UNL A   1      40.165  26.369  28.864  1.00  0.00     0.031 C 
ATOM     54  C   UNL A   1      42.865  32.659  29.702  1.00  0.00     0.029 A 
ATOM     55  C   UNL A   1      43.682  31.716  28.939  1.00  0.00     0.049 A 
ATOM     56  H   UNL A   1      43.185  29.766  28.403  1.00  0.00     0.167 HD
ATOM     57  C   UNL A   1      42.067  25.630  27.461  1.00  0.00     0.037 A 
ATOM     58  C   UNL A   1      44.910  31.958  28.438  1.00  0.00     0.037 A 
ATOM     59  C   UNL A   1      43.340  25.830  26.819  1.00  0.00     0.049 A 
ATOM     60  C   UNL A   1      45.624  30.869  27.675  1.00  0.00     0.074 A 
ATOM     61  C   UNL A   1      44.049  24.951  26.020  1.00  0.00     0.029 A 
ATOM     62  N   UNL A   1      44.098  26.989  26.910  1.00  0.00    -0.354 N 
ATOM     63  N   UNL A   1      45.216  29.659  27.376  1.00  0.00    -0.248 NA
ATOM     64  C   UNL A   1      46.972  31.183  27.175  1.00  0.00     0.031 C 
ATOM     65  C   UNL A   1      45.266  25.552  25.684  1.00  0.00     0.029 A 
ATOM     66  C   UNL A   1      45.283  26.834  26.210  1.00  0.00     0.049 A 
ATOM     67  H   UNL A   1      43.833  27.800  27.401  1.00  0.00     0.167 HD
ATOM     68  C   UNL A   1      46.236  29.084  26.626  1.00  0.00     0.074 A 
ATOM     69  C   UNL A   1      47.276  30.083  26.503  1.00  0.00     0.031 C 
ATOM     70  C   UNL A   1      46.305  27.842  26.085  1.00  0.00     0.037 A 
BRANCH  57  71
ATOM     71  C   UNL A   1      41.402  24.292  27.317  1.00  0.00     0.064 A 
ATOM     72  C   UNL A   1      40.270  24.109  26.508  1.00  0.00     0.173 A 
ATOM     73  C   UNL A   1      41.927  23.166  27.970  1.00  0.00     0.173 A 
ATOM     74  F   UNL A   1      39.718  25.155  25.873  1.00  0.00    -0.203 F 
ATOM     75  C   UNL A   1      39.676  22.856  26.378  1.00  0.00     0.198 A 
ATOM     76  C   UNL A   1      41.352  21.910  27.811  1.00  0.00     0.198 A 
ATOM     77  F   UNL A   1      43.009  23.285  28.755  1.00  0.00    -0.203 F 
ATOM     78  F   UNL A   1      38.566  22.715  25.639  1.00  0.00    -0.200 F 
ATOM     79  C   UNL A   1      40.222  21.757  27.022  1.00  0.00     0.200 A 
ATOM     80  F   UNL A   1      41.891  20.845  28.423  1.00  0.00    -0.200 F 
ATOM     81  F   UNL A   1      39.656  20.549  26.887  1.00  0.00    -0.200 F 
ENDBRANCH  57  71
BRANCH  58  82
ATOM     82  C   UNL A   1      45.562  33.278  28.657  1.00  0.00     0.064 A 
ATOM     83  C   UNL A   1      46.320  33.532  29.807  1.00  0.00     0.173 A 
ATOM     84  C   UNL A   1      45.406  34.327  27.737  1.00  0.00     0.173 A 
ATOM     85  F   UNL A   1      46.478  32.572  30.730  1.00  0.00    -0.203 F 
ATOM     86  C   UNL A   1      46.875  34.790  30.044  1.00  0.00     0.198 A 
ATOM     87  C   UNL A   1      45.990  35.573  27.957  1.00  0.00     0.198 A 
ATOM     88  F   UNL A   1      44.690  34.141  26.619  1.00  0.00    -0.203 F 
ATOM     89  F   UNL A   1      47.545  35.020  31.181  1.00  0.00    -0.200 F 
ATOM     90  C   UNL A   1      46.714  35.807  29.116  1.00  0.00     0.200 A 
ATOM     91  F   UNL A   1      45.844  36.548  27.050  1.00  0.00    -0.200 F 
ATOM     92  F   UNL A   1      47.247  37.015  29.344  1.00  0.00    -0.200 F 
ENDBRANCH  58  82
BRANCH  70  93
ATOM     93  C   UNL A   1      47.519  27.506  25.265  1.00  0.00     0.064 A 
ATOM     94  C   UNL A   1      47.569  27.733  23.882  1.00  0.00     0.173 A 
ATOM     95  C   UNL A   1      48.670  26.992  25.885  1.00  0.00     0.173 A 
ATOM     96  F   UNL A   1      46.495  28.211  23.237  1.00  0.00    -0.203 F 
ATOM     97  C   UNL A   1      48.711  27.427  23.145  1.00  0.00     0.198 A 
ATOM     98  C   UNL A   1      49.823  26.723  25.152  1.00  0.00     0.198 A 
ATOM     99  F   UNL A   1      48.683  26.765  27.207  1.00  0.00    -0.203 F 
ATOM    100  F   UNL A   1      48.716  27.600  21.816  1.00  0.00    -0.200 F 
ATOM    101  C   UNL A   1      49.840  26.932  23.783  1.00  0.00     0.200 A 
ATOM    102  F   UNL A   1      50.918  26.264  25.773  1.00  0.00    -0.200 F 
ATOM    103  F   UNL A   1      50.942  26.649  23.074  1.00  0.00    -0.200 F 
ENDBRANCH  70  93
ENDBRANCH  44  45
ENDBRANCH  37  39
ENDBRANCH  36  37
ENDBRANCH  35  36
ENDBRANCH  34  35
ENDBRANCH  33  34
ENDBRANCH  32  33
ENDBRANCH  31  32
ENDBRANCH  30  31
ENDBRANCH  29  30
ENDBRANCH   1  29
TORSDOF 26
ENDMDL
MODEL 3
REMARK VINA RESULT:      -9.3      6.462     10.795
REMARK SMILES NS(=O)(=O)CCNC(=O)N1[C@@H]2CC[C@H]1C[C@H](CC(=O)OCCOCCOCCOCCOC(=O)c1ccc(-c3c4nc(c(-c5c(F)c(F)c(F)c(F)c5F)c5ccc([nH]5)c(-c5c(F)c(F)c(F)c(F)c5F)c5nc(c(-c6c(F)c(F)c(F)c(F)c6F)c6ccc3[nH]6)C=C5)C=C4)cc1)C2
REMARK SMILES IDX 24 1 23 2 22 3 21 4 20 5 18 6 19 7 17 8 16 9 10 10 11 11
REMARK SMILES IDX 14 12 12 13 98 14 13 15 15 16 8 17 7 18 9 20 6 21 5 22 2 23
REMARK SMILES IDX 3 24 4 25 1 26 25 29 26 30 27 31 28 32 29 33 30 34 31 35
REMARK SMILES IDX 32 36 33 37 34 38 35 39 36 40 97 41 37 42 96 43 38 44 39 45
REMARK SMILES IDX 40 46 90 47 41 48 95 49 89 50 91 51 42 52 94 53 88 54 87 55
REMARK SMILES IDX 43 57 75 58 55 59 74 60 56 61 59 62 73 63 92 64 57 65 58 66
REMARK SMILES IDX 72 68 93 69 60 70 44 71 45 72 53 73 46 74 47 75 51 76 54 77
REMARK SMILES IDX 48 78 49 79 52 80 50 81 76 82 77 83 85 84 78 85 79 86 83 87
REMARK SMILES IDX 86 88 80 89 81 90 84 91 82 92 61 93 62 94 70 95 63 96 64 97
REMARK SMILES IDX 68 98 71 99 65 100 66 101 69 102 67 103
REMARK H PARENT 7 19 1 27 1 28 91 56 59 67
REMARK Flexibility Score: inf
ROOT
ATOM      1  C   UNL A   1      38.547  30.912  34.787  1.00  0.00     0.188 C 
ENDROOT
BRANCH   1   2
ATOM      2  O   UNL A   1      39.094  29.773  34.166  1.00  0.00    -0.376 OA
BRANCH   2   3
ATOM      3  C   UNL A   1      38.507  29.255  32.988  1.00  0.00     0.202 C 
BRANCH   3   4
ATOM      4  C   UNL A   1      39.248  28.436  31.909  1.00  0.00     0.261 C 
BRANCH   4   5
ATOM      5  O   UNL A   1      39.057  28.783  30.529  1.00  0.00    -0.463 OA
BRANCH   5   6
ATOM      6  C   UNL A   1      40.112  29.335  29.890  1.00  0.00     0.306 C 
ATOM      7  O   UNL A   1      40.658  28.832  28.913  1.00  0.00    -0.252 OA
BRANCH   6   8
ATOM      8  C   UNL A   1      40.588  30.665  30.451  1.00  0.00     0.126 C 
BRANCH   8   9
ATOM      9  C   UNL A   1      39.785  31.974  30.319  1.00  0.00     0.004 C 
ATOM     10  N   UNL A   1      37.249  33.026  31.142  1.00  0.00    -0.319 N 
ATOM     11  C   UNL A   1      38.422  33.643  31.735  1.00  0.00     0.087 C 
ATOM     12  C   UNL A   1      37.498  32.981  29.715  1.00  0.00     0.087 C 
ATOM     13  C   UNL A   1      38.763  34.781  30.768  1.00  0.00     0.027 C 
ATOM     14  C   UNL A   1      39.499  32.544  31.743  1.00  0.00     0.029 C 
ATOM     15  C   UNL A   1      38.121  34.361  29.438  1.00  0.00     0.027 C 
ATOM     16  C   UNL A   1      38.509  31.851  29.456  1.00  0.00     0.029 C 
BRANCH  10  17
ATOM     17  C   UNL A   1      36.214  32.604  31.900  1.00  0.00     0.317 C 
ATOM     18  N   UNL A   1      35.272  33.460  32.350  1.00  0.00    -0.337 N 
ATOM     19  H   UNL A   1      34.855  33.188  33.198  1.00  0.00     0.165 HD
ATOM     20  O   UNL A   1      36.052  31.414  32.179  1.00  0.00    -0.249 OA
BRANCH  18  21
ATOM     21  C   UNL A   1      34.763  34.713  31.811  1.00  0.00     0.135 C 
BRANCH  21  22
ATOM     22  C   UNL A   1      33.367  35.046  32.321  1.00  0.00     0.175 C 
BRANCH  22  23
ATOM     23  S   UNL A   1      32.887  36.726  31.970  1.00  0.00     0.210 S 
ATOM     24  O   UNL A   1      32.011  37.190  33.025  1.00  0.00    -0.213 OA
ATOM     25  O   UNL A   1      32.532  36.845  30.580  1.00  0.00    -0.213 OA
BRANCH  23  26
ATOM     26  N   UNL A   1      34.312  37.578  32.165  1.00  0.00    -0.229 NA
ATOM     27  H   UNL A   1      34.729  37.341  33.064  1.00  0.00     0.137 HD
ATOM     28  H   UNL A   1      34.116  38.579  32.134  1.00  0.00     0.137 HD
ENDBRANCH  23  26
ENDBRANCH  22  23
ENDBRANCH  21  22
ENDBRANCH  18  21
ENDBRANCH  10  17
ENDBRANCH   8   9
ENDBRANCH   6   8
ENDBRANCH   5   6
ENDBRANCH   4   5
ENDBRANCH   3   4
ENDBRANCH   2   3
ENDBRANCH   1   2
BRANCH   1  29
ATOM     29  C   UNL A   1      38.445  30.805  36.312  1.00  0.00     0.188 C 
BRANCH  29  30
ATOM     30  O   UNL A   1      37.385  31.472  36.982  1.00  0.00    -0.377 OA
BRANCH  30  31
ATOM     31  C   UNL A   1      37.664  32.296  38.113  1.00  0.00     0.188 C 
BRANCH  31  32
ATOM     32  C   UNL A   1      36.716  32.315  39.329  1.00  0.00     0.188 C 
BRANCH  32  33
ATOM     33  O   UNL A   1      37.198  33.034  40.448  1.00  0.00    -0.376 OA
BRANCH  33  34
ATOM     34  C   UNL A   1      38.538  33.500  40.419  1.00  0.00     0.202 C 
BRANCH  34  35
ATOM     35  C   UNL A   1      38.779  35.019  40.446  1.00  0.00     0.261 C 
BRANCH  35  36
ATOM     36  O   UNL A   1      39.480  35.576  39.321  1.00  0.00    -0.460 OA
BRANCH  36  37
ATOM     37  C   UNL A   1      40.824  35.459  39.296  1.00  0.00     0.338 C 
ATOM     38  O   UNL A   1      41.595  35.544  40.233  1.00  0.00    -0.246 OA
BRANCH  37  39
ATOM     39  C   UNL A   1      41.211  35.032  37.936  1.00  0.00     0.060 A 
ATOM     40  C   UNL A   1      40.220  34.580  37.057  1.00  0.00     0.016 A 
ATOM     41  C   UNL A   1      42.550  35.060  37.544  1.00  0.00     0.016 A 
ATOM     42  C   UNL A   1      40.572  34.116  35.788  1.00  0.00     0.010 A 
ATOM     43  C   UNL A   1      42.903  34.576  36.281  1.00  0.00     0.010 A 
ATOM     44  C   UNL A   1      41.920  34.069  35.412  1.00  0.00    -0.014 A 
BRANCH  44  45
ATOM     45  C   UNL A   1      42.318  33.309  34.203  1.00  0.00     0.031 A 
ATOM     46  C   UNL A   1      42.496  31.819  34.322  1.00  0.00     0.074 A 
ATOM     47  C   UNL A   1      42.496  33.918  33.018  1.00  0.00     0.049 A 
ATOM     48  N   UNL A   1      42.894  30.952  33.428  1.00  0.00    -0.248 NA
ATOM     49  C   UNL A   1      42.182  31.229  35.634  1.00  0.00     0.031 C 
ATOM     50  C   UNL A   1      42.305  35.343  32.762  1.00  0.00     0.029 A 
ATOM     51  N   UNL A   1      42.889  33.407  31.805  1.00  0.00    -0.354 N 
ATOM     52  C   UNL A   1      42.888  29.719  34.069  1.00  0.00     0.074 A 
ATOM     53  C   UNL A   1      42.477  29.954  35.436  1.00  0.00     0.031 C 
ATOM     54  C   UNL A   1      42.595  35.597  31.474  1.00  0.00     0.029 A 
ATOM     55  C   UNL A   1      43.029  34.359  30.825  1.00  0.00     0.049 A 
ATOM     56  H   UNL A   1      43.055  32.449  31.652  1.00  0.00     0.167 HD
ATOM     57  C   UNL A   1      43.190  28.501  33.561  1.00  0.00     0.037 A 
ATOM     58  C   UNL A   1      43.481  34.245  29.561  1.00  0.00     0.037 A 
ATOM     59  C   UNL A   1      43.601  28.274  32.201  1.00  0.00     0.049 A 
ATOM     60  C   UNL A   1      43.896  32.889  29.045  1.00  0.00     0.074 A 
ATOM     61  C   UNL A   1      43.914  27.075  31.584  1.00  0.00     0.029 A 
ATOM     62  N   UNL A   1      43.765  29.269  31.248  1.00  0.00    -0.354 N 
ATOM     63  N   UNL A   1      43.864  31.725  29.648  1.00  0.00    -0.248 NA
ATOM     64  C   UNL A   1      44.406  32.831  27.666  1.00  0.00     0.031 C 
ATOM     65  C   UNL A   1      44.332  27.352  30.279  1.00  0.00     0.029 A 
ATOM     66  C   UNL A   1      44.207  28.715  30.058  1.00  0.00     0.049 A 
ATOM     67  H   UNL A   1      43.593  30.227  31.396  1.00  0.00     0.167 HD
ATOM     68  C   UNL A   1      44.312  30.796  28.716  1.00  0.00     0.074 A 
ATOM     69  C   UNL A   1      44.596  31.530  27.501  1.00  0.00     0.031 C 
ATOM     70  C   UNL A   1      44.473  29.456  28.851  1.00  0.00     0.037 A 
BRANCH  57  71
ATOM     71  C   UNL A   1      43.123  27.323  34.489  1.00  0.00     0.064 A 
ATOM     72  C   UNL A   1      44.251  26.858  35.183  1.00  0.00     0.173 A 
ATOM     73  C   UNL A   1      41.901  26.671  34.717  1.00  0.00     0.173 A 
ATOM     74  F   UNL A   1      45.447  27.435  34.990  1.00  0.00    -0.203 F 
ATOM     75  C   UNL A   1      44.162  25.771  36.049  1.00  0.00     0.198 A 
ATOM     76  C   UNL A   1      41.809  25.607  35.609  1.00  0.00     0.198 A 
ATOM     77  F   UNL A   1      40.791  27.076  34.081  1.00  0.00    -0.203 F 
ATOM     78  F   UNL A   1      45.263  25.314  36.662  1.00  0.00    -0.200 F 
ATOM     79  C   UNL A   1      42.941  25.153  36.268  1.00  0.00     0.200 A 
ATOM     80  F   UNL A   1      40.624  25.021  35.831  1.00  0.00    -0.200 F 
ATOM     81  F   UNL A   1      42.856  24.114  37.111  1.00  0.00    -0.200 F 
ENDBRANCH  57  71
BRANCH  58  82
ATOM     82  C   UNL A   1      43.592  35.449  28.693  1.00  0.00     0.064 A 
ATOM     83  C   UNL A   1      44.812  36.119  28.532  1.00  0.00     0.173 A 
ATOM     84  C   UNL A   1      42.469  35.978  28.037  1.00  0.00     0.173 A 
ATOM     85  F   UNL A   1      45.910  35.670  29.158  1.00  0.00    -0.203 F 
ATOM     86  C   UNL A   1      44.901  37.285  27.772  1.00  0.00     0.198 A 
ATOM     87  C   UNL A   1      42.566  37.123  27.249  1.00  0.00     0.198 A 
ATOM     88  F   UNL A   1      41.276  35.378  28.156  1.00  0.00    -0.203 F 
ATOM     89  F   UNL A   1      46.069  37.937  27.685  1.00  0.00    -0.200 F 
ATOM     90  C   UNL A   1      43.780  37.783  27.128  1.00  0.00     0.200 A 
ATOM     91  F   UNL A   1      41.483  37.592  26.616  1.00  0.00    -0.200 F 
ATOM     92  F   UNL A   1      43.866  38.903  26.397  1.00  0.00    -0.200 F 
ENDBRANCH  58  82
BRANCH  70  93
ATOM     93  C   UNL A   1      44.927  28.684  27.644  1.00  0.00     0.064 A 
ATOM     94  C   UNL A   1      46.278  28.375  27.423  1.00  0.00     0.173 A 
ATOM     95  C   UNL A   1      43.988  28.204  26.717  1.00  0.00     0.173 A 
ATOM     96  F   UNL A   1      47.219  28.817  28.271  1.00  0.00    -0.203 F 
ATOM     97  C   UNL A   1      46.673  27.645  26.305  1.00  0.00     0.198 A 
ATOM     98  C   UNL A   1      44.382  27.443  25.620  1.00  0.00     0.198 A 
ATOM     99  F   UNL A   1      42.682  28.460  26.884  1.00  0.00    -0.203 F 
ATOM    100  F   UNL A   1      47.975  27.411  26.085  1.00  0.00    -0.200 F 
ATOM    101  C   UNL A   1      45.725  27.172  25.410  1.00  0.00     0.200 A 
ATOM    102  F   UNL A   1      43.462  26.970  24.768  1.00  0.00    -0.200 F 
ATOM    103  F   UNL A   1      46.106  26.461  24.340  1.00  0.00    -0.200 F 
ENDBRANCH  70  93
ENDBRANCH  44  45
ENDBRANCH  37  39
ENDBRANCH  36  37
ENDBRANCH  35  36
ENDBRANCH  34  35
ENDBRANCH  33  34
ENDBRANCH  32  33
ENDBRANCH  31  32
ENDBRANCH  30  31
ENDBRANCH  29  30
ENDBRANCH   1  29
TORSDOF 26
ENDMDL
