MODEL 1
REMARK VINA RESULT:     -10.1      0.000      0.000
REMARK SMILES COc1cccc(OCC(=O)N/N=C/c2ccccc2C(=O)OCCOCCOCCOCCOC(=O)c2ccc(-c3c4nc(c(-c5c(F)c(F)c(F)c(F)c5F)c5ccc([nH]5)c(-c5c(F)c(F)c(F)c(F)c5F)c5nc(c(-c6c(F)c(F)c(F)c(F)c6F)c6ccc3[nH]6)C=C5)C=C4)cc2)c1
REMARK SMILES IDX 27 1 26 2 25 3 24 4 23 5 21 6 22 7 20 8 15 9 16 10 17 11
REMARK SMILES IDX 19 12 18 13 14 14 13 15 12 16 10 17 11 18 9 20 8 21 7 22
REMARK SMILES IDX 3 23 4 24 101 25 5 26 6 27 2 28 1 29 28 30 29 31 30 32 31 33
REMARK SMILES IDX 32 34 33 35 34 36 35 37 36 38 37 39 38 40 39 41 100 42 40 43
REMARK SMILES IDX 99 44 41 45 42 46 43 47 93 48 44 49 98 50 92 51 94 52 45 53
REMARK SMILES IDX 97 54 91 55 90 56 46 58 78 59 58 60 77 61 59 62 62 63 76 64
REMARK SMILES IDX 95 65 60 66 61 67 75 69 96 70 63 71 47 72 48 73 56 74 49 75
REMARK SMILES IDX 50 76 54 77 57 78 51 79 52 80 55 81 53 82 79 83 80 84 88 85
REMARK SMILES IDX 81 86 82 87 86 88 89 89 83 90 84 91 87 92 85 93 64 94 65 95
REMARK SMILES IDX 73 96 66 97 67 98 71 99 74 100 68 101 69 102 72 103 70 104
REMARK H PARENT 12 19 94 57 62 68
REMARK Flexibility Score: inf
ROOT
ATOM      1  C   UNL A   1      38.577  24.156  26.195  1.00  0.00     0.188 C 
ENDROOT
BRANCH   1   2
ATOM      2  O   UNL A   1      37.209  23.812  26.061  1.00  0.00    -0.376 OA
BRANCH   2   3
ATOM      3  C   UNL A   1      36.628  23.703  24.777  1.00  0.00     0.202 C 
BRANCH   3   4
ATOM      4  C   UNL A   1      35.574  22.622  24.521  1.00  0.00     0.261 C 
BRANCH   4   5
ATOM      5  O   UNL A   1      35.806  21.398  25.216  1.00  0.00    -0.460 OA
BRANCH   5   6
ATOM      6  C   UNL A   1      34.779  20.830  25.877  1.00  0.00     0.338 C 
ATOM      7  O   UNL A   1      34.353  21.161  26.970  1.00  0.00    -0.246 OA
BRANCH   6   8
ATOM      8  C   UNL A   1      34.090  19.883  24.962  1.00  0.00     0.068 A 
ATOM      9  C   UNL A   1      32.760  20.019  24.544  1.00  0.00     0.009 A 
ATOM     10  C   UNL A   1      32.155  19.041  23.744  1.00  0.00     0.010 A 
ATOM     11  C   UNL A   1      32.865  17.893  23.396  1.00  0.00     0.001 A 
ATOM     12  C   UNL A   1      34.785  18.711  24.622  1.00  0.00     0.016 A 
ATOM     13  C   UNL A   1      34.168  17.715  23.860  1.00  0.00     0.001 A 
BRANCH   9  14
ATOM     14  C   UNL A   1      31.853  20.995  25.156  1.00  0.00     0.142 C 
ATOM     15  N   UNL A   1      31.614  22.160  24.657  1.00  0.00    -0.181 NA
BRANCH  15  16
ATOM     16  N   UNL A   1      30.814  23.000  25.383  1.00  0.00    -0.244 N 
ATOM     17  C   UNL A   1      31.074  24.201  25.998  1.00  0.00     0.277 C 
ATOM     18  O   UNL A   1      30.129  24.818  26.511  1.00  0.00    -0.269 OA
ATOM     19  H   UNL A   1      29.886  22.687  25.483  1.00  0.00     0.193 HD
BRANCH  17  20
ATOM     20  C   UNL A   1      32.499  24.778  26.075  1.00  0.00     0.331 C 
BRANCH  20  21
ATOM     21  O   UNL A   1      32.658  26.189  26.107  1.00  0.00    -0.484 OA
BRANCH  21  22
ATOM     22  C   UNL A   1      32.197  26.884  25.021  1.00  0.00     0.123 A 
ATOM     23  C   UNL A   1      30.872  28.577  23.906  1.00  0.00     0.122 A 
ATOM     24  C   UNL A   1      31.374  28.156  22.676  1.00  0.00     0.046 A 
ATOM     25  C   UNL A   1      31.274  27.931  25.075  1.00  0.00     0.092 A 
ATOM     26  C   UNL A   1      32.289  27.107  22.612  1.00  0.00     0.008 A 
ATOM     27  C   UNL A   1      32.696  26.471  23.785  1.00  0.00     0.047 A 
BRANCH  23  28
ATOM     28  O   UNL A   1      29.961  29.596  23.853  1.00  0.00    -0.497 OA
ATOM     29  C   UNL A   1      29.605  30.037  22.547  1.00  0.00     0.278 C 
ENDBRANCH  23  28
ENDBRANCH  21  22
ENDBRANCH  20  21
ENDBRANCH  17  20
ENDBRANCH  15  16
ENDBRANCH   9  14
ENDBRANCH   6   8
ENDBRANCH   5   6
ENDBRANCH   4   5
ENDBRANCH   3   4
ENDBRANCH   2   3
ENDBRANCH   1   2
BRANCH   1  30
ATOM     30  C   UNL A   1      39.196  23.743  27.550  1.00  0.00     0.188 C 
BRANCH  30  31
ATOM     31  O   UNL A   1      40.084  22.632  27.610  1.00  0.00    -0.377 OA
BRANCH  31  32
ATOM     32  C   UNL A   1      40.186  21.744  26.495  1.00  0.00     0.188 C 
BRANCH  32  33
ATOM     33  C   UNL A   1      41.517  21.040  26.130  1.00  0.00     0.188 C 
BRANCH  33  34
ATOM     34  O   UNL A   1      41.761  19.841  26.842  1.00  0.00    -0.376 OA
BRANCH  34  35
ATOM     35  C   UNL A   1      42.097  18.680  26.110  1.00  0.00     0.202 C 
BRANCH  35  36
ATOM     36  C   UNL A   1      43.566  18.498  25.709  1.00  0.00     0.261 C 
BRANCH  36  37
ATOM     37  O   UNL A   1      43.914  18.891  24.374  1.00  0.00    -0.460 OA
BRANCH  37  38
ATOM     38  C   UNL A   1      45.102  19.507  24.197  1.00  0.00     0.338 C 
ATOM     39  O   UNL A   1      46.080  19.077  23.606  1.00  0.00    -0.246 OA
BRANCH  38  40
ATOM     40  C   UNL A   1      44.959  20.886  24.702  1.00  0.00     0.060 A 
ATOM     41  C   UNL A   1      44.532  21.900  23.835  1.00  0.00     0.016 A 
ATOM     42  C   UNL A   1      45.230  21.166  26.043  1.00  0.00     0.016 A 
ATOM     43  C   UNL A   1      44.399  23.208  24.305  1.00  0.00     0.010 A 
ATOM     44  C   UNL A   1      45.118  22.477  26.506  1.00  0.00     0.010 A 
ATOM     45  C   UNL A   1      44.731  23.510  25.632  1.00  0.00    -0.014 A 
BRANCH  45  46
ATOM     46  C   UNL A   1      44.867  24.922  26.065  1.00  0.00     0.031 A 
ATOM     47  C   UNL A   1      46.214  25.579  25.926  1.00  0.00     0.074 A 
ATOM     48  C   UNL A   1      43.824  25.606  26.567  1.00  0.00     0.049 A 
ATOM     49  N   UNL A   1      46.604  26.770  26.299  1.00  0.00    -0.248 NA
ATOM     50  C   UNL A   1      47.267  24.773  25.286  1.00  0.00     0.031 C 
ATOM     51  C   UNL A   1      42.464  25.094  26.711  1.00  0.00     0.029 A 
ATOM     52  N   UNL A   1      43.756  26.886  27.060  1.00  0.00    -0.354 N 
ATOM     53  C   UNL A   1      47.947  26.851  25.952  1.00  0.00     0.074 A 
ATOM     54  C   UNL A   1      48.314  25.581  25.367  1.00  0.00     0.031 C 
ATOM     55  C   UNL A   1      41.691  26.053  27.253  1.00  0.00     0.029 A 
ATOM     56  C   UNL A   1      42.511  27.231  27.526  1.00  0.00     0.049 A 
ATOM     57  H   UNL A   1      44.527  27.498  27.077  1.00  0.00     0.167 HD
ATOM     58  C   UNL A   1      48.796  27.895  26.101  1.00  0.00     0.037 A 
ATOM     59  C   UNL A   1      42.095  28.366  28.123  1.00  0.00     0.037 A 
ATOM     60  C   UNL A   1      48.424  29.157  26.685  1.00  0.00     0.049 A 
ATOM     61  C   UNL A   1      43.089  29.477  28.365  1.00  0.00     0.074 A 
ATOM     62  C   UNL A   1      49.202  30.285  26.867  1.00  0.00     0.029 A 
ATOM     63  N   UNL A   1      47.166  29.451  27.193  1.00  0.00    -0.354 N 
ATOM     64  N   UNL A   1      44.350  29.556  28.019  1.00  0.00    -0.248 NA
ATOM     65  C   UNL A   1      42.594  30.656  29.091  1.00  0.00     0.031 C 
ATOM     66  C   UNL A   1      48.435  31.239  27.545  1.00  0.00     0.029 A 
ATOM     67  C   UNL A   1      47.157  30.732  27.718  1.00  0.00     0.049 A 
ATOM     68  H   UNL A   1      46.395  28.839  27.183  1.00  0.00     0.167 HD
ATOM     69  C   UNL A   1      44.787  30.806  28.444  1.00  0.00     0.074 A 
ATOM     70  C   UNL A   1      43.653  31.452  29.070  1.00  0.00     0.031 C 
ATOM     71  C   UNL A   1      46.014  31.369  28.322  1.00  0.00     0.037 A 
BRANCH  58  72
ATOM     72  C   UNL A   1      50.218  27.706  25.659  1.00  0.00     0.064 A 
ATOM     73  C   UNL A   1      50.596  27.801  24.311  1.00  0.00     0.173 A 
ATOM     74  C   UNL A   1      51.225  27.458  26.605  1.00  0.00     0.173 A 
ATOM     75  F   UNL A   1      49.671  28.022  23.365  1.00  0.00    -0.203 F 
ATOM     76  C   UNL A   1      51.922  27.625  23.924  1.00  0.00     0.198 A 
ATOM     77  C   UNL A   1      52.555  27.317  26.218  1.00  0.00     0.198 A 
ATOM     78  F   UNL A   1      50.921  27.360  27.908  1.00  0.00    -0.203 F 
ATOM     79  F   UNL A   1      52.250  27.666  22.626  1.00  0.00    -0.200 F 
ATOM     80  C   UNL A   1      52.902  27.392  24.878  1.00  0.00     0.200 A 
ATOM     81  F   UNL A   1      53.502  27.107  27.143  1.00  0.00    -0.200 F 
ATOM     82  F   UNL A   1      54.179  27.232  24.504  1.00  0.00    -0.200 F 
ENDBRANCH  58  72
BRANCH  59  83
ATOM     83  C   UNL A   1      40.675  28.537  28.529  1.00  0.00     0.064 A 
ATOM     84  C   UNL A   1      39.728  29.027  27.616  1.00  0.00     0.173 A 
ATOM     85  C   UNL A   1      40.244  28.286  29.839  1.00  0.00     0.173 A 
ATOM     86  F   UNL A   1      40.099  29.320  26.361  1.00  0.00    -0.203 F 
ATOM     87  C   UNL A   1      38.414  29.281  28.003  1.00  0.00     0.198 A 
ATOM     88  C   UNL A   1      38.922  28.521  30.215  1.00  0.00     0.198 A 
ATOM     89  F   UNL A   1      41.107  27.829  30.758  1.00  0.00    -0.203 F 
ATOM     90  F   UNL A   1      37.548  29.806  27.126  1.00  0.00    -0.200 F 
ATOM     91  C   UNL A   1      38.011  29.025  29.301  1.00  0.00     0.200 A 
ATOM     92  F   UNL A   1      38.527  28.286  31.471  1.00  0.00    -0.200 F 
ATOM     93  F   UNL A   1      36.752  29.279  29.682  1.00  0.00    -0.200 F 
ENDBRANCH  59  83
BRANCH  71  94
ATOM     94  C   UNL A   1      46.185  32.778  28.816  1.00  0.00     0.064 A 
ATOM     95  C   UNL A   1      46.633  33.063  30.113  1.00  0.00     0.173 A 
ATOM     96  C   UNL A   1      45.947  33.861  27.952  1.00  0.00     0.173 A 
ATOM     97  F   UNL A   1      46.862  32.068  30.981  1.00  0.00    -0.203 F 
ATOM     98  C   UNL A   1      46.812  34.379  30.536  1.00  0.00     0.198 A 
ATOM     99  C   UNL A   1      46.163  35.171  28.366  1.00  0.00     0.198 A 
ATOM    100  F   UNL A   1      45.526  33.645  26.696  1.00  0.00    -0.203 F 
ATOM    101  F   UNL A   1      47.193  34.629  31.797  1.00  0.00    -0.200 F 
ATOM    102  C   UNL A   1      46.586  35.430  29.660  1.00  0.00     0.200 A 
ATOM    103  F   UNL A   1      45.962  36.184  27.512  1.00  0.00    -0.200 F 
ATOM    104  F   UNL A   1      46.773  36.694  30.065  1.00  0.00    -0.200 F 
ENDBRANCH  71  94
ENDBRANCH  45  46
ENDBRANCH  38  40
ENDBRANCH  37  38
ENDBRANCH  36  37
ENDBRANCH  35  36
ENDBRANCH  34  35
ENDBRANCH  33  34
ENDBRANCH  32  33
ENDBRANCH  31  32
ENDBRANCH  30  31
ENDBRANCH   1  30
TORSDOF 26
ENDMDL
MODEL 2
REMARK VINA RESULT:      -9.7      1.543      3.974
REMARK SMILES COc1cccc(OCC(=O)N/N=C/c2ccccc2C(=O)OCCOCCOCCOCCOC(=O)c2ccc(-c3c4nc(c(-c5c(F)c(F)c(F)c(F)c5F)c5ccc([nH]5)c(-c5c(F)c(F)c(F)c(F)c5F)c5nc(c(-c6c(F)c(F)c(F)c(F)c6F)c6ccc3[nH]6)C=C5)C=C4)cc2)c1
REMARK SMILES IDX 27 1 26 2 25 3 24 4 23 5 21 6 22 7 20 8 15 9 16 10 17 11
REMARK SMILES IDX 19 12 18 13 14 14 13 15 12 16 10 17 11 18 9 20 8 21 7 22
REMARK SMILES IDX 3 23 4 24 101 25 5 26 6 27 2 28 1 29 28 30 29 31 30 32 31 33
REMARK SMILES IDX 32 34 33 35 34 36 35 37 36 38 37 39 38 40 39 41 100 42 40 43
REMARK SMILES IDX 99 44 41 45 42 46 43 47 93 48 44 49 98 50 92 51 94 52 45 53
REMARK SMILES IDX 97 54 91 55 90 56 46 58 78 59 58 60 77 61 59 62 62 63 76 64
REMARK SMILES IDX 95 65 60 66 61 67 75 69 96 70 63 71 47 72 48 73 56 74 49 75
REMARK SMILES IDX 50 76 54 77 57 78 51 79 52 80 55 81 53 82 79 83 80 84 88 85
REMARK SMILES IDX 81 86 82 87 86 88 89 89 83 90 84 91 87 92 85 93 64 94 65 95
REMARK SMILES IDX 73 96 66 97 67 98 71 99 74 100 68 101 69 102 72 103 70 104
REMARK H PARENT 12 19 94 57 62 68
REMARK Flexibility Score: inf
ROOT
ATOM      1  C   UNL A   1      38.156  23.949  25.907  1.00  0.00     0.188 C 
ENDROOT
BRANCH   1   2
ATOM      2  O   UNL A   1      36.796  24.281  26.121  1.00  0.00    -0.376 OA
BRANCH   2   3
ATOM      3  C   UNL A   1      35.809  23.269  26.110  1.00  0.00     0.202 C 
BRANCH   3   4
ATOM      4  C   UNL A   1      34.359  23.632  26.441  1.00  0.00     0.261 C 
BRANCH   4   5
ATOM      5  O   UNL A   1      34.086  25.033  26.429  1.00  0.00    -0.460 OA
BRANCH   5   6
ATOM      6  C   UNL A   1      34.160  25.692  25.256  1.00  0.00     0.338 C 
ATOM      7  O   UNL A   1      34.406  25.202  24.168  1.00  0.00    -0.246 OA
BRANCH   6   8
ATOM      8  C   UNL A   1      33.660  27.076  25.457  1.00  0.00     0.068 A 
ATOM      9  C   UNL A   1      33.099  27.866  24.444  1.00  0.00     0.009 A 
ATOM     10  C   UNL A   1      32.725  29.193  24.693  1.00  0.00     0.010 A 
ATOM     11  C   UNL A   1      32.953  29.755  25.947  1.00  0.00     0.001 A 
ATOM     12  C   UNL A   1      33.904  27.663  26.709  1.00  0.00     0.016 A 
ATOM     13  C   UNL A   1      33.570  29.000  26.945  1.00  0.00     0.001 A 
BRANCH   9  14
ATOM     14  C   UNL A   1      33.162  27.473  23.033  1.00  0.00     0.142 C 
ATOM     15  N   UNL A   1      32.203  26.871  22.415  1.00  0.00    -0.181 NA
BRANCH  15  16
ATOM     16  N   UNL A   1      32.436  26.486  21.123  1.00  0.00    -0.244 N 
ATOM     17  C   UNL A   1      32.849  25.289  20.589  1.00  0.00     0.277 C 
ATOM     18  O   UNL A   1      32.881  25.174  19.355  1.00  0.00    -0.269 OA
ATOM     19  H   UNL A   1      32.279  27.193  20.457  1.00  0.00     0.193 HD
BRANCH  17  20
ATOM     20  C   UNL A   1      33.283  24.112  21.481  1.00  0.00     0.331 C 
BRANCH  20  21
ATOM     21  O   UNL A   1      32.412  22.997  21.603  1.00  0.00    -0.484 OA
BRANCH  21  22
ATOM     22  C   UNL A   1      32.101  22.598  22.875  1.00  0.00     0.123 A 
ATOM     23  C   UNL A   1      32.038  21.039  24.728  1.00  0.00     0.122 A 
ATOM     24  C   UNL A   1      31.358  21.983  25.495  1.00  0.00     0.046 A 
ATOM     25  C   UNL A   1      32.396  21.344  23.414  1.00  0.00     0.092 A 
ATOM     26  C   UNL A   1      31.052  23.234  24.962  1.00  0.00     0.008 A 
ATOM     27  C   UNL A   1      31.422  23.537  23.653  1.00  0.00     0.047 A 
BRANCH  23  28
ATOM     28  O   UNL A   1      32.263  19.836  25.338  1.00  0.00    -0.497 OA
ATOM     29  C   UNL A   1      33.400  19.115  24.878  1.00  0.00     0.278 C 
ENDBRANCH  23  28
ENDBRANCH  21  22
ENDBRANCH  20  21
ENDBRANCH  17  20
ENDBRANCH  15  16
ENDBRANCH   9  14
ENDBRANCH   6   8
ENDBRANCH   5   6
ENDBRANCH   4   5
ENDBRANCH   3   4
ENDBRANCH   2   3
ENDBRANCH   1   2
BRANCH   1  30
ATOM     30  C   UNL A   1      38.980  23.816  27.209  1.00  0.00     0.188 C 
BRANCH  30  31
ATOM     31  O   UNL A   1      39.878  22.723  27.366  1.00  0.00    -0.377 OA
BRANCH  31  32
ATOM     32  C   UNL A   1      40.315  21.993  26.218  1.00  0.00     0.188 C 
BRANCH  32  33
ATOM     33  C   UNL A   1      41.660  21.225  26.202  1.00  0.00     0.188 C 
BRANCH  33  34
ATOM     34  O   UNL A   1      41.593  19.913  26.730  1.00  0.00    -0.376 OA
BRANCH  34  35
ATOM     35  C   UNL A   1      42.011  18.837  25.915  1.00  0.00     0.202 C 
BRANCH  35  36
ATOM     36  C   UNL A   1      43.516  18.694  25.650  1.00  0.00     0.261 C 
BRANCH  36  37
ATOM     37  O   UNL A   1      43.960  19.009  24.323  1.00  0.00    -0.460 OA
BRANCH  37  38
ATOM     38  C   UNL A   1      45.168  19.596  24.195  1.00  0.00     0.338 C 
ATOM     39  O   UNL A   1      46.155  19.148  23.633  1.00  0.00    -0.246 OA
BRANCH  38  40
ATOM     40  C   UNL A   1      45.043  20.972  24.712  1.00  0.00     0.060 A 
ATOM     41  C   UNL A   1      44.585  21.991  23.866  1.00  0.00     0.016 A 
ATOM     42  C   UNL A   1      45.362  21.246  26.043  1.00  0.00     0.016 A 
ATOM     43  C   UNL A   1      44.469  23.296  24.347  1.00  0.00     0.010 A 
ATOM     44  C   UNL A   1      45.266  22.555  26.517  1.00  0.00     0.010 A 
ATOM     45  C   UNL A   1      44.847  23.591  25.663  1.00  0.00    -0.014 A 
BRANCH  45  46
ATOM     46  C   UNL A   1      44.998  25.001  26.098  1.00  0.00     0.031 A 
ATOM     47  C   UNL A   1      46.353  25.643  25.963  1.00  0.00     0.074 A 
ATOM     48  C   UNL A   1      43.962  25.696  26.599  1.00  0.00     0.049 A 
ATOM     49  N   UNL A   1      46.756  26.830  26.338  1.00  0.00    -0.248 NA
ATOM     50  C   UNL A   1      47.398  24.827  25.323  1.00  0.00     0.031 C 
ATOM     51  C   UNL A   1      42.596  25.200  26.740  1.00  0.00     0.029 A 
ATOM     52  N   UNL A   1      43.908  26.976  27.094  1.00  0.00    -0.354 N 
ATOM     53  C   UNL A   1      48.100  26.896  25.993  1.00  0.00     0.074 A 
ATOM     54  C   UNL A   1      48.454  25.622  25.408  1.00  0.00     0.031 C 
ATOM     55  C   UNL A   1      41.833  26.167  27.282  1.00  0.00     0.029 A 
ATOM     56  C   UNL A   1      42.666  27.335  27.558  1.00  0.00     0.049 A 
ATOM     57  H   UNL A   1      44.685  27.579  27.113  1.00  0.00     0.167 HD
ATOM     58  C   UNL A   1      48.960  27.930  26.146  1.00  0.00     0.037 A 
ATOM     59  C   UNL A   1      42.262  28.473  28.155  1.00  0.00     0.037 A 
ATOM     60  C   UNL A   1      48.602  29.195  26.731  1.00  0.00     0.049 A 
ATOM     61  C   UNL A   1      43.267  29.573  28.401  1.00  0.00     0.074 A 
ATOM     62  C   UNL A   1      49.392  30.315  26.916  1.00  0.00     0.029 A 
ATOM     63  N   UNL A   1      47.346  29.502  27.237  1.00  0.00    -0.354 N 
ATOM     64  N   UNL A   1      44.530  29.638  28.058  1.00  0.00    -0.248 NA
ATOM     65  C   UNL A   1      42.785  30.756  29.128  1.00  0.00     0.031 C 
ATOM     66  C   UNL A   1      48.634  31.276  27.594  1.00  0.00     0.029 A 
ATOM     67  C   UNL A   1      47.351  30.783  27.764  1.00  0.00     0.049 A 
ATOM     68  H   UNL A   1      46.568  28.899  27.224  1.00  0.00     0.167 HD
ATOM     69  C   UNL A   1      44.980  30.883  28.485  1.00  0.00     0.074 A 
ATOM     70  C   UNL A   1      43.852  31.541  29.110  1.00  0.00     0.031 C 
ATOM     71  C   UNL A   1      46.214  31.432  28.366  1.00  0.00     0.037 A 
BRANCH  58  72
ATOM     72  C   UNL A   1      50.382  27.726  25.706  1.00  0.00     0.064 A 
ATOM     73  C   UNL A   1      50.768  27.848  24.363  1.00  0.00     0.173 A 
ATOM     74  C   UNL A   1      51.379  27.434  26.651  1.00  0.00     0.173 A 
ATOM     75  F   UNL A   1      49.853  28.112  23.418  1.00  0.00    -0.203 F 
ATOM     76  C   UNL A   1      52.093  27.658  23.979  1.00  0.00     0.198 A 
ATOM     77  C   UNL A   1      52.707  27.278  26.267  1.00  0.00     0.198 A 
ATOM     78  F   UNL A   1      51.065  27.308  27.949  1.00  0.00    -0.203 F 
ATOM     79  F   UNL A   1      52.429  27.727  22.683  1.00  0.00    -0.200 F 
ATOM     80  C   UNL A   1      53.063  27.381  24.931  1.00  0.00     0.200 A 
ATOM     81  F   UNL A   1      53.645  27.026  27.191  1.00  0.00    -0.200 F 
ATOM     82  F   UNL A   1      54.339  27.207  24.560  1.00  0.00    -0.200 F 
ENDBRANCH  58  72
BRANCH  59  83
ATOM     83  C   UNL A   1      40.843  28.660  28.560  1.00  0.00     0.064 A 
ATOM     84  C   UNL A   1      40.424  28.329  29.858  1.00  0.00     0.173 A 
ATOM     85  C   UNL A   1      39.867  29.103  27.656  1.00  0.00     0.173 A 
ATOM     86  F   UNL A   1      41.313  27.864  30.749  1.00  0.00    -0.203 F 
ATOM     87  C   UNL A   1      39.083  28.410  30.229  1.00  0.00     0.198 A 
ATOM     88  C   UNL A   1      38.530  29.203  28.039  1.00  0.00     0.198 A 
ATOM     89  F   UNL A   1      40.206  29.421  26.398  1.00  0.00    -0.203 F 
ATOM     90  F   UNL A   1      38.704  28.029  31.456  1.00  0.00    -0.200 F 
ATOM     91  C   UNL A   1      38.138  28.850  29.320  1.00  0.00     0.200 A 
ATOM     92  F   UNL A   1      37.608  29.617  27.163  1.00  0.00    -0.200 F 
ATOM     93  F   UNL A   1      36.846  28.918  29.667  1.00  0.00    -0.200 F 
ENDBRANCH  59  83
BRANCH  71  94
ATOM     94  C   UNL A   1      46.400  32.839  28.862  1.00  0.00     0.064 A 
ATOM     95  C   UNL A   1      46.168  33.954  28.044  1.00  0.00     0.173 A 
ATOM     96  C   UNL A   1      46.765  33.071  30.199  1.00  0.00     0.173 A 
ATOM     97  F   UNL A   1      45.831  33.788  26.758  1.00  0.00    -0.203 F 
ATOM     98  C   UNL A   1      46.319  35.248  28.539  1.00  0.00     0.198 A 
ATOM     99  C   UNL A   1      46.879  34.364  30.699  1.00  0.00     0.198 A 
ATOM    100  F   UNL A   1      46.990  32.040  31.028  1.00  0.00    -0.203 F 
ATOM    101  F   UNL A   1      46.141  36.298  27.726  1.00  0.00    -0.200 F 
ATOM    102  C   UNL A   1      46.664  35.452  29.867  1.00  0.00     0.200 A 
ATOM    103  F   UNL A   1      47.194  34.558  31.987  1.00  0.00    -0.200 F 
ATOM    104  F   UNL A   1      46.796  36.697  30.343  1.00  0.00    -0.200 F 
ENDBRANCH  71  94
ENDBRANCH  45  46
ENDBRANCH  38  40
ENDBRANCH  37  38
ENDBRANCH  36  37
ENDBRANCH  35  36
ENDBRANCH  34  35
ENDBRANCH  33  34
ENDBRANCH  32  33
ENDBRANCH  31  32
ENDBRANCH  30  31
ENDBRANCH   1  30
TORSDOF 26
ENDMDL
MODEL 3
REMARK VINA RESULT:      -9.3      4.802      7.158
REMARK SMILES COc1cccc(OCC(=O)N/N=C/c2ccccc2C(=O)OCCOCCOCCOCCOC(=O)c2ccc(-c3c4nc(c(-c5c(F)c(F)c(F)c(F)c5F)c5ccc([nH]5)c(-c5c(F)c(F)c(F)c(F)c5F)c5nc(c(-c6c(F)c(F)c(F)c(F)c6F)c6ccc3[nH]6)C=C5)C=C4)cc2)c1
REMARK SMILES IDX 27 1 26 2 25 3 24 4 23 5 21 6 22 7 20 8 15 9 16 10 17 11
REMARK SMILES IDX 19 12 18 13 14 14 13 15 12 16 10 17 11 18 9 20 8 21 7 22
REMARK SMILES IDX 3 23 4 24 101 25 5 26 6 27 2 28 1 29 28 30 29 31 30 32 31 33
REMARK SMILES IDX 32 34 33 35 34 36 35 37 36 38 37 39 38 40 39 41 100 42 40 43
REMARK SMILES IDX 99 44 41 45 42 46 43 47 93 48 44 49 98 50 92 51 94 52 45 53
REMARK SMILES IDX 97 54 91 55 90 56 46 58 78 59 58 60 77 61 59 62 62 63 76 64
REMARK SMILES IDX 95 65 60 66 61 67 75 69 96 70 63 71 47 72 48 73 56 74 49 75
REMARK SMILES IDX 50 76 54 77 57 78 51 79 52 80 55 81 53 82 79 83 80 84 88 85
REMARK SMILES IDX 81 86 82 87 86 88 89 89 83 90 84 91 87 92 85 93 64 94 65 95
REMARK SMILES IDX 73 96 66 97 67 98 71 99 74 100 68 101 69 102 72 103 70 104
REMARK H PARENT 12 19 94 57 62 68
REMARK Flexibility Score: inf
ROOT
ATOM      1  C   UNL A   1      38.555  24.055  26.272  1.00  0.00     0.188 C 
ENDROOT
BRANCH   1   2
ATOM      2  O   UNL A   1      37.700  23.016  25.831  1.00  0.00    -0.376 OA
BRANCH   2   3
ATOM      3  C   UNL A   1      36.345  23.292  25.535  1.00  0.00     0.202 C 
BRANCH   3   4
ATOM      4  C   UNL A   1      35.608  22.419  24.515  1.00  0.00     0.261 C 
BRANCH   4   5
ATOM      5  O   UNL A   1      35.696  21.017  24.768  1.00  0.00    -0.460 OA
BRANCH   5   6
ATOM      6  C   UNL A   1      34.671  20.414  25.401  1.00  0.00     0.338 C 
ATOM      7  O   UNL A   1      34.109  20.812  26.406  1.00  0.00    -0.246 OA
BRANCH   6   8
ATOM      8  C   UNL A   1      34.173  19.304  24.547  1.00  0.00     0.068 A 
ATOM      9  C   UNL A   1      33.098  19.417  23.655  1.00  0.00     0.009 A 
ATOM     10  C   UNL A   1      32.635  18.302  22.944  1.00  0.00     0.010 A 
ATOM     11  C   UNL A   1      33.216  17.053  23.156  1.00  0.00     0.001 A 
ATOM     12  C   UNL A   1      34.733  18.035  24.767  1.00  0.00     0.016 A 
ATOM     13  C   UNL A   1      34.243  16.914  24.090  1.00  0.00     0.001 A 
BRANCH   9  14
ATOM     14  C   UNL A   1      32.219  20.590  23.650  1.00  0.00     0.142 C 
ATOM     15  N   UNL A   1      32.263  21.513  22.749  1.00  0.00    -0.181 NA
BRANCH  15  16
ATOM     16  N   UNL A   1      31.442  22.594  22.920  1.00  0.00    -0.244 N 
ATOM     17  C   UNL A   1      31.692  23.944  22.879  1.00  0.00     0.277 C 
ATOM     18  O   UNL A   1      30.734  24.725  22.965  1.00  0.00    -0.269 OA
ATOM     19  H   UNL A   1      30.504  22.362  23.107  1.00  0.00     0.193 HD
BRANCH  17  20
ATOM     20  C   UNL A   1      33.123  24.497  22.745  1.00  0.00     0.331 C 
BRANCH  20  21
ATOM     21  O   UNL A   1      33.695  25.174  23.855  1.00  0.00    -0.484 OA
BRANCH  21  22
ATOM     22  C   UNL A   1      33.585  26.539  23.865  1.00  0.00     0.123 A 
ATOM     23  C   UNL A   1      33.343  28.709  24.913  1.00  0.00     0.122 A 
ATOM     24  C   UNL A   1      33.358  29.314  23.658  1.00  0.00     0.046 A 
ATOM     25  C   UNL A   1      33.443  27.321  25.014  1.00  0.00     0.092 A 
ATOM     26  C   UNL A   1      33.491  28.540  22.506  1.00  0.00     0.008 A 
ATOM     27  C   UNL A   1      33.602  27.154  22.613  1.00  0.00     0.047 A 
BRANCH  23  28
ATOM     28  O   UNL A   1      33.181  29.557  25.974  1.00  0.00    -0.497 OA
ATOM     29  C   UNL A   1      31.935  29.461  26.655  1.00  0.00     0.278 C 
ENDBRANCH  23  28
ENDBRANCH  21  22
ENDBRANCH  20  21
ENDBRANCH  17  20
ENDBRANCH  15  16
ENDBRANCH   9  14
ENDBRANCH   6   8
ENDBRANCH   5   6
ENDBRANCH   4   5
ENDBRANCH   3   4
ENDBRANCH   2   3
ENDBRANCH   1   2
BRANCH   1  30
ATOM     30  C   UNL A   1      39.549  23.621  27.375  1.00  0.00     0.188 C 
BRANCH  30  31
ATOM     31  O   UNL A   1      40.949  23.725  27.143  1.00  0.00    -0.377 OA
BRANCH  31  32
ATOM     32  C   UNL A   1      41.426  24.351  25.950  1.00  0.00     0.188 C 
BRANCH  32  33
ATOM     33  C   UNL A   1      42.878  24.153  25.447  1.00  0.00     0.188 C 
BRANCH  33  34
ATOM     34  O   UNL A   1      43.067  23.010  24.635  1.00  0.00    -0.376 OA
BRANCH  34  35
ATOM     35  C   UNL A   1      44.389  22.595  24.354  1.00  0.00     0.202 C 
BRANCH  35  36
ATOM     36  C   UNL A   1      45.438  22.782  25.458  1.00  0.00     0.261 C 
BRANCH  36  37
ATOM     37  O   UNL A   1      45.908  24.121  25.667  1.00  0.00    -0.460 OA
BRANCH  37  38
ATOM     38  C   UNL A   1      46.538  24.383  26.831  1.00  0.00     0.338 C 
ATOM     39  O   UNL A   1      47.681  24.085  27.138  1.00  0.00    -0.246 OA
BRANCH  38  40
ATOM     40  C   UNL A   1      45.652  25.258  27.621  1.00  0.00     0.060 A 
ATOM     41  C   UNL A   1      45.779  26.650  27.515  1.00  0.00     0.016 A 
ATOM     42  C   UNL A   1      44.683  24.696  28.453  1.00  0.00     0.016 A 
ATOM     43  C   UNL A   1      44.947  27.484  28.264  1.00  0.00     0.010 A 
ATOM     44  C   UNL A   1      43.866  25.530  29.217  1.00  0.00     0.010 A 
ATOM     45  C   UNL A   1      44.015  26.928  29.149  1.00  0.00    -0.014 A 
BRANCH  45  46
ATOM     46  C   UNL A   1      43.330  27.784  30.147  1.00  0.00     0.031 A 
ATOM     47  C   UNL A   1      43.977  27.957  31.495  1.00  0.00     0.074 A 
ATOM     48  C   UNL A   1      42.165  28.395  29.867  1.00  0.00     0.049 A 
ATOM     49  N   UNL A   1      43.543  28.589  32.555  1.00  0.00    -0.248 NA
ATOM     50  C   UNL A   1      45.292  27.318  31.672  1.00  0.00     0.031 C 
ATOM     51  C   UNL A   1      41.464  28.339  28.588  1.00  0.00     0.029 A 
ATOM     52  N   UNL A   1      41.361  29.179  30.659  1.00  0.00    -0.354 N 
ATOM     53  C   UNL A   1      44.522  28.413  33.524  1.00  0.00     0.074 A 
ATOM     54  C   UNL A   1      45.558  27.590  32.940  1.00  0.00     0.031 C 
ATOM     55  C   UNL A   1      40.334  29.064  28.677  1.00  0.00     0.029 A 
ATOM     56  C   UNL A   1      40.215  29.602  30.030  1.00  0.00     0.049 A 
ATOM     57  H   UNL A   1      41.586  29.416  31.587  1.00  0.00     0.167 HD
ATOM     58  C   UNL A   1      44.557  28.900  34.787  1.00  0.00     0.037 A 
ATOM     59  C   UNL A   1      39.185  30.326  30.508  1.00  0.00     0.037 A 
ATOM     60  C   UNL A   1      43.522  29.718  35.362  1.00  0.00     0.049 A 
ATOM     61  C   UNL A   1      39.205  30.773  31.951  1.00  0.00     0.074 A 
ATOM     62  C   UNL A   1      43.468  30.278  36.626  1.00  0.00     0.029 A 
ATOM     63  N   UNL A   1      42.352  30.083  34.711  1.00  0.00    -0.354 N 
ATOM     64  N   UNL A   1      40.140  30.620  32.857  1.00  0.00    -0.248 NA
ATOM     65  C   UNL A   1      38.017  31.490  32.435  1.00  0.00     0.031 C 
ATOM     66  C   UNL A   1      42.236  30.926  36.763  1.00  0.00     0.029 A 
ATOM     67  C   UNL A   1      41.555  30.833  35.559  1.00  0.00     0.049 A 
ATOM     68  H   UNL A   1      42.122  29.843  33.784  1.00  0.00     0.167 HD
ATOM     69  C   UNL A   1      39.673  31.258  34.001  1.00  0.00     0.074 A 
ATOM     70  C   UNL A   1      38.373  31.803  33.672  1.00  0.00     0.031 C 
ATOM     71  C   UNL A   1      40.270  31.385  35.211  1.00  0.00     0.037 A 
BRANCH  58  72
ATOM     72  C   UNL A   1      45.734  28.534  35.644  1.00  0.00     0.064 A 
ATOM     73  C   UNL A   1      46.886  29.332  35.705  1.00  0.00     0.173 A 
ATOM     74  C   UNL A   1      45.695  27.379  36.442  1.00  0.00     0.173 A 
ATOM     75  F   UNL A   1      46.982  30.438  34.952  1.00  0.00    -0.203 F 
ATOM     76  C   UNL A   1      47.965  28.974  36.510  1.00  0.00     0.198 A 
ATOM     77  C   UNL A   1      46.762  27.043  37.271  1.00  0.00     0.198 A 
ATOM     78  F   UNL A   1      44.618  26.580  36.425  1.00  0.00    -0.203 F 
ATOM     79  F   UNL A   1      49.076  29.724  36.510  1.00  0.00    -0.200 F 
ATOM     80  C   UNL A   1      47.900  27.835  37.298  1.00  0.00     0.200 A 
ATOM     81  F   UNL A   1      46.689  25.949  38.043  1.00  0.00    -0.200 F 
ATOM     82  F   UNL A   1      48.935  27.497  38.078  1.00  0.00    -0.200 F 
ENDBRANCH  58  72
BRANCH  59  83
ATOM     83  C   UNL A   1      38.042  30.697  29.632  1.00  0.00     0.064 A 
ATOM     84  C   UNL A   1      37.915  32.007  29.144  1.00  0.00     0.173 A 
ATOM     85  C   UNL A   1      37.023  29.786  29.319  1.00  0.00     0.173 A 
ATOM     86  F   UNL A   1      38.844  32.925  29.448  1.00  0.00    -0.203 F 
ATOM     87  C   UNL A   1      36.806  32.398  28.397  1.00  0.00     0.198 A 
ATOM     88  C   UNL A   1      35.925  30.177  28.553  1.00  0.00     0.198 A 
ATOM     89  F   UNL A   1      37.083  28.524  29.769  1.00  0.00    -0.203 F 
ATOM     90  F   UNL A   1      36.683  33.669  27.996  1.00  0.00    -0.200 F 
ATOM     91  C   UNL A   1      35.813  31.481  28.100  1.00  0.00     0.200 A 
ATOM     92  F   UNL A   1      34.955  29.300  28.270  1.00  0.00    -0.200 F 
ATOM     93  F   UNL A   1      34.737  31.854  27.394  1.00  0.00    -0.200 F 
ENDBRANCH  59  83
BRANCH  71  94
ATOM     94  C   UNL A   1      39.557  32.197  36.257  1.00  0.00     0.064 A 
ATOM     95  C   UNL A   1      38.522  31.662  37.037  1.00  0.00     0.173 A 
ATOM     96  C   UNL A   1      39.959  33.518  36.517  1.00  0.00     0.173 A 
ATOM     97  F   UNL A   1      38.091  30.411  36.820  1.00  0.00    -0.203 F 
ATOM     98  C   UNL A   1      37.898  32.428  38.020  1.00  0.00     0.198 A 
ATOM     99  C   UNL A   1      39.359  34.266  37.524  1.00  0.00     0.198 A 
ATOM    100  F   UNL A   1      40.951  34.076  35.806  1.00  0.00    -0.203 F 
ATOM    101  F   UNL A   1      36.877  31.912  38.719  1.00  0.00    -0.200 F 
ATOM    102  C   UNL A   1      38.323  33.724  38.269  1.00  0.00     0.200 A 
ATOM    103  F   UNL A   1      39.783  35.512  37.776  1.00  0.00    -0.200 F 
ATOM    104  F   UNL A   1      37.730  34.453  39.225  1.00  0.00    -0.200 F 
ENDBRANCH  71  94
ENDBRANCH  45  46
ENDBRANCH  38  40
ENDBRANCH  37  38
ENDBRANCH  36  37
ENDBRANCH  35  36
ENDBRANCH  34  35
ENDBRANCH  33  34
ENDBRANCH  32  33
ENDBRANCH  31  32
ENDBRANCH  30  31
ENDBRANCH   1  30
TORSDOF 26
ENDMDL
