MODEL 1
REMARK VINA RESULT:     -10.0      0.000      0.000
REMARK SMILES [NH3+][C@@]1(C(=O)OCCOCCOCCOCCOC(=O)c2ccc(-c3c4nc(c(-c5c(F)c(F)c(F)c(F)c5F)c5ccc([nH]5)c(-c5c(F)c(F)c(F)c(F)c5F)c5nc(c(-c6c(F)c(F)c(F)c(F)c6F)c6ccc3[nH]6)C=C5)C=C4)cc2)CCC[C@@H](Oc2ccccc2[N+](=O)[O-])C1
REMARK SMILES IDX 10 1 9 2 8 3 7 4 6 5 5 6 3 7 4 8 2 9 83 10 97 11 84 12 86 13
REMARK SMILES IDX 85 14 1 15 87 19 88 20 89 21 93 22 90 23 92 24 91 25 94 26
REMARK SMILES IDX 95 27 96 28 11 29 12 30 13 31 14 32 15 33 16 34 17 35 18 36
REMARK SMILES IDX 19 37 20 38 21 39 82 40 22 41 81 42 23 43 24 44 25 45 75 46
REMARK SMILES IDX 26 47 80 48 74 49 76 50 27 51 79 52 73 53 72 54 28 56 60 57
REMARK SMILES IDX 40 58 59 59 41 60 44 61 58 62 77 63 42 64 43 65 57 67 78 68
REMARK SMILES IDX 45 69 29 70 30 71 38 72 31 73 32 74 36 75 39 76 33 77 34 78
REMARK SMILES IDX 37 79 35 80 61 81 62 82 70 83 63 84 64 85 68 86 71 87 65 88
REMARK SMILES IDX 66 89 69 90 67 91 46 92 47 93 55 94 48 95 49 96 53 97 56 98
REMARK SMILES IDX 50 99 51 100 54 101 52 102
REMARK H PARENT 1 16 1 17 1 18 76 55 44 66
REMARK Flexibility Score: inf
ROOT
ATOM      1  C   UNL A   1      37.184  22.796  25.962  1.00  0.00     0.188 C 
ENDROOT
BRANCH   1   2
ATOM      2  C   UNL A   1      36.249  21.583  25.746  1.00  0.00     0.188 C 
BRANCH   2   3
ATOM      3  O   UNL A   1      35.029  21.448  26.463  1.00  0.00    -0.376 OA
BRANCH   3   4
ATOM      4  C   UNL A   1      34.540  22.493  27.286  1.00  0.00     0.202 C 
BRANCH   4   5
ATOM      5  C   UNL A   1      33.121  22.449  27.869  1.00  0.00     0.261 C 
BRANCH   5   6
ATOM      6  O   UNL A   1      32.070  22.251  26.927  1.00  0.00    -0.459 OA
BRANCH   6   7
ATOM      7  C   UNL A   1      31.358  23.348  26.517  1.00  0.00     0.368 C 
ATOM      8  O   UNL A   1      30.620  24.014  27.226  1.00  0.00    -0.245 OA
BRANCH   7   9
ATOM      9  C   UNL A   1      31.669  23.633  25.009  1.00  0.00     0.196 C 
ATOM     10  C   UNL A   1      32.113  22.394  24.207  1.00  0.00     0.081 C 
ATOM     11  C   UNL A   1      32.797  24.670  24.989  1.00  0.00     0.126 C 
ATOM     12  C   UNL A   1      32.473  22.742  22.758  1.00  0.00     0.011 C 
ATOM     13  C   UNL A   1      33.300  25.059  23.594  1.00  0.00     0.180 C 
ATOM     14  C   UNL A   1      33.513  23.855  22.656  1.00  0.00     0.046 C 
BRANCH   9  15
ATOM     15  N   UNL A   1      30.452  24.171  24.370  1.00  0.00    -0.343 N 
ATOM     16  H   UNL A   1      30.464  23.948  23.375  1.00  0.00     0.345 HD
ATOM     17  H   UNL A   1      30.423  25.183  24.491  1.00  0.00     0.345 HD
ATOM     18  H   UNL A   1      29.628  23.753  24.803  1.00  0.00     0.345 HD
ENDBRANCH   9  15
BRANCH  13  19
ATOM     19  O   UNL A   1      32.710  26.249  23.018  1.00  0.00    -0.483 OA
BRANCH  19  20
ATOM     20  C   UNL A   1      32.559  27.367  23.784  1.00  0.00     0.197 A 
ATOM     21  C   UNL A   1      33.650  27.782  24.555  1.00  0.00     0.054 A 
ATOM     22  C   UNL A   1      31.350  28.076  23.904  1.00  0.00     0.310 A 
ATOM     23  C   UNL A   1      33.580  28.949  25.323  1.00  0.00     0.004 A 
ATOM     24  C   UNL A   1      31.283  29.261  24.664  1.00  0.00     0.090 A 
ATOM     25  C   UNL A   1      32.407  29.702  25.358  1.00  0.00     0.007 A 
BRANCH  22  26
ATOM     26  N   UNL A   1      30.166  27.705  23.133  1.00  0.00     0.066 N 
ATOM     27  O   UNL A   1      30.038  28.209  22.003  1.00  0.00    -0.258 OA
ATOM     28  O   UNL A   1      29.339  26.944  23.652  1.00  0.00    -0.258 OA
ENDBRANCH  22  26
ENDBRANCH  19  20
ENDBRANCH  13  19
ENDBRANCH   7   9
ENDBRANCH   6   7
ENDBRANCH   5   6
ENDBRANCH   4   5
ENDBRANCH   3   4
ENDBRANCH   2   3
ENDBRANCH   1   2
BRANCH   1  29
ATOM     29  O   UNL A   1      38.508  22.612  25.497  1.00  0.00    -0.377 OA
BRANCH  29  30
ATOM     30  C   UNL A   1      39.461  22.410  26.536  1.00  0.00     0.188 C 
BRANCH  30  31
ATOM     31  C   UNL A   1      40.578  21.381  26.254  1.00  0.00     0.188 C 
BRANCH  31  32
ATOM     32  O   UNL A   1      40.932  20.605  27.391  1.00  0.00    -0.376 OA
BRANCH  32  33
ATOM     33  C   UNL A   1      41.901  19.578  27.286  1.00  0.00     0.202 C 
BRANCH  33  34
ATOM     34  C   UNL A   1      42.347  19.202  25.866  1.00  0.00     0.261 C 
BRANCH  34  35
ATOM     35  O   UNL A   1      43.747  18.949  25.709  1.00  0.00    -0.460 OA
BRANCH  35  36
ATOM     36  C   UNL A   1      44.344  19.480  24.621  1.00  0.00     0.338 C 
ATOM     37  O   UNL A   1      44.479  18.963  23.525  1.00  0.00    -0.246 OA
BRANCH  36  38
ATOM     38  C   UNL A   1      44.617  20.897  24.923  1.00  0.00     0.060 A 
ATOM     39  C   UNL A   1      45.295  21.213  26.107  1.00  0.00     0.016 A 
ATOM     40  C   UNL A   1      44.261  21.900  24.018  1.00  0.00     0.016 A 
ATOM     41  C   UNL A   1      45.621  22.537  26.391  1.00  0.00     0.010 A 
ATOM     42  C   UNL A   1      44.552  23.231  24.321  1.00  0.00     0.010 A 
ATOM     43  C   UNL A   1      45.216  23.553  25.517  1.00  0.00    -0.014 A 
BRANCH  43  44
ATOM     44  C   UNL A   1      45.314  24.964  25.950  1.00  0.00     0.031 A 
ATOM     45  C   UNL A   1      46.654  25.637  25.863  1.00  0.00     0.074 A 
ATOM     46  C   UNL A   1      44.238  25.634  26.394  1.00  0.00     0.049 A 
ATOM     47  N   UNL A   1      47.007  26.839  26.235  1.00  0.00    -0.248 NA
ATOM     48  C   UNL A   1      47.744  24.842  25.275  1.00  0.00     0.031 C 
ATOM     49  C   UNL A   1      42.882  25.099  26.474  1.00  0.00     0.029 A 
ATOM     50  N   UNL A   1      44.127  26.915  26.876  1.00  0.00    -0.354 N 
ATOM     51  C   UNL A   1      48.357  26.943  25.931  1.00  0.00     0.074 A 
ATOM     52  C   UNL A   1      48.767  25.677  25.368  1.00  0.00     0.031 C 
ATOM     53  C   UNL A   1      42.074  26.038  26.996  1.00  0.00     0.029 A 
ATOM     54  C   UNL A   1      42.865  27.225  27.319  1.00  0.00     0.049 A 
ATOM     55  H   UNL A   1      44.879  27.549  26.900  1.00  0.00     0.167 HD
ATOM     56  C   UNL A   1      49.178  28.004  26.105  1.00  0.00     0.037 A 
ATOM     57  C   UNL A   1      42.416  28.331  27.945  1.00  0.00     0.037 A 
ATOM     58  C   UNL A   1      48.763  29.258  26.676  1.00  0.00     0.049 A 
ATOM     59  C   UNL A   1      43.375  29.466  28.209  1.00  0.00     0.074 A 
ATOM     60  C   UNL A   1      49.512  30.403  26.876  1.00  0.00     0.029 A 
ATOM     61  N   UNL A   1      47.487  29.523  27.153  1.00  0.00    -0.354 N 
ATOM     62  N   UNL A   1      44.643  29.573  27.893  1.00  0.00    -0.248 NA
ATOM     63  C   UNL A   1      42.838  30.635  28.922  1.00  0.00     0.031 C 
ATOM     64  C   UNL A   1      48.707  31.339  27.533  1.00  0.00     0.029 A 
ATOM     65  C   UNL A   1      47.439  30.802  27.683  1.00  0.00     0.049 A 
ATOM     66  H   UNL A   1      46.730  28.896  27.119  1.00  0.00     0.167 HD
ATOM     67  C   UNL A   1      45.047  30.825  28.342  1.00  0.00     0.074 A 
ATOM     68  C   UNL A   1      43.884  31.448  28.938  1.00  0.00     0.031 C 
ATOM     69  C   UNL A   1      46.271  31.407  28.272  1.00  0.00     0.037 A 
BRANCH  56  70
ATOM     70  C   UNL A   1      50.616  27.840  25.712  1.00  0.00     0.064 A 
ATOM     71  C   UNL A   1      51.041  27.973  24.382  1.00  0.00     0.173 A 
ATOM     72  C   UNL A   1      51.589  27.579  26.689  1.00  0.00     0.173 A 
ATOM     73  F   UNL A   1      50.148  28.203  23.407  1.00  0.00    -0.203 F 
ATOM     74  C   UNL A   1      52.384  27.827  24.042  1.00  0.00     0.198 A 
ATOM     75  C   UNL A   1      52.934  27.465  26.349  1.00  0.00     0.198 A 
ATOM     76  F   UNL A   1      51.236  27.441  27.975  1.00  0.00    -0.203 F 
ATOM     77  F   UNL A   1      52.760  27.910  22.757  1.00  0.00    -0.200 F 
ATOM     78  C   UNL A   1      53.329  27.584  25.025  1.00  0.00     0.200 A 
ATOM     79  F   UNL A   1      53.847  27.240  27.303  1.00  0.00    -0.200 F 
ATOM     80  F   UNL A   1      54.623  27.454  24.697  1.00  0.00    -0.200 F 
ENDBRANCH  56  70
BRANCH  57  81
ATOM     81  C   UNL A   1      41.001  28.411  28.396  1.00  0.00     0.064 A 
ATOM     82  C   UNL A   1      39.997  28.912  27.557  1.00  0.00     0.173 A 
ATOM     83  C   UNL A   1      40.629  28.019  29.691  1.00  0.00     0.173 A 
ATOM     84  F   UNL A   1      40.306  29.328  26.320  1.00  0.00    -0.203 F 
ATOM     85  C   UNL A   1      38.681  29.039  28.001  1.00  0.00     0.198 A 
ATOM     86  C   UNL A   1      39.309  28.115  30.124  1.00  0.00     0.198 A 
ATOM     87  F   UNL A   1      41.552  27.538  30.538  1.00  0.00    -0.203 F 
ATOM     88  F   UNL A   1      37.754  29.575  27.197  1.00  0.00    -0.200 F 
ATOM     89  C   UNL A   1      38.338  28.634  29.283  1.00  0.00     0.200 A 
ATOM     90  F   UNL A   1      38.980  27.714  31.360  1.00  0.00    -0.200 F 
ATOM     91  F   UNL A   1      37.074  28.759  29.710  1.00  0.00    -0.200 F 
ENDBRANCH  57  81
BRANCH  69  92
ATOM     92  C   UNL A   1      46.411  32.795  28.828  1.00  0.00     0.064 A 
ATOM     93  C   UNL A   1      46.155  33.932  28.048  1.00  0.00     0.173 A 
ATOM     94  C   UNL A   1      46.762  32.990  30.174  1.00  0.00     0.173 A 
ATOM     95  F   UNL A   1      45.829  33.802  26.753  1.00  0.00    -0.203 F 
ATOM     96  C   UNL A   1      46.270  35.212  28.585  1.00  0.00     0.198 A 
ATOM     97  C   UNL A   1      46.841  34.269  30.717  1.00  0.00     0.198 A 
ATOM     98  F   UNL A   1      47.008  31.937  30.969  1.00  0.00    -0.203 F 
ATOM     99  F   UNL A   1      46.069  36.283  27.806  1.00  0.00    -0.200 F 
ATOM    100  C   UNL A   1      46.605  35.379  29.920  1.00  0.00     0.200 A 
ATOM    101  F   UNL A   1      47.147  34.428  32.012  1.00  0.00    -0.200 F 
ATOM    102  F   UNL A   1      46.706  36.611  30.439  1.00  0.00    -0.200 F 
ENDBRANCH  69  92
ENDBRANCH  43  44
ENDBRANCH  36  38
ENDBRANCH  35  36
ENDBRANCH  34  35
ENDBRANCH  33  34
ENDBRANCH  32  33
ENDBRANCH  31  32
ENDBRANCH  30  31
ENDBRANCH  29  30
ENDBRANCH   1  29
TORSDOF 24
ENDMDL
MODEL 2
REMARK VINA RESULT:      -9.5      1.135      2.079
REMARK SMILES [NH3+][C@@]1(C(=O)OCCOCCOCCOCCOC(=O)c2ccc(-c3c4nc(c(-c5c(F)c(F)c(F)c(F)c5F)c5ccc([nH]5)c(-c5c(F)c(F)c(F)c(F)c5F)c5nc(c(-c6c(F)c(F)c(F)c(F)c6F)c6ccc3[nH]6)C=C5)C=C4)cc2)CCC[C@@H](Oc2ccccc2[N+](=O)[O-])C1
REMARK SMILES IDX 10 1 9 2 8 3 7 4 6 5 5 6 3 7 4 8 2 9 83 10 97 11 84 12 86 13
REMARK SMILES IDX 85 14 1 15 87 19 88 20 89 21 93 22 90 23 92 24 91 25 94 26
REMARK SMILES IDX 95 27 96 28 11 29 12 30 13 31 14 32 15 33 16 34 17 35 18 36
REMARK SMILES IDX 19 37 20 38 21 39 82 40 22 41 81 42 23 43 24 44 25 45 75 46
REMARK SMILES IDX 26 47 80 48 74 49 76 50 27 51 79 52 73 53 72 54 28 56 60 57
REMARK SMILES IDX 40 58 59 59 41 60 44 61 58 62 77 63 42 64 43 65 57 67 78 68
REMARK SMILES IDX 45 69 29 70 30 71 38 72 31 73 32 74 36 75 39 76 33 77 34 78
REMARK SMILES IDX 37 79 35 80 61 81 62 82 70 83 63 84 64 85 68 86 71 87 65 88
REMARK SMILES IDX 66 89 69 90 67 91 46 92 47 93 55 94 48 95 49 96 53 97 56 98
REMARK SMILES IDX 50 99 51 100 54 101 52 102
REMARK H PARENT 1 16 1 17 1 18 76 55 44 66
REMARK Flexibility Score: inf
ROOT
ATOM      1  C   UNL A   1      38.266  23.736  26.553  1.00  0.00     0.188 C 
ENDROOT
BRANCH   1   2
ATOM      2  C   UNL A   1      37.169  23.682  25.464  1.00  0.00     0.188 C 
BRANCH   2   3
ATOM      3  O   UNL A   1      35.912  23.061  25.705  1.00  0.00    -0.376 OA
BRANCH   3   4
ATOM      4  C   UNL A   1      35.825  21.698  26.084  1.00  0.00     0.202 C 
BRANCH   4   5
ATOM      5  C   UNL A   1      34.714  20.790  25.539  1.00  0.00     0.261 C 
BRANCH   5   6
ATOM      6  O   UNL A   1      34.253  21.096  24.225  1.00  0.00    -0.459 OA
BRANCH   6   7
ATOM      7  C   UNL A   1      32.901  21.131  24.010  1.00  0.00     0.368 C 
ATOM      8  O   UNL A   1      32.187  20.153  23.845  1.00  0.00    -0.245 OA
BRANCH   7   9
ATOM      9  C   UNL A   1      32.410  22.618  24.045  1.00  0.00     0.196 C 
ATOM     10  C   UNL A   1      31.165  22.896  23.181  1.00  0.00     0.081 C 
ATOM     11  C   UNL A   1      33.575  23.469  23.527  1.00  0.00     0.126 C 
ATOM     12  C   UNL A   1      30.771  24.378  23.193  1.00  0.00     0.011 C 
ATOM     13  C   UNL A   1      33.290  24.972  23.427  1.00  0.00     0.180 C 
ATOM     14  C   UNL A   1      31.922  25.301  22.798  1.00  0.00     0.046 C 
BRANCH   9  15
ATOM     15  N   UNL A   1      32.080  22.973  25.438  1.00  0.00    -0.343 N 
ATOM     16  H   UNL A   1      31.863  23.969  25.493  1.00  0.00     0.345 HD
ATOM     17  H   UNL A   1      32.877  22.766  26.040  1.00  0.00     0.345 HD
ATOM     18  H   UNL A   1      31.272  22.432  25.746  1.00  0.00     0.345 HD
ENDBRANCH   9  15
BRANCH  13  19
ATOM     19  O   UNL A   1      33.706  25.772  24.560  1.00  0.00    -0.483 OA
BRANCH  19  20
ATOM     20  C   UNL A   1      33.096  26.967  24.803  1.00  0.00     0.197 A 
ATOM     21  C   UNL A   1      33.601  28.101  24.158  1.00  0.00     0.054 A 
ATOM     22  C   UNL A   1      32.045  27.136  25.722  1.00  0.00     0.310 A 
ATOM     23  C   UNL A   1      32.991  29.348  24.321  1.00  0.00     0.004 A 
ATOM     24  C   UNL A   1      31.418  28.389  25.876  1.00  0.00     0.090 A 
ATOM     25  C   UNL A   1      31.885  29.489  25.159  1.00  0.00     0.007 A 
BRANCH  22  26
ATOM     26  N   UNL A   1      31.463  26.002  26.436  1.00  0.00     0.066 N 
ATOM     27  O   UNL A   1      30.272  25.729  26.202  1.00  0.00    -0.258 OA
ATOM     28  O   UNL A   1      32.165  25.399  27.258  1.00  0.00    -0.258 OA
ENDBRANCH  22  26
ENDBRANCH  19  20
ENDBRANCH  13  19
ENDBRANCH   7   9
ENDBRANCH   6   7
ENDBRANCH   5   6
ENDBRANCH   4   5
ENDBRANCH   3   4
ENDBRANCH   2   3
ENDBRANCH   1   2
BRANCH   1  29
ATOM     29  O   UNL A   1      39.537  23.275  26.137  1.00  0.00    -0.377 OA
BRANCH  29  30
ATOM     30  C   UNL A   1      40.253  22.568  27.144  1.00  0.00     0.188 C 
BRANCH  30  31
ATOM     31  C   UNL A   1      41.260  21.505  26.653  1.00  0.00     0.188 C 
BRANCH  31  32
ATOM     32  O   UNL A   1      41.260  20.320  27.439  1.00  0.00    -0.376 OA
BRANCH  32  33
ATOM     33  C   UNL A   1      42.179  19.277  27.166  1.00  0.00     0.202 C 
BRANCH  33  34
ATOM     34  C   UNL A   1      42.639  19.136  25.709  1.00  0.00     0.261 C 
BRANCH  34  35
ATOM     35  O   UNL A   1      44.057  19.106  25.513  1.00  0.00    -0.460 OA
BRANCH  35  36
ATOM     36  C   UNL A   1      44.532  19.717  24.406  1.00  0.00     0.338 C 
ATOM     37  O   UNL A   1      44.560  19.274  23.271  1.00  0.00    -0.246 OA
BRANCH  36  38
ATOM     38  C   UNL A   1      44.817  21.117  24.772  1.00  0.00     0.060 A 
ATOM     39  C   UNL A   1      45.346  21.385  26.041  1.00  0.00     0.016 A 
ATOM     40  C   UNL A   1      44.622  22.147  23.850  1.00  0.00     0.016 A 
ATOM     41  C   UNL A   1      45.682  22.690  26.393  1.00  0.00     0.010 A 
ATOM     42  C   UNL A   1      44.922  23.460  24.217  1.00  0.00     0.010 A 
ATOM     43  C   UNL A   1      45.435  23.736  25.496  1.00  0.00    -0.014 A 
BRANCH  43  44
ATOM     44  C   UNL A   1      45.530  25.135  25.968  1.00  0.00     0.031 A 
ATOM     45  C   UNL A   1      46.870  25.810  25.910  1.00  0.00     0.074 A 
ATOM     46  C   UNL A   1      44.451  25.792  26.424  1.00  0.00     0.049 A 
ATOM     47  N   UNL A   1      47.220  27.001  26.317  1.00  0.00    -0.248 NA
ATOM     48  C   UNL A   1      47.964  25.032  25.307  1.00  0.00     0.031 C 
ATOM     49  C   UNL A   1      43.094  25.254  26.479  1.00  0.00     0.029 A 
ATOM     50  N   UNL A   1      44.335  27.059  26.940  1.00  0.00    -0.354 N 
ATOM     51  C   UNL A   1      48.572  27.114  26.025  1.00  0.00     0.074 A 
ATOM     52  C   UNL A   1      48.987  25.863  25.429  1.00  0.00     0.031 C 
ATOM     53  C   UNL A   1      42.282  26.178  27.022  1.00  0.00     0.029 A 
ATOM     54  C   UNL A   1      43.071  27.357  27.383  1.00  0.00     0.049 A 
ATOM     55  H   UNL A   1      45.087  27.692  26.987  1.00  0.00     0.167 HD
ATOM     56  C   UNL A   1      49.392  28.170  26.233  1.00  0.00     0.037 A 
ATOM     57  C   UNL A   1      42.617  28.445  28.036  1.00  0.00     0.037 A 
ATOM     58  C   UNL A   1      48.972  29.407  26.835  1.00  0.00     0.049 A 
ATOM     59  C   UNL A   1      43.573  29.572  28.338  1.00  0.00     0.074 A 
ATOM     60  C   UNL A   1      49.719  30.547  27.072  1.00  0.00     0.029 A 
ATOM     61  N   UNL A   1      47.693  29.659  27.312  1.00  0.00    -0.354 N 
ATOM     62  N   UNL A   1      44.844  29.688  28.033  1.00  0.00    -0.248 NA
ATOM     63  C   UNL A   1      43.031  30.721  29.079  1.00  0.00     0.031 C 
ATOM     64  C   UNL A   1      48.910  31.464  27.750  1.00  0.00     0.029 A 
ATOM     65  C   UNL A   1      47.641  30.923  27.876  1.00  0.00     0.049 A 
ATOM     66  H   UNL A   1      46.936  29.033  27.255  1.00  0.00     0.167 HD
ATOM     67  C   UNL A   1      45.244  30.927  28.520  1.00  0.00     0.074 A 
ATOM     68  C   UNL A   1      44.077  31.534  29.124  1.00  0.00     0.031 C 
ATOM     69  C   UNL A   1      46.468  31.511  28.474  1.00  0.00     0.037 A 
BRANCH  56  70
ATOM     70  C   UNL A   1      50.832  28.017  25.846  1.00  0.00     0.064 A 
ATOM     71  C   UNL A   1      51.267  28.194  24.524  1.00  0.00     0.173 A 
ATOM     72  C   UNL A   1      51.797  27.721  26.820  1.00  0.00     0.173 A 
ATOM     73  F   UNL A   1      50.381  28.459  23.551  1.00  0.00    -0.203 F 
ATOM     74  C   UNL A   1      52.612  28.058  24.189  1.00  0.00     0.198 A 
ATOM     75  C   UNL A   1      53.145  27.617  26.487  1.00  0.00     0.198 A 
ATOM     76  F   UNL A   1      51.434  27.540  28.098  1.00  0.00    -0.203 F 
ATOM     77  F   UNL A   1      52.998  28.184  22.911  1.00  0.00    -0.200 F 
ATOM     78  C   UNL A   1      53.550  27.780  25.170  1.00  0.00     0.200 A 
ATOM     79  F   UNL A   1      54.051  27.358  27.440  1.00  0.00    -0.200 F 
ATOM     80  F   UNL A   1      54.846  27.659  24.848  1.00  0.00    -0.200 F 
ENDBRANCH  56  70
BRANCH  57  81
ATOM     81  C   UNL A   1      41.199  28.512  28.479  1.00  0.00     0.064 A 
ATOM     82  C   UNL A   1      40.811  28.056  29.747  1.00  0.00     0.173 A 
ATOM     83  C   UNL A   1      40.195  29.001  27.629  1.00  0.00     0.173 A 
ATOM     84  F   UNL A   1      41.728  27.552  30.586  1.00  0.00    -0.203 F 
ATOM     85  C   UNL A   1      39.473  28.068  30.140  1.00  0.00     0.198 A 
ATOM     86  C   UNL A   1      38.863  29.041  28.035  1.00  0.00     0.198 A 
ATOM     87  F   UNL A   1      40.510  29.442  26.403  1.00  0.00    -0.203 F 
ATOM     88  F   UNL A   1      39.124  27.573  31.335  1.00  0.00    -0.200 F 
ATOM     89  C   UNL A   1      38.501  28.566  29.285  1.00  0.00     0.200 A 
ATOM     90  F   UNL A   1      37.929  29.533  27.208  1.00  0.00    -0.200 F 
ATOM     91  F   UNL A   1      37.216  28.574  29.662  1.00  0.00    -0.200 F 
ENDBRANCH  57  81
BRANCH  69  92
ATOM     92  C   UNL A   1      46.604  32.884  29.069  1.00  0.00     0.064 A 
ATOM     93  C   UNL A   1      47.001  33.075  30.400  1.00  0.00     0.173 A 
ATOM     94  C   UNL A   1      46.378  34.024  28.282  1.00  0.00     0.173 A 
ATOM     95  F   UNL A   1      47.217  32.019  31.198  1.00  0.00    -0.203 F 
ATOM     96  C   UNL A   1      47.141  34.356  30.929  1.00  0.00     0.198 A 
ATOM     97  C   UNL A   1      46.554  35.303  28.804  1.00  0.00     0.198 A 
ATOM     98  F   UNL A   1      46.006  33.899  26.998  1.00  0.00    -0.203 F 
ATOM     99  F   UNL A   1      47.473  34.512  32.218  1.00  0.00    -0.200 F 
ATOM    100  C   UNL A   1      46.925  35.467  30.129  1.00  0.00     0.200 A 
ATOM    101  F   UNL A   1      46.363  36.376  28.023  1.00  0.00    -0.200 F 
ATOM    102  F   UNL A   1      47.071  36.699  30.637  1.00  0.00    -0.200 F 
ENDBRANCH  69  92
ENDBRANCH  43  44
ENDBRANCH  36  38
ENDBRANCH  35  36
ENDBRANCH  34  35
ENDBRANCH  33  34
ENDBRANCH  32  33
ENDBRANCH  31  32
ENDBRANCH  30  31
ENDBRANCH  29  30
ENDBRANCH   1  29
TORSDOF 24
ENDMDL
MODEL 3
REMARK VINA RESULT:      -9.3      1.201      2.050
REMARK SMILES [NH3+][C@@]1(C(=O)OCCOCCOCCOCCOC(=O)c2ccc(-c3c4nc(c(-c5c(F)c(F)c(F)c(F)c5F)c5ccc([nH]5)c(-c5c(F)c(F)c(F)c(F)c5F)c5nc(c(-c6c(F)c(F)c(F)c(F)c6F)c6ccc3[nH]6)C=C5)C=C4)cc2)CCC[C@@H](Oc2ccccc2[N+](=O)[O-])C1
REMARK SMILES IDX 10 1 9 2 8 3 7 4 6 5 5 6 3 7 4 8 2 9 83 10 97 11 84 12 86 13
REMARK SMILES IDX 85 14 1 15 87 19 88 20 89 21 93 22 90 23 92 24 91 25 94 26
REMARK SMILES IDX 95 27 96 28 11 29 12 30 13 31 14 32 15 33 16 34 17 35 18 36
REMARK SMILES IDX 19 37 20 38 21 39 82 40 22 41 81 42 23 43 24 44 25 45 75 46
REMARK SMILES IDX 26 47 80 48 74 49 76 50 27 51 79 52 73 53 72 54 28 56 60 57
REMARK SMILES IDX 40 58 59 59 41 60 44 61 58 62 77 63 42 64 43 65 57 67 78 68
REMARK SMILES IDX 45 69 29 70 30 71 38 72 31 73 32 74 36 75 39 76 33 77 34 78
REMARK SMILES IDX 37 79 35 80 61 81 62 82 70 83 63 84 64 85 68 86 71 87 65 88
REMARK SMILES IDX 66 89 69 90 67 91 46 92 47 93 55 94 48 95 49 96 53 97 56 98
REMARK SMILES IDX 50 99 51 100 54 101 52 102
REMARK H PARENT 1 16 1 17 1 18 76 55 44 66
REMARK Flexibility Score: inf
ROOT
ATOM      1  C   UNL A   1      36.990  22.629  25.169  1.00  0.00     0.188 C 
ENDROOT
BRANCH   1   2
ATOM      2  C   UNL A   1      36.997  21.171  24.654  1.00  0.00     0.188 C 
BRANCH   2   3
ATOM      3  O   UNL A   1      35.974  20.250  25.012  1.00  0.00    -0.376 OA
BRANCH   3   4
ATOM      4  C   UNL A   1      34.634  20.674  25.191  1.00  0.00     0.202 C 
BRANCH   4   5
ATOM      5  C   UNL A   1      33.474  19.973  24.471  1.00  0.00     0.261 C 
BRANCH   5   6
ATOM      6  O   UNL A   1      32.295  20.754  24.290  1.00  0.00    -0.459 OA
BRANCH   6   7
ATOM      7  C   UNL A   1      32.399  21.921  23.579  1.00  0.00     0.368 C 
ATOM      8  O   UNL A   1      32.650  21.999  22.386  1.00  0.00    -0.245 OA
BRANCH   7   9
ATOM      9  C   UNL A   1      32.109  23.133  24.527  1.00  0.00     0.196 C 
ATOM     10  C   UNL A   1      31.660  22.735  25.946  1.00  0.00     0.081 C 
ATOM     11  C   UNL A   1      30.993  23.946  23.860  1.00  0.00     0.126 C 
ATOM     12  C   UNL A   1      31.320  23.957  26.808  1.00  0.00     0.011 C 
ATOM     13  C   UNL A   1      30.512  25.166  24.655  1.00  0.00     0.180 C 
ATOM     14  C   UNL A   1      30.295  24.880  26.153  1.00  0.00     0.046 C 
BRANCH   9  15
ATOM     15  N   UNL A   1      33.340  23.937  24.653  1.00  0.00    -0.343 N 
ATOM     16  H   UNL A   1      33.136  24.790  25.175  1.00  0.00     0.345 HD
ATOM     17  H   UNL A   1      33.683  24.182  23.724  1.00  0.00     0.345 HD
ATOM     18  H   UNL A   1      34.051  23.397  25.147  1.00  0.00     0.345 HD
ENDBRANCH   9  15
BRANCH  13  19
ATOM     19  O   UNL A   1      31.124  26.430  24.305  1.00  0.00    -0.483 OA
BRANCH  19  20
ATOM     20  C   UNL A   1      30.359  27.425  23.771  1.00  0.00     0.197 A 
ATOM     21  C   UNL A   1      28.985  27.196  23.644  1.00  0.00     0.054 A 
ATOM     22  C   UNL A   1      30.883  28.631  23.272  1.00  0.00     0.310 A 
ATOM     23  C   UNL A   1      28.136  28.194  23.154  1.00  0.00     0.004 A 
ATOM     24  C   UNL A   1      30.028  29.643  22.792  1.00  0.00     0.090 A 
ATOM     25  C   UNL A   1      28.652  29.426  22.752  1.00  0.00     0.007 A 
BRANCH  22  26
ATOM     26  N   UNL A   1      32.307  28.944  23.366  1.00  0.00     0.066 N 
ATOM     27  O   UNL A   1      32.681  29.616  24.344  1.00  0.00    -0.258 OA
ATOM     28  O   UNL A   1      33.057  28.561  22.459  1.00  0.00    -0.258 OA
ENDBRANCH  22  26
ENDBRANCH  19  20
ENDBRANCH  13  19
ENDBRANCH   7   9
ENDBRANCH   6   7
ENDBRANCH   5   6
ENDBRANCH   4   5
ENDBRANCH   3   4
ENDBRANCH   2   3
ENDBRANCH   1   2
BRANCH   1  29
ATOM     29  O   UNL A   1      38.272  23.177  25.413  1.00  0.00    -0.377 OA
BRANCH  29  30
ATOM     30  C   UNL A   1      38.895  22.684  26.595  1.00  0.00     0.188 C 
BRANCH  30  31
ATOM     31  C   UNL A   1      40.235  21.939  26.406  1.00  0.00     0.188 C 
BRANCH  31  32
ATOM     32  O   UNL A   1      40.080  20.541  26.192  1.00  0.00    -0.376 OA
BRANCH  32  33
ATOM     33  C   UNL A   1      41.177  19.663  26.364  1.00  0.00     0.202 C 
BRANCH  33  34
ATOM     34  C   UNL A   1      42.520  20.124  25.780  1.00  0.00     0.261 C 
BRANCH  34  35
ATOM     35  O   UNL A   1      43.366  19.080  25.288  1.00  0.00    -0.460 OA
BRANCH  35  36
ATOM     36  C   UNL A   1      44.417  19.455  24.528  1.00  0.00     0.338 C 
ATOM     37  O   UNL A   1      44.932  18.831  23.616  1.00  0.00    -0.246 OA
BRANCH  36  38
ATOM     38  C   UNL A   1      44.705  20.866  24.851  1.00  0.00     0.060 A 
ATOM     39  C   UNL A   1      45.243  21.171  26.107  1.00  0.00     0.016 A 
ATOM     40  C   UNL A   1      44.503  21.869  23.900  1.00  0.00     0.016 A 
ATOM     41  C   UNL A   1      45.582  22.485  26.419  1.00  0.00     0.010 A 
ATOM     42  C   UNL A   1      44.805  23.192  24.226  1.00  0.00     0.010 A 
ATOM     43  C   UNL A   1      45.329  23.505  25.494  1.00  0.00    -0.014 A 
BRANCH  43  44
ATOM     44  C   UNL A   1      45.427  24.917  25.924  1.00  0.00     0.031 A 
ATOM     45  C   UNL A   1      46.768  25.586  25.846  1.00  0.00     0.074 A 
ATOM     46  C   UNL A   1      44.349  25.590  26.358  1.00  0.00     0.049 A 
ATOM     47  N   UNL A   1      47.121  26.788  26.218  1.00  0.00    -0.248 NA
ATOM     48  C   UNL A   1      47.861  24.787  25.268  1.00  0.00     0.031 C 
ATOM     49  C   UNL A   1      42.990  25.058  26.429  1.00  0.00     0.029 A 
ATOM     50  N   UNL A   1      44.236  26.872  26.836  1.00  0.00    -0.354 N 
ATOM     51  C   UNL A   1      48.474  26.888  25.924  1.00  0.00     0.074 A 
ATOM     52  C   UNL A   1      48.886  25.619  25.366  1.00  0.00     0.031 C 
ATOM     53  C   UNL A   1      42.181  26.000  26.943  1.00  0.00     0.029 A 
ATOM     54  C   UNL A   1      42.972  27.186  27.269  1.00  0.00     0.049 A 
ATOM     55  H   UNL A   1      44.990  27.504  26.865  1.00  0.00     0.167 HD
ATOM     56  C   UNL A   1      49.296  27.947  26.102  1.00  0.00     0.037 A 
ATOM     57  C   UNL A   1      42.521  28.294  27.889  1.00  0.00     0.037 A 
ATOM     58  C   UNL A   1      48.880  29.203  26.666  1.00  0.00     0.049 A 
ATOM     59  C   UNL A   1      43.480  29.428  28.159  1.00  0.00     0.074 A 
ATOM     60  C   UNL A   1      49.630  30.348  26.870  1.00  0.00     0.029 A 
ATOM     61  N   UNL A   1      47.601  29.473  27.134  1.00  0.00    -0.354 N 
ATOM     62  N   UNL A   1      44.751  29.531  27.852  1.00  0.00    -0.248 NA
ATOM     63  C   UNL A   1      42.941  30.599  28.864  1.00  0.00     0.031 C 
ATOM     64  C   UNL A   1      48.823  31.287  27.519  1.00  0.00     0.029 A 
ATOM     65  C   UNL A   1      47.552  30.753  27.660  1.00  0.00     0.049 A 
ATOM     66  H   UNL A   1      46.842  28.847  27.095  1.00  0.00     0.167 HD
ATOM     67  C   UNL A   1      45.155  30.783  28.301  1.00  0.00     0.074 A 
ATOM     68  C   UNL A   1      43.988  31.410  28.886  1.00  0.00     0.031 C 
ATOM     69  C   UNL A   1      46.380  31.362  28.239  1.00  0.00     0.037 A 
BRANCH  56  70
ATOM     70  C   UNL A   1      50.737  27.779  25.721  1.00  0.00     0.064 A 
ATOM     71  C   UNL A   1      51.721  27.456  26.667  1.00  0.00     0.173 A 
ATOM     72  C   UNL A   1      51.132  27.910  24.381  1.00  0.00     0.173 A 
ATOM     73  F   UNL A   1      51.399  27.339  27.964  1.00  0.00    -0.203 F 
ATOM     74  C   UNL A   1      53.052  27.294  26.288  1.00  0.00     0.198 A 
ATOM     75  C   UNL A   1      52.458  27.716  24.002  1.00  0.00     0.198 A 
ATOM     76  F   UNL A   1      50.231  28.220  23.437  1.00  0.00    -0.203 F 
ATOM     77  F   UNL A   1      53.983  27.033  27.216  1.00  0.00    -0.200 F 
ATOM     78  C   UNL A   1      53.417  27.414  24.957  1.00  0.00     0.200 A 
ATOM     79  F   UNL A   1      52.806  27.823  22.712  1.00  0.00    -0.200 F 
ATOM     80  F   UNL A   1      54.696  27.247  24.592  1.00  0.00    -0.200 F 
ENDBRANCH  56  70
BRANCH  57  81
ATOM     81  C   UNL A   1      41.103  28.378  28.329  1.00  0.00     0.064 A 
ATOM     82  C   UNL A   1      40.117  28.936  27.504  1.00  0.00     0.173 A 
ATOM     83  C   UNL A   1      40.711  27.934  29.602  1.00  0.00     0.173 A 
ATOM     84  F   UNL A   1      40.446  29.402  26.290  1.00  0.00    -0.203 F 
ATOM     85  C   UNL A   1      38.799  29.065  27.941  1.00  0.00     0.198 A 
ATOM     86  C   UNL A   1      39.387  28.034  30.025  1.00  0.00     0.198 A 
ATOM     87  F   UNL A   1      41.615  27.399  30.435  1.00  0.00    -0.203 F 
ATOM     88  F   UNL A   1      37.890  29.654  27.152  1.00  0.00    -0.200 F 
ATOM     89  C   UNL A   1      38.435  28.609  29.199  1.00  0.00     0.200 A 
ATOM     90  F   UNL A   1      39.038  27.582  31.238  1.00  0.00    -0.200 F 
ATOM     91  F   UNL A   1      37.168  28.735  29.618  1.00  0.00    -0.200 F 
ENDBRANCH  57  81
BRANCH  69  92
ATOM     92  C   UNL A   1      46.520  32.751  28.793  1.00  0.00     0.064 A 
ATOM     93  C   UNL A   1      46.197  33.884  28.032  1.00  0.00     0.173 A 
ATOM     94  C   UNL A   1      46.938  32.949  30.119  1.00  0.00     0.173 A 
ATOM     95  F   UNL A   1      45.806  33.752  26.756  1.00  0.00    -0.203 F 
ATOM     96  C   UNL A   1      46.313  35.165  28.569  1.00  0.00     0.198 A 
ATOM     97  C   UNL A   1      47.018  34.228  30.663  1.00  0.00     0.198 A 
ATOM     98  F   UNL A   1      47.248  31.899  30.895  1.00  0.00    -0.203 F 
ATOM     99  F   UNL A   1      46.048  36.234  27.806  1.00  0.00    -0.200 F 
ATOM    100  C   UNL A   1      46.716  35.334  29.885  1.00  0.00     0.200 A 
ATOM    101  F   UNL A   1      47.389  34.389  31.941  1.00  0.00    -0.200 F 
ATOM    102  F   UNL A   1      46.816  36.567  30.403  1.00  0.00    -0.200 F 
ENDBRANCH  69  92
ENDBRANCH  43  44
ENDBRANCH  36  38
ENDBRANCH  35  36
ENDBRANCH  34  35
ENDBRANCH  33  34
ENDBRANCH  32  33
ENDBRANCH  31  32
ENDBRANCH  30  31
ENDBRANCH  29  30
ENDBRANCH   1  29
TORSDOF 24
ENDMDL
