MODEL 1
REMARK VINA RESULT:     -11.2      0.000      0.000
REMARK SMILES Cc1cc(NC(=O)c2ccc(Br)cc2N)ccc1C(=O)OCCOCCOCCOCCOC(=O)c1ccc(-c2c3nc(c(-c4c(F)c(F)c(F)c(F)c4F)c4ccc([nH]4)c(-c4c(F)c(F)c(F)c(F)c4F)c4nc(c(-c5c(F)c(F)c(F)c(F)c5F)c5ccc2[nH]5)C=C4)C=C3)cc1
REMARK SMILES IDX 26 1 25 2 24 3 23 4 22 5 21 6 19 7 20 8 18 9 1 10 2 11 3 12
REMARK SMILES IDX 4 13 17 14 16 15 5 16 6 17 7 19 8 20 9 21 14 22 10 23 13 24
REMARK SMILES IDX 11 25 12 26 15 27 27 30 28 31 29 32 30 33 31 34 32 35 33 36
REMARK SMILES IDX 34 37 35 38 36 39 37 40 98 41 38 42 97 43 39 44 40 45 41 46
REMARK SMILES IDX 91 47 42 48 96 49 90 50 92 51 43 52 95 53 89 54 88 55 44 57
REMARK SMILES IDX 76 58 56 59 75 60 57 61 60 62 74 63 93 64 58 65 59 66 73 68
REMARK SMILES IDX 94 69 61 70 45 71 46 72 54 73 47 74 48 75 52 76 55 77 49 78
REMARK SMILES IDX 50 79 53 80 51 81 77 82 78 83 86 84 79 85 80 86 84 87 87 88
REMARK SMILES IDX 81 89 82 90 85 91 83 92 62 93 63 94 71 95 64 96 65 97 69 98
REMARK SMILES IDX 72 99 66 100 67 101 70 102 68 103
REMARK H PARENT 5 18 15 28 15 29 92 56 60 67
REMARK Flexibility Score: inf
ROOT
ATOM      1  C   UNL A   1      31.061  26.458  25.905  1.00  0.00     0.188 C 
ENDROOT
BRANCH   1   2
ATOM      2  C   UNL A   1      29.898  25.832  25.114  1.00  0.00     0.188 C 
BRANCH   2   3
ATOM      3  O   UNL A   1      29.508  26.349  23.853  1.00  0.00    -0.376 OA
BRANCH   3   4
ATOM      4  C   UNL A   1      30.232  27.476  23.372  1.00  0.00     0.202 C 
BRANCH   4   5
ATOM      5  C   UNL A   1      31.002  27.341  22.073  1.00  0.00     0.261 C 
BRANCH   5   6
ATOM      6  O   UNL A   1      31.285  25.962  21.887  1.00  0.00    -0.460 OA
BRANCH   6   7
ATOM      7  C   UNL A   1      32.555  25.710  21.548  1.00  0.00     0.338 C 
ATOM      8  O   UNL A   1      33.142  26.079  20.552  1.00  0.00    -0.246 OA
BRANCH   7   9
ATOM      9  C   UNL A   1      33.229  25.240  22.774  1.00  0.00     0.063 A 
ATOM     10  C   UNL A   1      34.033  27.532  23.676  1.00  0.00     0.045 C 
ATOM     11  C   UNL A   1      33.885  26.042  23.725  1.00  0.00    -0.035 A 
ATOM     12  C   UNL A   1      34.323  25.421  24.893  1.00  0.00     0.030 A 
ATOM     13  C   UNL A   1      34.044  24.078  25.110  1.00  0.00     0.041 A 
ATOM     14  C   UNL A   1      33.235  23.839  22.893  1.00  0.00     0.018 A 
ATOM     15  C   UNL A   1      33.676  23.245  24.061  1.00  0.00     0.027 A 
BRANCH  13  16
ATOM     16  N   UNL A   1      33.877  23.580  26.397  1.00  0.00    -0.322 N 
ATOM     17  C   UNL A   1      33.733  22.267  26.807  1.00  0.00     0.257 C 
ATOM     18  H   UNL A   1      33.859  24.253  27.114  1.00  0.00     0.170 HD
ATOM     19  O   UNL A   1      33.486  22.075  28.001  1.00  0.00    -0.269 OA
BRANCH  17  20
ATOM     20  C   UNL A   1      33.878  21.063  25.914  1.00  0.00     0.063 A 
ATOM     21  C   UNL A   1      32.658  20.403  25.659  1.00  0.00     0.017 A 
ATOM     22  C   UNL A   1      35.074  20.512  25.391  1.00  0.00     0.045 A 
ATOM     23  C   UNL A   1      32.607  19.223  24.916  1.00  0.00     0.016 A 
ATOM     24  C   UNL A   1      34.996  19.332  24.622  1.00  0.00     0.042 A 
ATOM     25  C   UNL A   1      33.779  18.694  24.395  1.00  0.00     0.020 A 
ATOM     26  Br  UNL A   1      33.733  17.072  23.426  1.00  0.00    -0.051 Br
BRANCH  22  27
ATOM     27  N   UNL A   1      36.362  20.945  25.711  1.00  0.00    -0.398 N 
ATOM     28  H   UNL A   1      36.507  21.865  26.029  1.00  0.00     0.156 HD
ATOM     29  H   UNL A   1      37.125  20.329  25.619  1.00  0.00     0.156 HD
ENDBRANCH  22  27
ENDBRANCH  17  20
ENDBRANCH  13  16
ENDBRANCH   7   9
ENDBRANCH   6   7
ENDBRANCH   5   6
ENDBRANCH   4   5
ENDBRANCH   3   4
ENDBRANCH   2   3
ENDBRANCH   1   2
BRANCH   1  30
ATOM     30  O   UNL A   1      30.856  26.931  27.226  1.00  0.00    -0.377 OA
BRANCH  30  31
ATOM     31  C   UNL A   1      31.410  28.189  27.593  1.00  0.00     0.188 C 
BRANCH  31  32
ATOM     32  C   UNL A   1      32.283  28.919  26.585  1.00  0.00     0.188 C 
BRANCH  32  33
ATOM     33  O   UNL A   1      31.744  30.229  26.433  1.00  0.00    -0.376 OA
BRANCH  33  34
ATOM     34  C   UNL A   1      32.552  31.294  26.916  1.00  0.00     0.202 C 
BRANCH  34  35
ATOM     35  C   UNL A   1      33.981  30.860  27.258  1.00  0.00     0.261 C 
BRANCH  35  36
ATOM     36  O   UNL A   1      34.755  32.022  27.620  1.00  0.00    -0.460 OA
BRANCH  36  37
ATOM     37  C   UNL A   1      35.374  31.954  28.830  1.00  0.00     0.338 C 
ATOM     38  O   UNL A   1      35.374  32.841  29.668  1.00  0.00    -0.246 OA
BRANCH  37  39
ATOM     39  C   UNL A   1      36.276  30.766  28.877  1.00  0.00     0.060 A 
ATOM     40  C   UNL A   1      36.114  29.785  29.869  1.00  0.00     0.016 A 
ATOM     41  C   UNL A   1      37.454  30.800  28.147  1.00  0.00     0.016 A 
ATOM     42  C   UNL A   1      37.197  28.973  30.249  1.00  0.00     0.010 A 
ATOM     43  C   UNL A   1      38.536  30.074  28.598  1.00  0.00     0.010 A 
ATOM     44  C   UNL A   1      38.451  29.189  29.685  1.00  0.00    -0.014 A 
BRANCH  44  45
ATOM     45  C   UNL A   1      39.743  28.692  30.215  1.00  0.00     0.031 A 
ATOM     46  C   UNL A   1      40.366  27.478  29.582  1.00  0.00     0.074 A 
ATOM     47  C   UNL A   1      40.507  29.526  30.972  1.00  0.00     0.049 A 
ATOM     48  N   UNL A   1      41.574  27.080  29.788  1.00  0.00    -0.248 NA
ATOM     49  C   UNL A   1      39.696  26.629  28.598  1.00  0.00     0.031 C 
ATOM     50  C   UNL A   1      41.966  29.524  31.085  1.00  0.00     0.029 A 
ATOM     51  N   UNL A   1      40.154  30.621  31.761  1.00  0.00    -0.354 N 
ATOM     52  C   UNL A   1      41.947  26.205  28.790  1.00  0.00     0.074 A 
ATOM     53  C   UNL A   1      40.710  25.896  28.120  1.00  0.00     0.031 C 
ATOM     54  C   UNL A   1      42.395  30.465  31.933  1.00  0.00     0.029 A 
ATOM     55  C   UNL A   1      41.226  30.946  32.613  1.00  0.00     0.049 A 
ATOM     56  H   UNL A   1      39.291  31.093  31.726  1.00  0.00     0.167 HD
ATOM     57  C   UNL A   1      43.283  25.959  28.603  1.00  0.00     0.037 A 
ATOM     58  C   UNL A   1      41.088  30.801  33.965  1.00  0.00     0.037 A 
ATOM     59  C   UNL A   1      44.081  26.524  29.715  1.00  0.00     0.049 A 
ATOM     60  C   UNL A   1      41.928  29.606  34.411  1.00  0.00     0.074 A 
ATOM     61  C   UNL A   1      45.165  27.381  29.811  1.00  0.00     0.029 A 
ATOM     62  N   UNL A   1      43.637  26.341  31.030  1.00  0.00    -0.354 N 
ATOM     63  N   UNL A   1      42.127  28.538  33.663  1.00  0.00    -0.248 NA
ATOM     64  C   UNL A   1      42.872  29.684  35.527  1.00  0.00     0.031 C 
ATOM     65  C   UNL A   1      45.244  27.841  31.163  1.00  0.00     0.029 A 
ATOM     66  C   UNL A   1      44.270  27.190  31.915  1.00  0.00     0.049 A 
ATOM     67  H   UNL A   1      42.952  25.684  31.293  1.00  0.00     0.167 HD
ATOM     68  C   UNL A   1      43.292  27.927  34.059  1.00  0.00     0.074 A 
ATOM     69  C   UNL A   1      43.686  28.646  35.265  1.00  0.00     0.031 C 
ATOM     70  C   UNL A   1      44.062  27.043  33.349  1.00  0.00     0.037 A 
BRANCH  57  71
ATOM     71  C   UNL A   1      43.930  25.343  27.356  1.00  0.00     0.064 A 
ATOM     72  C   UNL A   1      43.792  23.960  27.081  1.00  0.00     0.173 A 
ATOM     73  C   UNL A   1      44.776  26.021  26.449  1.00  0.00     0.173 A 
ATOM     74  F   UNL A   1      43.011  23.177  27.838  1.00  0.00    -0.203 F 
ATOM     75  C   UNL A   1      44.446  23.320  26.016  1.00  0.00     0.198 A 
ATOM     76  C   UNL A   1      45.382  25.391  25.348  1.00  0.00     0.198 A 
ATOM     77  F   UNL A   1      45.096  27.309  26.607  1.00  0.00    -0.203 F 
ATOM     78  F   UNL A   1      44.310  21.996  25.847  1.00  0.00    -0.200 F 
ATOM     79  C   UNL A   1      45.229  24.038  25.140  1.00  0.00     0.200 A 
ATOM     80  F   UNL A   1      46.134  26.110  24.502  1.00  0.00    -0.200 F 
ATOM     81  F   UNL A   1      45.839  23.433  24.110  1.00  0.00    -0.200 F 
ENDBRANCH  57  71
BRANCH  58  82
ATOM     82  C   UNL A   1      39.785  31.406  34.392  1.00  0.00     0.064 A 
ATOM     83  C   UNL A   1      39.818  32.826  34.407  1.00  0.00     0.173 A 
ATOM     84  C   UNL A   1      38.563  30.813  34.031  1.00  0.00     0.173 A 
ATOM     85  F   UNL A   1      40.946  33.456  34.776  1.00  0.00    -0.203 F 
ATOM     86  C   UNL A   1      38.815  33.584  33.800  1.00  0.00     0.198 A 
ATOM     87  C   UNL A   1      37.534  31.590  33.473  1.00  0.00     0.198 A 
ATOM     88  F   UNL A   1      38.443  29.479  33.998  1.00  0.00    -0.203 F 
ATOM     89  F   UNL A   1      39.004  34.895  33.584  1.00  0.00    -0.200 F 
ATOM     90  C   UNL A   1      37.698  32.957  33.284  1.00  0.00     0.200 A 
ATOM     91  F   UNL A   1      36.438  30.996  32.979  1.00  0.00    -0.200 F 
ATOM     92  F   UNL A   1      36.825  33.649  32.536  1.00  0.00    -0.200 F 
ENDBRANCH  58  82
BRANCH  70  93
ATOM     93  C   UNL A   1      44.683  25.838  34.023  1.00  0.00     0.064 A 
ATOM     94  C   UNL A   1      43.919  24.745  34.463  1.00  0.00     0.173 A 
ATOM     95  C   UNL A   1      46.089  25.645  34.033  1.00  0.00     0.173 A 
ATOM     96  F   UNL A   1      42.580  24.757  34.417  1.00  0.00    -0.203 F 
ATOM     97  C   UNL A   1      44.512  23.569  34.917  1.00  0.00     0.198 A 
ATOM     98  C   UNL A   1      46.673  24.447  34.430  1.00  0.00     0.198 A 
ATOM     99  F   UNL A   1      46.945  26.588  33.618  1.00  0.00    -0.203 F 
ATOM    100  F   UNL A   1      43.736  22.569  35.353  1.00  0.00    -0.200 F 
ATOM    101  C   UNL A   1      45.885  23.414  34.886  1.00  0.00     0.200 A 
ATOM    102  F   UNL A   1      48.001  24.292  34.336  1.00  0.00    -0.200 F 
ATOM    103  F   UNL A   1      46.445  22.263  35.278  1.00  0.00    -0.200 F 
ENDBRANCH  70  93
ENDBRANCH  44  45
ENDBRANCH  37  39
ENDBRANCH  36  37
ENDBRANCH  35  36
ENDBRANCH  34  35
ENDBRANCH  33  34
ENDBRANCH  32  33
ENDBRANCH  31  32
ENDBRANCH  30  31
ENDBRANCH   1  30
TORSDOF 23
ENDMDL
MODEL 2
REMARK VINA RESULT:     -11.2      3.484      9.395
REMARK SMILES Cc1cc(NC(=O)c2ccc(Br)cc2N)ccc1C(=O)OCCOCCOCCOCCOC(=O)c1ccc(-c2c3nc(c(-c4c(F)c(F)c(F)c(F)c4F)c4ccc([nH]4)c(-c4c(F)c(F)c(F)c(F)c4F)c4nc(c(-c5c(F)c(F)c(F)c(F)c5F)c5ccc2[nH]5)C=C4)C=C3)cc1
REMARK SMILES IDX 26 1 25 2 24 3 23 4 22 5 21 6 19 7 20 8 18 9 1 10 2 11 3 12
REMARK SMILES IDX 4 13 17 14 16 15 5 16 6 17 7 19 8 20 9 21 14 22 10 23 13 24
REMARK SMILES IDX 11 25 12 26 15 27 27 30 28 31 29 32 30 33 31 34 32 35 33 36
REMARK SMILES IDX 34 37 35 38 36 39 37 40 98 41 38 42 97 43 39 44 40 45 41 46
REMARK SMILES IDX 91 47 42 48 96 49 90 50 92 51 43 52 95 53 89 54 88 55 44 57
REMARK SMILES IDX 76 58 56 59 75 60 57 61 60 62 74 63 93 64 58 65 59 66 73 68
REMARK SMILES IDX 94 69 61 70 45 71 46 72 54 73 47 74 48 75 52 76 55 77 49 78
REMARK SMILES IDX 50 79 53 80 51 81 77 82 78 83 86 84 79 85 80 86 84 87 87 88
REMARK SMILES IDX 81 89 82 90 85 91 83 92 62 93 63 94 71 95 64 96 65 97 69 98
REMARK SMILES IDX 72 99 66 100 67 101 70 102 68 103
REMARK H PARENT 5 18 15 28 15 29 92 56 60 67
REMARK Flexibility Score: inf
ROOT
ATOM      1  C   UNL A   1      33.235  19.806  24.279  1.00  0.00     0.188 C 
ENDROOT
BRANCH   1   2
ATOM      2  C   UNL A   1      32.157  20.626  23.545  1.00  0.00     0.188 C 
BRANCH   2   3
ATOM      3  O   UNL A   1      32.512  21.627  22.606  1.00  0.00    -0.376 OA
BRANCH   3   4
ATOM      4  C   UNL A   1      32.673  22.948  23.109  1.00  0.00     0.202 C 
BRANCH   4   5
ATOM      5  C   UNL A   1      33.043  24.052  22.138  1.00  0.00     0.261 C 
BRANCH   5   6
ATOM      6  O   UNL A   1      31.891  24.863  21.958  1.00  0.00    -0.460 OA
BRANCH   6   7
ATOM      7  C   UNL A   1      32.069  25.875  21.099  1.00  0.00     0.338 C 
ATOM      8  O   UNL A   1      31.762  25.913  19.927  1.00  0.00    -0.246 OA
BRANCH   7   9
ATOM      9  C   UNL A   1      32.346  27.072  21.917  1.00  0.00     0.063 A 
ATOM     10  C   UNL A   1      29.925  27.582  22.686  1.00  0.00     0.045 C 
ATOM     11  C   UNL A   1      31.401  27.834  22.626  1.00  0.00    -0.035 A 
ATOM     12  C   UNL A   1      31.886  28.835  23.465  1.00  0.00     0.030 A 
ATOM     13  C   UNL A   1      33.255  29.003  23.625  1.00  0.00     0.041 A 
ATOM     14  C   UNL A   1      33.695  27.466  21.873  1.00  0.00     0.018 A 
ATOM     15  C   UNL A   1      34.153  28.464  22.713  1.00  0.00     0.027 A 
BRANCH  13  16
ATOM     16  N   UNL A   1      33.783  29.486  24.817  1.00  0.00    -0.322 N 
ATOM     17  C   UNL A   1      33.754  28.913  26.075  1.00  0.00     0.257 C 
ATOM     18  H   UNL A   1      34.240  30.355  24.757  1.00  0.00     0.170 HD
ATOM     19  O   UNL A   1      34.196  29.586  27.010  1.00  0.00    -0.269 OA
BRANCH  17  20
ATOM     20  C   UNL A   1      33.246  27.529  26.380  1.00  0.00     0.063 A 
ATOM     21  C   UNL A   1      33.986  26.507  25.751  1.00  0.00     0.017 A 
ATOM     22  C   UNL A   1      32.104  27.174  27.142  1.00  0.00     0.045 A 
ATOM     23  C   UNL A   1      33.616  25.165  25.855  1.00  0.00     0.016 A 
ATOM     24  C   UNL A   1      31.762  25.810  27.253  1.00  0.00     0.042 A 
ATOM     25  C   UNL A   1      32.505  24.821  26.612  1.00  0.00     0.020 A 
ATOM     26  Br  UNL A   1      31.963  23.014  26.725  1.00  0.00    -0.051 Br
BRANCH  22  27
ATOM     27  N   UNL A   1      31.177  28.077  27.662  1.00  0.00    -0.398 N 
ATOM     28  H   UNL A   1      31.428  28.664  28.412  1.00  0.00     0.156 HD
ATOM     29  H   UNL A   1      30.271  28.129  27.279  1.00  0.00     0.156 HD
ENDBRANCH  22  27
ENDBRANCH  17  20
ENDBRANCH  13  16
ENDBRANCH   7   9
ENDBRANCH   6   7
ENDBRANCH   5   6
ENDBRANCH   4   5
ENDBRANCH   3   4
ENDBRANCH   2   3
ENDBRANCH   1   2
BRANCH   1  30
ATOM     30  O   UNL A   1      33.919  20.356  25.391  1.00  0.00    -0.377 OA
BRANCH  30  31
ATOM     31  C   UNL A   1      35.283  20.730  25.236  1.00  0.00     0.188 C 
BRANCH  31  32
ATOM     32  C   UNL A   1      35.611  21.930  24.363  1.00  0.00     0.188 C 
BRANCH  32  33
ATOM     33  O   UNL A   1      37.003  21.866  24.068  1.00  0.00    -0.376 OA
BRANCH  33  34
ATOM     34  C   UNL A   1      37.823  21.265  25.062  1.00  0.00     0.202 C 
BRANCH  34  35
ATOM     35  C   UNL A   1      38.325  22.260  26.113  1.00  0.00     0.261 C 
BRANCH  35  36
ATOM     36  O   UNL A   1      39.767  22.236  26.136  1.00  0.00    -0.460 OA
BRANCH  36  37
ATOM     37  C   UNL A   1      40.340  22.832  27.217  1.00  0.00     0.338 C 
ATOM     38  O   UNL A   1      40.865  22.241  28.146  1.00  0.00    -0.246 OA
BRANCH  37  39
ATOM     39  C   UNL A   1      39.997  24.284  27.242  1.00  0.00     0.060 A 
ATOM     40  C   UNL A   1      40.490  25.152  26.254  1.00  0.00     0.016 A 
ATOM     41  C   UNL A   1      39.464  24.819  28.405  1.00  0.00     0.016 A 
ATOM     42  C   UNL A   1      40.618  26.527  26.516  1.00  0.00     0.010 A 
ATOM     43  C   UNL A   1      39.692  26.148  28.690  1.00  0.00     0.010 A 
ATOM     44  C   UNL A   1      40.318  27.018  27.782  1.00  0.00    -0.014 A 
BRANCH  44  45
ATOM     45  C   UNL A   1      40.731  28.333  28.328  1.00  0.00     0.031 A 
ATOM     46  C   UNL A   1      39.709  29.432  28.420  1.00  0.00     0.074 A 
ATOM     47  C   UNL A   1      41.872  28.408  29.068  1.00  0.00     0.049 A 
ATOM     48  N   UNL A   1      39.868  30.531  29.073  1.00  0.00    -0.248 NA
ATOM     49  C   UNL A   1      38.372  29.362  27.830  1.00  0.00     0.031 C 
ATOM     50  C   UNL A   1      42.158  29.348  30.152  1.00  0.00     0.029 A 
ATOM     51  N   UNL A   1      43.013  27.608  29.065  1.00  0.00    -0.354 N 
ATOM     52  C   UNL A   1      38.641  31.125  29.281  1.00  0.00     0.074 A 
ATOM     53  C   UNL A   1      37.751  30.396  28.415  1.00  0.00     0.031 C 
ATOM     54  C   UNL A   1      43.384  29.162  30.653  1.00  0.00     0.029 A 
ATOM     55  C   UNL A   1      44.051  28.274  29.745  1.00  0.00     0.049 A 
ATOM     56  H   UNL A   1      43.083  26.716  28.654  1.00  0.00     0.167 HD
ATOM     57  C   UNL A   1      38.537  32.083  30.257  1.00  0.00     0.037 A 
ATOM     58  C   UNL A   1      45.165  28.672  29.063  1.00  0.00     0.037 A 
ATOM     59  C   UNL A   1      39.876  32.476  30.752  1.00  0.00     0.049 A 
ATOM     60  C   UNL A   1      45.136  30.193  28.931  1.00  0.00     0.074 A 
ATOM     61  C   UNL A   1      40.482  32.549  31.994  1.00  0.00     0.029 A 
ATOM     62  N   UNL A   1      40.902  32.701  29.827  1.00  0.00    -0.354 N 
ATOM     63  N   UNL A   1      44.021  30.889  28.813  1.00  0.00    -0.248 NA
ATOM     64  C   UNL A   1      46.279  31.034  29.286  1.00  0.00     0.031 C 
ATOM     65  C   UNL A   1      41.896  32.639  31.791  1.00  0.00     0.029 A 
ATOM     66  C   UNL A   1      42.146  32.720  30.424  1.00  0.00     0.049 A 
ATOM     67  H   UNL A   1      40.754  32.831  28.861  1.00  0.00     0.167 HD
ATOM     68  C   UNL A   1      44.248  32.172  29.252  1.00  0.00     0.074 A 
ATOM     69  C   UNL A   1      45.688  32.227  29.479  1.00  0.00     0.031 C 
ATOM     70  C   UNL A   1      43.323  33.099  29.655  1.00  0.00     0.037 A 
BRANCH  57  71
ATOM     71  C   UNL A   1      37.240  32.588  30.902  1.00  0.00     0.064 A 
ATOM     72  C   UNL A   1      36.344  33.409  30.174  1.00  0.00     0.173 A 
ATOM     73  C   UNL A   1      36.863  32.393  32.251  1.00  0.00     0.173 A 
ATOM     74  F   UNL A   1      36.549  33.679  28.877  1.00  0.00    -0.203 F 
ATOM     75  C   UNL A   1      35.197  33.987  30.742  1.00  0.00     0.198 A 
ATOM     76  C   UNL A   1      35.683  32.923  32.802  1.00  0.00     0.198 A 
ATOM     77  F   UNL A   1      37.636  31.724  33.112  1.00  0.00    -0.203 F 
ATOM     78  F   UNL A   1      34.422  34.797  30.005  1.00  0.00    -0.200 F 
ATOM     79  C   UNL A   1      34.858  33.732  32.052  1.00  0.00     0.200 A 
ATOM     80  F   UNL A   1      35.368  32.655  34.078  1.00  0.00    -0.200 F 
ATOM     81  F   UNL A   1      33.752  34.266  32.592  1.00  0.00    -0.200 F 
ENDBRANCH  57  71
BRANCH  58  82
ATOM     82  C   UNL A   1      45.647  27.538  28.207  1.00  0.00     0.064 A 
ATOM     83  C   UNL A   1      45.488  27.793  26.819  1.00  0.00     0.173 A 
ATOM     84  C   UNL A   1      46.773  26.785  28.579  1.00  0.00     0.173 A 
ATOM     85  F   UNL A   1      44.414  28.479  26.392  1.00  0.00    -0.203 F 
ATOM     86  C   UNL A   1      46.534  27.590  25.916  1.00  0.00     0.198 A 
ATOM     87  C   UNL A   1      47.798  26.533  27.651  1.00  0.00     0.198 A 
ATOM     88  F   UNL A   1      46.996  26.493  29.868  1.00  0.00    -0.203 F 
ATOM     89  F   UNL A   1      46.454  28.092  24.675  1.00  0.00    -0.200 F 
ATOM     90  C   UNL A   1      47.710  27.009  26.348  1.00  0.00     0.200 A 
ATOM     91  F   UNL A   1      48.941  25.958  28.054  1.00  0.00    -0.200 F 
ATOM     92  F   UNL A   1      48.782  26.982  25.542  1.00  0.00    -0.200 F 
ENDBRANCH  58  82
BRANCH  70  93
ATOM     93  C   UNL A   1      43.462  34.555  29.265  1.00  0.00     0.064 A 
ATOM     94  C   UNL A   1      43.186  35.016  27.968  1.00  0.00     0.173 A 
ATOM     95  C   UNL A   1      43.649  35.563  30.246  1.00  0.00     0.173 A 
ATOM     96  F   UNL A   1      42.896  34.173  26.968  1.00  0.00    -0.203 F 
ATOM     97  C   UNL A   1      43.143  36.375  27.664  1.00  0.00     0.198 A 
ATOM     98  C   UNL A   1      43.545  36.918  29.949  1.00  0.00     0.198 A 
ATOM     99  F   UNL A   1      43.894  35.278  31.531  1.00  0.00    -0.203 F 
ATOM    100  F   UNL A   1      42.905  36.758  26.404  1.00  0.00    -0.200 F 
ATOM    101  C   UNL A   1      43.306  37.324  28.655  1.00  0.00     0.200 A 
ATOM    102  F   UNL A   1      43.645  37.823  30.933  1.00  0.00    -0.200 F 
ATOM    103  F   UNL A   1      43.215  38.628  28.365  1.00  0.00    -0.200 F 
ENDBRANCH  70  93
ENDBRANCH  44  45
ENDBRANCH  37  39
ENDBRANCH  36  37
ENDBRANCH  35  36
ENDBRANCH  34  35
ENDBRANCH  33  34
ENDBRANCH  32  33
ENDBRANCH  31  32
ENDBRANCH  30  31
ENDBRANCH   1  30
TORSDOF 23
ENDMDL
MODEL 3
REMARK VINA RESULT:     -11.1      2.496      4.569
REMARK SMILES Cc1cc(NC(=O)c2ccc(Br)cc2N)ccc1C(=O)OCCOCCOCCOCCOC(=O)c1ccc(-c2c3nc(c(-c4c(F)c(F)c(F)c(F)c4F)c4ccc([nH]4)c(-c4c(F)c(F)c(F)c(F)c4F)c4nc(c(-c5c(F)c(F)c(F)c(F)c5F)c5ccc2[nH]5)C=C4)C=C3)cc1
REMARK SMILES IDX 26 1 25 2 24 3 23 4 22 5 21 6 19 7 20 8 18 9 1 10 2 11 3 12
REMARK SMILES IDX 4 13 17 14 16 15 5 16 6 17 7 19 8 20 9 21 14 22 10 23 13 24
REMARK SMILES IDX 11 25 12 26 15 27 27 30 28 31 29 32 30 33 31 34 32 35 33 36
REMARK SMILES IDX 34 37 35 38 36 39 37 40 98 41 38 42 97 43 39 44 40 45 41 46
REMARK SMILES IDX 91 47 42 48 96 49 90 50 92 51 43 52 95 53 89 54 88 55 44 57
REMARK SMILES IDX 76 58 56 59 75 60 57 61 60 62 74 63 93 64 58 65 59 66 73 68
REMARK SMILES IDX 94 69 61 70 45 71 46 72 54 73 47 74 48 75 52 76 55 77 49 78
REMARK SMILES IDX 50 79 53 80 51 81 77 82 78 83 86 84 79 85 80 86 84 87 87 88
REMARK SMILES IDX 81 89 82 90 85 91 83 92 62 93 63 94 71 95 64 96 65 97 69 98
REMARK SMILES IDX 72 99 66 100 67 101 70 102 68 103
REMARK H PARENT 5 18 15 28 15 29 92 56 60 67
REMARK Flexibility Score: inf
ROOT
ATOM      1  C   UNL A   1      35.249  23.530  24.472  1.00  0.00     0.188 C 
ENDROOT
BRANCH   1   2
ATOM      2  C   UNL A   1      35.695  22.798  25.751  1.00  0.00     0.188 C 
BRANCH   2   3
ATOM      3  O   UNL A   1      34.787  22.005  26.495  1.00  0.00    -0.376 OA
BRANCH   3   4
ATOM      4  C   UNL A   1      34.173  22.621  27.621  1.00  0.00     0.202 C 
BRANCH   4   5
ATOM      5  C   UNL A   1      32.749  22.234  27.972  1.00  0.00     0.261 C 
BRANCH   5   6
ATOM      6  O   UNL A   1      31.924  23.358  27.704  1.00  0.00    -0.460 OA
BRANCH   6   7
ATOM      7  C   UNL A   1      30.750  23.047  27.142  1.00  0.00     0.338 C 
ATOM      8  O   UNL A   1      29.706  22.789  27.704  1.00  0.00    -0.246 OA
BRANCH   7   9
ATOM      9  C   UNL A   1      30.844  23.454  25.726  1.00  0.00     0.063 A 
ATOM     10  C   UNL A   1      29.673  25.758  25.908  1.00  0.00     0.045 C 
ATOM     11  C   UNL A   1      30.370  24.656  25.171  1.00  0.00    -0.035 A 
ATOM     12  C   UNL A   1      30.696  24.918  23.842  1.00  0.00     0.030 A 
ATOM     13  C   UNL A   1      31.515  24.041  23.143  1.00  0.00     0.041 A 
ATOM     14  C   UNL A   1      31.407  22.460  24.907  1.00  0.00     0.018 A 
ATOM     15  C   UNL A   1      31.719  22.742  23.590  1.00  0.00     0.027 A 
BRANCH  13  16
ATOM     16  N   UNL A   1      32.349  24.495  22.128  1.00  0.00    -0.322 N 
ATOM     17  C   UNL A   1      32.539  25.787  21.673  1.00  0.00     0.257 C 
ATOM     18  H   UNL A   1      32.878  23.803  21.671  1.00  0.00     0.170 HD
ATOM     19  O   UNL A   1      33.254  25.934  20.679  1.00  0.00    -0.269 OA
BRANCH  17  20
ATOM     20  C   UNL A   1      31.957  27.021  22.312  1.00  0.00     0.063 A 
ATOM     21  C   UNL A   1      30.565  27.146  22.127  1.00  0.00     0.017 A 
ATOM     22  C   UNL A   1      32.652  28.057  22.985  1.00  0.00     0.045 A 
ATOM     23  C   UNL A   1      29.865  28.264  22.581  1.00  0.00     0.016 A 
ATOM     24  C   UNL A   1      31.920  29.167  23.457  1.00  0.00     0.042 A 
ATOM     25  C   UNL A   1      30.546  29.270  23.251  1.00  0.00     0.020 A 
ATOM     26  Br  UNL A   1      29.621  30.813  23.831  1.00  0.00    -0.051 Br
BRANCH  22  27
ATOM     27  N   UNL A   1      34.040  28.160  23.078  1.00  0.00    -0.398 N 
ATOM     28  H   UNL A   1      34.447  28.728  23.772  1.00  0.00     0.156 HD
ATOM     29  H   UNL A   1      34.614  27.665  22.449  1.00  0.00     0.156 HD
ENDBRANCH  22  27
ENDBRANCH  17  20
ENDBRANCH  13  16
ENDBRANCH   7   9
ENDBRANCH   6   7
ENDBRANCH   5   6
ENDBRANCH   4   5
ENDBRANCH   3   4
ENDBRANCH   2   3
ENDBRANCH   1   2
BRANCH   1  30
ATOM     30  O   UNL A   1      34.342  24.617  24.549  1.00  0.00    -0.377 OA
BRANCH  30  31
ATOM     31  C   UNL A   1      34.557  25.616  25.539  1.00  0.00     0.188 C 
BRANCH  31  32
ATOM     32  C   UNL A   1      33.353  26.360  26.092  1.00  0.00     0.188 C 
BRANCH  32  33
ATOM     33  O   UNL A   1      33.761  27.704  26.326  1.00  0.00    -0.376 OA
BRANCH  33  34
ATOM     34  C   UNL A   1      32.839  28.519  27.039  1.00  0.00     0.202 C 
BRANCH  34  35
ATOM     35  C   UNL A   1      33.117  30.018  26.889  1.00  0.00     0.261 C 
BRANCH  35  36
ATOM     36  O   UNL A   1      34.305  30.356  27.633  1.00  0.00    -0.460 OA
BRANCH  36  37
ATOM     37  C   UNL A   1      34.328  31.614  28.151  1.00  0.00     0.338 C 
ATOM     38  O   UNL A   1      33.624  32.538  27.779  1.00  0.00    -0.246 OA
BRANCH  37  39
ATOM     39  C   UNL A   1      35.517  31.779  29.039  1.00  0.00     0.060 A 
ATOM     40  C   UNL A   1      36.709  32.330  28.540  1.00  0.00     0.016 A 
ATOM     41  C   UNL A   1      35.540  31.101  30.247  1.00  0.00     0.016 A 
ATOM     42  C   UNL A   1      37.938  32.038  29.157  1.00  0.00     0.010 A 
ATOM     43  C   UNL A   1      36.758  30.735  30.780  1.00  0.00     0.010 A 
ATOM     44  C   UNL A   1      37.979  31.145  30.223  1.00  0.00    -0.014 A 
BRANCH  44  45
ATOM     45  C   UNL A   1      39.187  30.459  30.740  1.00  0.00     0.031 A 
ATOM     46  C   UNL A   1      39.578  29.134  30.146  1.00  0.00     0.074 A 
ATOM     47  C   UNL A   1      40.105  31.183  31.438  1.00  0.00     0.049 A 
ATOM     48  N   UNL A   1      40.709  28.547  30.337  1.00  0.00    -0.248 NA
ATOM     49  C   UNL A   1      38.742  28.370  29.220  1.00  0.00     0.031 C 
ATOM     50  C   UNL A   1      41.546  30.940  31.512  1.00  0.00     0.029 A 
ATOM     51  N   UNL A   1      39.967  32.352  32.185  1.00  0.00    -0.354 N 
ATOM     52  C   UNL A   1      40.897  27.582  29.370  1.00  0.00     0.074 A 
ATOM     53  C   UNL A   1      39.604  27.459  28.748  1.00  0.00     0.031 C 
ATOM     54  C   UNL A   1      42.154  31.829  32.305  1.00  0.00     0.029 A 
ATOM     55  C   UNL A   1      41.106  32.526  32.993  1.00  0.00     0.049 A 
ATOM     56  H   UNL A   1      39.193  32.960  32.152  1.00  0.00     0.167 HD
ATOM     57  C   UNL A   1      42.166  27.109  29.159  1.00  0.00     0.037 A 
ATOM     58  C   UNL A   1      40.992  32.461  34.353  1.00  0.00     0.037 A 
ATOM     59  C   UNL A   1      43.085  27.576  30.221  1.00  0.00     0.049 A 
ATOM     60  C   UNL A   1      41.636  31.161  34.831  1.00  0.00     0.074 A 
ATOM     61  C   UNL A   1      44.298  28.242  30.250  1.00  0.00     0.029 A 
ATOM     62  N   UNL A   1      42.661  27.522  31.555  1.00  0.00    -0.354 N 
ATOM     63  N   UNL A   1      41.629  30.045  34.126  1.00  0.00    -0.248 NA
ATOM     64  C   UNL A   1      42.617  31.123  35.916  1.00  0.00     0.031 C 
ATOM     65  C   UNL A   1      44.499  28.736  31.578  1.00  0.00     0.029 A 
ATOM     66  C   UNL A   1      43.457  28.288  32.384  1.00  0.00     0.049 A 
ATOM     67  H   UNL A   1      41.886  27.000  31.866  1.00  0.00     0.167 HD
ATOM     68  C   UNL A   1      42.689  29.264  34.518  1.00  0.00     0.074 A 
ATOM     69  C   UNL A   1      43.238  29.954  35.679  1.00  0.00     0.031 C 
ATOM     70  C   UNL A   1      43.276  28.235  33.828  1.00  0.00     0.037 A 
BRANCH  57  71
ATOM     71  C   UNL A   1      42.658  26.344  27.924  1.00  0.00     0.064 A 
ATOM     72  C   UNL A   1      42.402  24.957  27.785  1.00  0.00     0.173 A 
ATOM     73  C   UNL A   1      43.467  26.877  26.894  1.00  0.00     0.173 A 
ATOM     74  F   UNL A   1      41.639  24.301  28.670  1.00  0.00    -0.203 F 
ATOM     75  C   UNL A   1      42.916  24.182  26.733  1.00  0.00     0.198 A 
ATOM     76  C   UNL A   1      43.931  26.113  25.809  1.00  0.00     0.198 A 
ATOM     77  F   UNL A   1      43.887  28.145  26.910  1.00  0.00    -0.203 F 
ATOM     78  F   UNL A   1      42.675  22.862  26.695  1.00  0.00    -0.200 F 
ATOM     79  C   UNL A   1      43.668  24.763  25.736  1.00  0.00     0.200 A 
ATOM     80  F   UNL A   1      44.654  26.700  24.844  1.00  0.00    -0.200 F 
ATOM     81  F   UNL A   1      44.143  24.029  24.718  1.00  0.00    -0.200 F 
ENDBRANCH  57  71
BRANCH  58  82
ATOM     82  C   UNL A   1      39.823  33.293  34.788  1.00  0.00     0.064 A 
ATOM     83  C   UNL A   1      38.816  32.526  35.433  1.00  0.00     0.173 A 
ATOM     84  C   UNL A   1      40.008  34.604  35.257  1.00  0.00     0.173 A 
ATOM     85  F   UNL A   1      38.565  31.276  35.011  1.00  0.00    -0.203 F 
ATOM     86  C   UNL A   1      38.266  32.926  36.653  1.00  0.00     0.198 A 
ATOM     87  C   UNL A   1      39.405  35.021  36.456  1.00  0.00     0.198 A 
ATOM     88  F   UNL A   1      40.933  35.397  34.699  1.00  0.00    -0.203 F 
ATOM     89  F   UNL A   1      37.531  32.064  37.371  1.00  0.00    -0.200 F 
ATOM     90  C   UNL A   1      38.605  34.153  37.190  1.00  0.00     0.200 A 
ATOM     91  F   UNL A   1      39.716  36.215  36.983  1.00  0.00    -0.200 F 
ATOM     92  F   UNL A   1      38.235  34.464  38.441  1.00  0.00    -0.200 F 
ENDBRANCH  58  82
BRANCH  70  93
ATOM     93  C   UNL A   1      43.710  26.971  34.539  1.00  0.00     0.064 A 
ATOM     94  C   UNL A   1      45.030  26.765  34.969  1.00  0.00     0.173 A 
ATOM     95  C   UNL A   1      42.757  26.034  35.018  1.00  0.00     0.173 A 
ATOM     96  F   UNL A   1      46.011  27.627  34.668  1.00  0.00    -0.203 F 
ATOM     97  C   UNL A   1      45.381  25.685  35.776  1.00  0.00     0.198 A 
ATOM     98  C   UNL A   1      43.102  24.993  35.873  1.00  0.00     0.198 A 
ATOM     99  F   UNL A   1      41.455  26.116  34.715  1.00  0.00    -0.203 F 
ATOM    100  F   UNL A   1      46.661  25.520  36.132  1.00  0.00    -0.200 F 
ATOM    101  C   UNL A   1      44.417  24.810  36.241  1.00  0.00     0.200 A 
ATOM    102  F   UNL A   1      42.147  24.191  36.363  1.00  0.00    -0.200 F 
ATOM    103  F   UNL A   1      44.754  23.803  37.055  1.00  0.00    -0.200 F 
ENDBRANCH  70  93
ENDBRANCH  44  45
ENDBRANCH  37  39
ENDBRANCH  36  37
ENDBRANCH  35  36
ENDBRANCH  34  35
ENDBRANCH  33  34
ENDBRANCH  32  33
ENDBRANCH  31  32
ENDBRANCH  30  31
ENDBRANCH   1  30
TORSDOF 23
ENDMDL
