MODEL 1
REMARK VINA RESULT:     -11.3      0.000      0.000
REMARK SMILES CC1(C)[C@H](O)CC[C@]2(C)[C@@H]1CC[C@@]1(C)Oc3oc(C(=O)OCCOCCOCCOCCOC(=O)c4ccc(-c5c6nc(c(-c7c(F)c(F)c(F)c(F)c7F)c7ccc([nH]7)c(-c7c(F)c(F)c(F)c(F)c7F)c7nc(c(-c8c(F)c(F)c(F)c(F)c8F)c8ccc5[nH]8)C=C7)C=C6)cc4)cc(=O)c3C[C@H]21
REMARK SMILES IDX 28 1 27 2 26 3 25 4 24 5 23 6 22 7 21 8 19 9 20 10 18 11
REMARK SMILES IDX 1 12 2 13 3 14 4 15 10 16 6 17 8 18 11 19 7 20 9 21 104 22
REMARK SMILES IDX 12 23 13 24 103 25 14 26 15 27 102 28 16 29 100 30 17 31
REMARK SMILES IDX 99 32 101 33 5 34 29 36 30 37 31 38 32 39 33 40 34 41 35 42
REMARK SMILES IDX 36 43 37 44 98 45 38 46 97 47 39 48 40 49 41 50 91 51 42 52
REMARK SMILES IDX 96 53 90 54 92 55 43 56 95 57 89 58 88 59 44 61 76 62 56 63
REMARK SMILES IDX 75 64 57 65 60 66 74 67 93 68 58 69 59 70 73 72 94 73 61 74
REMARK SMILES IDX 45 75 46 76 54 77 47 78 48 79 52 80 55 81 49 82 50 83 53 84
REMARK SMILES IDX 51 85 77 86 78 87 86 88 79 89 80 90 84 91 87 92 81 93 82 94
REMARK SMILES IDX 85 95 83 96 62 97 63 98 71 99 64 100 65 101 69 102 72 103
REMARK SMILES IDX 66 104 67 105 70 106 68 107
REMARK H PARENT 5 35 92 60 60 71
REMARK Flexibility Score: inf
ROOT
ATOM      1  C   UNL A   1      35.195  32.263  28.339  1.00  0.00     0.188 C 
ENDROOT
BRANCH   1   2
ATOM      2  O   UNL A   1      35.914  31.222  27.671  1.00  0.00    -0.377 OA
BRANCH   2   3
ATOM      3  C   UNL A   1      35.777  29.900  28.169  1.00  0.00     0.188 C 
BRANCH   3   4
ATOM      4  C   UNL A   1      35.080  28.940  27.178  1.00  0.00     0.188 C 
BRANCH   4   5
ATOM      5  O   UNL A   1      33.704  28.739  27.474  1.00  0.00    -0.376 OA
BRANCH   5   6
ATOM      6  C   UNL A   1      32.721  29.709  27.160  1.00  0.00     0.202 C 
BRANCH   6   7
ATOM      7  C   UNL A   1      32.406  30.078  25.713  1.00  0.00     0.261 C 
BRANCH   7   8
ATOM      8  O   UNL A   1      31.028  30.059  25.376  1.00  0.00    -0.457 OA
BRANCH   8   9
ATOM      9  C   UNL A   1      30.555  29.474  24.245  1.00  0.00     0.374 C 
ATOM     10  O   UNL A   1      29.950  30.012  23.341  1.00  0.00    -0.242 OA
BRANCH   9  11
ATOM     11  C   UNL A   1      31.054  28.066  24.290  1.00  0.00     0.219 A 
ATOM     12  C   UNL A   1      36.481  20.041  24.628  1.00  0.00     0.014 C 
ATOM     13  C   UNL A   1      36.444  21.486  25.224  1.00  0.00    -0.006 C 
ATOM     14  C   UNL A   1      37.696  21.580  26.126  1.00  0.00     0.014 C 
ATOM     15  C   UNL A   1      36.810  22.440  23.865  1.00  0.00     0.120 C 
ATOM     16  C   UNL A   1      34.825  21.813  25.915  1.00  0.00     0.004 C 
ATOM     17  C   UNL A   1      35.645  22.678  22.922  1.00  0.00     0.033 C 
ATOM     18  C   UNL A   1      34.484  23.079  25.165  1.00  0.00    -0.022 C 
ATOM     19  C   UNL A   1      34.196  21.955  27.344  1.00  0.00     0.009 C 
ATOM     20  C   UNL A   1      34.439  22.420  23.728  1.00  0.00     0.010 C 
ATOM     21  C   UNL A   1      35.504  24.076  25.909  1.00  0.00     0.012 C 
ATOM     22  C   UNL A   1      33.267  23.966  25.281  1.00  0.00     0.044 C 
ATOM     23  C   UNL A   1      32.931  23.016  27.534  1.00  0.00     0.049 C 
ATOM     24  C   UNL A   1      32.188  23.643  26.258  1.00  0.00     0.113 C 
ATOM     25  C   UNL A   1      32.769  24.417  23.939  1.00  0.00     0.055 C 
ATOM     26  C   UNL A   1      31.137  22.650  25.751  1.00  0.00     0.057 C 
ATOM     27  O   UNL A   1      31.499  24.995  26.475  1.00  0.00    -0.458 OA
ATOM     28  C   UNL A   1      31.849  25.510  24.125  1.00  0.00     0.081 A 
ATOM     29  C   UNL A   1      31.371  25.878  25.317  1.00  0.00     0.292 A 
ATOM     30  C   UNL A   1      31.747  26.279  22.889  1.00  0.00     0.192 A 
ATOM     31  O   UNL A   1      30.881  27.215  25.420  1.00  0.00    -0.418 OA
ATOM     32  C   UNL A   1      31.480  27.670  23.080  1.00  0.00     0.107 A 
ATOM     33  O   UNL A   1      31.954  25.808  21.778  1.00  0.00    -0.289 OA
BRANCH  15  34
ATOM     34  O   UNL A   1      37.403  23.703  24.188  1.00  0.00    -0.393 OA
ATOM     35  H   UNL A   1      37.029  24.392  23.616  1.00  0.00     0.210 HD
ENDBRANCH  15  34
ENDBRANCH   9  11
ENDBRANCH   8   9
ENDBRANCH   7   8
ENDBRANCH   6   7
ENDBRANCH   5   6
ENDBRANCH   4   5
ENDBRANCH   3   4
ENDBRANCH   2   3
ENDBRANCH   1   2
BRANCH   1  36
ATOM     36  C   UNL A   1      35.391  33.767  28.001  1.00  0.00     0.188 C 
BRANCH  36  37
ATOM     37  O   UNL A   1      34.843  34.660  28.955  1.00  0.00    -0.376 OA
BRANCH  37  38
ATOM     38  C   UNL A   1      33.441  34.791  29.064  1.00  0.00     0.202 C 
BRANCH  38  39
ATOM     39  C   UNL A   1      32.903  36.108  29.634  1.00  0.00     0.261 C 
BRANCH  39  40
ATOM     40  O   UNL A   1      33.275  36.409  30.984  1.00  0.00    -0.460 OA
BRANCH  40  41
ATOM     41  C   UNL A   1      32.846  35.558  31.951  1.00  0.00     0.338 C 
ATOM     42  O   UNL A   1      31.717  35.271  32.235  1.00  0.00    -0.246 OA
BRANCH  41  43
ATOM     43  C   UNL A   1      34.064  34.910  32.492  1.00  0.00     0.060 A 
ATOM     44  C   UNL A   1      35.305  35.545  32.351  1.00  0.00     0.016 A 
ATOM     45  C   UNL A   1      33.960  33.690  33.162  1.00  0.00     0.016 A 
ATOM     46  C   UNL A   1      36.452  34.953  32.878  1.00  0.00     0.010 A 
ATOM     47  C   UNL A   1      35.113  33.078  33.654  1.00  0.00     0.010 A 
ATOM     48  C   UNL A   1      36.365  33.696  33.489  1.00  0.00    -0.014 A 
BRANCH  48  49
ATOM     49  C   UNL A   1      37.605  32.920  33.715  1.00  0.00     0.031 A 
ATOM     50  C   UNL A   1      38.364  33.181  34.986  1.00  0.00     0.074 A 
ATOM     51  C   UNL A   1      38.033  31.992  32.843  1.00  0.00     0.049 A 
ATOM     52  N   UNL A   1      39.468  32.636  35.423  1.00  0.00    -0.248 NA
ATOM     53  C   UNL A   1      37.794  34.196  35.889  1.00  0.00     0.031 C 
ATOM     54  C   UNL A   1      37.358  31.623  31.601  1.00  0.00     0.029 A 
ATOM     55  N   UNL A   1      39.145  31.189  32.876  1.00  0.00    -0.354 N 
ATOM     56  C   UNL A   1      39.713  33.229  36.654  1.00  0.00     0.074 A 
ATOM     57  C   UNL A   1      38.674  34.207  36.877  1.00  0.00     0.031 C 
ATOM     58  C   UNL A   1      38.076  30.667  30.986  1.00  0.00     0.029 A 
ATOM     59  C   UNL A   1      39.272  30.375  31.778  1.00  0.00     0.049 A 
ATOM     60  H   UNL A   1      39.793  31.196  33.619  1.00  0.00     0.167 HD
ATOM     61  C   UNL A   1      40.709  32.966  37.530  1.00  0.00     0.037 A 
ATOM     62  C   UNL A   1      40.249  29.506  31.452  1.00  0.00     0.037 A 
ATOM     63  C   UNL A   1      41.752  32.005  37.297  1.00  0.00     0.049 A 
ATOM     64  C   UNL A   1      41.412  29.311  32.395  1.00  0.00     0.074 A 
ATOM     65  C   UNL A   1      42.802  31.660  38.126  1.00  0.00     0.029 A 
ATOM     66  N   UNL A   1      41.881  31.247  36.143  1.00  0.00    -0.354 N 
ATOM     67  N   UNL A   1      41.616  29.840  33.578  1.00  0.00    -0.248 NA
ATOM     68  C   UNL A   1      42.482  28.401  31.958  1.00  0.00     0.031 C 
ATOM     69  C   UNL A   1      43.603  30.737  37.450  1.00  0.00     0.029 A 
ATOM     70  C   UNL A   1      43.018  30.461  36.224  1.00  0.00     0.049 A 
ATOM     71  H   UNL A   1      41.257  31.263  35.382  1.00  0.00     0.167 HD
ATOM     72  C   UNL A   1      42.819  29.312  34.034  1.00  0.00     0.074 A 
ATOM     73  C   UNL A   1      43.292  28.407  33.008  1.00  0.00     0.031 C 
ATOM     74  C   UNL A   1      43.472  29.558  35.196  1.00  0.00     0.037 A 
BRANCH  61  75
ATOM     75  C   UNL A   1      40.724  33.733  38.817  1.00  0.00     0.064 A 
ATOM     76  C   UNL A   1      41.556  34.848  38.994  1.00  0.00     0.173 A 
ATOM     77  C   UNL A   1      39.857  33.384  39.863  1.00  0.00     0.173 A 
ATOM     78  F   UNL A   1      42.416  35.210  38.030  1.00  0.00    -0.203 F 
ATOM     79  C   UNL A   1      41.530  35.579  40.179  1.00  0.00     0.198 A 
ATOM     80  C   UNL A   1      39.811  34.136  41.034  1.00  0.00     0.198 A 
ATOM     81  F   UNL A   1      39.042  32.325  39.743  1.00  0.00    -0.203 F 
ATOM     82  F   UNL A   1      42.360  36.618  40.341  1.00  0.00    -0.200 F 
ATOM     83  C   UNL A   1      40.650  35.229  41.192  1.00  0.00     0.200 A 
ATOM     84  F   UNL A   1      38.952  33.804  42.007  1.00  0.00    -0.200 F 
ATOM     85  F   UNL A   1      40.612  35.944  42.324  1.00  0.00    -0.200 F 
ENDBRANCH  61  75
BRANCH  62  86
ATOM     86  C   UNL A   1      40.169  28.744  30.177  1.00  0.00     0.064 A 
ATOM     87  C   UNL A   1      40.754  29.240  29.004  1.00  0.00     0.173 A 
ATOM     88  C   UNL A   1      39.505  27.510  30.101  1.00  0.00     0.173 A 
ATOM     89  F   UNL A   1      41.374  30.429  29.016  1.00  0.00    -0.203 F 
ATOM     90  C   UNL A   1      40.672  28.535  27.804  1.00  0.00     0.198 A 
ATOM     91  C   UNL A   1      39.449  26.793  28.908  1.00  0.00     0.198 A 
ATOM     92  F   UNL A   1      38.920  26.994  31.193  1.00  0.00    -0.203 F 
ATOM     93  F   UNL A   1      41.207  29.052  26.689  1.00  0.00    -0.200 F 
ATOM     94  C   UNL A   1      40.027  27.308  27.758  1.00  0.00     0.200 A 
ATOM     95  F   UNL A   1      38.832  25.603  28.871  1.00  0.00    -0.200 F 
ATOM     96  F   UNL A   1      39.958  26.627  26.606  1.00  0.00    -0.200 F 
ENDBRANCH  62  86
BRANCH  74  97
ATOM     97  C   UNL A   1      44.771  28.846  35.443  1.00  0.00     0.064 A 
ATOM     98  C   UNL A   1      46.001  29.436  35.116  1.00  0.00     0.173 A 
ATOM     99  C   UNL A   1      44.792  27.617  36.123  1.00  0.00     0.173 A 
ATOM    100  F   UNL A   1      46.035  30.604  34.458  1.00  0.00    -0.203 F 
ATOM    101  C   UNL A   1      47.202  28.821  35.458  1.00  0.00     0.198 A 
ATOM    102  C   UNL A   1      45.995  27.022  36.490  1.00  0.00     0.198 A 
ATOM    103  F   UNL A   1      43.643  27.017  36.469  1.00  0.00    -0.203 F 
ATOM    104  F   UNL A   1      48.365  29.394  35.116  1.00  0.00    -0.200 F 
ATOM    105  C   UNL A   1      47.198  27.623  36.157  1.00  0.00     0.200 A 
ATOM    106  F   UNL A   1      45.989  25.876  37.186  1.00  0.00    -0.200 F 
ATOM    107  F   UNL A   1      48.357  27.050  36.512  1.00  0.00    -0.200 F 
ENDBRANCH  74  97
ENDBRANCH  48  49
ENDBRANCH  41  43
ENDBRANCH  40  41
ENDBRANCH  39  40
ENDBRANCH  38  39
ENDBRANCH  37  38
ENDBRANCH  36  37
ENDBRANCH   1  36
TORSDOF 21
ENDMDL
MODEL 2
REMARK VINA RESULT:     -11.0      0.449      6.796
REMARK SMILES CC1(C)[C@H](O)CC[C@]2(C)[C@@H]1CC[C@@]1(C)Oc3oc(C(=O)OCCOCCOCCOCCOC(=O)c4ccc(-c5c6nc(c(-c7c(F)c(F)c(F)c(F)c7F)c7ccc([nH]7)c(-c7c(F)c(F)c(F)c(F)c7F)c7nc(c(-c8c(F)c(F)c(F)c(F)c8F)c8ccc5[nH]8)C=C7)C=C6)cc4)cc(=O)c3C[C@H]21
REMARK SMILES IDX 28 1 27 2 26 3 25 4 24 5 23 6 22 7 21 8 19 9 20 10 18 11
REMARK SMILES IDX 1 12 2 13 3 14 4 15 10 16 6 17 8 18 11 19 7 20 9 21 104 22
REMARK SMILES IDX 12 23 13 24 103 25 14 26 15 27 102 28 16 29 100 30 17 31
REMARK SMILES IDX 99 32 101 33 5 34 29 36 30 37 31 38 32 39 33 40 34 41 35 42
REMARK SMILES IDX 36 43 37 44 98 45 38 46 97 47 39 48 40 49 41 50 91 51 42 52
REMARK SMILES IDX 96 53 90 54 92 55 43 56 95 57 89 58 88 59 44 61 76 62 56 63
REMARK SMILES IDX 75 64 57 65 60 66 74 67 93 68 58 69 59 70 73 72 94 73 61 74
REMARK SMILES IDX 45 75 46 76 54 77 47 78 48 79 52 80 55 81 49 82 50 83 53 84
REMARK SMILES IDX 51 85 77 86 78 87 86 88 79 89 80 90 84 91 87 92 81 93 82 94
REMARK SMILES IDX 85 95 83 96 62 97 63 98 71 99 64 100 65 101 69 102 72 103
REMARK SMILES IDX 66 104 67 105 70 106 68 107
REMARK H PARENT 5 35 92 60 60 71
REMARK Flexibility Score: inf
ROOT
ATOM      1  C   UNL A   1      34.623  32.858  28.342  1.00  0.00     0.188 C 
ENDROOT
BRANCH   1   2
ATOM      2  O   UNL A   1      35.261  31.840  27.563  1.00  0.00    -0.377 OA
BRANCH   2   3
ATOM      3  C   UNL A   1      35.349  30.539  28.121  1.00  0.00     0.188 C 
BRANCH   3   4
ATOM      4  C   UNL A   1      34.774  29.436  27.203  1.00  0.00     0.188 C 
BRANCH   4   5
ATOM      5  O   UNL A   1      33.503  28.964  27.631  1.00  0.00    -0.376 OA
BRANCH   5   6
ATOM      6  C   UNL A   1      32.304  29.348  26.982  1.00  0.00     0.202 C 
BRANCH   6   7
ATOM      7  C   UNL A   1      32.278  29.666  25.489  1.00  0.00     0.261 C 
BRANCH   7   8
ATOM      8  O   UNL A   1      30.999  29.990  24.968  1.00  0.00    -0.457 OA
BRANCH   8   9
ATOM      9  C   UNL A   1      30.444  29.331  23.918  1.00  0.00     0.374 C 
ATOM     10  O   UNL A   1      29.756  29.806  23.038  1.00  0.00    -0.242 OA
BRANCH   9  11
ATOM     11  C   UNL A   1      30.971  27.936  24.003  1.00  0.00     0.219 A 
ATOM     12  C   UNL A   1      36.552  20.035  24.631  1.00  0.00     0.014 C 
ATOM     13  C   UNL A   1      36.473  21.491  25.195  1.00  0.00    -0.006 C 
ATOM     14  C   UNL A   1      37.701  21.630  26.122  1.00  0.00     0.014 C 
ATOM     15  C   UNL A   1      36.850  22.424  23.825  1.00  0.00     0.120 C 
ATOM     16  C   UNL A   1      34.832  21.798  25.842  1.00  0.00     0.004 C 
ATOM     17  C   UNL A   1      35.702  22.618  22.851  1.00  0.00     0.033 C 
ATOM     18  C   UNL A   1      34.481  23.041  25.059  1.00  0.00    -0.022 C 
ATOM     19  C   UNL A   1      34.168  21.957  27.254  1.00  0.00     0.009 C 
ATOM     20  C   UNL A   1      34.483  22.351  23.635  1.00  0.00     0.010 C 
ATOM     21  C   UNL A   1      35.464  24.074  25.804  1.00  0.00     0.012 C 
ATOM     22  C   UNL A   1      33.245  23.904  25.130  1.00  0.00     0.044 C 
ATOM     23  C   UNL A   1      32.878  22.994  27.394  1.00  0.00     0.049 C 
ATOM     24  C   UNL A   1      32.151  23.579  26.089  1.00  0.00     0.113 C 
ATOM     25  C   UNL A   1      32.768  24.317  23.767  1.00  0.00     0.055 C 
ATOM     26  C   UNL A   1      31.132  22.554  25.579  1.00  0.00     0.057 C 
ATOM     27  O   UNL A   1      31.429  24.921  26.261  1.00  0.00    -0.458 OA
ATOM     28  C   UNL A   1      31.822  25.395  23.909  1.00  0.00     0.081 A 
ATOM     29  C   UNL A   1      31.309  25.777  25.083  1.00  0.00     0.292 A 
ATOM     30  C   UNL A   1      31.732  26.135  22.655  1.00  0.00     0.192 A 
ATOM     31  O   UNL A   1      30.790  27.104  25.147  1.00  0.00    -0.418 OA
ATOM     32  C   UNL A   1      31.432  27.523  22.812  1.00  0.00     0.107 A 
ATOM     33  O   UNL A   1      31.973  25.646  21.560  1.00  0.00    -0.289 OA
BRANCH  15  34
ATOM     34  O   UNL A   1      37.409  23.706  24.133  1.00  0.00    -0.393 OA
ATOM     35  H   UNL A   1      37.986  23.629  24.909  1.00  0.00     0.210 HD
ENDBRANCH  15  34
ENDBRANCH   9  11
ENDBRANCH   8   9
ENDBRANCH   7   8
ENDBRANCH   6   7
ENDBRANCH   5   6
ENDBRANCH   4   5
ENDBRANCH   3   4
ENDBRANCH   2   3
ENDBRANCH   1   2
BRANCH   1  36
ATOM     36  C   UNL A   1      34.573  34.345  27.896  1.00  0.00     0.188 C 
BRANCH  36  37
ATOM     37  O   UNL A   1      34.339  35.266  28.948  1.00  0.00    -0.376 OA
BRANCH  37  38
ATOM     38  C   UNL A   1      33.040  35.395  29.488  1.00  0.00     0.202 C 
BRANCH  38  39
ATOM     39  C   UNL A   1      32.733  36.673  30.275  1.00  0.00     0.261 C 
BRANCH  39  40
ATOM     40  O   UNL A   1      33.087  36.659  31.663  1.00  0.00    -0.460 OA
BRANCH  40  41
ATOM     41  C   UNL A   1      32.766  35.548  32.375  1.00  0.00     0.338 C 
ATOM     42  O   UNL A   1      31.676  35.167  32.699  1.00  0.00    -0.246 OA
BRANCH  41  43
ATOM     43  C   UNL A   1      34.029  34.791  32.537  1.00  0.00     0.060 A 
ATOM     44  C   UNL A   1      33.983  33.450  32.941  1.00  0.00     0.016 A 
ATOM     45  C   UNL A   1      35.248  35.409  32.257  1.00  0.00     0.016 A 
ATOM     46  C   UNL A   1      35.166  32.723  33.072  1.00  0.00     0.010 A 
ATOM     47  C   UNL A   1      36.435  34.693  32.427  1.00  0.00     0.010 A 
ATOM     48  C   UNL A   1      36.396  33.357  32.862  1.00  0.00    -0.014 A 
BRANCH  48  49
ATOM     49  C   UNL A   1      37.633  32.704  33.346  1.00  0.00     0.031 A 
ATOM     50  C   UNL A   1      38.233  31.630  32.483  1.00  0.00     0.074 A 
ATOM     51  C   UNL A   1      38.226  33.068  34.495  1.00  0.00     0.049 A 
ATOM     52  N   UNL A   1      39.308  30.912  32.674  1.00  0.00    -0.248 NA
ATOM     53  C   UNL A   1      37.522  31.328  31.229  1.00  0.00     0.031 C 
ATOM     54  C   UNL A   1      37.761  34.123  35.390  1.00  0.00     0.029 A 
ATOM     55  N   UNL A   1      39.357  32.582  35.103  1.00  0.00    -0.354 N 
ATOM     56  C   UNL A   1      39.408  30.089  31.562  1.00  0.00     0.074 A 
ATOM     57  C   UNL A   1      38.266  30.359  30.720  1.00  0.00     0.031 C 
ATOM     58  C   UNL A   1      38.598  34.201  36.440  1.00  0.00     0.029 A 
ATOM     59  C   UNL A   1      39.643  33.186  36.301  1.00  0.00     0.049 A 
ATOM     60  H   UNL A   1      39.911  31.865  34.715  1.00  0.00     0.167 HD
ATOM     61  C   UNL A   1      40.381  29.199  31.259  1.00  0.00     0.037 A 
ATOM     62  C   UNL A   1      40.631  32.935  37.184  1.00  0.00     0.037 A 
ATOM     63  C   UNL A   1      41.507  28.920  32.107  1.00  0.00     0.049 A 
ATOM     64  C   UNL A   1      41.641  31.857  36.878  1.00  0.00     0.074 A 
ATOM     65  C   UNL A   1      42.550  28.041  31.887  1.00  0.00     0.029 A 
ATOM     66  N   UNL A   1      41.727  29.508  33.344  1.00  0.00    -0.354 N 
ATOM     67  N   UNL A   1      41.759  31.113  35.803  1.00  0.00    -0.248 NA
ATOM     68  C   UNL A   1      42.656  31.581  37.906  1.00  0.00     0.031 C 
ATOM     69  C   UNL A   1      43.370  28.050  33.017  1.00  0.00     0.029 A 
ATOM     70  C   UNL A   1      42.872  28.980  33.916  1.00  0.00     0.049 A 
ATOM     71  H   UNL A   1      41.156  30.197  33.753  1.00  0.00     0.167 HD
ATOM     72  C   UNL A   1      42.867  30.302  36.016  1.00  0.00     0.074 A 
ATOM     73  C   UNL A   1      43.400  30.655  37.314  1.00  0.00     0.031 C 
ATOM     74  C   UNL A   1      43.394  29.348  35.208  1.00  0.00     0.037 A 
BRANCH  61  75
ATOM     75  C   UNL A   1      40.266  28.457  29.963  1.00  0.00     0.064 A 
ATOM     76  C   UNL A   1      40.907  28.910  28.801  1.00  0.00     0.173 A 
ATOM     77  C   UNL A   1      39.553  27.250  29.894  1.00  0.00     0.173 A 
ATOM     78  F   UNL A   1      41.586  30.068  28.812  1.00  0.00    -0.203 F 
ATOM     79  C   UNL A   1      40.829  28.189  27.613  1.00  0.00     0.198 A 
ATOM     80  C   UNL A   1      39.502  26.516  28.713  1.00  0.00     0.198 A 
ATOM     81  F   UNL A   1      38.920  26.775  30.977  1.00  0.00    -0.203 F 
ATOM     82  F   UNL A   1      41.419  28.659  26.506  1.00  0.00    -0.200 F 
ATOM     83  C   UNL A   1      40.136  26.988  27.573  1.00  0.00     0.200 A 
ATOM     84  F   UNL A   1      38.843  25.350  28.678  1.00  0.00    -0.200 F 
ATOM     85  F   UNL A   1      40.077  26.285  26.434  1.00  0.00    -0.200 F 
ENDBRANCH  61  75
BRANCH  62  86
ATOM     86  C   UNL A   1      40.720  33.725  38.442  1.00  0.00     0.064 A 
ATOM     87  C   UNL A   1      41.582  34.825  38.542  1.00  0.00     0.173 A 
ATOM     88  C   UNL A   1      39.952  33.395  39.570  1.00  0.00     0.173 A 
ATOM     89  F   UNL A   1      42.359  35.163  37.503  1.00  0.00    -0.203 F 
ATOM     90  C   UNL A   1      41.678  35.561  39.722  1.00  0.00     0.198 A 
ATOM     91  C   UNL A   1      40.027  34.149  40.739  1.00  0.00     0.198 A 
ATOM     92  F   UNL A   1      39.119  32.345  39.531  1.00  0.00    -0.203 F 
ATOM     93  F   UNL A   1      42.539  36.585  39.802  1.00  0.00    -0.200 F 
ATOM     94  C   UNL A   1      40.894  35.228  40.817  1.00  0.00     0.200 A 
ATOM     95  F   UNL A   1      39.262  33.828  41.792  1.00  0.00    -0.200 F 
ATOM     96  F   UNL A   1      40.980  35.942  41.948  1.00  0.00    -0.200 F 
ENDBRANCH  62  86
BRANCH  74  97
ATOM     97  C   UNL A   1      44.611  28.609  35.685  1.00  0.00     0.064 A 
ATOM     98  C   UNL A   1      44.518  27.311  36.209  1.00  0.00     0.173 A 
ATOM     99  C   UNL A   1      45.892  29.154  35.504  1.00  0.00     0.173 A 
ATOM    100  F   UNL A   1      43.317  26.749  36.410  1.00  0.00    -0.203 F 
ATOM    101  C   UNL A   1      45.662  26.589  36.535  1.00  0.00     0.198 A 
ATOM    102  C   UNL A   1      47.034  28.416  35.802  1.00  0.00     0.198 A 
ATOM    103  F   UNL A   1      46.037  30.388  34.994  1.00  0.00    -0.203 F 
ATOM    104  F   UNL A   1      45.548  25.358  37.055  1.00  0.00    -0.200 F 
ATOM    105  C   UNL A   1      46.918  27.136  36.318  1.00  0.00     0.200 A 
ATOM    106  F   UNL A   1      48.247  28.938  35.570  1.00  0.00    -0.200 F 
ATOM    107  F   UNL A   1      48.018  26.425  36.605  1.00  0.00    -0.200 F 
ENDBRANCH  74  97
ENDBRANCH  48  49
ENDBRANCH  41  43
ENDBRANCH  40  41
ENDBRANCH  39  40
ENDBRANCH  38  39
ENDBRANCH  37  38
ENDBRANCH  36  37
ENDBRANCH   1  36
TORSDOF 21
ENDMDL
MODEL 3
REMARK VINA RESULT:     -10.8      8.578     13.117
REMARK SMILES CC1(C)[C@H](O)CC[C@]2(C)[C@@H]1CC[C@@]1(C)Oc3oc(C(=O)OCCOCCOCCOCCOC(=O)c4ccc(-c5c6nc(c(-c7c(F)c(F)c(F)c(F)c7F)c7ccc([nH]7)c(-c7c(F)c(F)c(F)c(F)c7F)c7nc(c(-c8c(F)c(F)c(F)c(F)c8F)c8ccc5[nH]8)C=C7)C=C6)cc4)cc(=O)c3C[C@H]21
REMARK SMILES IDX 28 1 27 2 26 3 25 4 24 5 23 6 22 7 21 8 19 9 20 10 18 11
REMARK SMILES IDX 1 12 2 13 3 14 4 15 10 16 6 17 8 18 11 19 7 20 9 21 104 22
REMARK SMILES IDX 12 23 13 24 103 25 14 26 15 27 102 28 16 29 100 30 17 31
REMARK SMILES IDX 99 32 101 33 5 34 29 36 30 37 31 38 32 39 33 40 34 41 35 42
REMARK SMILES IDX 36 43 37 44 98 45 38 46 97 47 39 48 40 49 41 50 91 51 42 52
REMARK SMILES IDX 96 53 90 54 92 55 43 56 95 57 89 58 88 59 44 61 76 62 56 63
REMARK SMILES IDX 75 64 57 65 60 66 74 67 93 68 58 69 59 70 73 72 94 73 61 74
REMARK SMILES IDX 45 75 46 76 54 77 47 78 48 79 52 80 55 81 49 82 50 83 53 84
REMARK SMILES IDX 51 85 77 86 78 87 86 88 79 89 80 90 84 91 87 92 81 93 82 94
REMARK SMILES IDX 85 95 83 96 62 97 63 98 71 99 64 100 65 101 69 102 72 103
REMARK SMILES IDX 66 104 67 105 70 106 68 107
REMARK H PARENT 5 35 92 60 60 71
REMARK Flexibility Score: inf
ROOT
ATOM      1  C   UNL A   1      44.196  18.798  24.636  1.00  0.00     0.188 C 
ENDROOT
BRANCH   1   2
ATOM      2  O   UNL A   1      42.889  18.830  25.220  1.00  0.00    -0.377 OA
BRANCH   2   3
ATOM      3  C   UNL A   1      42.539  19.967  25.993  1.00  0.00     0.188 C 
BRANCH   3   4
ATOM      4  C   UNL A   1      41.944  19.612  27.374  1.00  0.00     0.188 C 
BRANCH   4   5
ATOM      5  O   UNL A   1      40.778  20.362  27.687  1.00  0.00    -0.376 OA
BRANCH   5   6
ATOM      6  C   UNL A   1      40.771  21.779  27.669  1.00  0.00     0.202 C 
BRANCH   6   7
ATOM      7  C   UNL A   1      40.126  22.552  26.522  1.00  0.00     0.261 C 
BRANCH   7   8
ATOM      8  O   UNL A   1      38.742  22.301  26.335  1.00  0.00    -0.457 OA
BRANCH   8   9
ATOM      9  C   UNL A   1      38.276  21.323  25.516  1.00  0.00     0.374 C 
ATOM     10  O   UNL A   1      38.813  20.264  25.262  1.00  0.00    -0.242 OA
BRANCH   9  11
ATOM     11  C   UNL A   1      36.909  21.767  25.107  1.00  0.00     0.219 A 
ATOM     12  C   UNL A   1      28.538  26.519  23.966  1.00  0.00     0.014 C 
ATOM     13  C   UNL A   1      30.065  26.810  24.131  1.00  0.00    -0.006 C 
ATOM     14  C   UNL A   1      30.186  28.350  24.097  1.00  0.00     0.014 C 
ATOM     15  C   UNL A   1      30.334  26.384  25.755  1.00  0.00     0.120 C 
ATOM     16  C   UNL A   1      30.996  25.820  22.967  1.00  0.00     0.004 C 
ATOM     17  C   UNL A   1      30.475  24.895  26.008  1.00  0.00     0.033 C 
ATOM     18  C   UNL A   1      31.938  25.127  23.923  1.00  0.00    -0.022 C 
ATOM     19  C   UNL A   1      31.801  26.061  21.642  1.00  0.00     0.009 C 
ATOM     20  C   UNL A   1      30.826  24.314  24.700  1.00  0.00     0.010 C 
ATOM     21  C   UNL A   1      32.867  26.387  24.292  1.00  0.00     0.012 C 
ATOM     22  C   UNL A   1      33.066  24.166  23.634  1.00  0.00     0.044 C 
ATOM     23  C   UNL A   1      33.123  25.099  21.350  1.00  0.00     0.049 C 
ATOM     24  C   UNL A   1      33.392  23.784  22.230  1.00  0.00     0.113 C 
ATOM     25  C   UNL A   1      33.094  23.021  24.606  1.00  0.00     0.055 C 
ATOM     26  C   UNL A   1      32.561  22.626  21.669  1.00  0.00     0.057 C 
ATOM     27  O   UNL A   1      34.850  23.321  22.324  1.00  0.00    -0.458 OA
ATOM     28  C   UNL A   1      34.363  22.348  24.498  1.00  0.00     0.081 A 
ATOM     29  C   UNL A   1      35.247  22.588  23.525  1.00  0.00     0.292 A 
ATOM     30  C   UNL A   1      34.621  21.595  25.721  1.00  0.00     0.192 A 
ATOM     31  O   UNL A   1      36.602  22.232  23.795  1.00  0.00    -0.418 OA
ATOM     32  C   UNL A   1      36.005  21.473  26.056  1.00  0.00     0.107 A 
ATOM     33  O   UNL A   1      33.739  21.169  26.454  1.00  0.00    -0.289 OA
BRANCH  15  34
ATOM     34  O   UNL A   1      31.448  27.057  26.352  1.00  0.00    -0.393 OA
ATOM     35  H   UNL A   1      31.613  27.889  25.883  1.00  0.00     0.210 HD
ENDBRANCH  15  34
ENDBRANCH   9  11
ENDBRANCH   8   9
ENDBRANCH   7   8
ENDBRANCH   6   7
ENDBRANCH   5   6
ENDBRANCH   4   5
ENDBRANCH   3   4
ENDBRANCH   2   3
ENDBRANCH   1   2
BRANCH   1  36
ATOM     36  C   UNL A   1      45.471  18.453  25.454  1.00  0.00     0.188 C 
BRANCH  36  37
ATOM     37  O   UNL A   1      46.465  19.464  25.446  1.00  0.00    -0.376 OA
BRANCH  37  38
ATOM     38  C   UNL A   1      46.513  20.388  24.379  1.00  0.00     0.202 C 
BRANCH  38  39
ATOM     39  C   UNL A   1      46.090  21.829  24.683  1.00  0.00     0.261 C 
BRANCH  39  40
ATOM     40  O   UNL A   1      46.045  22.195  26.067  1.00  0.00    -0.460 OA
BRANCH  40  41
ATOM     41  C   UNL A   1      45.054  23.038  26.455  1.00  0.00     0.338 C 
ATOM     42  O   UNL A   1      43.959  22.757  26.854  1.00  0.00    -0.246 OA
BRANCH  41  43
ATOM     43  C   UNL A   1      45.651  24.394  26.452  1.00  0.00     0.060 A 
ATOM     44  C   UNL A   1      45.653  25.145  25.269  1.00  0.00     0.016 A 
ATOM     45  C   UNL A   1      46.176  24.923  27.632  1.00  0.00     0.016 A 
ATOM     46  C   UNL A   1      46.191  26.431  25.264  1.00  0.00     0.010 A 
ATOM     47  C   UNL A   1      46.750  26.194  27.618  1.00  0.00     0.010 A 
ATOM     48  C   UNL A   1      46.783  26.940  26.427  1.00  0.00    -0.014 A 
BRANCH  48  49
ATOM     49  C   UNL A   1      47.659  28.129  26.326  1.00  0.00     0.031 A 
ATOM     50  C   UNL A   1      47.024  29.476  26.527  1.00  0.00     0.074 A 
ATOM     51  C   UNL A   1      48.978  28.023  26.094  1.00  0.00     0.049 A 
ATOM     52  N   UNL A   1      47.566  30.665  26.496  1.00  0.00    -0.248 NA
ATOM     53  C   UNL A   1      45.577  29.481  26.806  1.00  0.00     0.031 C 
ATOM     54  C   UNL A   1      49.709  26.771  25.925  1.00  0.00     0.029 A 
ATOM     55  N   UNL A   1      49.936  28.997  25.962  1.00  0.00    -0.354 N 
ATOM     56  C   UNL A   1      46.533  31.551  26.767  1.00  0.00     0.074 A 
ATOM     57  C   UNL A   1      45.324  30.775  26.913  1.00  0.00     0.031 C 
ATOM     58  C   UNL A   1      51.006  27.053  25.705  1.00  0.00     0.029 A 
ATOM     59  C   UNL A   1      51.190  28.506  25.694  1.00  0.00     0.049 A 
ATOM     60  H   UNL A   1      49.743  29.959  26.051  1.00  0.00     0.167 HD
ATOM     61  C   UNL A   1      46.593  32.896  26.899  1.00  0.00     0.037 A 
ATOM     62  C   UNL A   1      52.344  29.159  25.457  1.00  0.00     0.037 A 
ATOM     63  C   UNL A   1      47.794  33.668  26.736  1.00  0.00     0.049 A 
ATOM     64  C   UNL A   1      52.363  30.668  25.499  1.00  0.00     0.074 A 
ATOM     65  C   UNL A   1      47.959  35.034  26.857  1.00  0.00     0.029 A 
ATOM     66  N   UNL A   1      49.031  33.138  26.401  1.00  0.00    -0.354 N 
ATOM     67  N   UNL A   1      51.394  31.500  25.800  1.00  0.00    -0.248 NA
ATOM     68  C   UNL A   1      53.633  31.330  25.167  1.00  0.00     0.031 C 
ATOM     69  C   UNL A   1      49.283  35.340  26.536  1.00  0.00     0.029 A 
ATOM     70  C   UNL A   1      49.958  34.158  26.275  1.00  0.00     0.049 A 
ATOM     71  H   UNL A   1      49.222  32.181  26.274  1.00  0.00     0.167 HD
ATOM     72  C   UNL A   1      51.941  32.775  25.716  1.00  0.00     0.074 A 
ATOM     73  C   UNL A   1      53.333  32.609  25.354  1.00  0.00     0.031 C 
ATOM     74  C   UNL A   1      51.343  33.975  25.919  1.00  0.00     0.037 A 
BRANCH  61  75
ATOM     75  C   UNL A   1      45.323  33.619  27.231  1.00  0.00     0.064 A 
ATOM     76  C   UNL A   1      44.913  33.805  28.559  1.00  0.00     0.173 A 
ATOM     77  C   UNL A   1      44.537  34.180  26.213  1.00  0.00     0.173 A 
ATOM     78  F   UNL A   1      45.621  33.271  29.566  1.00  0.00    -0.203 F 
ATOM     79  C   UNL A   1      43.753  34.516  28.856  1.00  0.00     0.198 A 
ATOM     80  C   UNL A   1      43.396  34.917  26.516  1.00  0.00     0.198 A 
ATOM     81  F   UNL A   1      44.886  34.029  24.927  1.00  0.00    -0.203 F 
ATOM     82  F   UNL A   1      43.360  34.650  30.130  1.00  0.00    -0.200 F 
ATOM     83  C   UNL A   1      43.003  35.081  27.836  1.00  0.00     0.200 A 
ATOM     84  F   UNL A   1      42.678  35.472  25.530  1.00  0.00    -0.200 F 
ATOM     85  F   UNL A   1      41.898  35.781  28.124  1.00  0.00    -0.200 F 
ENDBRANCH  61  75
BRANCH  62  86
ATOM     86  C   UNL A   1      53.585  28.392  25.166  1.00  0.00     0.064 A 
ATOM     87  C   UNL A   1      54.417  27.947  26.202  1.00  0.00     0.173 A 
ATOM     88  C   UNL A   1      53.970  28.093  23.850  1.00  0.00     0.173 A 
ATOM     89  F   UNL A   1      54.110  28.233  27.477  1.00  0.00    -0.203 F 
ATOM     90  C   UNL A   1      55.587  27.238  25.935  1.00  0.00     0.198 A 
ATOM     91  C   UNL A   1      55.124  27.359  23.585  1.00  0.00     0.198 A 
ATOM     92  F   UNL A   1      53.215  28.505  22.820  1.00  0.00    -0.203 F 
ATOM     93  F   UNL A   1      56.382  26.857  26.944  1.00  0.00    -0.200 F 
ATOM     94  C   UNL A   1      55.935  26.937  24.626  1.00  0.00     0.200 A 
ATOM     95  F   UNL A   1      55.453  27.064  22.319  1.00  0.00    -0.200 F 
ATOM     96  F   UNL A   1      57.055  26.247  24.371  1.00  0.00    -0.200 F 
ENDBRANCH  62  86
BRANCH  74  97
ATOM     97  C   UNL A   1      52.174  35.216  25.762  1.00  0.00     0.064 A 
ATOM     98  C   UNL A   1      52.369  35.809  24.506  1.00  0.00     0.173 A 
ATOM     99  C   UNL A   1      52.677  35.885  26.889  1.00  0.00     0.173 A 
ATOM    100  F   UNL A   1      51.917  35.206  23.397  1.00  0.00    -0.203 F 
ATOM    101  C   UNL A   1      53.039  37.024  24.386  1.00  0.00     0.198 A 
ATOM    102  C   UNL A   1      53.317  37.115  26.767  1.00  0.00     0.198 A 
ATOM    103  F   UNL A   1      52.505  35.366  28.116  1.00  0.00    -0.203 F 
ATOM    104  F   UNL A   1      53.232  37.561  23.173  1.00  0.00    -0.200 F 
ATOM    105  C   UNL A   1      53.498  37.682  25.516  1.00  0.00     0.200 A 
ATOM    106  F   UNL A   1      53.741  37.760  27.864  1.00  0.00    -0.200 F 
ATOM    107  F   UNL A   1      54.115  38.867  25.399  1.00  0.00    -0.200 F 
ENDBRANCH  74  97
ENDBRANCH  48  49
ENDBRANCH  41  43
ENDBRANCH  40  41
ENDBRANCH  39  40
ENDBRANCH  38  39
ENDBRANCH  37  38
ENDBRANCH  36  37
ENDBRANCH   1  36
TORSDOF 21
ENDMDL
