MODEL 1
REMARK VINA RESULT:     -11.2      0.000      0.000
REMARK SMILES O=C(OCCOCCOCCOCCOC(=O)c1ccc(-c2c3nc(c(-c4c(F)c(F)c(F)c(F)c4F)c4ccc([nH]4)c(-c4c(F)c(F)c(F)c(F)c4F)c4nc(c(-c5c(F)c(F)c(F)c(F)c5F)c5ccc2[nH]5)C=C4)C=C3)cc1)C1=Cc2cc(S(F)(F)(F)(F)F)ccc2O[C@@H]1C(F)(F)F
REMARK SMILES IDX 10 1 9 2 8 3 7 4 6 5 5 6 4 7 3 8 2 9 1 10 81 11 82 12 96 13
REMARK SMILES IDX 83 14 95 15 84 16 94 17 85 18 93 19 92 20 97 21 98 22 99 23
REMARK SMILES IDX 100 24 86 25 87 26 88 27 89 28 90 29 91 30 11 31 12 32 13 33
REMARK SMILES IDX 14 34 15 35 16 36 17 37 18 38 19 39 80 40 20 41 79 42 21 43
REMARK SMILES IDX 22 44 23 45 73 46 24 47 78 48 72 49 74 50 25 51 77 52 71 53
REMARK SMILES IDX 70 54 26 56 58 57 38 58 57 59 39 60 42 61 56 62 75 63 40 64
REMARK SMILES IDX 41 65 55 67 76 68 43 69 27 70 28 71 36 72 29 73 30 74 34 75
REMARK SMILES IDX 37 76 31 77 32 78 35 79 33 80 59 81 60 82 68 83 61 84 62 85
REMARK SMILES IDX 66 86 69 87 63 88 64 89 67 90 65 91 44 92 45 93 53 94 46 95
REMARK SMILES IDX 47 96 51 97 54 98 48 99 49 100 52 101 50 102
REMARK H PARENT 74 55 42 66
REMARK Flexibility Score: inf
ROOT
ATOM      1  C   UNL A   1      32.493  26.999  22.649  1.00  0.00     0.188 C 
ENDROOT
BRANCH   1   2
ATOM      2  O   UNL A   1      31.294  26.248  22.527  1.00  0.00    -0.377 OA
BRANCH   2   3
ATOM      3  C   UNL A   1      31.597  24.862  22.582  1.00  0.00     0.188 C 
BRANCH   3   4
ATOM      4  C   UNL A   1      30.635  24.169  23.533  1.00  0.00     0.188 C 
BRANCH   4   5
ATOM      5  O   UNL A   1      30.876  24.617  24.859  1.00  0.00    -0.376 OA
BRANCH   5   6
ATOM      6  C   UNL A   1      30.898  23.501  25.738  1.00  0.00     0.202 C 
BRANCH   6   7
ATOM      7  C   UNL A   1      31.898  23.755  26.855  1.00  0.00     0.261 C 
BRANCH   7   8
ATOM      8  O   UNL A   1      33.068  22.984  26.627  1.00  0.00    -0.460 OA
BRANCH   8   9
ATOM      9  C   UNL A   1      34.225  23.596  26.076  1.00  0.00     0.338 C 
ATOM     10  O   UNL A   1      34.144  24.749  25.547  1.00  0.00    -0.246 OA
BRANCH   9  11
ATOM     11  C   UNL A   1      35.560  22.870  26.116  1.00  0.00     0.087 C 
ATOM     12  C   UNL A   1      35.687  21.645  25.537  1.00  0.00     0.027 C 
ATOM     13  C   UNL A   1      36.754  23.513  26.803  1.00  0.00     0.316 C 
ATOM     14  C   UNL A   1      34.493  21.002  24.850  1.00  0.00     0.019 A 
ATOM     15  O   UNL A   1      33.950  23.133  23.946  1.00  0.00    -0.475 OA
ATOM     16  C   UNL A   1      34.216  19.666  25.083  1.00  0.00     0.036 A 
ATOM     17  C   UNL A   1      33.736  21.732  24.038  1.00  0.00     0.128 A 
ATOM     18  C   UNL A   1      33.279  19.109  24.180  1.00  0.00     0.107 A 
ATOM     19  C   UNL A   1      32.749  21.143  23.286  1.00  0.00     0.048 A 
ATOM     20  C   UNL A   1      32.460  19.814  23.422  1.00  0.00     0.028 A 
BRANCH  13  21
ATOM     21  C   UNL A   1      37.879  23.696  25.798  1.00  0.00     0.430 C 
ATOM     22  F   UNL A   1      38.569  22.563  25.696  1.00  0.00    -0.167 F 
ATOM     23  F   UNL A   1      37.366  24.010  24.612  1.00  0.00    -0.167 F 
ATOM     24  F   UNL A   1      38.684  24.672  26.206  1.00  0.00    -0.167 F 
ENDBRANCH  13  21
BRANCH  18  25
ATOM     25  S   UNL A   1      33.199  17.305  24.056  1.00  0.00     0.310 S 
ATOM     26  F   UNL A   1      32.235  17.374  22.799  1.00  0.00    -0.094 F 
ATOM     27  F   UNL A   1      31.908  17.328  24.960  1.00  0.00    -0.094 F 
ATOM     28  F   UNL A   1      33.128  15.756  23.948  1.00  0.00    -0.094 F 
ATOM     29  F   UNL A   1      34.406  17.314  23.039  1.00  0.00    -0.094 F 
ATOM     30  F   UNL A   1      33.214  18.885  24.066  1.00  0.00    -0.094 F 
ENDBRANCH  18  25
ENDBRANCH   9  11
ENDBRANCH   8   9
ENDBRANCH   7   8
ENDBRANCH   6   7
ENDBRANCH   5   6
ENDBRANCH   4   5
ENDBRANCH   3   4
ENDBRANCH   2   3
ENDBRANCH   1   2
BRANCH   1  31
ATOM     31  C   UNL A   1      32.667  27.446  24.091  1.00  0.00     0.188 C 
BRANCH  31  32
ATOM     32  O   UNL A   1      31.430  27.931  24.590  1.00  0.00    -0.376 OA
BRANCH  32  33
ATOM     33  C   UNL A   1      31.264  29.287  24.203  1.00  0.00     0.202 C 
BRANCH  33  34
ATOM     34  C   UNL A   1      31.410  30.184  25.422  1.00  0.00     0.261 C 
BRANCH  34  35
ATOM     35  O   UNL A   1      32.787  30.352  25.723  1.00  0.00    -0.460 OA
BRANCH  35  36
ATOM     36  C   UNL A   1      33.181  31.180  26.807  1.00  0.00     0.338 C 
ATOM     37  O   UNL A   1      32.483  32.196  27.117  1.00  0.00    -0.246 OA
BRANCH  36  38
ATOM     38  C   UNL A   1      34.439  30.853  27.596  1.00  0.00     0.060 A 
ATOM     39  C   UNL A   1      34.688  29.538  27.950  1.00  0.00     0.016 A 
ATOM     40  C   UNL A   1      35.276  31.827  27.933  1.00  0.00     0.016 A 
ATOM     41  C   UNL A   1      35.711  29.387  28.917  1.00  0.00     0.010 A 
ATOM     42  C   UNL A   1      36.334  31.581  28.773  1.00  0.00     0.010 A 
ATOM     43  C   UNL A   1      36.605  30.313  29.210  1.00  0.00    -0.014 A 
BRANCH  43  44
ATOM     44  C   UNL A   1      37.867  29.989  29.992  1.00  0.00     0.031 A 
ATOM     45  C   UNL A   1      38.064  30.582  31.240  1.00  0.00     0.074 A 
ATOM     46  C   UNL A   1      38.764  29.115  29.400  1.00  0.00     0.049 A 
ATOM     47  N   UNL A   1      39.089  30.401  32.075  1.00  0.00    -0.248 NA
ATOM     48  C   UNL A   1      37.129  31.536  31.855  1.00  0.00     0.031 C 
ATOM     49  C   UNL A   1      38.569  28.506  28.145  1.00  0.00     0.029 A 
ATOM     50  N   UNL A   1      39.974  28.684  29.894  1.00  0.00    -0.354 N 
ATOM     51  C   UNL A   1      38.915  31.125  33.182  1.00  0.00     0.074 A 
ATOM     52  C   UNL A   1      37.655  31.870  33.054  1.00  0.00     0.031 C 
ATOM     53  C   UNL A   1      39.651  27.728  27.881  1.00  0.00     0.029 A 
ATOM     54  C   UNL A   1      40.541  27.837  28.966  1.00  0.00     0.049 A 
ATOM     55  H   UNL A   1      40.368  28.936  30.760  1.00  0.00     0.167 HD
ATOM     56  C   UNL A   1      39.757  31.191  34.293  1.00  0.00     0.037 A 
ATOM     57  C   UNL A   1      41.763  27.188  29.044  1.00  0.00     0.037 A 
ATOM     58  C   UNL A   1      40.958  30.509  34.390  1.00  0.00     0.049 A 
ATOM     59  C   UNL A   1      42.633  27.301  30.132  1.00  0.00     0.074 A 
ATOM     60  C   UNL A   1      41.815  30.559  35.506  1.00  0.00     0.029 A 
ATOM     61  N   UNL A   1      41.536  29.682  33.452  1.00  0.00    -0.354 N 
ATOM     62  N   UNL A   1      42.441  27.994  31.255  1.00  0.00    -0.248 NA
ATOM     63  C   UNL A   1      43.944  26.644  30.210  1.00  0.00     0.031 C 
ATOM     64  C   UNL A   1      42.898  29.780  35.242  1.00  0.00     0.029 A 
ATOM     65  C   UNL A   1      42.737  29.231  33.955  1.00  0.00     0.049 A 
ATOM     66  H   UNL A   1      41.156  29.451  32.573  1.00  0.00     0.167 HD
ATOM     67  C   UNL A   1      43.486  27.845  32.072  1.00  0.00     0.074 A 
ATOM     68  C   UNL A   1      44.471  26.980  31.408  1.00  0.00     0.031 C 
ATOM     69  C   UNL A   1      43.654  28.392  33.345  1.00  0.00     0.037 A 
BRANCH  56  70
ATOM     70  C   UNL A   1      39.331  32.062  35.464  1.00  0.00     0.064 A 
ATOM     71  C   UNL A   1      39.717  33.391  35.509  1.00  0.00     0.173 A 
ATOM     72  C   UNL A   1      38.547  31.541  36.401  1.00  0.00     0.173 A 
ATOM     73  F   UNL A   1      40.280  34.019  34.479  1.00  0.00    -0.203 F 
ATOM     74  C   UNL A   1      39.458  34.022  36.749  1.00  0.00     0.198 A 
ATOM     75  C   UNL A   1      38.223  32.264  37.524  1.00  0.00     0.198 A 
ATOM     76  F   UNL A   1      38.072  30.309  36.251  1.00  0.00    -0.203 F 
ATOM     77  F   UNL A   1      40.102  35.156  37.013  1.00  0.00    -0.200 F 
ATOM     78  C   UNL A   1      38.621  33.564  37.662  1.00  0.00     0.200 A 
ATOM     79  F   UNL A   1      37.511  31.690  38.489  1.00  0.00    -0.200 F 
ATOM     80  F   UNL A   1      38.189  34.327  38.662  1.00  0.00    -0.200 F 
ENDBRANCH  56  70
BRANCH  57  81
ATOM     81  C   UNL A   1      42.181  26.305  27.880  1.00  0.00     0.064 A 
ATOM     82  C   UNL A   1      42.946  26.839  26.857  1.00  0.00     0.173 A 
ATOM     83  C   UNL A   1      41.759  25.046  27.840  1.00  0.00     0.173 A 
ATOM     84  F   UNL A   1      43.597  27.995  26.966  1.00  0.00    -0.203 F 
ATOM     85  C   UNL A   1      42.974  26.046  25.687  1.00  0.00     0.198 A 
ATOM     86  C   UNL A   1      41.941  24.284  26.710  1.00  0.00     0.198 A 
ATOM     87  F   UNL A   1      41.157  24.518  28.901  1.00  0.00    -0.203 F 
ATOM     88  F   UNL A   1      43.367  26.625  24.555  1.00  0.00    -0.200 F 
ATOM     89  C   UNL A   1      42.637  24.770  25.639  1.00  0.00     0.200 A 
ATOM     90  F   UNL A   1      41.431  23.057  26.659  1.00  0.00    -0.200 F 
ATOM     91  F   UNL A   1      42.957  23.999  24.603  1.00  0.00    -0.200 F 
ENDBRANCH  57  81
BRANCH  69  92
ATOM     92  C   UNL A   1      44.923  28.045  34.108  1.00  0.00     0.064 A 
ATOM     93  C   UNL A   1      44.936  26.938  34.941  1.00  0.00     0.173 A 
ATOM     94  C   UNL A   1      45.999  28.809  33.962  1.00  0.00     0.173 A 
ATOM     95  F   UNL A   1      43.984  26.010  34.926  1.00  0.00    -0.203 F 
ATOM     96  C   UNL A   1      46.052  26.886  35.809  1.00  0.00     0.198 A 
ATOM     97  C   UNL A   1      47.107  28.616  34.750  1.00  0.00     0.198 A 
ATOM     98  F   UNL A   1      46.003  29.773  33.045  1.00  0.00    -0.203 F 
ATOM     99  F   UNL A   1      45.976  26.086  36.868  1.00  0.00    -0.200 F 
ATOM    100  C   UNL A   1      47.165  27.577  35.638  1.00  0.00     0.200 A 
ATOM    101  F   UNL A   1      48.137  29.450  34.650  1.00  0.00    -0.200 F 
ATOM    102  F   UNL A   1      48.282  27.279  36.296  1.00  0.00    -0.200 F 
ENDBRANCH  69  92
ENDBRANCH  43  44
ENDBRANCH  36  38
ENDBRANCH  35  36
ENDBRANCH  34  35
ENDBRANCH  33  34
ENDBRANCH  32  33
ENDBRANCH  31  32
ENDBRANCH   1  31
TORSDOF 22
ENDMDL
MODEL 2
REMARK VINA RESULT:     -11.1      0.263      6.821
REMARK SMILES O=C(OCCOCCOCCOCCOC(=O)c1ccc(-c2c3nc(c(-c4c(F)c(F)c(F)c(F)c4F)c4ccc([nH]4)c(-c4c(F)c(F)c(F)c(F)c4F)c4nc(c(-c5c(F)c(F)c(F)c(F)c5F)c5ccc2[nH]5)C=C4)C=C3)cc1)C1=Cc2cc(S(F)(F)(F)(F)F)ccc2O[C@@H]1C(F)(F)F
REMARK SMILES IDX 10 1 9 2 8 3 7 4 6 5 5 6 4 7 3 8 2 9 1 10 81 11 82 12 96 13
REMARK SMILES IDX 83 14 95 15 84 16 94 17 85 18 93 19 92 20 97 21 98 22 99 23
REMARK SMILES IDX 100 24 86 25 87 26 88 27 89 28 90 29 91 30 11 31 12 32 13 33
REMARK SMILES IDX 14 34 15 35 16 36 17 37 18 38 19 39 80 40 20 41 79 42 21 43
REMARK SMILES IDX 22 44 23 45 73 46 24 47 78 48 72 49 74 50 25 51 77 52 71 53
REMARK SMILES IDX 70 54 26 56 58 57 38 58 57 59 39 60 42 61 56 62 75 63 40 64
REMARK SMILES IDX 41 65 55 67 76 68 43 69 27 70 28 71 36 72 29 73 30 74 34 75
REMARK SMILES IDX 37 76 31 77 32 78 35 79 33 80 59 81 60 82 68 83 61 84 62 85
REMARK SMILES IDX 66 86 69 87 63 88 64 89 67 90 65 91 44 92 45 93 53 94 46 95
REMARK SMILES IDX 47 96 51 97 54 98 48 99 49 100 52 101 50 102
REMARK H PARENT 74 55 42 66
REMARK Flexibility Score: inf
ROOT
ATOM      1  C   UNL A   1      32.085  27.339  22.692  1.00  0.00     0.188 C 
ENDROOT
BRANCH   1   2
ATOM      2  O   UNL A   1      31.000  26.442  22.884  1.00  0.00    -0.377 OA
BRANCH   2   3
ATOM      3  C   UNL A   1      31.433  25.114  22.627  1.00  0.00     0.188 C 
BRANCH   3   4
ATOM      4  C   UNL A   1      30.723  24.158  23.571  1.00  0.00     0.188 C 
BRANCH   4   5
ATOM      5  O   UNL A   1      30.704  24.710  24.879  1.00  0.00    -0.376 OA
BRANCH   5   6
ATOM      6  C   UNL A   1      30.806  23.665  25.835  1.00  0.00     0.202 C 
BRANCH   6   7
ATOM      7  C   UNL A   1      31.924  23.982  26.815  1.00  0.00     0.261 C 
BRANCH   7   8
ATOM      8  O   UNL A   1      33.044  23.153  26.541  1.00  0.00    -0.460 OA
BRANCH   8   9
ATOM      9  C   UNL A   1      34.215  23.708  25.963  1.00  0.00     0.338 C 
ATOM     10  O   UNL A   1      34.159  24.830  25.367  1.00  0.00    -0.246 OA
BRANCH   9  11
ATOM     11  C   UNL A   1      35.536  22.962  26.056  1.00  0.00     0.087 C 
ATOM     12  C   UNL A   1      35.655  21.720  25.512  1.00  0.00     0.027 C 
ATOM     13  C   UNL A   1      36.724  23.603  26.755  1.00  0.00     0.316 C 
ATOM     14  C   UNL A   1      34.467  21.079  24.813  1.00  0.00     0.019 A 
ATOM     15  O   UNL A   1      33.984  23.193  23.840  1.00  0.00    -0.475 OA
ATOM     16  C   UNL A   1      34.161  19.754  25.075  1.00  0.00     0.036 A 
ATOM     17  C   UNL A   1      33.743  21.799  23.964  1.00  0.00     0.128 A 
ATOM     18  C   UNL A   1      33.236  19.189  24.165  1.00  0.00     0.107 A 
ATOM     19  C   UNL A   1      32.764  21.207  23.204  1.00  0.00     0.048 A 
ATOM     20  C   UNL A   1      32.448  19.887  23.368  1.00  0.00     0.028 A 
BRANCH  13  21
ATOM     21  C   UNL A   1      37.876  23.739  25.773  1.00  0.00     0.430 C 
ATOM     22  F   UNL A   1      38.688  24.713  26.176  1.00  0.00    -0.167 F 
ATOM     23  F   UNL A   1      38.551  22.594  25.720  1.00  0.00    -0.167 F 
ATOM     24  F   UNL A   1      37.399  24.029  24.566  1.00  0.00    -0.167 F 
ENDBRANCH  13  21
BRANCH  18  25
ATOM     25  S   UNL A   1      33.128  17.384  24.086  1.00  0.00     0.310 S 
ATOM     26  F   UNL A   1      32.222  17.434  22.785  1.00  0.00    -0.094 F 
ATOM     27  F   UNL A   1      31.799  17.455  24.930  1.00  0.00    -0.094 F 
ATOM     28  F   UNL A   1      33.033  15.834  24.017  1.00  0.00    -0.094 F 
ATOM     29  F   UNL A   1      34.379  17.343  23.125  1.00  0.00    -0.094 F 
ATOM     30  F   UNL A   1      33.173  18.963  24.054  1.00  0.00    -0.094 F 
ENDBRANCH  18  25
ENDBRANCH   9  11
ENDBRANCH   8   9
ENDBRANCH   7   8
ENDBRANCH   6   7
ENDBRANCH   5   6
ENDBRANCH   4   5
ENDBRANCH   3   4
ENDBRANCH   2   3
ENDBRANCH   1   2
BRANCH   1  31
ATOM     31  C   UNL A   1      32.542  27.877  24.039  1.00  0.00     0.188 C 
BRANCH  31  32
ATOM     32  O   UNL A   1      31.410  28.272  24.799  1.00  0.00    -0.376 OA
BRANCH  32  33
ATOM     33  C   UNL A   1      31.003  29.573  24.401  1.00  0.00     0.202 C 
BRANCH  33  34
ATOM     34  C   UNL A   1      31.281  30.558  25.526  1.00  0.00     0.261 C 
BRANCH  34  35
ATOM     35  O   UNL A   1      32.653  30.490  25.884  1.00  0.00    -0.460 OA
BRANCH  35  36
ATOM     36  C   UNL A   1      33.162  31.335  26.906  1.00  0.00     0.338 C 
ATOM     37  O   UNL A   1      32.550  32.407  27.208  1.00  0.00    -0.246 OA
BRANCH  36  38
ATOM     38  C   UNL A   1      34.439  30.957  27.639  1.00  0.00     0.060 A 
ATOM     39  C   UNL A   1      34.631  29.640  28.023  1.00  0.00     0.016 A 
ATOM     40  C   UNL A   1      35.348  31.890  27.900  1.00  0.00     0.016 A 
ATOM     41  C   UNL A   1      35.694  29.459  28.940  1.00  0.00     0.010 A 
ATOM     42  C   UNL A   1      36.434  31.606  28.692  1.00  0.00     0.010 A 
ATOM     43  C   UNL A   1      36.655  30.338  29.155  1.00  0.00    -0.014 A 
BRANCH  43  44
ATOM     44  C   UNL A   1      37.937  29.962  29.880  1.00  0.00     0.031 A 
ATOM     45  C   UNL A   1      38.824  29.073  29.271  1.00  0.00     0.074 A 
ATOM     46  C   UNL A   1      38.143  30.531  31.125  1.00  0.00     0.049 A 
ATOM     47  N   UNL A   1      40.000  28.649  29.738  1.00  0.00    -0.248 NA
ATOM     48  C   UNL A   1      38.591  28.442  27.963  1.00  0.00     0.031 C 
ATOM     49  C   UNL A   1      37.256  31.435  31.742  1.00  0.00     0.029 A 
ATOM     50  N   UNL A   1      39.206  30.336  31.977  1.00  0.00    -0.354 N 
ATOM     51  C   UNL A   1      40.571  27.818  28.864  1.00  0.00     0.074 A 
ATOM     52  C   UNL A   1      39.670  27.668  27.713  1.00  0.00     0.031 C 
ATOM     53  C   UNL A   1      37.772  31.772  32.953  1.00  0.00     0.029 A 
ATOM     54  C   UNL A   1      38.989  31.084  33.114  1.00  0.00     0.049 A 
ATOM     55  H   UNL A   1      39.987  29.761  31.805  1.00  0.00     0.167 HD
ATOM     56  C   UNL A   1      41.807  27.181  28.982  1.00  0.00     0.037 A 
ATOM     57  C   UNL A   1      39.796  31.173  34.238  1.00  0.00     0.037 A 
ATOM     58  C   UNL A   1      42.633  27.304  30.087  1.00  0.00     0.049 A 
ATOM     59  C   UNL A   1      41.006  30.490  34.380  1.00  0.00     0.074 A 
ATOM     60  C   UNL A   1      43.886  26.675  30.218  1.00  0.00     0.029 A 
ATOM     61  N   UNL A   1      42.405  28.033  31.233  1.00  0.00    -0.354 N 
ATOM     62  N   UNL A   1      41.595  29.690  33.490  1.00  0.00    -0.248 NA
ATOM     63  C   UNL A   1      41.852  30.551  35.579  1.00  0.00     0.031 C 
ATOM     64  C   UNL A   1      44.403  27.012  31.430  1.00  0.00     0.029 A 
ATOM     65  C   UNL A   1      43.480  27.857  32.077  1.00  0.00     0.049 A 
ATOM     66  H   UNL A   1      41.612  28.585  31.418  1.00  0.00     0.167 HD
ATOM     67  C   UNL A   1      42.751  29.233  33.975  1.00  0.00     0.074 A 
ATOM     68  C   UNL A   1      42.929  29.775  35.329  1.00  0.00     0.031 C 
ATOM     69  C   UNL A   1      43.666  28.390  33.342  1.00  0.00     0.037 A 
BRANCH  56  70
ATOM     70  C   UNL A   1      42.273  26.302  27.832  1.00  0.00     0.064 A 
ATOM     71  C   UNL A   1      41.851  24.985  27.760  1.00  0.00     0.173 A 
ATOM     72  C   UNL A   1      43.037  26.833  26.886  1.00  0.00     0.173 A 
ATOM     73  F   UNL A   1      40.891  24.486  28.535  1.00  0.00    -0.203 F 
ATOM     74  C   UNL A   1      42.533  24.217  26.786  1.00  0.00     0.198 A 
ATOM     75  C   UNL A   1      43.560  26.049  25.887  1.00  0.00     0.198 A 
ATOM     76  F   UNL A   1      43.300  28.136  26.906  1.00  0.00    -0.203 F 
ATOM     77  F   UNL A   1      42.464  22.893  26.883  1.00  0.00    -0.200 F 
ATOM     78  C   UNL A   1      43.234  24.725  25.788  1.00  0.00     0.200 A 
ATOM     79  F   UNL A   1      44.395  26.585  25.002  1.00  0.00    -0.200 F 
ATOM     80  F   UNL A   1      43.601  23.988  24.744  1.00  0.00    -0.200 F 
ENDBRANCH  56  70
BRANCH  57  81
ATOM     81  C   UNL A   1      39.338  32.065  35.380  1.00  0.00     0.064 A 
ATOM     82  C   UNL A   1      39.793  33.371  35.452  1.00  0.00     0.173 A 
ATOM     83  C   UNL A   1      38.549  31.558  36.319  1.00  0.00     0.173 A 
ATOM     84  F   UNL A   1      40.366  33.997  34.427  1.00  0.00    -0.203 F 
ATOM     85  C   UNL A   1      39.592  33.980  36.713  1.00  0.00     0.198 A 
ATOM     86  C   UNL A   1      38.285  32.266  37.468  1.00  0.00     0.198 A 
ATOM     87  F   UNL A   1      38.007  30.356  36.148  1.00  0.00    -0.203 F 
ATOM     88  F   UNL A   1      40.299  35.072  36.993  1.00  0.00    -0.200 F 
ATOM     89  C   UNL A   1      38.752  33.539  37.632  1.00  0.00     0.200 A 
ATOM     90  F   UNL A   1      37.566  31.702  38.434  1.00  0.00    -0.200 F 
ATOM     91  F   UNL A   1      38.381  34.295  38.661  1.00  0.00    -0.200 F 
ENDBRANCH  57  81
BRANCH  69  92
ATOM     92  C   UNL A   1      44.943  28.036  34.086  1.00  0.00     0.064 A 
ATOM     93  C   UNL A   1      44.977  26.900  34.878  1.00  0.00     0.173 A 
ATOM     94  C   UNL A   1      46.006  28.822  33.963  1.00  0.00     0.173 A 
ATOM     95  F   UNL A   1      44.040  25.958  34.834  1.00  0.00    -0.203 F 
ATOM     96  C   UNL A   1      46.098  26.834  35.739  1.00  0.00     0.198 A 
ATOM     97  C   UNL A   1      47.121  28.617  34.740  1.00  0.00     0.198 A 
ATOM     98  F   UNL A   1      45.991  29.818  33.082  1.00  0.00    -0.203 F 
ATOM     99  F   UNL A   1      46.040  25.994  36.768  1.00  0.00    -0.200 F 
ATOM    100  C   UNL A   1      47.200  27.548  35.589  1.00  0.00     0.200 A 
ATOM    101  F   UNL A   1      48.138  29.471  34.665  1.00  0.00    -0.200 F 
ATOM    102  F   UNL A   1      48.324  27.243  36.231  1.00  0.00    -0.200 F 
ENDBRANCH  69  92
ENDBRANCH  43  44
ENDBRANCH  36  38
ENDBRANCH  35  36
ENDBRANCH  34  35
ENDBRANCH  33  34
ENDBRANCH  32  33
ENDBRANCH  31  32
ENDBRANCH   1  31
TORSDOF 22
ENDMDL
MODEL 3
REMARK VINA RESULT:     -11.1      1.532      2.747
REMARK SMILES O=C(OCCOCCOCCOCCOC(=O)c1ccc(-c2c3nc(c(-c4c(F)c(F)c(F)c(F)c4F)c4ccc([nH]4)c(-c4c(F)c(F)c(F)c(F)c4F)c4nc(c(-c5c(F)c(F)c(F)c(F)c5F)c5ccc2[nH]5)C=C4)C=C3)cc1)C1=Cc2cc(S(F)(F)(F)(F)F)ccc2O[C@@H]1C(F)(F)F
REMARK SMILES IDX 10 1 9 2 8 3 7 4 6 5 5 6 4 7 3 8 2 9 1 10 81 11 82 12 96 13
REMARK SMILES IDX 83 14 95 15 84 16 94 17 85 18 93 19 92 20 97 21 98 22 99 23
REMARK SMILES IDX 100 24 86 25 87 26 88 27 89 28 90 29 91 30 11 31 12 32 13 33
REMARK SMILES IDX 14 34 15 35 16 36 17 37 18 38 19 39 80 40 20 41 79 42 21 43
REMARK SMILES IDX 22 44 23 45 73 46 24 47 78 48 72 49 74 50 25 51 77 52 71 53
REMARK SMILES IDX 70 54 26 56 58 57 38 58 57 59 39 60 42 61 56 62 75 63 40 64
REMARK SMILES IDX 41 65 55 67 76 68 43 69 27 70 28 71 36 72 29 73 30 74 34 75
REMARK SMILES IDX 37 76 31 77 32 78 35 79 33 80 59 81 60 82 68 83 61 84 62 85
REMARK SMILES IDX 66 86 69 87 63 88 64 89 67 90 65 91 44 92 45 93 53 94 46 95
REMARK SMILES IDX 47 96 51 97 54 98 48 99 49 100 52 101 50 102
REMARK H PARENT 74 55 42 66
REMARK Flexibility Score: inf
ROOT
ATOM      1  C   UNL A   1      32.723  29.195  25.896  1.00  0.00     0.188 C 
ENDROOT
BRANCH   1   2
ATOM      2  O   UNL A   1      32.982  29.315  24.505  1.00  0.00    -0.377 OA
BRANCH   2   3
ATOM      3  C   UNL A   1      32.378  28.230  23.816  1.00  0.00     0.188 C 
BRANCH   3   4
ATOM      4  C   UNL A   1      30.938  28.582  23.480  1.00  0.00     0.188 C 
BRANCH   4   5
ATOM      5  O   UNL A   1      30.094  27.486  23.804  1.00  0.00    -0.376 OA
BRANCH   5   6
ATOM      6  C   UNL A   1      30.790  26.270  23.576  1.00  0.00     0.202 C 
BRANCH   6   7
ATOM      7  C   UNL A   1      30.355  25.237  24.602  1.00  0.00     0.261 C 
BRANCH   7   8
ATOM      8  O   UNL A   1      30.797  23.950  24.196  1.00  0.00    -0.460 OA
BRANCH   8   9
ATOM      9  C   UNL A   1      31.365  23.061  25.146  1.00  0.00     0.338 C 
ATOM     10  O   UNL A   1      30.652  22.146  25.665  1.00  0.00    -0.246 OA
BRANCH   9  11
ATOM     11  C   UNL A   1      32.826  23.204  25.542  1.00  0.00     0.087 C 
ATOM     12  C   UNL A   1      33.704  22.198  25.276  1.00  0.00     0.027 C 
ATOM     13  C   UNL A   1      33.305  24.468  26.235  1.00  0.00     0.316 C 
ATOM     14  C   UNL A   1      33.224  20.933  24.583  1.00  0.00     0.019 A 
ATOM     15  O   UNL A   1      31.899  22.297  23.156  1.00  0.00    -0.475 OA
ATOM     16  C   UNL A   1      33.630  19.701  25.066  1.00  0.00     0.036 A 
ATOM     17  C   UNL A   1      32.424  21.031  23.527  1.00  0.00     0.128 A 
ATOM     18  C   UNL A   1      33.369  18.625  24.184  1.00  0.00     0.107 A 
ATOM     19  C   UNL A   1      32.102  19.917  22.790  1.00  0.00     0.048 A 
ATOM     20  C   UNL A   1      32.518  18.673  23.176  1.00  0.00     0.028 A 
BRANCH  13  21
ATOM     21  C   UNL A   1      34.380  25.133  25.390  1.00  0.00     0.430 C 
ATOM     22  F   UNL A   1      34.465  26.420  25.714  1.00  0.00    -0.167 F 
ATOM     23  F   UNL A   1      35.549  24.541  25.616  1.00  0.00    -0.167 F 
ATOM     24  F   UNL A   1      34.066  25.018  24.103  1.00  0.00    -0.167 F 
ENDBRANCH  13  21
BRANCH  18  25
ATOM     25  S   UNL A   1      34.266  17.077  24.456  1.00  0.00     0.310 S 
ATOM     26  F   UNL A   1      34.346  16.779  22.900  1.00  0.00    -0.094 F 
ATOM     27  F   UNL A   1      32.888  16.312  24.462  1.00  0.00    -0.094 F 
ATOM     28  F   UNL A   1      35.036  15.746  24.687  1.00  0.00    -0.094 F 
ATOM     29  F   UNL A   1      35.641  17.838  24.307  1.00  0.00    -0.094 F 
ATOM     30  F   UNL A   1      33.503  18.417  24.108  1.00  0.00    -0.094 F 
ENDBRANCH  18  25
ENDBRANCH   9  11
ENDBRANCH   8   9
ENDBRANCH   7   8
ENDBRANCH   6   7
ENDBRANCH   5   6
ENDBRANCH   4   5
ENDBRANCH   3   4
ENDBRANCH   2   3
ENDBRANCH   1   2
BRANCH   1  31
ATOM     31  C   UNL A   1      33.172  30.462  26.607  1.00  0.00     0.188 C 
BRANCH  31  32
ATOM     32  O   UNL A   1      32.082  31.007  27.335  1.00  0.00    -0.376 OA
BRANCH  32  33
ATOM     33  C   UNL A   1      31.360  31.905  26.505  1.00  0.00     0.202 C 
BRANCH  33  34
ATOM     34  C   UNL A   1      32.008  33.280  26.562  1.00  0.00     0.261 C 
BRANCH  34  35
ATOM     35  O   UNL A   1      32.111  33.698  27.914  1.00  0.00    -0.460 OA
BRANCH  35  36
ATOM     36  C   UNL A   1      33.230  34.462  28.338  1.00  0.00     0.338 C 
ATOM     37  O   UNL A   1      33.255  35.717  28.140  1.00  0.00    -0.246 OA
BRANCH  36  38
ATOM     38  C   UNL A   1      34.400  33.779  29.028  1.00  0.00     0.060 A 
ATOM     39  C   UNL A   1      35.674  34.295  28.864  1.00  0.00     0.016 A 
ATOM     40  C   UNL A   1      34.184  32.702  29.775  1.00  0.00     0.016 A 
ATOM     41  C   UNL A   1      36.705  33.428  29.298  1.00  0.00     0.010 A 
ATOM     42  C   UNL A   1      35.237  31.979  30.282  1.00  0.00     0.010 A 
ATOM     43  C   UNL A   1      36.527  32.400  30.107  1.00  0.00    -0.014 A 
BRANCH  43  44
ATOM     44  C   UNL A   1      37.692  31.719  30.806  1.00  0.00     0.031 A 
ATOM     45  C   UNL A   1      37.997  32.076  32.121  1.00  0.00     0.074 A 
ATOM     46  C   UNL A   1      38.397  30.776  30.077  1.00  0.00     0.049 A 
ATOM     47  N   UNL A   1      38.958  31.575  32.898  1.00  0.00    -0.248 NA
ATOM     48  C   UNL A   1      37.272  33.102  32.885  1.00  0.00     0.031 C 
ATOM     49  C   UNL A   1      38.090  30.404  28.753  1.00  0.00     0.029 A 
ATOM     50  N   UNL A   1      39.491  30.043  30.478  1.00  0.00    -0.354 N 
ATOM     51  C   UNL A   1      38.928  32.154  34.100  1.00  0.00     0.074 A 
ATOM     52  C   UNL A   1      37.847  33.148  34.107  1.00  0.00     0.031 C 
ATOM     53  C   UNL A   1      38.993  29.469  28.358  1.00  0.00     0.029 A 
ATOM     54  C   UNL A   1      39.879  29.241  29.427  1.00  0.00     0.049 A 
ATOM     55  H   UNL A   1      39.922  30.085  31.362  1.00  0.00     0.167 HD
ATOM     56  C   UNL A   1      39.758  31.889  35.190  1.00  0.00     0.037 A 
ATOM     57  C   UNL A   1      40.944  28.354  29.385  1.00  0.00     0.037 A 
ATOM     58  C   UNL A   1      40.796  30.972  35.162  1.00  0.00     0.049 A 
ATOM     59  C   UNL A   1      41.811  28.133  30.458  1.00  0.00     0.074 A 
ATOM     60  C   UNL A   1      41.637  30.688  36.255  1.00  0.00     0.029 A 
ATOM     61  N   UNL A   1      41.199  30.188  34.104  1.00  0.00    -0.354 N 
ATOM     62  N   UNL A   1      41.757  28.683  31.671  1.00  0.00    -0.248 NA
ATOM     63  C   UNL A   1      42.962  27.220  30.413  1.00  0.00     0.031 C 
ATOM     64  C   UNL A   1      42.541  29.752  35.859  1.00  0.00     0.029 A 
ATOM     65  C   UNL A   1      42.280  29.437  34.512  1.00  0.00     0.049 A 
ATOM     66  H   UNL A   1      40.786  30.166  33.211  1.00  0.00     0.167 HD
ATOM     67  C   UNL A   1      42.744  28.211  32.435  1.00  0.00     0.074 A 
ATOM     68  C   UNL A   1      43.538  27.269  31.634  1.00  0.00     0.031 C 
ATOM     69  C   UNL A   1      43.012  28.525  33.769  1.00  0.00     0.037 A 
BRANCH  56  70
ATOM     70  C   UNL A   1      39.510  32.652  36.482  1.00  0.00     0.064 A 
ATOM     71  C   UNL A   1      38.518  32.229  37.351  1.00  0.00     0.173 A 
ATOM     72  C   UNL A   1      40.290  33.685  36.778  1.00  0.00     0.173 A 
ATOM     73  F   UNL A   1      37.889  31.064  37.222  1.00  0.00    -0.203 F 
ATOM     74  C   UNL A   1      38.234  33.149  38.388  1.00  0.00     0.198 A 
ATOM     75  C   UNL A   1      40.035  34.460  37.883  1.00  0.00     0.198 A 
ATOM     76  F   UNL A   1      41.327  33.972  35.997  1.00  0.00    -0.203 F 
ATOM     77  F   UNL A   1      37.083  33.010  39.040  1.00  0.00    -0.200 F 
ATOM     78  C   UNL A   1      39.033  34.136  38.754  1.00  0.00     0.200 A 
ATOM     79  F   UNL A   1      40.775  35.542  38.110  1.00  0.00    -0.200 F 
ATOM     80  F   UNL A   1      38.870  34.778  39.906  1.00  0.00    -0.200 F 
ENDBRANCH  56  70
BRANCH  57  81
ATOM     81  C   UNL A   1      41.182  27.580  28.099  1.00  0.00     0.064 A 
ATOM     82  C   UNL A   1      40.640  26.313  27.954  1.00  0.00     0.173 A 
ATOM     83  C   UNL A   1      41.951  28.112  27.157  1.00  0.00     0.173 A 
ATOM     84  F   UNL A   1      39.673  25.844  28.739  1.00  0.00    -0.203 F 
ATOM     85  C   UNL A   1      41.206  25.565  26.896  1.00  0.00     0.198 A 
ATOM     86  C   UNL A   1      42.356  27.362  26.079  1.00  0.00     0.198 A 
ATOM     87  F   UNL A   1      42.331  29.382  27.256  1.00  0.00    -0.203 F 
ATOM     88  F   UNL A   1      41.021  24.247  26.901  1.00  0.00    -0.200 F 
ATOM     89  C   UNL A   1      41.907  26.083  25.903  1.00  0.00     0.200 A 
ATOM     90  F   UNL A   1      43.199  27.887  25.195  1.00  0.00    -0.200 F 
ATOM     91  F   UNL A   1      42.161  25.397  24.793  1.00  0.00    -0.200 F 
ENDBRANCH  57  81
BRANCH  69  92
ATOM     92  C   UNL A   1      44.179  27.825  34.446  1.00  0.00     0.064 A 
ATOM     93  C   UNL A   1      43.975  26.599  35.058  1.00  0.00     0.173 A 
ATOM     94  C   UNL A   1      45.376  28.399  34.439  1.00  0.00     0.173 A 
ATOM     95  F   UNL A   1      42.875  25.872  34.877  1.00  0.00    -0.203 F 
ATOM     96  C   UNL A   1      45.040  26.190  35.895  1.00  0.00     0.198 A 
ATOM     97  C   UNL A   1      46.410  27.870  35.171  1.00  0.00     0.198 A 
ATOM     98  F   UNL A   1      45.574  29.499  33.717  1.00  0.00    -0.203 F 
ATOM     99  F   UNL A   1      44.796  25.235  36.787  1.00  0.00    -0.200 F 
ATOM    100  C   UNL A   1      46.261  26.692  35.850  1.00  0.00     0.200 A 
ATOM    101  F   UNL A   1      47.574  28.512  35.222  1.00  0.00    -0.200 F 
ATOM    102  F   UNL A   1      47.290  26.084  36.434  1.00  0.00    -0.200 F 
ENDBRANCH  69  92
ENDBRANCH  43  44
ENDBRANCH  36  38
ENDBRANCH  35  36
ENDBRANCH  34  35
ENDBRANCH  33  34
ENDBRANCH  32  33
ENDBRANCH  31  32
ENDBRANCH   1  31
TORSDOF 22
ENDMDL
