MODEL 1
REMARK VINA RESULT:     -11.5      0.000      0.000
REMARK SMILES Cc1ccccc1OCC(=O)N[C@@H](Cc1c[nH]c2ccccc12)C(=O)OCCOCCOCCOCCOC(=O)c1ccc(-c2c3nc(c(-c4c(F)c(F)c(F)c(F)c4F)c4ccc([nH]4)c(-c4c(F)c(F)c(F)c(F)c4F)c4nc(c(-c5c(F)c(F)c(F)c(F)c5F)c5ccc2[nH]5)C=C4)C=C3)cc1
REMARK SMILES IDX 31 1 30 2 29 3 28 4 27 5 26 6 24 7 25 8 13 9 12 10 10 11
REMARK SMILES IDX 11 12 9 14 8 15 7 16 1 17 2 18 3 19 4 20 6 21 5 22 14 23
REMARK SMILES IDX 15 24 16 25 23 26 17 27 18 28 22 29 19 31 21 32 20 33 32 34
REMARK SMILES IDX 33 35 34 36 35 37 36 38 37 39 38 40 39 41 40 42 41 43 42 44
REMARK SMILES IDX 103 45 43 46 102 47 44 48 45 49 46 50 96 51 47 52 101 53
REMARK SMILES IDX 95 54 97 55 48 56 100 57 94 58 93 59 49 61 81 62 61 63 80 64
REMARK SMILES IDX 62 65 65 66 79 67 98 68 63 69 64 70 78 72 99 73 66 74 50 75
REMARK SMILES IDX 51 76 59 77 52 78 53 79 57 80 60 81 54 82 55 83 58 84 56 85
REMARK SMILES IDX 82 86 83 87 91 88 84 89 85 90 89 91 92 92 86 93 87 94 90 95
REMARK SMILES IDX 88 96 67 97 68 98 76 99 69 100 70 101 74 102 77 103 71 104
REMARK SMILES IDX 72 105 75 106 73 107
REMARK H PARENT 12 13 17 30 97 60 65 71
REMARK Flexibility Score: inf
ROOT
ATOM      1  C   UNL A   1      39.719  21.996  26.099  1.00  0.00     0.188 C 
ENDROOT
BRANCH   1   2
ATOM      2  C   UNL A   1      39.492  23.283  26.866  1.00  0.00     0.188 C 
BRANCH   2   3
ATOM      3  O   UNL A   1      38.557  24.180  26.281  1.00  0.00    -0.376 OA
BRANCH   3   4
ATOM      4  C   UNL A   1      37.251  23.606  26.212  1.00  0.00     0.202 C 
BRANCH   4   5
ATOM      5  C   UNL A   1      36.662  23.309  24.819  1.00  0.00     0.261 C 
BRANCH   5   6
ATOM      6  O   UNL A   1      35.622  24.197  24.378  1.00  0.00    -0.462 OA
BRANCH   6   7
ATOM      7  C   UNL A   1      34.617  23.660  23.654  1.00  0.00     0.329 C 
ATOM      8  O   UNL A   1      34.750  23.225  22.511  1.00  0.00    -0.250 OA
BRANCH   7   9
ATOM      9  C   UNL A   1      33.264  23.651  24.388  1.00  0.00     0.196 C 
BRANCH   9  10
ATOM     10  N   UNL A   1      33.264  23.459  25.838  1.00  0.00    -0.339 N 
ATOM     11  C   UNL A   1      32.618  22.489  26.549  1.00  0.00     0.258 C 
ATOM     12  O   UNL A   1      32.503  22.619  27.767  1.00  0.00    -0.271 OA
ATOM     13  H   UNL A   1      33.792  24.103  26.362  1.00  0.00     0.164 HD
BRANCH  11  14
ATOM     14  C   UNL A   1      32.120  21.214  25.813  1.00  0.00     0.329 C 
BRANCH  14  15
ATOM     15  O   UNL A   1      32.725  19.942  25.858  1.00  0.00    -0.484 OA
BRANCH  15  16
ATOM     16  C   UNL A   1      32.665  19.270  24.677  1.00  0.00     0.122 A 
ATOM     17  C   UNL A   1      33.314  16.983  25.653  1.00  0.00     0.048 C 
ATOM     18  C   UNL A   1      32.913  17.901  24.532  1.00  0.00    -0.009 A 
ATOM     19  C   UNL A   1      32.777  17.348  23.251  1.00  0.00     0.007 A 
ATOM     20  C   UNL A   1      32.443  18.145  22.153  1.00  0.00     0.001 A 
ATOM     21  C   UNL A   1      32.373  20.077  23.574  1.00  0.00     0.047 A 
ATOM     22  C   UNL A   1      32.249  19.513  22.312  1.00  0.00     0.004 A 
ENDBRANCH  15  16
ENDBRANCH  14  15
ENDBRANCH  11  14
ENDBRANCH   9  10
BRANCH   9  23
ATOM     23  C   UNL A   1      32.382  24.835  23.957  1.00  0.00     0.074 C 
BRANCH  23  24
ATOM     24  C   UNL A   1      31.839  25.732  25.039  1.00  0.00    -0.020 A 
ATOM     25  C   UNL A   1      30.614  25.609  25.653  1.00  0.00     0.087 A 
ATOM     26  C   UNL A   1      32.500  26.829  25.694  1.00  0.00     0.003 A 
ATOM     27  N   UNL A   1      30.522  26.518  26.667  1.00  0.00    -0.361 N 
ATOM     28  C   UNL A   1      31.667  27.271  26.726  1.00  0.00     0.046 A 
ATOM     29  C   UNL A   1      33.736  27.484  25.516  1.00  0.00     0.010 A 
ATOM     30  H   UNL A   1      29.749  26.619  27.267  1.00  0.00     0.166 HD
ATOM     31  C   UNL A   1      32.022  28.297  27.611  1.00  0.00     0.026 A 
ATOM     32  C   UNL A   1      34.096  28.529  26.376  1.00  0.00     0.001 A 
ATOM     33  C   UNL A   1      33.257  28.918  27.417  1.00  0.00     0.002 A 
ENDBRANCH  23  24
ENDBRANCH   9  23
ENDBRANCH   7   9
ENDBRANCH   6   7
ENDBRANCH   5   6
ENDBRANCH   4   5
ENDBRANCH   3   4
ENDBRANCH   2   3
ENDBRANCH   1   2
BRANCH   1  34
ATOM     34  O   UNL A   1      39.977  20.886  26.950  1.00  0.00    -0.377 OA
BRANCH  34  35
ATOM     35  C   UNL A   1      40.995  20.011  26.489  1.00  0.00     0.188 C 
BRANCH  35  36
ATOM     36  C   UNL A   1      41.911  19.598  27.630  1.00  0.00     0.188 C 
BRANCH  36  37
ATOM     37  O   UNL A   1      42.643  18.444  27.214  1.00  0.00    -0.376 OA
BRANCH  37  38
ATOM     38  C   UNL A   1      42.975  18.402  25.832  1.00  0.00     0.202 C 
BRANCH  38  39
ATOM     39  C   UNL A   1      44.486  18.422  25.614  1.00  0.00     0.261 C 
BRANCH  39  40
ATOM     40  O   UNL A   1      44.764  19.265  24.475  1.00  0.00    -0.460 OA
BRANCH  40  41
ATOM     41  C   UNL A   1      45.661  20.261  24.711  1.00  0.00     0.338 C 
ATOM     42  O   UNL A   1      46.843  20.085  24.940  1.00  0.00    -0.246 OA
BRANCH  41  43
ATOM     43  C   UNL A   1      44.970  21.581  24.838  1.00  0.00     0.060 A 
ATOM     44  C   UNL A   1      45.336  22.637  23.988  1.00  0.00     0.016 A 
ATOM     45  C   UNL A   1      44.162  21.844  25.944  1.00  0.00     0.016 A 
ATOM     46  C   UNL A   1      45.002  23.961  24.317  1.00  0.00     0.010 A 
ATOM     47  C   UNL A   1      43.934  23.158  26.321  1.00  0.00     0.010 A 
ATOM     48  C   UNL A   1      44.367  24.234  25.531  1.00  0.00    -0.014 A 
BRANCH  48  49
ATOM     49  C   UNL A   1      44.332  25.558  26.183  1.00  0.00     0.031 A 
ATOM     50  C   UNL A   1      43.051  26.329  26.341  1.00  0.00     0.074 A 
ATOM     51  C   UNL A   1      45.390  25.881  26.963  1.00  0.00     0.049 A 
ATOM     52  N   UNL A   1      42.923  27.455  26.974  1.00  0.00    -0.248 NA
ATOM     53  C   UNL A   1      41.791  25.915  25.724  1.00  0.00     0.031 C 
ATOM     54  C   UNL A   1      45.305  26.564  28.242  1.00  0.00     0.029 A 
ATOM     55  N   UNL A   1      46.738  25.547  26.885  1.00  0.00    -0.354 N 
ATOM     56  C   UNL A   1      41.577  27.748  27.101  1.00  0.00     0.074 A 
ATOM     57  C   UNL A   1      40.932  26.821  26.206  1.00  0.00     0.031 C 
ATOM     58  C   UNL A   1      46.505  26.679  28.813  1.00  0.00     0.029 A 
ATOM     59  C   UNL A   1      47.463  26.328  27.806  1.00  0.00     0.049 A 
ATOM     60  H   UNL A   1      47.124  24.871  26.281  1.00  0.00     0.167 HD
ATOM     61  C   UNL A   1      41.159  28.657  28.037  1.00  0.00     0.037 A 
ATOM     62  C   UNL A   1      48.408  27.212  27.374  1.00  0.00     0.037 A 
ATOM     63  C   UNL A   1      42.282  29.437  28.603  1.00  0.00     0.049 A 
ATOM     64  C   UNL A   1      47.962  28.666  27.477  1.00  0.00     0.074 A 
ATOM     65  C   UNL A   1      42.647  29.826  29.881  1.00  0.00     0.029 A 
ATOM     66  N   UNL A   1      43.336  29.854  27.775  1.00  0.00    -0.354 N 
ATOM     67  N   UNL A   1      46.726  29.050  27.713  1.00  0.00    -0.248 NA
ATOM     68  C   UNL A   1      48.870  29.806  27.379  1.00  0.00     0.031 C 
ATOM     69  C   UNL A   1      43.920  30.444  29.813  1.00  0.00     0.029 A 
ATOM     70  C   UNL A   1      44.354  30.434  28.499  1.00  0.00     0.049 A 
ATOM     71  H   UNL A   1      43.345  29.745  26.796  1.00  0.00     0.167 HD
ATOM     72  C   UNL A   1      46.646  30.417  27.721  1.00  0.00     0.074 A 
ATOM     73  C   UNL A   1      48.026  30.839  27.550  1.00  0.00     0.031 C 
ATOM     74  C   UNL A   1      45.468  31.108  27.841  1.00  0.00     0.037 A 
BRANCH  61  75
ATOM     75  C   UNL A   1      39.729  28.749  28.620  1.00  0.00     0.064 A 
ATOM     76  C   UNL A   1      38.683  29.380  27.897  1.00  0.00     0.173 A 
ATOM     77  C   UNL A   1      39.350  28.370  29.929  1.00  0.00     0.173 A 
ATOM     78  F   UNL A   1      38.843  29.749  26.620  1.00  0.00    -0.203 F 
ATOM     79  C   UNL A   1      37.424  29.667  28.451  1.00  0.00     0.198 A 
ATOM     80  C   UNL A   1      38.063  28.582  30.453  1.00  0.00     0.198 A 
ATOM     81  F   UNL A   1      40.214  27.834  30.793  1.00  0.00    -0.203 F 
ATOM     82  F   UNL A   1      36.522  30.359  27.738  1.00  0.00    -0.200 F 
ATOM     83  C   UNL A   1      37.109  29.257  29.728  1.00  0.00     0.200 A 
ATOM     84  F   UNL A   1      37.774  28.152  31.690  1.00  0.00    -0.200 F 
ATOM     85  F   UNL A   1      35.905  29.518  30.256  1.00  0.00    -0.200 F 
ENDBRANCH  61  75
BRANCH  62  86
ATOM     86  C   UNL A   1      49.365  26.516  26.453  1.00  0.00     0.064 A 
ATOM     87  C   UNL A   1      49.313  27.033  25.134  1.00  0.00     0.173 A 
ATOM     88  C   UNL A   1      50.628  26.139  26.939  1.00  0.00     0.173 A 
ATOM     89  F   UNL A   1      48.126  27.359  24.600  1.00  0.00    -0.203 F 
ATOM     90  C   UNL A   1      50.470  27.474  24.493  1.00  0.00     0.198 A 
ATOM     91  C   UNL A   1      51.790  26.547  26.269  1.00  0.00     0.198 A 
ATOM     92  F   UNL A   1      50.746  25.595  28.159  1.00  0.00    -0.203 F 
ATOM     93  F   UNL A   1      50.376  28.222  23.384  1.00  0.00    -0.200 F 
ATOM     94  C   UNL A   1      51.703  27.280  25.090  1.00  0.00     0.200 A 
ATOM     95  F   UNL A   1      52.989  26.375  26.843  1.00  0.00    -0.200 F 
ATOM     96  F   UNL A   1      52.794  27.873  24.583  1.00  0.00    -0.200 F 
ENDBRANCH  62  86
BRANCH  74  97
ATOM     97  C   UNL A   1      45.246  32.552  27.414  1.00  0.00     0.064 A 
ATOM     98  C   UNL A   1      44.384  32.933  26.372  1.00  0.00     0.173 A 
ATOM     99  C   UNL A   1      45.759  33.632  28.184  1.00  0.00     0.173 A 
ATOM    100  F   UNL A   1      43.706  32.029  25.655  1.00  0.00    -0.203 F 
ATOM    101  C   UNL A   1      44.127  34.273  26.070  1.00  0.00     0.198 A 
ATOM    102  C   UNL A   1      45.454  34.965  27.915  1.00  0.00     0.198 A 
ATOM    103  F   UNL A   1      46.542  33.441  29.253  1.00  0.00    -0.203 F 
ATOM    104  F   UNL A   1      43.330  34.572  25.035  1.00  0.00    -0.200 F 
ATOM    105  C   UNL A   1      44.653  35.287  26.845  1.00  0.00     0.200 A 
ATOM    106  F   UNL A   1      45.923  35.930  28.720  1.00  0.00    -0.200 F 
ATOM    107  F   UNL A   1      44.363  36.567  26.579  1.00  0.00    -0.200 F 
ENDBRANCH  74  97
ENDBRANCH  48  49
ENDBRANCH  41  43
ENDBRANCH  40  41
ENDBRANCH  39  40
ENDBRANCH  38  39
ENDBRANCH  37  38
ENDBRANCH  36  37
ENDBRANCH  35  36
ENDBRANCH  34  35
ENDBRANCH   1  34
TORSDOF 26
ENDMDL
MODEL 2
REMARK VINA RESULT:     -11.1      1.294      4.195
REMARK SMILES Cc1ccccc1OCC(=O)N[C@@H](Cc1c[nH]c2ccccc12)C(=O)OCCOCCOCCOCCOC(=O)c1ccc(-c2c3nc(c(-c4c(F)c(F)c(F)c(F)c4F)c4ccc([nH]4)c(-c4c(F)c(F)c(F)c(F)c4F)c4nc(c(-c5c(F)c(F)c(F)c(F)c5F)c5ccc2[nH]5)C=C4)C=C3)cc1
REMARK SMILES IDX 31 1 30 2 29 3 28 4 27 5 26 6 24 7 25 8 13 9 12 10 10 11
REMARK SMILES IDX 11 12 9 14 8 15 7 16 1 17 2 18 3 19 4 20 6 21 5 22 14 23
REMARK SMILES IDX 15 24 16 25 23 26 17 27 18 28 22 29 19 31 21 32 20 33 32 34
REMARK SMILES IDX 33 35 34 36 35 37 36 38 37 39 38 40 39 41 40 42 41 43 42 44
REMARK SMILES IDX 103 45 43 46 102 47 44 48 45 49 46 50 96 51 47 52 101 53
REMARK SMILES IDX 95 54 97 55 48 56 100 57 94 58 93 59 49 61 81 62 61 63 80 64
REMARK SMILES IDX 62 65 65 66 79 67 98 68 63 69 64 70 78 72 99 73 66 74 50 75
REMARK SMILES IDX 51 76 59 77 52 78 53 79 57 80 60 81 54 82 55 83 58 84 56 85
REMARK SMILES IDX 82 86 83 87 91 88 84 89 85 90 89 91 92 92 86 93 87 94 90 95
REMARK SMILES IDX 88 96 67 97 68 98 76 99 69 100 70 101 74 102 77 103 71 104
REMARK SMILES IDX 72 105 75 106 73 107
REMARK H PARENT 12 13 17 30 97 60 65 71
REMARK Flexibility Score: inf
ROOT
ATOM      1  C   UNL A   1      39.858  22.044  26.292  1.00  0.00     0.188 C 
ENDROOT
BRANCH   1   2
ATOM      2  C   UNL A   1      39.929  23.484  26.760  1.00  0.00     0.188 C 
BRANCH   2   3
ATOM      3  O   UNL A   1      39.002  24.368  26.144  1.00  0.00    -0.376 OA
BRANCH   3   4
ATOM      4  C   UNL A   1      37.661  24.088  26.548  1.00  0.00     0.202 C 
BRANCH   4   5
ATOM      5  C   UNL A   1      36.653  23.652  25.467  1.00  0.00     0.261 C 
BRANCH   5   6
ATOM      6  O   UNL A   1      35.385  24.328  25.485  1.00  0.00    -0.462 OA
BRANCH   6   7
ATOM      7  C   UNL A   1      34.320  23.630  25.932  1.00  0.00     0.329 C 
ATOM      8  O   UNL A   1      34.118  23.367  27.116  1.00  0.00    -0.250 OA
BRANCH   7   9
ATOM      9  C   UNL A   1      33.369  23.169  24.812  1.00  0.00     0.196 C 
BRANCH   9  10
ATOM     10  N   UNL A   1      33.780  23.384  23.424  1.00  0.00    -0.339 N 
ATOM     11  C   UNL A   1      33.270  24.287  22.536  1.00  0.00     0.258 C 
ATOM     12  O   UNL A   1      33.539  24.164  21.341  1.00  0.00    -0.271 OA
ATOM     13  H   UNL A   1      34.508  22.811  23.093  1.00  0.00     0.164 HD
BRANCH  11  14
ATOM     14  C   UNL A   1      32.437  25.486  23.067  1.00  0.00     0.329 C 
BRANCH  14  15
ATOM     15  O   UNL A   1      32.926  26.779  23.339  1.00  0.00    -0.484 OA
BRANCH  15  16
ATOM     16  C   UNL A   1      31.948  27.717  23.450  1.00  0.00     0.122 A 
ATOM     17  C   UNL A   1      32.973  28.915  25.480  1.00  0.00     0.048 C 
ATOM     18  C   UNL A   1      31.931  28.734  24.411  1.00  0.00    -0.009 A 
ATOM     19  C   UNL A   1      30.868  29.647  24.373  1.00  0.00     0.007 A 
ATOM     20  C   UNL A   1      29.843  29.521  23.433  1.00  0.00     0.001 A 
ATOM     21  C   UNL A   1      30.902  27.564  22.536  1.00  0.00     0.047 A 
ATOM     22  C   UNL A   1      29.854  28.474  22.517  1.00  0.00     0.004 A 
ENDBRANCH  15  16
ENDBRANCH  14  15
ENDBRANCH  11  14
ENDBRANCH   9  10
BRANCH   9  23
ATOM     23  C   UNL A   1      32.864  21.737  25.056  1.00  0.00     0.074 C 
BRANCH  23  24
ATOM     24  C   UNL A   1      33.846  20.609  24.871  1.00  0.00    -0.020 A 
ATOM     25  C   UNL A   1      35.167  20.616  25.255  1.00  0.00     0.087 A 
ATOM     26  C   UNL A   1      33.597  19.296  24.340  1.00  0.00     0.003 A 
ATOM     27  N   UNL A   1      35.707  19.380  25.043  1.00  0.00    -0.361 N 
ATOM     28  C   UNL A   1      34.766  18.546  24.496  1.00  0.00     0.046 A 
ATOM     29  C   UNL A   1      32.481  18.666  23.749  1.00  0.00     0.010 A 
ATOM     30  H   UNL A   1      36.634  19.125  25.252  1.00  0.00     0.166 HD
ATOM     31  C   UNL A   1      34.864  17.196  24.137  1.00  0.00     0.026 A 
ATOM     32  C   UNL A   1      32.570  17.323  23.360  1.00  0.00     0.001 A 
ATOM     33  C   UNL A   1      33.740  16.597  23.565  1.00  0.00     0.002 A 
ENDBRANCH  23  24
ENDBRANCH   9  23
ENDBRANCH   7   9
ENDBRANCH   6   7
ENDBRANCH   5   6
ENDBRANCH   4   5
ENDBRANCH   3   4
ENDBRANCH   2   3
ENDBRANCH   1   2
BRANCH   1  34
ATOM     34  O   UNL A   1      40.233  21.117  27.303  1.00  0.00    -0.377 OA
BRANCH  34  35
ATOM     35  C   UNL A   1      40.891  19.954  26.824  1.00  0.00     0.188 C 
BRANCH  35  36
ATOM     36  C   UNL A   1      42.197  19.726  27.568  1.00  0.00     0.188 C 
BRANCH  36  37
ATOM     37  O   UNL A   1      42.672  18.420  27.239  1.00  0.00    -0.376 OA
BRANCH  37  38
ATOM     38  C   UNL A   1      42.997  18.220  25.868  1.00  0.00     0.202 C 
BRANCH  38  39
ATOM     39  C   UNL A   1      44.484  18.437  25.604  1.00  0.00     0.261 C 
BRANCH  39  40
ATOM     40  O   UNL A   1      44.616  19.475  24.609  1.00  0.00    -0.460 OA
BRANCH  40  41
ATOM     41  C   UNL A   1      45.655  20.330  24.815  1.00  0.00     0.338 C 
ATOM     42  O   UNL A   1      46.773  19.989  25.154  1.00  0.00    -0.246 OA
BRANCH  41  43
ATOM     43  C   UNL A   1      45.195  21.752  24.754  1.00  0.00     0.060 A 
ATOM     44  C   UNL A   1      46.044  22.730  24.211  1.00  0.00     0.016 A 
ATOM     45  C   UNL A   1      44.056  22.149  25.453  1.00  0.00     0.016 A 
ATOM     46  C   UNL A   1      45.820  24.090  24.478  1.00  0.00     0.010 A 
ATOM     47  C   UNL A   1      43.906  23.481  25.807  1.00  0.00     0.010 A 
ATOM     48  C   UNL A   1      44.794  24.466  25.348  1.00  0.00    -0.014 A 
BRANCH  48  49
ATOM     49  C   UNL A   1      44.705  25.771  26.031  1.00  0.00     0.031 A 
ATOM     50  C   UNL A   1      43.399  26.503  26.175  1.00  0.00     0.074 A 
ATOM     51  C   UNL A   1      45.734  26.104  26.846  1.00  0.00     0.049 A 
ATOM     52  N   UNL A   1      43.223  27.608  26.833  1.00  0.00    -0.248 NA
ATOM     53  C   UNL A   1      42.167  26.069  25.517  1.00  0.00     0.031 C 
ATOM     54  C   UNL A   1      45.597  26.752  28.138  1.00  0.00     0.029 A 
ATOM     55  N   UNL A   1      47.092  25.809  26.793  1.00  0.00    -0.354 N 
ATOM     56  C   UNL A   1      41.867  27.860  26.933  1.00  0.00     0.074 A 
ATOM     57  C   UNL A   1      41.270  26.939  25.999  1.00  0.00     0.031 C 
ATOM     58  C   UNL A   1      46.780  26.886  28.741  1.00  0.00     0.029 A 
ATOM     59  C   UNL A   1      47.772  26.587  27.751  1.00  0.00     0.049 A 
ATOM     60  H   UNL A   1      47.512  25.161  26.182  1.00  0.00     0.167 HD
ATOM     61  C   UNL A   1      41.401  28.733  27.880  1.00  0.00     0.037 A 
ATOM     62  C   UNL A   1      48.701  27.507  27.365  1.00  0.00     0.037 A 
ATOM     63  C   UNL A   1      42.487  29.529  28.493  1.00  0.00     0.049 A 
ATOM     64  C   UNL A   1      48.212  28.946  27.492  1.00  0.00     0.074 A 
ATOM     65  C   UNL A   1      42.809  29.896  29.789  1.00  0.00     0.029 A 
ATOM     66  N   UNL A   1      43.548  29.996  27.703  1.00  0.00    -0.354 N 
ATOM     67  N   UNL A   1      46.960  29.290  27.706  1.00  0.00    -0.248 NA
ATOM     68  C   UNL A   1      49.089  30.112  27.445  1.00  0.00     0.031 C 
ATOM     69  C   UNL A   1      44.065  30.551  29.769  1.00  0.00     0.029 A 
ATOM     70  C   UNL A   1      44.531  30.586  28.466  1.00  0.00     0.049 A 
ATOM     71  H   UNL A   1      43.585  29.913  26.722  1.00  0.00     0.167 HD
ATOM     72  C   UNL A   1      46.841  30.653  27.746  1.00  0.00     0.074 A 
ATOM     73  C   UNL A   1      48.212  31.118  27.620  1.00  0.00     0.031 C 
ATOM     74  C   UNL A   1      45.641  31.308  27.853  1.00  0.00     0.037 A 
BRANCH  61  75
ATOM     75  C   UNL A   1      39.954  28.771  28.428  1.00  0.00     0.064 A 
ATOM     76  C   UNL A   1      38.897  29.333  27.668  1.00  0.00     0.173 A 
ATOM     77  C   UNL A   1      39.563  28.406  29.738  1.00  0.00     0.173 A 
ATOM     78  F   UNL A   1      39.068  29.679  26.385  1.00  0.00    -0.203 F 
ATOM     79  C   UNL A   1      37.613  29.573  28.186  1.00  0.00     0.198 A 
ATOM     80  C   UNL A   1      38.256  28.569  30.228  1.00  0.00     0.198 A 
ATOM     81  F   UNL A   1      40.432  27.932  30.634  1.00  0.00    -0.203 F 
ATOM     82  F   UNL A   1      36.696  30.203  27.436  1.00  0.00    -0.200 F 
ATOM     83  C   UNL A   1      37.288  29.179  29.465  1.00  0.00     0.200 A 
ATOM     84  F   UNL A   1      37.959  28.155  31.469  1.00  0.00    -0.200 F 
ATOM     85  F   UNL A   1      36.061  29.395  29.960  1.00  0.00    -0.200 F 
ENDBRANCH  61  75
BRANCH  62  86
ATOM     86  C   UNL A   1      49.700  26.862  26.451  1.00  0.00     0.064 A 
ATOM     87  C   UNL A   1      49.682  27.427  25.152  1.00  0.00     0.173 A 
ATOM     88  C   UNL A   1      50.954  26.489  26.965  1.00  0.00     0.173 A 
ATOM     89  F   UNL A   1      48.507  27.752  24.590  1.00  0.00    -0.203 F 
ATOM     90  C   UNL A   1      50.851  27.910  24.565  1.00  0.00     0.198 A 
ATOM     91  C   UNL A   1      52.129  26.941  26.349  1.00  0.00     0.198 A 
ATOM     92  F   UNL A   1      51.041  25.902  28.168  1.00  0.00    -0.203 F 
ATOM     93  F   UNL A   1      50.780  28.697  23.481  1.00  0.00    -0.200 F 
ATOM     94  C   UNL A   1      52.068  27.715  25.196  1.00  0.00     0.200 A 
ATOM     95  F   UNL A   1      53.311  26.768  26.957  1.00  0.00    -0.200 F 
ATOM     96  F   UNL A   1      53.163  28.344  24.747  1.00  0.00    -0.200 F 
ENDBRANCH  62  86
BRANCH  74  97
ATOM     97  C   UNL A   1      45.388  32.755  27.457  1.00  0.00     0.064 A 
ATOM     98  C   UNL A   1      44.573  33.137  26.378  1.00  0.00     0.173 A 
ATOM     99  C   UNL A   1      45.815  33.829  28.285  1.00  0.00     0.173 A 
ATOM    100  F   UNL A   1      43.971  32.231  25.597  1.00  0.00    -0.203 F 
ATOM    101  C   UNL A   1      44.282  34.475  26.101  1.00  0.00     0.198 A 
ATOM    102  C   UNL A   1      45.475  35.157  28.038  1.00  0.00     0.198 A 
ATOM    103  F   UNL A   1      46.544  33.633  29.392  1.00  0.00    -0.203 F 
ATOM    104  F   UNL A   1      43.534  34.777  25.030  1.00  0.00    -0.200 F 
ATOM    105  C   UNL A   1      44.725  35.483  26.934  1.00  0.00     0.200 A 
ATOM    106  F   UNL A   1      45.862  36.113  28.897  1.00  0.00    -0.200 F 
ATOM    107  F   UNL A   1      44.401  36.759  26.689  1.00  0.00    -0.200 F 
ENDBRANCH  74  97
ENDBRANCH  48  49
ENDBRANCH  41  43
ENDBRANCH  40  41
ENDBRANCH  39  40
ENDBRANCH  38  39
ENDBRANCH  37  38
ENDBRANCH  36  37
ENDBRANCH  35  36
ENDBRANCH  34  35
ENDBRANCH   1  34
TORSDOF 26
ENDMDL
MODEL 3
REMARK VINA RESULT:     -10.7      4.834     11.023
REMARK SMILES Cc1ccccc1OCC(=O)N[C@@H](Cc1c[nH]c2ccccc12)C(=O)OCCOCCOCCOCCOC(=O)c1ccc(-c2c3nc(c(-c4c(F)c(F)c(F)c(F)c4F)c4ccc([nH]4)c(-c4c(F)c(F)c(F)c(F)c4F)c4nc(c(-c5c(F)c(F)c(F)c(F)c5F)c5ccc2[nH]5)C=C4)C=C3)cc1
REMARK SMILES IDX 31 1 30 2 29 3 28 4 27 5 26 6 24 7 25 8 13 9 12 10 10 11
REMARK SMILES IDX 11 12 9 14 8 15 7 16 1 17 2 18 3 19 4 20 6 21 5 22 14 23
REMARK SMILES IDX 15 24 16 25 23 26 17 27 18 28 22 29 19 31 21 32 20 33 32 34
REMARK SMILES IDX 33 35 34 36 35 37 36 38 37 39 38 40 39 41 40 42 41 43 42 44
REMARK SMILES IDX 103 45 43 46 102 47 44 48 45 49 46 50 96 51 47 52 101 53
REMARK SMILES IDX 95 54 97 55 48 56 100 57 94 58 93 59 49 61 81 62 61 63 80 64
REMARK SMILES IDX 62 65 65 66 79 67 98 68 63 69 64 70 78 72 99 73 66 74 50 75
REMARK SMILES IDX 51 76 59 77 52 78 53 79 57 80 60 81 54 82 55 83 58 84 56 85
REMARK SMILES IDX 82 86 83 87 91 88 84 89 85 90 89 91 92 92 86 93 87 94 90 95
REMARK SMILES IDX 88 96 67 97 68 98 76 99 69 100 70 101 74 102 77 103 71 104
REMARK SMILES IDX 72 105 75 106 73 107
REMARK H PARENT 12 13 17 30 97 60 65 71
REMARK Flexibility Score: inf
ROOT
ATOM      1  C   UNL A   1      31.134  26.661  24.766  1.00  0.00     0.188 C 
ENDROOT
BRANCH   1   2
ATOM      2  C   UNL A   1      30.154  26.180  23.716  1.00  0.00     0.188 C 
BRANCH   2   3
ATOM      3  O   UNL A   1      30.742  25.661  22.530  1.00  0.00    -0.376 OA
BRANCH   3   4
ATOM      4  C   UNL A   1      31.589  24.544  22.809  1.00  0.00     0.202 C 
BRANCH   4   5
ATOM      5  C   UNL A   1      32.904  24.415  22.015  1.00  0.00     0.261 C 
BRANCH   5   6
ATOM      6  O   UNL A   1      33.500  23.108  22.001  1.00  0.00    -0.462 OA
BRANCH   6   7
ATOM      7  C   UNL A   1      34.607  22.926  22.751  1.00  0.00     0.329 C 
ATOM      8  O   UNL A   1      35.729  23.308  22.423  1.00  0.00    -0.250 OA
BRANCH   7   9
ATOM      9  C   UNL A   1      34.344  22.175  24.069  1.00  0.00     0.196 C 
BRANCH   9  10
ATOM     10  N   UNL A   1      34.288  22.950  25.308  1.00  0.00    -0.339 N 
ATOM     11  C   UNL A   1      35.112  22.848  26.392  1.00  0.00     0.258 C 
ATOM     12  O   UNL A   1      34.775  23.380  27.449  1.00  0.00    -0.271 OA
ATOM     13  H   UNL A   1      33.573  23.624  25.367  1.00  0.00     0.164 HD
BRANCH  11  14
ATOM     14  C   UNL A   1      36.485  22.137  26.236  1.00  0.00     0.329 C 
BRANCH  14  15
ATOM     15  O   UNL A   1      37.599  22.632  25.530  1.00  0.00    -0.484 OA
BRANCH  15  16
ATOM     16  C   UNL A   1      38.782  22.427  26.170  1.00  0.00     0.122 A 
ATOM     17  C   UNL A   1      38.964  24.801  27.138  1.00  0.00     0.048 C 
ATOM     18  C   UNL A   1      39.445  23.390  26.937  1.00  0.00    -0.009 A 
ATOM     19  C   UNL A   1      40.641  23.013  27.563  1.00  0.00     0.007 A 
ATOM     20  C   UNL A   1      41.171  21.731  27.393  1.00  0.00     0.001 A 
ATOM     21  C   UNL A   1      39.331  21.159  25.963  1.00  0.00     0.047 A 
ATOM     22  C   UNL A   1      40.520  20.804  26.585  1.00  0.00     0.004 A 
ENDBRANCH  15  16
ENDBRANCH  14  15
ENDBRANCH  11  14
ENDBRANCH   9  10
BRANCH   9  23
ATOM     23  C   UNL A   1      33.162  21.201  23.936  1.00  0.00     0.074 C 
BRANCH  23  24
ATOM     24  C   UNL A   1      33.148  19.992  24.835  1.00  0.00    -0.020 A 
ATOM     25  C   UNL A   1      32.848  19.986  26.178  1.00  0.00     0.087 A 
ATOM     26  C   UNL A   1      33.363  18.617  24.473  1.00  0.00     0.003 A 
ATOM     27  N   UNL A   1      32.813  18.698  26.628  1.00  0.00    -0.361 N 
ATOM     28  C   UNL A   1      33.111  17.835  25.604  1.00  0.00     0.046 A 
ATOM     29  C   UNL A   1      33.739  17.957  23.284  1.00  0.00     0.010 A 
ATOM     30  H   UNL A   1      32.604  18.428  27.551  1.00  0.00     0.166 HD
ATOM     31  C   UNL A   1      33.170  16.436  25.598  1.00  0.00     0.026 A 
ATOM     32  C   UNL A   1      33.828  16.559  23.267  1.00  0.00     0.001 A 
ATOM     33  C   UNL A   1      33.533  15.811  24.404  1.00  0.00     0.002 A 
ENDBRANCH  23  24
ENDBRANCH   9  23
ENDBRANCH   7   9
ENDBRANCH   6   7
ENDBRANCH   5   6
ENDBRANCH   4   5
ENDBRANCH   3   4
ENDBRANCH   2   3
ENDBRANCH   1   2
BRANCH   1  34
ATOM     34  O   UNL A   1      30.840  27.970  25.236  1.00  0.00    -0.377 OA
BRANCH  34  35
ATOM     35  C   UNL A   1      31.940  28.868  25.212  1.00  0.00     0.188 C 
BRANCH  35  36
ATOM     36  C   UNL A   1      33.153  28.256  25.893  1.00  0.00     0.188 C 
BRANCH  36  37
ATOM     37  O   UNL A   1      33.969  29.321  26.383  1.00  0.00    -0.376 OA
BRANCH  37  38
ATOM     38  C   UNL A   1      33.262  30.469  26.835  1.00  0.00     0.202 C 
BRANCH  38  39
ATOM     39  C   UNL A   1      34.162  31.406  27.637  1.00  0.00     0.261 C 
BRANCH  39  40
ATOM     40  O   UNL A   1      33.322  32.374  28.302  1.00  0.00    -0.460 OA
BRANCH  40  41
ATOM     41  C   UNL A   1      33.877  33.610  28.436  1.00  0.00     0.338 C 
ATOM     42  O   UNL A   1      33.513  34.600  27.828  1.00  0.00    -0.246 OA
BRANCH  41  43
ATOM     43  C   UNL A   1      35.108  33.552  29.283  1.00  0.00     0.060 A 
ATOM     44  C   UNL A   1      36.329  34.002  28.756  1.00  0.00     0.016 A 
ATOM     45  C   UNL A   1      35.103  32.830  30.475  1.00  0.00     0.016 A 
ATOM     46  C   UNL A   1      37.542  33.621  29.353  1.00  0.00     0.010 A 
ATOM     47  C   UNL A   1      36.303  32.364  30.992  1.00  0.00     0.010 A 
ATOM     48  C   UNL A   1      37.535  32.730  30.429  1.00  0.00    -0.014 A 
BRANCH  48  49
ATOM     49  C   UNL A   1      38.698  31.937  30.873  1.00  0.00     0.031 A 
ATOM     50  C   UNL A   1      39.068  30.637  30.216  1.00  0.00     0.074 A 
ATOM     51  C   UNL A   1      39.629  32.584  31.613  1.00  0.00     0.049 A 
ATOM     52  N   UNL A   1      40.120  29.927  30.490  1.00  0.00    -0.248 NA
ATOM     53  C   UNL A   1      38.226  29.982  29.215  1.00  0.00     0.031 C 
ATOM     54  C   UNL A   1      41.065  32.418  31.476  1.00  0.00     0.029 A 
ATOM     55  N   UNL A   1      39.528  33.630  32.524  1.00  0.00    -0.354 N 
ATOM     56  C   UNL A   1      40.246  28.927  29.543  1.00  0.00     0.074 A 
ATOM     57  C   UNL A   1      38.982  28.939  28.851  1.00  0.00     0.031 C 
ATOM     58  C   UNL A   1      41.730  33.240  32.290  1.00  0.00     0.029 A 
ATOM     59  C   UNL A   1      40.758  33.781  33.195  1.00  0.00     0.049 A 
ATOM     60  H   UNL A   1      38.724  34.177  32.677  1.00  0.00     0.167 HD
ATOM     61  C   UNL A   1      41.447  28.288  29.377  1.00  0.00     0.037 A 
ATOM     62  C   UNL A   1      40.843  33.582  34.541  1.00  0.00     0.037 A 
ATOM     63  C   UNL A   1      42.393  28.576  30.477  1.00  0.00     0.049 A 
ATOM     64  C   UNL A   1      41.538  32.277  34.914  1.00  0.00     0.074 A 
ATOM     65  C   UNL A   1      43.738  28.901  30.541  1.00  0.00     0.029 A 
ATOM     66  N   UNL A   1      41.928  28.667  31.798  1.00  0.00    -0.354 N 
ATOM     67  N   UNL A   1      41.811  31.311  34.065  1.00  0.00    -0.248 NA
ATOM     68  C   UNL A   1      42.031  31.971  36.254  1.00  0.00     0.031 C 
ATOM     69  C   UNL A   1      44.060  29.208  31.886  1.00  0.00     0.029 A 
ATOM     70  C   UNL A   1      42.919  29.084  32.659  1.00  0.00     0.049 A 
ATOM     71  H   UNL A   1      41.007  28.457  32.075  1.00  0.00     0.167 HD
ATOM     72  C   UNL A   1      42.414  30.265  34.711  1.00  0.00     0.074 A 
ATOM     73  C   UNL A   1      42.567  30.750  36.073  1.00  0.00     0.031 C 
ATOM     74  C   UNL A   1      42.724  29.075  34.105  1.00  0.00     0.037 A 
BRANCH  61  75
ATOM     75  C   UNL A   1      41.884  27.521  28.107  1.00  0.00     0.064 A 
ATOM     76  C   UNL A   1      42.446  26.220  28.193  1.00  0.00     0.173 A 
ATOM     77  C   UNL A   1      41.913  28.052  26.796  1.00  0.00     0.173 A 
ATOM     78  F   UNL A   1      42.446  25.537  29.345  1.00  0.00    -0.203 F 
ATOM     79  C   UNL A   1      43.038  25.559  27.104  1.00  0.00     0.198 A 
ATOM     80  C   UNL A   1      42.430  27.355  25.690  1.00  0.00     0.198 A 
ATOM     81  F   UNL A   1      41.504  29.292  26.521  1.00  0.00    -0.203 F 
ATOM     82  F   UNL A   1      43.640  24.374  27.289  1.00  0.00    -0.200 F 
ATOM     83  C   UNL A   1      43.020  26.122  25.847  1.00  0.00     0.200 A 
ATOM     84  F   UNL A   1      42.379  27.915  24.472  1.00  0.00    -0.200 F 
ATOM     85  F   UNL A   1      43.574  25.490  24.803  1.00  0.00    -0.200 F 
ENDBRANCH  61  75
BRANCH  62  86
ATOM     86  C   UNL A   1      39.797  34.399  35.239  1.00  0.00     0.064 A 
ATOM     87  C   UNL A   1      38.854  33.593  35.923  1.00  0.00     0.173 A 
ATOM     88  C   UNL A   1      40.170  35.604  35.857  1.00  0.00     0.173 A 
ATOM     89  F   UNL A   1      38.421  32.457  35.353  1.00  0.00    -0.203 F 
ATOM     90  C   UNL A   1      38.585  33.797  37.276  1.00  0.00     0.198 A 
ATOM     91  C   UNL A   1      39.862  35.827  37.206  1.00  0.00     0.198 A 
ATOM     92  F   UNL A   1      41.019  36.441  35.243  1.00  0.00    -0.203 F 
ATOM     93  F   UNL A   1      37.928  32.862  37.977  1.00  0.00    -0.200 F 
ATOM     94  C   UNL A   1      39.137  34.885  37.928  1.00  0.00     0.200 A 
ATOM     95  F   UNL A   1      40.401  36.871  37.851  1.00  0.00    -0.200 F 
ATOM     96  F   UNL A   1      39.051  34.981  39.263  1.00  0.00    -0.200 F 
ENDBRANCH  62  86
BRANCH  74  97
ATOM     97  C   UNL A   1      42.961  27.755  34.825  1.00  0.00     0.064 A 
ATOM     98  C   UNL A   1      42.031  26.702  34.847  1.00  0.00     0.173 A 
ATOM     99  C   UNL A   1      44.235  27.430  35.364  1.00  0.00     0.173 A 
ATOM    100  F   UNL A   1      40.840  26.803  34.243  1.00  0.00    -0.203 F 
ATOM    101  C   UNL A   1      42.317  25.467  35.433  1.00  0.00     0.198 A 
ATOM    102  C   UNL A   1      44.536  26.178  35.895  1.00  0.00     0.198 A 
ATOM    103  F   UNL A   1      45.256  28.298  35.361  1.00  0.00    -0.203 F 
ATOM    104  F   UNL A   1      41.372  24.517  35.462  1.00  0.00    -0.200 F 
ATOM    105  C   UNL A   1      43.571  25.201  35.949  1.00  0.00     0.200 A 
ATOM    106  F   UNL A   1      45.779  25.922  36.331  1.00  0.00    -0.200 F 
ATOM    107  F   UNL A   1      43.853  23.998  36.464  1.00  0.00    -0.200 F 
ENDBRANCH  74  97
ENDBRANCH  48  49
ENDBRANCH  41  43
ENDBRANCH  40  41
ENDBRANCH  39  40
ENDBRANCH  38  39
ENDBRANCH  37  38
ENDBRANCH  36  37
ENDBRANCH  35  36
ENDBRANCH  34  35
ENDBRANCH   1  34
TORSDOF 26
ENDMDL
