MODEL 1
REMARK VINA RESULT:     -10.6      0.000      0.000
REMARK SMILES CC[C@](C)(NC(=O)NC[C@H]1COCCO1)C(=O)OCCOCCOCCOCCOC(=O)c1ccc(-c2c3nc(c(-c4c(F)c(F)c(F)c(F)c4F)c4ccc([nH]4)c(-c4c(F)c(F)c(F)c(F)c4F)c4nc(c(-c5c(F)c(F)c(F)c(F)c5F)c5ccc2[nH]5)C=C4)C=C3)cc1
REMARK SMILES IDX 23 1 22 2 21 3 20 4 19 5 18 6 16 7 17 8 3 9 4 10 2 11 1 12
REMARK SMILES IDX 5 13 6 14 7 16 8 17 9 19 10 20 11 21 15 22 12 23 14 24 13 25
REMARK SMILES IDX 24 26 25 27 26 28 27 29 28 30 29 31 30 32 31 33 32 34 33 35
REMARK SMILES IDX 34 36 95 37 35 38 94 39 36 40 37 41 38 42 88 43 39 44 93 45
REMARK SMILES IDX 87 46 89 47 40 48 92 49 86 50 85 51 41 53 73 54 53 55 72 56
REMARK SMILES IDX 54 57 57 58 71 59 90 60 55 61 56 62 70 64 91 65 58 66 42 67
REMARK SMILES IDX 43 68 51 69 44 70 45 71 49 72 52 73 46 74 47 75 50 76 48 77
REMARK SMILES IDX 74 78 75 79 83 80 76 81 77 82 81 83 84 84 78 85 79 86 82 87
REMARK SMILES IDX 80 88 59 89 60 90 68 91 61 92 62 93 66 94 69 95 63 96 64 97
REMARK SMILES IDX 67 98 65 99
REMARK H PARENT 5 15 8 18 89 52 57 63
REMARK Flexibility Score: inf
ROOT
ATOM      1  C   UNL A   1      30.061  26.280  23.886  1.00  0.00     0.188 C 
ENDROOT
BRANCH   1   2
ATOM      2  C   UNL A   1      31.426  26.020  23.236  1.00  0.00     0.188 C 
BRANCH   2   3
ATOM      3  O   UNL A   1      31.679  24.711  22.723  1.00  0.00    -0.376 OA
BRANCH   3   4
ATOM      4  C   UNL A   1      31.122  23.567  23.369  1.00  0.00     0.202 C 
BRANCH   4   5
ATOM      5  C   UNL A   1      32.063  22.412  23.701  1.00  0.00     0.261 C 
BRANCH   5   6
ATOM      6  O   UNL A   1      33.075  22.901  24.600  1.00  0.00    -0.462 OA
BRANCH   6   7
ATOM      7  C   UNL A   1      34.351  22.826  24.179  1.00  0.00     0.331 C 
ATOM      8  O   UNL A   1      34.651  22.956  22.998  1.00  0.00    -0.249 OA
BRANCH   7   9
ATOM      9  C   UNL A   1      35.390  22.602  25.335  1.00  0.00     0.136 C 
ATOM     10  C   UNL A   1      34.469  22.460  26.578  1.00  0.00     0.047 C 
BRANCH   9  11
ATOM     11  C   UNL A   1      36.295  23.857  25.427  1.00  0.00     0.037 C 
ATOM     12  C   UNL A   1      37.698  23.639  25.989  1.00  0.00     0.007 C 
ENDBRANCH   9  11
BRANCH   9  13
ATOM     13  N   UNL A   1      36.281  21.387  25.447  1.00  0.00    -0.322 N 
ATOM     14  C   UNL A   1      36.386  20.127  25.032  1.00  0.00     0.315 C 
ATOM     15  H   UNL A   1      37.047  21.601  26.025  1.00  0.00     0.166 HD
ATOM     16  O   UNL A   1      37.529  19.661  24.976  1.00  0.00    -0.249 OA
ATOM     17  N   UNL A   1      35.384  19.309  24.735  1.00  0.00    -0.335 N 
ATOM     18  H   UNL A   1      35.667  18.479  24.288  1.00  0.00     0.165 HD
BRANCH  17  19
ATOM     19  C   UNL A   1      33.969  19.404  24.943  1.00  0.00     0.152 C 
BRANCH  19  20
ATOM     20  C   UNL A   1      33.044  18.450  24.171  1.00  0.00     0.163 C 
ATOM     21  C   UNL A   1      33.857  17.418  23.391  1.00  0.00     0.194 C 
ATOM     22  O   UNL A   1      32.003  17.840  24.946  1.00  0.00    -0.372 OA
ATOM     23  O   UNL A   1      34.441  16.482  24.293  1.00  0.00    -0.376 OA
ATOM     24  C   UNL A   1      32.429  16.700  25.704  1.00  0.00     0.189 C 
ATOM     25  C   UNL A   1      33.406  15.773  24.976  1.00  0.00     0.188 C 
ENDBRANCH  19  20
ENDBRANCH  17  19
ENDBRANCH   9  13
ENDBRANCH   7   9
ENDBRANCH   6   7
ENDBRANCH   5   6
ENDBRANCH   4   5
ENDBRANCH   3   4
ENDBRANCH   2   3
ENDBRANCH   1   2
BRANCH   1  26
ATOM     26  O   UNL A   1      29.979  26.255  25.295  1.00  0.00    -0.377 OA
BRANCH  26  27
ATOM     27  C   UNL A   1      31.201  26.139  26.004  1.00  0.00     0.188 C 
BRANCH  27  28
ATOM     28  C   UNL A   1      31.590  27.458  26.682  1.00  0.00     0.188 C 
BRANCH  28  29
ATOM     29  O   UNL A   1      32.328  28.419  25.925  1.00  0.00    -0.376 OA
BRANCH  29  30
ATOM     30  C   UNL A   1      31.602  29.476  25.309  1.00  0.00     0.202 C 
BRANCH  30  31
ATOM     31  C   UNL A   1      31.792  30.822  26.033  1.00  0.00     0.261 C 
BRANCH  31  32
ATOM     32  O   UNL A   1      32.556  30.753  27.252  1.00  0.00    -0.460 OA
BRANCH  32  33
ATOM     33  C   UNL A   1      33.309  31.841  27.524  1.00  0.00     0.338 C 
ATOM     34  O   UNL A   1      32.966  33.019  27.530  1.00  0.00    -0.246 OA
BRANCH  33  35
ATOM     35  C   UNL A   1      34.685  31.426  27.834  1.00  0.00     0.060 A 
ATOM     36  C   UNL A   1      34.962  30.081  28.115  1.00  0.00     0.016 A 
ATOM     37  C   UNL A   1      35.671  32.402  27.987  1.00  0.00     0.016 A 
ATOM     38  C   UNL A   1      36.219  29.715  28.604  1.00  0.00     0.010 A 
ATOM     39  C   UNL A   1      36.919  32.038  28.491  1.00  0.00     0.010 A 
ATOM     40  C   UNL A   1      37.185  30.702  28.844  1.00  0.00    -0.014 A 
BRANCH  40  41
ATOM     41  C   UNL A   1      38.391  30.405  29.654  1.00  0.00     0.031 A 
ATOM     42  C   UNL A   1      39.370  29.394  29.130  1.00  0.00     0.074 A 
ATOM     43  C   UNL A   1      38.589  30.977  30.853  1.00  0.00     0.049 A 
ATOM     44  N   UNL A   1      40.389  28.829  29.727  1.00  0.00    -0.248 NA
ATOM     45  C   UNL A   1      39.164  28.954  27.741  1.00  0.00     0.031 C 
ATOM     46  C   UNL A   1      37.748  32.013  31.442  1.00  0.00     0.029 A 
ATOM     47  N   UNL A   1      39.550  30.733  31.804  1.00  0.00    -0.354 N 
ATOM     48  C   UNL A   1      40.928  27.951  28.796  1.00  0.00     0.074 A 
ATOM     49  C   UNL A   1      40.118  28.046  27.601  1.00  0.00     0.031 C 
ATOM     50  C   UNL A   1      38.199  32.284  32.678  1.00  0.00     0.029 A 
ATOM     51  C   UNL A   1      39.330  31.406  32.980  1.00  0.00     0.049 A 
ATOM     52  H   UNL A   1      40.318  30.136  31.658  1.00  0.00     0.167 HD
ATOM     53  C   UNL A   1      42.000  27.133  28.931  1.00  0.00     0.037 A 
ATOM     54  C   UNL A   1      39.937  31.289  34.177  1.00  0.00     0.037 A 
ATOM     55  C   UNL A   1      42.800  27.046  30.123  1.00  0.00     0.049 A 
ATOM     56  C   UNL A   1      41.083  30.322  34.335  1.00  0.00     0.074 A 
ATOM     57  C   UNL A   1      43.928  26.277  30.352  1.00  0.00     0.029 A 
ATOM     58  N   UNL A   1      42.544  27.742  31.295  1.00  0.00    -0.354 N 
ATOM     59  N   UNL A   1      41.604  29.508  33.450  1.00  0.00    -0.248 NA
ATOM     60  C   UNL A   1      41.726  30.261  35.656  1.00  0.00     0.031 C 
ATOM     61  C   UNL A   1      44.319  26.465  31.682  1.00  0.00     0.029 A 
ATOM     62  C   UNL A   1      43.473  27.397  32.263  1.00  0.00     0.049 A 
ATOM     63  H   UNL A   1      41.811  28.386  31.421  1.00  0.00     0.167 HD
ATOM     64  C   UNL A   1      42.652  28.860  34.093  1.00  0.00     0.074 A 
ATOM     65  C   UNL A   1      42.693  29.377  35.446  1.00  0.00     0.031 C 
ATOM     66  C   UNL A   1      43.506  27.928  33.603  1.00  0.00     0.037 A 
BRANCH  53  67
ATOM     67  C   UNL A   1      42.330  26.235  27.774  1.00  0.00     0.064 A 
ATOM     68  C   UNL A   1      43.331  26.554  26.845  1.00  0.00     0.173 A 
ATOM     69  C   UNL A   1      41.628  25.033  27.595  1.00  0.00     0.173 A 
ATOM     70  F   UNL A   1      44.024  27.696  26.963  1.00  0.00    -0.203 F 
ATOM     71  C   UNL A   1      43.589  25.723  25.756  1.00  0.00     0.198 A 
ATOM     72  C   UNL A   1      41.910  24.190  26.523  1.00  0.00     0.198 A 
ATOM     73  F   UNL A   1      40.664  24.677  28.457  1.00  0.00    -0.203 F 
ATOM     74  F   UNL A   1      44.508  26.078  24.848  1.00  0.00    -0.200 F 
ATOM     75  C   UNL A   1      42.881  24.541  25.600  1.00  0.00     0.200 A 
ATOM     76  F   UNL A   1      41.234  23.040  26.382  1.00  0.00    -0.200 F 
ATOM     77  F   UNL A   1      43.129  23.743  24.551  1.00  0.00    -0.200 F 
ENDBRANCH  53  67
BRANCH  54  78
ATOM     78  C   UNL A   1      39.439  32.086  35.327  1.00  0.00     0.064 A 
ATOM     79  C   UNL A   1      38.559  31.535  36.267  1.00  0.00     0.173 A 
ATOM     80  C   UNL A   1      39.859  33.410  35.524  1.00  0.00     0.173 A 
ATOM     81  F   UNL A   1      38.112  30.280  36.111  1.00  0.00    -0.203 F 
ATOM     82  C   UNL A   1      38.116  32.280  37.359  1.00  0.00     0.198 A 
ATOM     83  C   UNL A   1      39.437  34.144  36.629  1.00  0.00     0.198 A 
ATOM     84  F   UNL A   1      40.706  33.984  34.655  1.00  0.00    -0.203 F 
ATOM     85  F   UNL A   1      37.254  31.738  38.231  1.00  0.00    -0.200 F 
ATOM     86  C   UNL A   1      38.561  33.580  37.544  1.00  0.00     0.200 A 
ATOM     87  F   UNL A   1      39.888  35.393  36.814  1.00  0.00    -0.200 F 
ATOM     88  F   UNL A   1      38.150  34.288  38.604  1.00  0.00    -0.200 F 
ENDBRANCH  54  78
BRANCH  66  89
ATOM     89  C   UNL A   1      44.593  27.430  34.513  1.00  0.00     0.064 A 
ATOM     90  C   UNL A   1      45.817  28.103  34.639  1.00  0.00     0.173 A 
ATOM     91  C   UNL A   1      44.372  26.310  35.328  1.00  0.00     0.173 A 
ATOM     92  F   UNL A   1      46.082  29.171  33.871  1.00  0.00    -0.203 F 
ATOM     93  C   UNL A   1      46.783  27.665  35.540  1.00  0.00     0.198 A 
ATOM     94  C   UNL A   1      45.329  25.892  36.248  1.00  0.00     0.198 A 
ATOM     95  F   UNL A   1      43.216  25.634  35.250  1.00  0.00    -0.203 F 
ATOM     96  F   UNL A   1      47.959  28.305  35.624  1.00  0.00    -0.200 F 
ATOM     97  C   UNL A   1      46.534  26.567  36.352  1.00  0.00     0.200 A 
ATOM     98  F   UNL A   1      45.080  24.840  37.041  1.00  0.00    -0.200 F 
ATOM     99  F   UNL A   1      47.459  26.159  37.232  1.00  0.00    -0.200 F 
ENDBRANCH  66  89
ENDBRANCH  40  41
ENDBRANCH  33  35
ENDBRANCH  32  33
ENDBRANCH  31  32
ENDBRANCH  30  31
ENDBRANCH  29  30
ENDBRANCH  28  29
ENDBRANCH  27  28
ENDBRANCH  26  27
ENDBRANCH   1  26
TORSDOF 24
ENDMDL
MODEL 2
REMARK VINA RESULT:     -10.3      3.227      8.933
REMARK SMILES CC[C@](C)(NC(=O)NC[C@H]1COCCO1)C(=O)OCCOCCOCCOCCOC(=O)c1ccc(-c2c3nc(c(-c4c(F)c(F)c(F)c(F)c4F)c4ccc([nH]4)c(-c4c(F)c(F)c(F)c(F)c4F)c4nc(c(-c5c(F)c(F)c(F)c(F)c5F)c5ccc2[nH]5)C=C4)C=C3)cc1
REMARK SMILES IDX 23 1 22 2 21 3 20 4 19 5 18 6 16 7 17 8 3 9 4 10 2 11 1 12
REMARK SMILES IDX 5 13 6 14 7 16 8 17 9 19 10 20 11 21 15 22 12 23 14 24 13 25
REMARK SMILES IDX 24 26 25 27 26 28 27 29 28 30 29 31 30 32 31 33 32 34 33 35
REMARK SMILES IDX 34 36 95 37 35 38 94 39 36 40 37 41 38 42 88 43 39 44 93 45
REMARK SMILES IDX 87 46 89 47 40 48 92 49 86 50 85 51 41 53 73 54 53 55 72 56
REMARK SMILES IDX 54 57 57 58 71 59 90 60 55 61 56 62 70 64 91 65 58 66 42 67
REMARK SMILES IDX 43 68 51 69 44 70 45 71 49 72 52 73 46 74 47 75 50 76 48 77
REMARK SMILES IDX 74 78 75 79 83 80 76 81 77 82 81 83 84 84 78 85 79 86 82 87
REMARK SMILES IDX 80 88 59 89 60 90 68 91 61 92 62 93 66 94 69 95 63 96 64 97
REMARK SMILES IDX 67 98 65 99
REMARK H PARENT 5 15 8 18 89 52 57 63
REMARK Flexibility Score: inf
ROOT
ATOM      1  C   UNL A   1      36.848  22.425  24.853  1.00  0.00     0.188 C 
ENDROOT
BRANCH   1   2
ATOM      2  C   UNL A   1      35.509  23.067  25.239  1.00  0.00     0.188 C 
BRANCH   2   3
ATOM      3  O   UNL A   1      35.125  24.263  24.559  1.00  0.00    -0.376 OA
BRANCH   3   4
ATOM      4  C   UNL A   1      34.148  24.216  23.521  1.00  0.00     0.202 C 
BRANCH   4   5
ATOM      5  C   UNL A   1      33.314  25.471  23.276  1.00  0.00     0.261 C 
BRANCH   5   6
ATOM      6  O   UNL A   1      33.967  26.578  23.922  1.00  0.00    -0.462 OA
BRANCH   6   7
ATOM      7  C   UNL A   1      33.372  27.781  23.820  1.00  0.00     0.331 C 
ATOM      8  O   UNL A   1      33.706  28.596  22.967  1.00  0.00    -0.249 OA
BRANCH   7   9
ATOM      9  C   UNL A   1      32.211  28.007  24.851  1.00  0.00     0.136 C 
ATOM     10  C   UNL A   1      31.994  29.543  24.767  1.00  0.00     0.047 C 
BRANCH   9  11
ATOM     11  C   UNL A   1      32.712  27.571  26.252  1.00  0.00     0.037 C 
ATOM     12  C   UNL A   1      34.192  27.808  26.544  1.00  0.00     0.007 C 
ENDBRANCH   9  11
BRANCH   9  13
ATOM     13  N   UNL A   1      30.811  27.468  24.679  1.00  0.00    -0.322 N 
ATOM     14  C   UNL A   1      29.856  27.313  23.765  1.00  0.00     0.315 C 
ATOM     15  H   UNL A   1      30.496  27.106  25.538  1.00  0.00     0.166 HD
ATOM     16  O   UNL A   1      29.065  26.383  23.950  1.00  0.00    -0.249 OA
ATOM     17  N   UNL A   1      29.636  28.096  22.716  1.00  0.00    -0.335 N 
ATOM     18  H   UNL A   1      28.995  27.723  22.069  1.00  0.00     0.165 HD
BRANCH  17  19
ATOM     19  C   UNL A   1      30.152  29.381  22.347  1.00  0.00     0.152 C 
BRANCH  19  20
ATOM     20  C   UNL A   1      29.194  30.413  21.732  1.00  0.00     0.163 C 
ATOM     21  C   UNL A   1      27.741  29.958  21.873  1.00  0.00     0.194 C 
ATOM     22  O   UNL A   1      29.378  31.765  22.171  1.00  0.00    -0.372 OA
ATOM     23  O   UNL A   1      27.335  30.059  23.235  1.00  0.00    -0.376 OA
ATOM     24  C   UNL A   1      28.768  32.058  23.436  1.00  0.00     0.189 C 
ATOM     25  C   UNL A   1      27.389  31.427  23.645  1.00  0.00     0.188 C 
ENDBRANCH  19  20
ENDBRANCH  17  19
ENDBRANCH   9  13
ENDBRANCH   7   9
ENDBRANCH   6   7
ENDBRANCH   5   6
ENDBRANCH   4   5
ENDBRANCH   3   4
ENDBRANCH   2   3
ENDBRANCH   1   2
BRANCH   1  26
ATOM     26  O   UNL A   1      37.944  22.592  25.727  1.00  0.00    -0.377 OA
BRANCH  26  27
ATOM     27  C   UNL A   1      38.895  21.541  25.766  1.00  0.00     0.188 C 
BRANCH  27  28
ATOM     28  C   UNL A   1      39.887  21.717  26.920  1.00  0.00     0.188 C 
BRANCH  28  29
ATOM     29  O   UNL A   1      40.868  20.699  27.136  1.00  0.00    -0.376 OA
BRANCH  29  30
ATOM     30  C   UNL A   1      41.819  20.469  26.103  1.00  0.00     0.202 C 
BRANCH  30  31
ATOM     31  C   UNL A   1      42.814  21.633  25.947  1.00  0.00     0.261 C 
BRANCH  31  32
ATOM     32  O   UNL A   1      42.349  22.724  25.131  1.00  0.00    -0.460 OA
BRANCH  32  33
ATOM     33  C   UNL A   1      43.149  23.812  25.110  1.00  0.00     0.338 C 
ATOM     34  O   UNL A   1      44.253  23.932  24.590  1.00  0.00    -0.246 OA
BRANCH  33  35
ATOM     35  C   UNL A   1      42.502  24.917  25.833  1.00  0.00     0.060 A 
ATOM     36  C   UNL A   1      43.011  26.218  25.719  1.00  0.00     0.016 A 
ATOM     37  C   UNL A   1      41.479  24.631  26.739  1.00  0.00     0.016 A 
ATOM     38  C   UNL A   1      42.530  27.231  26.554  1.00  0.00     0.010 A 
ATOM     39  C   UNL A   1      41.012  25.638  27.582  1.00  0.00     0.010 A 
ATOM     40  C   UNL A   1      41.566  26.931  27.525  1.00  0.00    -0.014 A 
BRANCH  40  41
ATOM     41  C   UNL A   1      41.274  27.880  28.626  1.00  0.00     0.031 A 
ATOM     42  C   UNL A   1      42.080  27.777  29.889  1.00  0.00     0.074 A 
ATOM     43  C   UNL A   1      40.280  28.779  28.533  1.00  0.00     0.049 A 
ATOM     44  N   UNL A   1      41.896  28.356  31.048  1.00  0.00    -0.248 NA
ATOM     45  C   UNL A   1      43.252  26.889  29.836  1.00  0.00     0.031 C 
ATOM     46  C   UNL A   1      39.469  29.018  27.344  1.00  0.00     0.029 A 
ATOM     47  N   UNL A   1      39.765  29.635  29.477  1.00  0.00    -0.354 N 
ATOM     48  C   UNL A   1      42.913  27.883  31.868  1.00  0.00     0.074 A 
ATOM     49  C   UNL A   1      43.702  26.962  31.079  1.00  0.00     0.031 C 
ATOM     50  C   UNL A   1      38.522  29.923  27.643  1.00  0.00     0.029 A 
ATOM     51  C   UNL A   1      38.636  30.290  29.055  1.00  0.00     0.049 A 
ATOM     52  H   UNL A   1      40.166  29.764  30.366  1.00  0.00     0.167 HD
ATOM     53  C   UNL A   1      43.161  28.189  33.164  1.00  0.00     0.037 A 
ATOM     54  C   UNL A   1      37.765  31.055  29.742  1.00  0.00     0.037 A 
ATOM     55  C   UNL A   1      42.371  29.107  33.940  1.00  0.00     0.049 A 
ATOM     56  C   UNL A   1      38.012  31.328  31.203  1.00  0.00     0.074 A 
ATOM     57  C   UNL A   1      42.557  29.514  35.249  1.00  0.00     0.029 A 
ATOM     58  N   UNL A   1      41.232  29.750  33.478  1.00  0.00    -0.354 N 
ATOM     59  N   UNL A   1      38.983  30.898  31.971  1.00  0.00    -0.248 NA
ATOM     60  C   UNL A   1      37.045  32.195  31.892  1.00  0.00     0.031 C 
ATOM     61  C   UNL A   1      41.497  30.358  35.597  1.00  0.00     0.029 A 
ATOM     62  C   UNL A   1      40.685  30.526  34.486  1.00  0.00     0.049 A 
ATOM     63  H   UNL A   1      40.867  29.668  32.567  1.00  0.00     0.167 HD
ATOM     64  C   UNL A   1      38.764  31.462  33.222  1.00  0.00     0.074 A 
ATOM     65  C   UNL A   1      37.565  32.267  33.111  1.00  0.00     0.031 C 
ATOM     66  C   UNL A   1      39.495  31.330  34.356  1.00  0.00     0.037 A 
BRANCH  53  67
ATOM     67  C   UNL A   1      44.303  27.478  33.832  1.00  0.00     0.064 A 
ATOM     68  C   UNL A   1      44.135  26.248  34.485  1.00  0.00     0.173 A 
ATOM     69  C   UNL A   1      45.587  28.043  33.818  1.00  0.00     0.173 A 
ATOM     70  F   UNL A   1      42.926  25.671  34.539  1.00  0.00    -0.203 F 
ATOM     71  C   UNL A   1      45.202  25.630  35.134  1.00  0.00     0.198 A 
ATOM     72  C   UNL A   1      46.658  27.407  34.440  1.00  0.00     0.198 A 
ATOM     73  F   UNL A   1      45.805  29.215  33.202  1.00  0.00    -0.203 F 
ATOM     74  F   UNL A   1      45.005  24.487  35.804  1.00  0.00    -0.200 F 
ATOM     75  C   UNL A   1      46.463  26.208  35.106  1.00  0.00     0.200 A 
ATOM     76  F   UNL A   1      47.879  27.960  34.400  1.00  0.00    -0.200 F 
ATOM     77  F   UNL A   1      47.488  25.614  35.732  1.00  0.00    -0.200 F 
ENDBRANCH  53  67
BRANCH  54  78
ATOM     78  C   UNL A   1      36.558  31.580  29.054  1.00  0.00     0.064 A 
ATOM     79  C   UNL A   1      35.460  30.755  28.780  1.00  0.00     0.173 A 
ATOM     80  C   UNL A   1      36.469  32.931  28.682  1.00  0.00     0.173 A 
ATOM     81  F   UNL A   1      35.505  29.453  29.097  1.00  0.00    -0.203 F 
ATOM     82  C   UNL A   1      34.320  31.261  28.158  1.00  0.00     0.198 A 
ATOM     83  C   UNL A   1      35.319  33.440  28.085  1.00  0.00     0.198 A 
ATOM     84  F   UNL A   1      37.491  33.765  28.926  1.00  0.00    -0.203 F 
ATOM     85  F   UNL A   1      33.292  30.445  27.884  1.00  0.00    -0.200 F 
ATOM     86  C   UNL A   1      34.246  32.603  27.819  1.00  0.00     0.200 A 
ATOM     87  F   UNL A   1      35.245  34.743  27.780  1.00  0.00    -0.200 F 
ATOM     88  F   UNL A   1      33.142  33.092  27.239  1.00  0.00    -0.200 F 
ENDBRANCH  54  78
BRANCH  66  89
ATOM     89  C   UNL A   1      39.054  32.105  35.565  1.00  0.00     0.064 A 
ATOM     90  C   UNL A   1      38.276  31.521  36.575  1.00  0.00     0.173 A 
ATOM     91  C   UNL A   1      39.486  33.427  35.751  1.00  0.00     0.173 A 
ATOM     92  F   UNL A   1      37.827  30.264  36.438  1.00  0.00    -0.203 F 
ATOM     93  C   UNL A   1      37.938  32.236  37.721  1.00  0.00     0.198 A 
ATOM     94  C   UNL A   1      39.170  34.129  36.911  1.00  0.00     0.198 A 
ATOM     95  F   UNL A   1      40.238  34.030  34.818  1.00  0.00    -0.203 F 
ATOM     96  F   UNL A   1      37.168  31.668  38.660  1.00  0.00    -0.200 F 
ATOM     97  C   UNL A   1      38.395  33.535  37.893  1.00  0.00     0.200 A 
ATOM     98  F   UNL A   1      39.625  35.379  37.080  1.00  0.00    -0.200 F 
ATOM     99  F   UNL A   1      38.084  34.215  39.005  1.00  0.00    -0.200 F 
ENDBRANCH  66  89
ENDBRANCH  40  41
ENDBRANCH  33  35
ENDBRANCH  32  33
ENDBRANCH  31  32
ENDBRANCH  30  31
ENDBRANCH  29  30
ENDBRANCH  28  29
ENDBRANCH  27  28
ENDBRANCH  26  27
ENDBRANCH   1  26
TORSDOF 24
ENDMDL
MODEL 3
REMARK VINA RESULT:     -10.2      1.732      2.400
REMARK SMILES CC[C@](C)(NC(=O)NC[C@H]1COCCO1)C(=O)OCCOCCOCCOCCOC(=O)c1ccc(-c2c3nc(c(-c4c(F)c(F)c(F)c(F)c4F)c4ccc([nH]4)c(-c4c(F)c(F)c(F)c(F)c4F)c4nc(c(-c5c(F)c(F)c(F)c(F)c5F)c5ccc2[nH]5)C=C4)C=C3)cc1
REMARK SMILES IDX 23 1 22 2 21 3 20 4 19 5 18 6 16 7 17 8 3 9 4 10 2 11 1 12
REMARK SMILES IDX 5 13 6 14 7 16 8 17 9 19 10 20 11 21 15 22 12 23 14 24 13 25
REMARK SMILES IDX 24 26 25 27 26 28 27 29 28 30 29 31 30 32 31 33 32 34 33 35
REMARK SMILES IDX 34 36 95 37 35 38 94 39 36 40 37 41 38 42 88 43 39 44 93 45
REMARK SMILES IDX 87 46 89 47 40 48 92 49 86 50 85 51 41 53 73 54 53 55 72 56
REMARK SMILES IDX 54 57 57 58 71 59 90 60 55 61 56 62 70 64 91 65 58 66 42 67
REMARK SMILES IDX 43 68 51 69 44 70 45 71 49 72 52 73 46 74 47 75 50 76 48 77
REMARK SMILES IDX 74 78 75 79 83 80 76 81 77 82 81 83 84 84 78 85 79 86 82 87
REMARK SMILES IDX 80 88 59 89 60 90 68 91 61 92 62 93 66 94 69 95 63 96 64 97
REMARK SMILES IDX 67 98 65 99
REMARK H PARENT 5 15 8 18 89 52 57 63
REMARK Flexibility Score: inf
ROOT
ATOM      1  C   UNL A   1      30.109  28.001  23.510  1.00  0.00     0.188 C 
ENDROOT
BRANCH   1   2
ATOM      2  C   UNL A   1      31.078  27.358  22.510  1.00  0.00     0.188 C 
BRANCH   2   3
ATOM      3  O   UNL A   1      31.487  26.011  22.753  1.00  0.00    -0.376 OA
BRANCH   3   4
ATOM      4  C   UNL A   1      30.801  25.216  23.720  1.00  0.00     0.202 C 
BRANCH   4   5
ATOM      5  C   UNL A   1      30.894  23.699  23.585  1.00  0.00     0.261 C 
BRANCH   5   6
ATOM      6  O   UNL A   1      31.840  23.218  24.556  1.00  0.00    -0.462 OA
BRANCH   6   7
ATOM      7  C   UNL A   1      33.045  22.831  24.094  1.00  0.00     0.331 C 
ATOM      8  O   UNL A   1      33.200  22.442  22.942  1.00  0.00    -0.249 OA
BRANCH   7   9
ATOM      9  C   UNL A   1      34.203  22.967  25.145  1.00  0.00     0.136 C 
ATOM     10  C   UNL A   1      33.425  22.964  26.490  1.00  0.00     0.047 C 
BRANCH   9  11
ATOM     11  C   UNL A   1      34.927  24.315  24.901  1.00  0.00     0.037 C 
ATOM     12  C   UNL A   1      34.147  25.577  25.263  1.00  0.00     0.007 C 
ENDBRANCH   9  11
BRANCH   9  13
ATOM     13  N   UNL A   1      35.261  21.915  25.377  1.00  0.00    -0.322 N 
ATOM     14  C   UNL A   1      35.538  20.638  25.125  1.00  0.00     0.315 C 
ATOM     15  H   UNL A   1      36.002  22.309  25.890  1.00  0.00     0.166 HD
ATOM     16  O   UNL A   1      36.734  20.333  25.083  1.00  0.00    -0.249 OA
ATOM     17  N   UNL A   1      34.657  19.655  24.979  1.00  0.00    -0.335 N 
ATOM     18  H   UNL A   1      35.046  18.820  24.632  1.00  0.00     0.165 HD
BRANCH  17  19
ATOM     19  C   UNL A   1      33.248  19.579  25.232  1.00  0.00     0.152 C 
BRANCH  19  20
ATOM     20  C   UNL A   1      32.431  18.484  24.528  1.00  0.00     0.163 C 
ATOM     21  C   UNL A   1      33.141  18.004  23.262  1.00  0.00     0.194 C 
ATOM     22  O   UNL A   1      32.018  17.392  25.359  1.00  0.00    -0.372 OA
ATOM     23  O   UNL A   1      34.287  17.235  23.616  1.00  0.00    -0.376 OA
ATOM     24  C   UNL A   1      33.032  16.400  25.569  1.00  0.00     0.189 C 
ATOM     25  C   UNL A   1      33.873  16.071  24.333  1.00  0.00     0.188 C 
ENDBRANCH  19  20
ENDBRANCH  17  19
ENDBRANCH   9  13
ENDBRANCH   7   9
ENDBRANCH   6   7
ENDBRANCH   5   6
ENDBRANCH   4   5
ENDBRANCH   3   4
ENDBRANCH   2   3
ENDBRANCH   1   2
BRANCH   1  26
ATOM     26  O   UNL A   1      30.632  28.915  24.450  1.00  0.00    -0.377 OA
BRANCH  26  27
ATOM     27  C   UNL A   1      32.002  28.775  24.784  1.00  0.00     0.188 C 
BRANCH  27  28
ATOM     28  C   UNL A   1      32.281  29.207  26.227  1.00  0.00     0.188 C 
BRANCH  28  29
ATOM     29  O   UNL A   1      32.558  30.586  26.483  1.00  0.00    -0.376 OA
BRANCH  29  30
ATOM     30  C   UNL A   1      31.454  31.480  26.553  1.00  0.00     0.202 C 
BRANCH  30  31
ATOM     31  C   UNL A   1      31.877  32.909  26.944  1.00  0.00     0.261 C 
BRANCH  31  32
ATOM     32  O   UNL A   1      33.079  32.992  27.731  1.00  0.00    -0.460 OA
BRANCH  32  33
ATOM     33  C   UNL A   1      33.231  34.135  28.435  1.00  0.00     0.338 C 
ATOM     34  O   UNL A   1      32.513  35.130  28.430  1.00  0.00    -0.246 OA
BRANCH  33  35
ATOM     35  C   UNL A   1      34.440  34.048  29.268  1.00  0.00     0.060 A 
ATOM     36  C   UNL A   1      35.691  34.359  28.716  1.00  0.00     0.016 A 
ATOM     37  C   UNL A   1      34.343  33.516  30.554  1.00  0.00     0.016 A 
ATOM     38  C   UNL A   1      36.857  34.087  29.436  1.00  0.00     0.010 A 
ATOM     39  C   UNL A   1      35.508  33.229  31.264  1.00  0.00     0.010 A 
ATOM     40  C   UNL A   1      36.770  33.471  30.692  1.00  0.00    -0.014 A 
BRANCH  40  41
ATOM     41  C   UNL A   1      37.969  32.878  31.333  1.00  0.00     0.031 A 
ATOM     42  C   UNL A   1      38.596  31.672  30.694  1.00  0.00     0.074 A 
ATOM     43  C   UNL A   1      38.460  33.362  32.486  1.00  0.00     0.049 A 
ATOM     44  N   UNL A   1      39.520  30.868  31.153  1.00  0.00    -0.248 NA
ATOM     45  C   UNL A   1      38.102  31.323  29.352  1.00  0.00     0.031 C 
ATOM     46  C   UNL A   1      37.981  34.557  33.171  1.00  0.00     0.029 A 
ATOM     47  N   UNL A   1      39.455  32.876  33.300  1.00  0.00    -0.354 N 
ATOM     48  C   UNL A   1      39.700  29.905  30.169  1.00  0.00     0.074 A 
ATOM     49  C   UNL A   1      38.782  30.216  29.096  1.00  0.00     0.031 C 
ATOM     50  C   UNL A   1      38.647  34.687  34.330  1.00  0.00     0.029 A 
ATOM     51  C   UNL A   1      39.565  33.558  34.486  1.00  0.00     0.049 A 
ATOM     52  H   UNL A   1      40.029  32.115  33.058  1.00  0.00     0.167 HD
ATOM     53  C   UNL A   1      40.553  28.852  30.166  1.00  0.00     0.037 A 
ATOM     54  C   UNL A   1      40.284  33.274  35.590  1.00  0.00     0.037 A 
ATOM     55  C   UNL A   1      41.463  28.551  31.239  1.00  0.00     0.049 A 
ATOM     56  C   UNL A   1      41.174  32.059  35.602  1.00  0.00     0.074 A 
ATOM     57  C   UNL A   1      42.394  27.531  31.321  1.00  0.00     0.029 A 
ATOM     58  N   UNL A   1      41.544  29.265  32.426  1.00  0.00    -0.354 N 
ATOM     59  N   UNL A   1      41.359  31.161  34.665  1.00  0.00    -0.248 NA
ATOM     60  C   UNL A   1      41.958  31.819  36.823  1.00  0.00     0.031 C 
ATOM     61  C   UNL A   1      42.997  27.592  32.582  1.00  0.00     0.029 A 
ATOM     62  C   UNL A   1      42.487  28.688  33.262  1.00  0.00     0.049 A 
ATOM     63  H   UNL A   1      41.012  30.064  32.642  1.00  0.00     0.167 HD
ATOM     64  C   UNL A   1      42.298  30.268  35.167  1.00  0.00     0.074 A 
ATOM     65  C   UNL A   1      42.646  30.733  36.494  1.00  0.00     0.031 C 
ATOM     66  C   UNL A   1      42.828  29.168  34.577  1.00  0.00     0.037 A 
BRANCH  53  67
ATOM     67  C   UNL A   1      40.497  27.924  28.988  1.00  0.00     0.064 A 
ATOM     68  C   UNL A   1      41.252  28.148  27.826  1.00  0.00     0.173 A 
ATOM     69  C   UNL A   1      39.669  26.791  29.024  1.00  0.00     0.173 A 
ATOM     70  F   UNL A   1      42.049  29.222  27.735  1.00  0.00    -0.203 F 
ATOM     71  C   UNL A   1      41.149  27.294  26.730  1.00  0.00     0.198 A 
ATOM     72  C   UNL A   1      39.593  25.923  27.938  1.00  0.00     0.198 A 
ATOM     73  F   UNL A   1      38.930  26.526  30.112  1.00  0.00    -0.203 F 
ATOM     74  F   UNL A   1      41.832  27.561  25.609  1.00  0.00    -0.200 F 
ATOM     75  C   UNL A   1      40.324  26.180  26.789  1.00  0.00     0.200 A 
ATOM     76  F   UNL A   1      38.806  24.839  28.003  1.00  0.00    -0.200 F 
ATOM     77  F   UNL A   1      40.225  25.361  25.733  1.00  0.00    -0.200 F 
ENDBRANCH  53  67
BRANCH  54  78
ATOM     78  C   UNL A   1      40.153  34.145  36.786  1.00  0.00     0.064 A 
ATOM     79  C   UNL A   1      39.201  33.878  37.779  1.00  0.00     0.173 A 
ATOM     80  C   UNL A   1      41.001  35.247  36.974  1.00  0.00     0.173 A 
ATOM     81  F   UNL A   1      38.354  32.849  37.635  1.00  0.00    -0.203 F 
ATOM     82  C   UNL A   1      39.101  34.684  38.912  1.00  0.00     0.198 A 
ATOM     83  C   UNL A   1      40.918  36.034  38.119  1.00  0.00     0.198 A 
ATOM     84  F   UNL A   1      41.933  35.543  36.055  1.00  0.00    -0.203 F 
ATOM     85  F   UNL A   1      38.165  34.422  39.836  1.00  0.00    -0.200 F 
ATOM     86  C   UNL A   1      39.965  35.755  39.086  1.00  0.00     0.200 A 
ATOM     87  F   UNL A   1      41.769  37.055  38.292  1.00  0.00    -0.200 F 
ATOM     88  F   UNL A   1      39.881  36.516  40.185  1.00  0.00    -0.200 F 
ENDBRANCH  54  78
BRANCH  66  89
ATOM     89  C   UNL A   1      43.878  28.407  35.336  1.00  0.00     0.064 A 
ATOM     90  C   UNL A   1      45.240  28.719  35.228  1.00  0.00     0.173 A 
ATOM     91  C   UNL A   1      43.503  27.404  36.243  1.00  0.00     0.173 A 
ATOM     92  F   UNL A   1      45.651  29.660  34.364  1.00  0.00    -0.203 F 
ATOM     93  C   UNL A   1      46.190  28.048  35.994  1.00  0.00     0.198 A 
ATOM     94  C   UNL A   1      44.452  26.755  37.028  1.00  0.00     0.198 A 
ATOM     95  F   UNL A   1      42.211  27.072  36.388  1.00  0.00    -0.203 F 
ATOM     96  F   UNL A   1      47.490  28.341  35.853  1.00  0.00    -0.200 F 
ATOM     97  C   UNL A   1      45.794  27.075  36.900  1.00  0.00     0.200 A 
ATOM     98  F   UNL A   1      44.065  25.826  37.913  1.00  0.00    -0.200 F 
ATOM     99  F   UNL A   1      46.708  26.443  37.650  1.00  0.00    -0.200 F 
ENDBRANCH  66  89
ENDBRANCH  40  41
ENDBRANCH  33  35
ENDBRANCH  32  33
ENDBRANCH  31  32
ENDBRANCH  30  31
ENDBRANCH  29  30
ENDBRANCH  28  29
ENDBRANCH  27  28
ENDBRANCH  26  27
ENDBRANCH   1  26
TORSDOF 24
ENDMDL
