MODEL 1
REMARK VINA RESULT:      -9.5      0.000      0.000
REMARK SMILES CS(=O)(=O)c1ccc(/C=C(/C(=O)OCCOCCOCCOCCOC(=O)c2ccc(-c3c4nc(c(-c5c(F)c(F)c(F)c(F)c5F)c5ccc([nH]5)c(-c5c(F)c(F)c(F)c(F)c5F)c5nc(c(-c6c(F)c(F)c(F)c(F)c6F)c6ccc3[nH]6)C=C5)C=C4)cc2)c2ccc(O)cc2)cc1
REMARK SMILES IDX 19 1 18 2 17 3 16 4 15 5 14 6 13 7 11 8 12 9 10 10 9 11 8 12
REMARK SMILES IDX 5 13 6 14 99 15 7 16 98 17 2 18 1 19 3 20 4 21 91 22 92 23
REMARK SMILES IDX 97 24 93 25 96 26 94 27 95 28 20 30 21 31 22 32 23 33 24 34
REMARK SMILES IDX 25 35 26 36 27 37 28 38 29 39 90 40 30 41 89 42 31 43 32 44
REMARK SMILES IDX 33 45 83 46 34 47 88 48 82 49 84 50 35 51 87 52 81 53 80 54
REMARK SMILES IDX 36 56 68 57 48 58 67 59 49 60 52 61 66 62 85 63 50 64 51 65
REMARK SMILES IDX 65 67 86 68 53 69 37 70 38 71 46 72 39 73 40 74 44 75 47 76
REMARK SMILES IDX 41 77 42 78 45 79 43 80 69 81 70 82 78 83 71 84 72 85 76 86
REMARK SMILES IDX 79 87 73 88 74 89 77 90 75 91 54 92 55 93 63 94 56 95 57 96
REMARK SMILES IDX 61 97 64 98 58 99 59 100 62 101 60 102
REMARK H PARENT 95 29 84 55 52 66
REMARK Flexibility Score: inf
ROOT
ATOM      1  O   UNL A   1      33.907  35.656  30.908  1.00  0.00    -0.377 OA
ENDROOT
BRANCH   1   2
ATOM      2  C   UNL A   1      33.937  34.534  30.038  1.00  0.00     0.188 C 
BRANCH   2   3
ATOM      3  C   UNL A   1      35.216  34.252  29.215  1.00  0.00     0.188 C 
BRANCH   3   4
ATOM      4  O   UNL A   1      35.088  33.161  28.319  1.00  0.00    -0.376 OA
BRANCH   4   5
ATOM      5  C   UNL A   1      36.055  32.131  28.413  1.00  0.00     0.202 C 
BRANCH   5   6
ATOM      6  C   UNL A   1      35.545  30.681  28.410  1.00  0.00     0.261 C 
BRANCH   6   7
ATOM      7  O   UNL A   1      35.085  30.181  27.145  1.00  0.00    -0.460 OA
BRANCH   7   8
ATOM      8  C   UNL A   1      33.745  30.137  26.940  1.00  0.00     0.338 C 
ATOM      9  O   UNL A   1      32.959  31.018  27.252  1.00  0.00    -0.246 OA
BRANCH   8  10
ATOM     10  C   UNL A   1      33.372  28.914  26.145  1.00  0.00     0.067 C 
ATOM     11  C   UNL A   1      33.785  27.699  26.587  1.00  0.00     0.024 C 
BRANCH  11  12
ATOM     12  C   UNL A   1      33.379  26.348  26.127  1.00  0.00    -0.025 A 
ATOM     13  C   UNL A   1      33.032  23.596  25.729  1.00  0.00     0.067 A 
ATOM     14  C   UNL A   1      32.010  24.344  26.308  1.00  0.00     0.021 A 
ATOM     15  C   UNL A   1      34.169  24.226  25.223  1.00  0.00     0.021 A 
ATOM     16  C   UNL A   1      32.170  25.722  26.456  1.00  0.00     0.009 A 
ATOM     17  C   UNL A   1      34.333  25.600  25.417  1.00  0.00     0.009 A 
BRANCH  13  18
ATOM     18  S   UNL A   1      32.965  21.824  25.802  1.00  0.00     0.175 S 
ATOM     19  C   UNL A   1      34.167  21.305  24.614  1.00  0.00     0.163 C 
ATOM     20  O   UNL A   1      31.656  21.417  25.327  1.00  0.00    -0.224 OA
ATOM     21  O   UNL A   1      33.428  21.427  27.119  1.00  0.00    -0.224 OA
ENDBRANCH  13  18
ENDBRANCH  11  12
BRANCH  10  22
ATOM     22  C   UNL A   1      32.557  29.104  24.927  1.00  0.00    -0.011 A 
ATOM     23  C   UNL A   1      33.142  28.929  23.657  1.00  0.00     0.013 A 
ATOM     24  C   UNL A   1      31.180  29.332  25.007  1.00  0.00     0.013 A 
ATOM     25  C   UNL A   1      32.369  28.959  22.499  1.00  0.00     0.047 A 
ATOM     26  C   UNL A   1      30.400  29.342  23.845  1.00  0.00     0.047 A 
ATOM     27  C   UNL A   1      31.001  29.147  22.603  1.00  0.00     0.115 A 
BRANCH  27  28
ATOM     28  O   UNL A   1      30.272  29.106  21.453  1.00  0.00    -0.508 OA
ATOM     29  H   UNL A   1      29.400  29.448  21.440  1.00  0.00     0.293 HD
ENDBRANCH  27  28
ENDBRANCH  10  22
ENDBRANCH   8  10
ENDBRANCH   7   8
ENDBRANCH   6   7
ENDBRANCH   5   6
ENDBRANCH   4   5
ENDBRANCH   3   4
ENDBRANCH   2   3
ENDBRANCH   1   2
BRANCH   1  30
ATOM     30  C   UNL A   1      33.914  35.445  32.314  1.00  0.00     0.188 C 
BRANCH  30  31
ATOM     31  C   UNL A   1      33.999  34.014  32.898  1.00  0.00     0.188 C 
BRANCH  31  32
ATOM     32  O   UNL A   1      35.218  33.710  33.557  1.00  0.00    -0.376 OA
BRANCH  32  33
ATOM     33  C   UNL A   1      36.235  33.067  32.810  1.00  0.00     0.202 C 
BRANCH  33  34
ATOM     34  C   UNL A   1      36.632  31.652  33.251  1.00  0.00     0.261 C 
BRANCH  34  35
ATOM     35  O   UNL A   1      36.757  30.675  32.205  1.00  0.00    -0.460 OA
BRANCH  35  36
ATOM     36  C   UNL A   1      37.645  29.677  32.389  1.00  0.00     0.338 C 
ATOM     37  O   UNL A   1      37.430  28.570  32.852  1.00  0.00    -0.246 OA
BRANCH  36  38
ATOM     38  C   UNL A   1      38.909  30.085  31.743  1.00  0.00     0.060 A 
ATOM     39  C   UNL A   1      40.031  30.353  32.540  1.00  0.00     0.016 A 
ATOM     40  C   UNL A   1      38.993  30.169  30.351  1.00  0.00     0.016 A 
ATOM     41  C   UNL A   1      41.234  30.731  31.946  1.00  0.00     0.010 A 
ATOM     42  C   UNL A   1      40.191  30.574  29.759  1.00  0.00     0.010 A 
ATOM     43  C   UNL A   1      41.307  30.885  30.556  1.00  0.00    -0.014 A 
BRANCH  43  44
ATOM     44  C   UNL A   1      42.485  31.556  29.955  1.00  0.00     0.031 A 
ATOM     45  C   UNL A   1      43.644  30.704  29.519  1.00  0.00     0.074 A 
ATOM     46  C   UNL A   1      42.519  32.889  29.781  1.00  0.00     0.049 A 
ATOM     47  N   UNL A   1      44.794  31.058  29.008  1.00  0.00    -0.248 NA
ATOM     48  C   UNL A   1      43.481  29.250  29.688  1.00  0.00     0.031 C 
ATOM     49  C   UNL A   1      41.445  33.814  30.128  1.00  0.00     0.029 A 
ATOM     50  N   UNL A   1      43.510  33.692  29.273  1.00  0.00    -0.354 N 
ATOM     51  C   UNL A   1      45.493  29.876  28.802  1.00  0.00     0.074 A 
ATOM     52  C   UNL A   1      44.654  28.797  29.274  1.00  0.00     0.031 C 
ATOM     53  C   UNL A   1      41.839  35.066  29.835  1.00  0.00     0.029 A 
ATOM     54  C   UNL A   1      43.205  35.030  29.313  1.00  0.00     0.049 A 
ATOM     55  H   UNL A   1      44.357  33.343  28.914  1.00  0.00     0.167 HD
ATOM     56  C   UNL A   1      46.723  29.706  28.261  1.00  0.00     0.037 A 
ATOM     57  C   UNL A   1      43.956  36.101  28.990  1.00  0.00     0.037 A 
ATOM     58  C   UNL A   1      47.556  30.784  27.797  1.00  0.00     0.049 A 
ATOM     59  C   UNL A   1      45.353  35.892  28.459  1.00  0.00     0.074 A 
ATOM     60  C   UNL A   1      48.807  30.717  27.209  1.00  0.00     0.029 A 
ATOM     61  N   UNL A   1      47.227  32.130  27.884  1.00  0.00    -0.354 N 
ATOM     62  N   UNL A   1      45.996  34.771  28.232  1.00  0.00    -0.248 NA
ATOM     63  C   UNL A   1      46.126  37.098  28.131  1.00  0.00     0.031 C 
ATOM     64  C   UNL A   1      49.263  32.022  27.003  1.00  0.00     0.029 A 
ATOM     65  C   UNL A   1      48.267  32.903  27.394  1.00  0.00     0.049 A 
ATOM     66  H   UNL A   1      46.380  32.482  28.241  1.00  0.00     0.167 HD
ATOM     67  C   UNL A   1      47.231  35.135  27.711  1.00  0.00     0.074 A 
ATOM     68  C   UNL A   1      47.243  36.580  27.639  1.00  0.00     0.031 C 
ATOM     69  C   UNL A   1      48.264  34.344  27.326  1.00  0.00     0.037 A 
BRANCH  56  70
ATOM     70  C   UNL A   1      47.256  28.305  28.179  1.00  0.00     0.064 A 
ATOM     71  C   UNL A   1      47.058  27.499  27.047  1.00  0.00     0.173 A 
ATOM     72  C   UNL A   1      47.999  27.769  29.243  1.00  0.00     0.173 A 
ATOM     73  F   UNL A   1      46.342  27.956  26.009  1.00  0.00    -0.203 F 
ATOM     74  C   UNL A   1      47.558  26.200  26.997  1.00  0.00     0.198 A 
ATOM     75  C   UNL A   1      48.526  26.483  29.174  1.00  0.00     0.198 A 
ATOM     76  F   UNL A   1      48.219  28.496  30.348  1.00  0.00    -0.203 F 
ATOM     77  F   UNL A   1      47.309  25.430  25.928  1.00  0.00    -0.200 F 
ATOM     78  C   UNL A   1      48.297  25.695  28.056  1.00  0.00     0.200 A 
ATOM     79  F   UNL A   1      49.252  26.003  30.193  1.00  0.00    -0.200 F 
ATOM     80  F   UNL A   1      48.783  24.449  28.002  1.00  0.00    -0.200 F 
ENDBRANCH  56  70
BRANCH  57  81
ATOM     81  C   UNL A   1      43.412  37.474  29.175  1.00  0.00     0.064 A 
ATOM     82  C   UNL A   1      42.581  38.062  28.213  1.00  0.00     0.173 A 
ATOM     83  C   UNL A   1      43.730  38.232  30.312  1.00  0.00     0.173 A 
ATOM     84  F   UNL A   1      42.269  37.389  27.096  1.00  0.00    -0.203 F 
ATOM     85  C   UNL A   1      42.102  39.362  28.372  1.00  0.00     0.198 A 
ATOM     86  C   UNL A   1      43.225  39.519  30.485  1.00  0.00     0.198 A 
ATOM     87  F   UNL A   1      44.526  37.719  31.262  1.00  0.00    -0.203 F 
ATOM     88  F   UNL A   1      41.350  39.918  27.413  1.00  0.00    -0.200 F 
ATOM     89  C   UNL A   1      42.419  40.087  29.511  1.00  0.00     0.200 A 
ATOM     90  F   UNL A   1      43.524  40.210  31.594  1.00  0.00    -0.200 F 
ATOM     91  F   UNL A   1      41.955  41.334  29.665  1.00  0.00    -0.200 F 
ENDBRANCH  57  81
BRANCH  69  92
ATOM     92  C   UNL A   1      49.481  35.019  26.754  1.00  0.00     0.064 A 
ATOM     93  C   UNL A   1      50.637  35.235  27.518  1.00  0.00     0.173 A 
ATOM     94  C   UNL A   1      49.502  35.417  25.408  1.00  0.00     0.173 A 
ATOM     95  F   UNL A   1      50.666  34.884  28.813  1.00  0.00    -0.203 F 
ATOM     96  C   UNL A   1      51.756  35.853  26.966  1.00  0.00     0.198 A 
ATOM     97  C   UNL A   1      50.636  36.002  24.850  1.00  0.00     0.198 A 
ATOM     98  F   UNL A   1      48.428  35.226  24.628  1.00  0.00    -0.203 F 
ATOM     99  F   UNL A   1      52.828  36.100  27.732  1.00  0.00    -0.200 F 
ATOM    100  C   UNL A   1      51.757  36.228  25.631  1.00  0.00     0.200 A 
ATOM    101  F   UNL A   1      50.641  36.346  23.554  1.00  0.00    -0.200 F 
ATOM    102  F   UNL A   1      52.839  36.816  25.100  1.00  0.00    -0.200 F 
ENDBRANCH  69  92
ENDBRANCH  43  44
ENDBRANCH  36  38
ENDBRANCH  35  36
ENDBRANCH  34  35
ENDBRANCH  33  34
ENDBRANCH  32  33
ENDBRANCH  31  32
ENDBRANCH  30  31
ENDBRANCH   1  30
TORSDOF 24
ENDMDL
MODEL 2
REMARK VINA RESULT:      -9.2      4.356      9.209
REMARK SMILES CS(=O)(=O)c1ccc(/C=C(/C(=O)OCCOCCOCCOCCOC(=O)c2ccc(-c3c4nc(c(-c5c(F)c(F)c(F)c(F)c5F)c5ccc([nH]5)c(-c5c(F)c(F)c(F)c(F)c5F)c5nc(c(-c6c(F)c(F)c(F)c(F)c6F)c6ccc3[nH]6)C=C5)C=C4)cc2)c2ccc(O)cc2)cc1
REMARK SMILES IDX 19 1 18 2 17 3 16 4 15 5 14 6 13 7 11 8 12 9 10 10 9 11 8 12
REMARK SMILES IDX 5 13 6 14 99 15 7 16 98 17 2 18 1 19 3 20 4 21 91 22 92 23
REMARK SMILES IDX 97 24 93 25 96 26 94 27 95 28 20 30 21 31 22 32 23 33 24 34
REMARK SMILES IDX 25 35 26 36 27 37 28 38 29 39 90 40 30 41 89 42 31 43 32 44
REMARK SMILES IDX 33 45 83 46 34 47 88 48 82 49 84 50 35 51 87 52 81 53 80 54
REMARK SMILES IDX 36 56 68 57 48 58 67 59 49 60 52 61 66 62 85 63 50 64 51 65
REMARK SMILES IDX 65 67 86 68 53 69 37 70 38 71 46 72 39 73 40 74 44 75 47 76
REMARK SMILES IDX 41 77 42 78 45 79 43 80 69 81 70 82 78 83 71 84 72 85 76 86
REMARK SMILES IDX 79 87 73 88 74 89 77 90 75 91 54 92 55 93 63 94 56 95 57 96
REMARK SMILES IDX 61 97 64 98 58 99 59 100 62 101 60 102
REMARK H PARENT 95 29 84 55 52 66
REMARK Flexibility Score: inf
ROOT
ATOM      1  O   UNL A   1      37.352  31.780  38.052  1.00  0.00    -0.377 OA
ENDROOT
BRANCH   1   2
ATOM      2  C   UNL A   1      37.426  33.036  37.394  1.00  0.00     0.188 C 
BRANCH   2   3
ATOM      3  C   UNL A   1      37.187  33.102  35.867  1.00  0.00     0.188 C 
BRANCH   3   4
ATOM      4  O   UNL A   1      37.422  31.874  35.199  1.00  0.00    -0.376 OA
BRANCH   4   5
ATOM      5  C   UNL A   1      38.768  31.536  34.922  1.00  0.00     0.202 C 
BRANCH   5   6
ATOM      6  C   UNL A   1      39.022  30.476  33.838  1.00  0.00     0.261 C 
BRANCH   6   7
ATOM      7  O   UNL A   1      39.976  30.831  32.824  1.00  0.00    -0.460 OA
BRANCH   7   8
ATOM      8  C   UNL A   1      39.490  31.273  31.637  1.00  0.00     0.338 C 
ATOM      9  O   UNL A   1      39.277  32.443  31.360  1.00  0.00    -0.246 OA
BRANCH   8  10
ATOM     10  C   UNL A   1      39.383  30.138  30.655  1.00  0.00     0.067 C 
ATOM     11  C   UNL A   1      40.305  29.142  30.707  1.00  0.00     0.024 C 
BRANCH  11  12
ATOM     12  C   UNL A   1      40.304  27.828  30.019  1.00  0.00    -0.025 A 
ATOM     13  C   UNL A   1      39.948  25.672  28.264  1.00  0.00     0.067 A 
ATOM     14  C   UNL A   1      41.202  26.264  28.385  1.00  0.00     0.021 A 
ATOM     15  C   UNL A   1      38.904  26.054  29.107  1.00  0.00     0.021 A 
ATOM     16  C   UNL A   1      41.384  27.304  29.297  1.00  0.00     0.009 A 
ATOM     17  C   UNL A   1      39.089  27.123  29.986  1.00  0.00     0.009 A 
BRANCH  13  18
ATOM     18  S   UNL A   1      39.633  24.563  26.915  1.00  0.00     0.175 S 
ATOM     19  C   UNL A   1      40.428  23.062  27.407  1.00  0.00     0.163 C 
ATOM     20  O   UNL A   1      40.327  25.082  25.752  1.00  0.00    -0.224 OA
ATOM     21  O   UNL A   1      38.202  24.325  26.876  1.00  0.00    -0.224 OA
ENDBRANCH  13  18
ENDBRANCH  11  12
BRANCH  10  22
ATOM     22  C   UNL A   1      38.262  30.159  29.692  1.00  0.00    -0.011 A 
ATOM     23  C   UNL A   1      38.526  30.162  28.309  1.00  0.00     0.013 A 
ATOM     24  C   UNL A   1      36.936  30.050  30.124  1.00  0.00     0.013 A 
ATOM     25  C   UNL A   1      37.496  30.037  27.380  1.00  0.00     0.047 A 
ATOM     26  C   UNL A   1      35.903  29.904  29.192  1.00  0.00     0.047 A 
ATOM     27  C   UNL A   1      36.194  29.891  27.829  1.00  0.00     0.115 A 
BRANCH  27  28
ATOM     28  O   UNL A   1      35.223  29.707  26.892  1.00  0.00    -0.508 OA
ATOM     29  H   UNL A   1      35.136  30.314  26.183  1.00  0.00     0.293 HD
ENDBRANCH  27  28
ENDBRANCH  10  22
ENDBRANCH   8  10
ENDBRANCH   7   8
ENDBRANCH   6   7
ENDBRANCH   5   6
ENDBRANCH   4   5
ENDBRANCH   3   4
ENDBRANCH   2   3
ENDBRANCH   1   2
BRANCH   1  30
ATOM     30  C   UNL A   1      37.032  31.740  39.438  1.00  0.00     0.188 C 
BRANCH  30  31
ATOM     31  C   UNL A   1      36.994  33.039  40.278  1.00  0.00     0.188 C 
BRANCH  31  32
ATOM     32  O   UNL A   1      38.178  33.311  41.009  1.00  0.00    -0.376 OA
BRANCH  32  33
ATOM     33  C   UNL A   1      39.271  33.886  40.315  1.00  0.00     0.202 C 
BRANCH  33  34
ATOM     34  C   UNL A   1      39.288  35.415  40.189  1.00  0.00     0.261 C 
BRANCH  34  35
ATOM     35  O   UNL A   1      39.287  35.939  38.852  1.00  0.00    -0.460 OA
BRANCH  35  36
ATOM     36  C   UNL A   1      40.369  36.641  38.458  1.00  0.00     0.338 C 
ATOM     37  O   UNL A   1      40.905  37.566  39.044  1.00  0.00    -0.246 OA
BRANCH  36  38
ATOM     38  C   UNL A   1      40.927  35.964  37.271  1.00  0.00     0.060 A 
ATOM     39  C   UNL A   1      40.058  35.510  36.269  1.00  0.00     0.016 A 
ATOM     40  C   UNL A   1      42.309  35.809  37.133  1.00  0.00     0.016 A 
ATOM     41  C   UNL A   1      40.570  34.876  35.137  1.00  0.00     0.010 A 
ATOM     42  C   UNL A   1      42.818  35.150  36.012  1.00  0.00     0.010 A 
ATOM     43  C   UNL A   1      41.948  34.654  35.025  1.00  0.00    -0.014 A 
BRANCH  43  44
ATOM     44  C   UNL A   1      42.459  33.738  33.977  1.00  0.00     0.031 A 
ATOM     45  C   UNL A   1      42.780  34.312  32.625  1.00  0.00     0.074 A 
ATOM     46  C   UNL A   1      42.654  32.431  34.223  1.00  0.00     0.049 A 
ATOM     47  N   UNL A   1      43.199  33.711  31.542  1.00  0.00    -0.248 NA
ATOM     48  C   UNL A   1      42.599  35.766  32.477  1.00  0.00     0.031 C 
ATOM     49  C   UNL A   1      42.416  31.768  35.501  1.00  0.00     0.029 A 
ATOM     50  N   UNL A   1      43.091  31.427  33.394  1.00  0.00    -0.354 N 
ATOM     51  C   UNL A   1      43.323  34.709  30.584  1.00  0.00     0.074 A 
ATOM     52  C   UNL A   1      42.904  35.947  31.202  1.00  0.00     0.031 C 
ATOM     53  C   UNL A   1      42.697  30.459  35.369  1.00  0.00     0.029 A 
ATOM     54  C   UNL A   1      43.100  30.190  33.989  1.00  0.00     0.049 A 
ATOM     55  H   UNL A   1      43.370  31.580  32.463  1.00  0.00     0.167 HD
ATOM     56  C   UNL A   1      43.755  34.601  29.305  1.00  0.00     0.037 A 
ATOM     57  C   UNL A   1      43.378  28.979  33.468  1.00  0.00     0.037 A 
ATOM     58  C   UNL A   1      44.166  33.365  28.694  1.00  0.00     0.049 A 
ATOM     59  C   UNL A   1      43.786  28.873  32.019  1.00  0.00     0.074 A 
ATOM     60  C   UNL A   1      44.645  33.153  27.413  1.00  0.00     0.029 A 
ATOM     61  N   UNL A   1      44.132  32.126  29.317  1.00  0.00    -0.354 N 
ATOM     62  N   UNL A   1      43.936  29.823  31.128  1.00  0.00    -0.248 NA
ATOM     63  C   UNL A   1      44.068  27.525  31.506  1.00  0.00     0.031 C 
ATOM     64  C   UNL A   1      44.835  31.778  27.240  1.00  0.00     0.029 A 
ATOM     65  C   UNL A   1      44.546  31.140  28.436  1.00  0.00     0.049 A 
ATOM     66  H   UNL A   1      43.854  31.970  30.249  1.00  0.00     0.167 HD
ATOM     67  C   UNL A   1      44.357  29.194  29.962  1.00  0.00     0.074 A 
ATOM     68  C   UNL A   1      44.454  27.782  30.264  1.00  0.00     0.031 C 
ATOM     69  C   UNL A   1      44.640  29.736  28.751  1.00  0.00     0.037 A 
BRANCH  56  70
ATOM     70  C   UNL A   1      43.766  35.849  28.470  1.00  0.00     0.064 A 
ATOM     71  C   UNL A   1      42.603  36.349  27.865  1.00  0.00     0.173 A 
ATOM     72  C   UNL A   1      44.958  36.571  28.296  1.00  0.00     0.173 A 
ATOM     73  F   UNL A   1      41.441  35.690  27.987  1.00  0.00    -0.203 F 
ATOM     74  C   UNL A   1      42.639  37.507  27.091  1.00  0.00     0.198 A 
ATOM     75  C   UNL A   1      44.983  37.746  27.550  1.00  0.00     0.198 A 
ATOM     76  F   UNL A   1      46.098  36.139  28.853  1.00  0.00    -0.203 F 
ATOM     77  F   UNL A   1      41.528  37.934  26.476  1.00  0.00    -0.200 F 
ATOM     78  C   UNL A   1      43.826  38.208  26.940  1.00  0.00     0.200 A 
ATOM     79  F   UNL A   1      46.128  38.429  27.417  1.00  0.00    -0.200 F 
ATOM     80  F   UNL A   1      43.857  39.324  26.201  1.00  0.00    -0.200 F 
ENDBRANCH  56  70
BRANCH  57  81
ATOM     81  C   UNL A   1      43.265  27.761  34.316  1.00  0.00     0.064 A 
ATOM     82  C   UNL A   1      42.047  27.083  34.454  1.00  0.00     0.173 A 
ATOM     83  C   UNL A   1      44.372  27.263  35.020  1.00  0.00     0.173 A 
ATOM     84  F   UNL A   1      40.953  27.535  33.824  1.00  0.00    -0.203 F 
ATOM     85  C   UNL A   1      41.935  25.964  35.279  1.00  0.00     0.198 A 
ATOM     86  C   UNL A   1      44.266  26.126  35.818  1.00  0.00     0.198 A 
ATOM     87  F   UNL A   1      45.561  27.877  34.926  1.00  0.00    -0.203 F 
ATOM     88  F   UNL A   1      40.747  25.365  35.432  1.00  0.00    -0.200 F 
ATOM     89  C   UNL A   1      43.047  25.482  35.954  1.00  0.00     0.200 A 
ATOM     90  F   UNL A   1      45.346  25.657  36.457  1.00  0.00    -0.200 F 
ATOM     91  F   UNL A   1      42.939  24.403  36.742  1.00  0.00    -0.200 F 
ENDBRANCH  57  81
BRANCH  69  92
ATOM     92  C   UNL A   1      45.118  28.807  27.669  1.00  0.00     0.064 A 
ATOM     93  C   UNL A   1      44.253  28.304  26.687  1.00  0.00     0.173 A 
ATOM     94  C   UNL A   1      46.474  28.451  27.591  1.00  0.00     0.173 A 
ATOM     95  F   UNL A   1      42.945  28.604  26.721  1.00  0.00    -0.203 F 
ATOM     96  C   UNL A   1      44.719  27.453  25.688  1.00  0.00     0.198 A 
ATOM     97  C   UNL A   1      46.943  27.629  26.570  1.00  0.00     0.198 A 
ATOM     98  F   UNL A   1      47.349  28.911  28.497  1.00  0.00    -0.203 F 
ATOM     99  F   UNL A   1      43.862  26.940  24.794  1.00  0.00    -0.200 F 
ATOM    100  C   UNL A   1      46.065  27.123  25.625  1.00  0.00     0.200 A 
ATOM    101  F   UNL A   1      48.248  27.328  26.500  1.00  0.00    -0.200 F 
ATOM    102  F   UNL A   1      46.512  26.311  24.658  1.00  0.00    -0.200 F 
ENDBRANCH  69  92
ENDBRANCH  43  44
ENDBRANCH  36  38
ENDBRANCH  35  36
ENDBRANCH  34  35
ENDBRANCH  33  34
ENDBRANCH  32  33
ENDBRANCH  31  32
ENDBRANCH  30  31
ENDBRANCH   1  30
TORSDOF 24
ENDMDL
MODEL 3
REMARK VINA RESULT:      -9.0      5.480      9.685
REMARK SMILES CS(=O)(=O)c1ccc(/C=C(/C(=O)OCCOCCOCCOCCOC(=O)c2ccc(-c3c4nc(c(-c5c(F)c(F)c(F)c(F)c5F)c5ccc([nH]5)c(-c5c(F)c(F)c(F)c(F)c5F)c5nc(c(-c6c(F)c(F)c(F)c(F)c6F)c6ccc3[nH]6)C=C5)C=C4)cc2)c2ccc(O)cc2)cc1
REMARK SMILES IDX 19 1 18 2 17 3 16 4 15 5 14 6 13 7 11 8 12 9 10 10 9 11 8 12
REMARK SMILES IDX 5 13 6 14 99 15 7 16 98 17 2 18 1 19 3 20 4 21 91 22 92 23
REMARK SMILES IDX 97 24 93 25 96 26 94 27 95 28 20 30 21 31 22 32 23 33 24 34
REMARK SMILES IDX 25 35 26 36 27 37 28 38 29 39 90 40 30 41 89 42 31 43 32 44
REMARK SMILES IDX 33 45 83 46 34 47 88 48 82 49 84 50 35 51 87 52 81 53 80 54
REMARK SMILES IDX 36 56 68 57 48 58 67 59 49 60 52 61 66 62 85 63 50 64 51 65
REMARK SMILES IDX 65 67 86 68 53 69 37 70 38 71 46 72 39 73 40 74 44 75 47 76
REMARK SMILES IDX 41 77 42 78 45 79 43 80 69 81 70 82 78 83 71 84 72 85 76 86
REMARK SMILES IDX 79 87 73 88 74 89 77 90 75 91 54 92 55 93 63 94 56 95 57 96
REMARK SMILES IDX 61 97 64 98 58 99 59 100 62 101 60 102
REMARK H PARENT 95 29 84 55 52 66
REMARK Flexibility Score: inf
ROOT
ATOM      1  O   UNL A   1      34.016  31.546  28.079  1.00  0.00    -0.377 OA
ENDROOT
BRANCH   1   2
ATOM      2  C   UNL A   1      34.419  30.276  27.589  1.00  0.00     0.188 C 
BRANCH   2   3
ATOM      3  C   UNL A   1      33.690  29.674  26.364  1.00  0.00     0.188 C 
BRANCH   3   4
ATOM      4  O   UNL A   1      32.324  29.377  26.602  1.00  0.00    -0.376 OA
BRANCH   4   5
ATOM      5  C   UNL A   1      31.737  28.360  25.811  1.00  0.00     0.202 C 
BRANCH   5   6
ATOM      6  C   UNL A   1      32.665  27.256  25.279  1.00  0.00     0.261 C 
BRANCH   6   7
ATOM      7  O   UNL A   1      32.074  26.337  24.346  1.00  0.00    -0.460 OA
BRANCH   7   8
ATOM      8  C   UNL A   1      32.896  25.746  23.444  1.00  0.00     0.338 C 
ATOM      9  O   UNL A   1      33.442  26.319  22.513  1.00  0.00    -0.246 OA
BRANCH   8  10
ATOM     10  C   UNL A   1      33.162  24.316  23.829  1.00  0.00     0.067 C 
ATOM     11  C   UNL A   1      32.116  23.452  23.887  1.00  0.00     0.024 C 
BRANCH  11  12
ATOM     12  C   UNL A   1      32.128  21.974  24.020  1.00  0.00    -0.025 A 
ATOM     13  C   UNL A   1      32.767  19.245  24.032  1.00  0.00     0.067 A 
ATOM     14  C   UNL A   1      32.669  19.937  25.237  1.00  0.00     0.021 A 
ATOM     15  C   UNL A   1      32.418  19.865  22.832  1.00  0.00     0.021 A 
ATOM     16  C   UNL A   1      32.301  21.283  25.225  1.00  0.00     0.009 A 
ATOM     17  C   UNL A   1      32.092  21.224  22.833  1.00  0.00     0.009 A 
BRANCH  13  18
ATOM     18  S   UNL A   1      33.510  17.634  24.009  1.00  0.00     0.175 S 
ATOM     19  C   UNL A   1      32.732  16.790  25.353  1.00  0.00     0.163 C 
ATOM     20  O   UNL A   1      34.915  17.798  24.331  1.00  0.00    -0.224 OA
ATOM     21  O   UNL A   1      33.106  16.989  22.774  1.00  0.00    -0.224 OA
ENDBRANCH  13  18
ENDBRANCH  11  12
BRANCH  10  22
ATOM     22  C   UNL A   1      34.559  23.922  24.107  1.00  0.00    -0.011 A 
ATOM     23  C   UNL A   1      35.106  24.136  25.387  1.00  0.00     0.013 A 
ATOM     24  C   UNL A   1      35.316  23.224  23.160  1.00  0.00     0.013 A 
ATOM     25  C   UNL A   1      36.367  23.648  25.721  1.00  0.00     0.047 A 
ATOM     26  C   UNL A   1      36.574  22.715  23.502  1.00  0.00     0.047 A 
ATOM     27  C   UNL A   1      37.084  22.925  24.781  1.00  0.00     0.115 A 
BRANCH  27  28
ATOM     28  O   UNL A   1      38.283  22.410  25.168  1.00  0.00    -0.508 OA
ATOM     29  H   UNL A   1      39.079  22.833  24.911  1.00  0.00     0.293 HD
ENDBRANCH  27  28
ENDBRANCH  10  22
ENDBRANCH   8  10
ENDBRANCH   7   8
ENDBRANCH   6   7
ENDBRANCH   5   6
ENDBRANCH   4   5
ENDBRANCH   3   4
ENDBRANCH   2   3
ENDBRANCH   1   2
BRANCH   1  30
ATOM     30  C   UNL A   1      34.912  32.294  28.892  1.00  0.00     0.188 C 
BRANCH  30  31
ATOM     31  C   UNL A   1      34.446  33.593  29.592  1.00  0.00     0.188 C 
BRANCH  31  32
ATOM     32  O   UNL A   1      35.149  33.914  30.781  1.00  0.00    -0.376 OA
BRANCH  32  33
ATOM     33  C   UNL A   1      36.454  33.389  30.945  1.00  0.00     0.202 C 
BRANCH  33  34
ATOM     34  C   UNL A   1      36.802  32.809  32.322  1.00  0.00     0.261 C 
BRANCH  34  35
ATOM     35  O   UNL A   1      38.085  32.173  32.435  1.00  0.00    -0.460 OA
BRANCH  35  36
ATOM     36  C   UNL A   1      38.331  31.462  33.554  1.00  0.00     0.338 C 
ATOM     37  O   UNL A   1      37.588  31.301  34.508  1.00  0.00    -0.246 OA
BRANCH  36  38
ATOM     38  C   UNL A   1      39.598  30.734  33.347  1.00  0.00     0.060 A 
ATOM     39  C   UNL A   1      39.583  29.333  33.285  1.00  0.00     0.016 A 
ATOM     40  C   UNL A   1      40.795  31.436  33.181  1.00  0.00     0.016 A 
ATOM     41  C   UNL A   1      40.769  28.630  33.081  1.00  0.00     0.010 A 
ATOM     42  C   UNL A   1      41.986  30.730  33.004  1.00  0.00     0.010 A 
ATOM     43  C   UNL A   1      41.982  29.324  32.983  1.00  0.00    -0.014 A 
BRANCH  43  44
ATOM     44  C   UNL A   1      43.260  28.577  33.056  1.00  0.00     0.031 A 
ATOM     45  C   UNL A   1      43.840  28.289  34.412  1.00  0.00     0.074 A 
ATOM     46  C   UNL A   1      43.884  28.145  31.946  1.00  0.00     0.049 A 
ATOM     47  N   UNL A   1      44.959  27.692  34.732  1.00  0.00    -0.248 NA
ATOM     48  C   UNL A   1      43.048  28.742  35.568  1.00  0.00     0.031 C 
ATOM     49  C   UNL A   1      43.402  28.329  30.581  1.00  0.00     0.029 A 
ATOM     50  N   UNL A   1      45.069  27.467  31.800  1.00  0.00    -0.354 N 
ATOM     51  C   UNL A   1      45.008  27.704  36.120  1.00  0.00     0.074 A 
ATOM     52  C   UNL A   1      43.825  28.397  36.581  1.00  0.00     0.031 C 
ATOM     53  C   UNL A   1      44.293  27.789  29.730  1.00  0.00     0.029 A 
ATOM     54  C   UNL A   1      45.421  27.253  30.491  1.00  0.00     0.049 A 
ATOM     55  H   UNL A   1      45.615  27.164  32.562  1.00  0.00     0.167 HD
ATOM     56  C   UNL A   1      45.952  27.179  36.936  1.00  0.00     0.037 A 
ATOM     57  C   UNL A   1      46.539  26.710  29.971  1.00  0.00     0.037 A 
ATOM     58  C   UNL A   1      47.130  26.495  36.471  1.00  0.00     0.049 A 
ATOM     59  C   UNL A   1      47.613  26.197  30.898  1.00  0.00     0.074 A 
ATOM     60  C   UNL A   1      48.135  25.903  37.216  1.00  0.00     0.029 A 
ATOM     61  N   UNL A   1      47.469  26.325  35.136  1.00  0.00    -0.354 N 
ATOM     62  N   UNL A   1      47.639  26.179  32.209  1.00  0.00    -0.248 NA
ATOM     63  C   UNL A   1      48.813  25.623  30.271  1.00  0.00     0.031 C 
ATOM     64  C   UNL A   1      49.114  25.435  36.334  1.00  0.00     0.029 A 
ATOM     65  C   UNL A   1      48.686  25.669  35.037  1.00  0.00     0.049 A 
ATOM     66  H   UNL A   1      46.925  26.626  34.372  1.00  0.00     0.167 HD
ATOM     67  C   UNL A   1      48.836  25.569  32.563  1.00  0.00     0.074 A 
ATOM     68  C   UNL A   1      49.503  25.216  31.327  1.00  0.00     0.031 C 
ATOM     69  C   UNL A   1      49.338  25.322  33.798  1.00  0.00     0.037 A 
BRANCH  56  70
ATOM     70  C   UNL A   1      45.768  27.360  38.415  1.00  0.00     0.064 A 
ATOM     71  C   UNL A   1      46.268  28.480  39.095  1.00  0.00     0.173 A 
ATOM     72  C   UNL A   1      45.056  26.406  39.160  1.00  0.00     0.173 A 
ATOM     73  F   UNL A   1      46.970  29.414  38.435  1.00  0.00    -0.203 F 
ATOM     74  C   UNL A   1      46.089  28.624  40.469  1.00  0.00     0.198 A 
ATOM     75  C   UNL A   1      44.850  26.570  40.526  1.00  0.00     0.198 A 
ATOM     76  F   UNL A   1      44.555  25.316  38.560  1.00  0.00    -0.203 F 
ATOM     77  F   UNL A   1      46.624  29.675  41.106  1.00  0.00    -0.200 F 
ATOM     78  C   UNL A   1      45.374  27.673  41.182  1.00  0.00     0.200 A 
ATOM     79  F   UNL A   1      44.146  25.658  41.210  1.00  0.00    -0.200 F 
ATOM     80  F   UNL A   1      45.197  27.817  42.502  1.00  0.00    -0.200 F 
ENDBRANCH  56  70
BRANCH  57  81
ATOM     81  C   UNL A   1      46.712  26.636  28.495  1.00  0.00     0.064 A 
ATOM     82  C   UNL A   1      47.283  27.694  27.775  1.00  0.00     0.173 A 
ATOM     83  C   UNL A   1      46.291  25.509  27.771  1.00  0.00     0.173 A 
ATOM     84  F   UNL A   1      47.677  28.804  28.417  1.00  0.00    -0.203 F 
ATOM     85  C   UNL A   1      47.410  27.636  26.388  1.00  0.00     0.198 A 
ATOM     86  C   UNL A   1      46.448  25.440  26.388  1.00  0.00     0.198 A 
ATOM     87  F   UNL A   1      45.734  24.470  28.409  1.00  0.00    -0.203 F 
ATOM     88  F   UNL A   1      47.913  28.684  25.721  1.00  0.00    -0.200 F 
ATOM     89  C   UNL A   1      46.999  26.507  25.696  1.00  0.00     0.200 A 
ATOM     90  F   UNL A   1      46.061  24.341  25.727  1.00  0.00    -0.200 F 
ATOM     91  F   UNL A   1      47.126  26.451  24.364  1.00  0.00    -0.200 F 
ENDBRANCH  57  81
BRANCH  69  92
ATOM     92  C   UNL A   1      50.656  24.602  33.881  1.00  0.00     0.064 A 
ATOM     93  C   UNL A   1      51.874  25.292  33.971  1.00  0.00     0.173 A 
ATOM     94  C   UNL A   1      50.695  23.199  33.913  1.00  0.00     0.173 A 
ATOM     95  F   UNL A   1      51.895  26.633  33.934  1.00  0.00    -0.203 F 
ATOM     96  C   UNL A   1      53.083  24.605  34.057  1.00  0.00     0.198 A 
ATOM     97  C   UNL A   1      51.903  22.516  34.035  1.00  0.00     0.198 A 
ATOM     98  F   UNL A   1      49.561  22.487  33.841  1.00  0.00    -0.203 F 
ATOM     99  F   UNL A   1      54.237  25.286  34.085  1.00  0.00    -0.200 F 
ATOM    100  C   UNL A   1      53.095  23.219  34.097  1.00  0.00     0.200 A 
ATOM    101  F   UNL A   1      51.910  21.177  34.094  1.00  0.00    -0.200 F 
ATOM    102  F   UNL A   1      54.259  22.560  34.188  1.00  0.00    -0.200 F 
ENDBRANCH  69  92
ENDBRANCH  43  44
ENDBRANCH  36  38
ENDBRANCH  35  36
ENDBRANCH  34  35
ENDBRANCH  33  34
ENDBRANCH  32  33
ENDBRANCH  31  32
ENDBRANCH  30  31
ENDBRANCH   1  30
TORSDOF 24
ENDMDL
