MODEL 1
REMARK VINA RESULT:      -8.9      0.000      0.000
REMARK SMILES O=C(CCCC[C@@H]1CCSS1)OCCOCCOCCOCCOC(=O)c1ccc(-c2c3nc(c(-c4c(F)c(F)c(F)c(F)c4F)c4ccc([nH]4)c(-c4c(F)c(F)c(F)c(F)c4F)c4nc(c(-c5c(F)c(F)c(F)c(F)c5F)c5ccc2[nH]5)C=C4)C=C3)cc1
REMARK SMILES IDX 17 1 16 2 15 3 14 4 13 5 12 6 2 7 1 8 3 9 4 10 5 11 6 12
REMARK SMILES IDX 7 13 8 14 11 15 9 16 10 17 18 18 19 19 20 20 21 21 22 22
REMARK SMILES IDX 23 23 24 24 25 25 26 26 27 27 28 28 89 29 29 30 88 31 30 32
REMARK SMILES IDX 31 33 32 34 82 35 33 36 87 37 81 38 83 39 34 40 86 41 80 42
REMARK SMILES IDX 79 43 35 45 67 46 47 47 66 48 48 49 51 50 65 51 84 52 49 53
REMARK SMILES IDX 50 54 64 56 85 57 52 58 36 59 37 60 45 61 38 62 39 63 43 64
REMARK SMILES IDX 46 65 40 66 41 67 44 68 42 69 68 70 69 71 77 72 70 73 71 74
REMARK SMILES IDX 75 75 78 76 72 77 73 78 76 79 74 80 53 81 54 82 62 83 55 84
REMARK SMILES IDX 56 85 60 86 63 87 57 88 58 89 61 90 59 91
REMARK H PARENT 83 44 51 55
REMARK Flexibility Score: inf
ROOT
ATOM      1  C   UNL A   1      38.614  23.635  26.496  1.00  0.00     0.188 C 
ENDROOT
BRANCH   1   2
ATOM      2  C   UNL A   1      37.653  22.737  25.728  1.00  0.00     0.188 C 
BRANCH   2   3
ATOM      3  O   UNL A   1      36.269  23.067  25.836  1.00  0.00    -0.376 OA
BRANCH   3   4
ATOM      4  C   UNL A   1      35.789  24.186  25.126  1.00  0.00     0.202 C 
BRANCH   4   5
ATOM      5  C   UNL A   1      34.283  24.125  24.951  1.00  0.00     0.261 C 
BRANCH   5   6
ATOM      6  O   UNL A   1      33.460  24.258  26.127  1.00  0.00    -0.463 OA
BRANCH   6   7
ATOM      7  C   UNL A   1      32.290  24.918  26.226  1.00  0.00     0.305 C 
ATOM      8  O   UNL A   1      31.587  24.733  27.221  1.00  0.00    -0.252 OA
BRANCH   7   9
ATOM      9  C   UNL A   1      31.866  25.936  25.178  1.00  0.00     0.123 C 
BRANCH   9  10
ATOM     10  C   UNL A   1      32.172  27.408  25.389  1.00  0.00     0.012 C 
BRANCH  10  11
ATOM     11  C   UNL A   1      31.055  28.431  25.170  1.00  0.00     0.002 C 
BRANCH  11  12
ATOM     12  C   UNL A   1      30.955  29.162  23.819  1.00  0.00     0.015 C 
BRANCH  12  13
ATOM     13  C   UNL A   1      29.577  29.666  23.341  1.00  0.00     0.059 C 
ATOM     14  C   UNL A   1      29.318  29.622  21.828  1.00  0.00     0.027 C 
ATOM     15  S   UNL A   1      29.270  31.363  23.943  1.00  0.00    -0.091 SA
ATOM     16  C   UNL A   1      28.199  30.570  21.413  1.00  0.00     0.083 C 
ATOM     17  S   UNL A   1      28.575  32.150  22.195  1.00  0.00    -0.094 SA
ENDBRANCH  12  13
ENDBRANCH  11  12
ENDBRANCH  10  11
ENDBRANCH   9  10
ENDBRANCH   7   9
ENDBRANCH   6   7
ENDBRANCH   5   6
ENDBRANCH   4   5
ENDBRANCH   3   4
ENDBRANCH   2   3
ENDBRANCH   1   2
BRANCH   1  18
ATOM     18  O   UNL A   1      39.718  23.040  27.173  1.00  0.00    -0.377 OA
BRANCH  18  19
ATOM     19  C   UNL A   1      40.155  21.733  26.842  1.00  0.00     0.188 C 
BRANCH  19  20
ATOM     20  C   UNL A   1      41.662  21.573  26.609  1.00  0.00     0.188 C 
BRANCH  20  21
ATOM     21  O   UNL A   1      42.211  22.101  25.415  1.00  0.00    -0.376 OA
BRANCH  21  22
ATOM     22  C   UNL A   1      43.595  21.895  25.151  1.00  0.00     0.202 C 
BRANCH  22  23
ATOM     23  C   UNL A   1      44.452  23.052  24.597  1.00  0.00     0.261 C 
BRANCH  23  24
ATOM     24  O   UNL A   1      43.793  24.335  24.578  1.00  0.00    -0.460 OA
BRANCH  24  25
ATOM     25  C   UNL A   1      44.462  25.377  25.131  1.00  0.00     0.338 C 
ATOM     26  O   UNL A   1      45.544  25.816  24.798  1.00  0.00    -0.246 OA
BRANCH  25  27
ATOM     27  C   UNL A   1      43.600  26.063  26.122  1.00  0.00     0.060 A 
ATOM     28  C   UNL A   1      43.854  27.411  26.426  1.00  0.00     0.016 A 
ATOM     29  C   UNL A   1      42.612  25.365  26.813  1.00  0.00     0.016 A 
ATOM     30  C   UNL A   1      43.126  28.064  27.425  1.00  0.00     0.010 A 
ATOM     31  C   UNL A   1      41.913  26.005  27.842  1.00  0.00     0.010 A 
ATOM     32  C   UNL A   1      42.184  27.348  28.172  1.00  0.00    -0.014 A 
BRANCH  32  33
ATOM     33  C   UNL A   1      41.660  27.889  29.451  1.00  0.00     0.031 A 
ATOM     34  C   UNL A   1      40.387  28.686  29.403  1.00  0.00     0.074 A 
ATOM     35  C   UNL A   1      42.319  27.748  30.613  1.00  0.00     0.049 A 
ATOM     36  N   UNL A   1      39.829  29.431  30.321  1.00  0.00    -0.248 NA
ATOM     37  C   UNL A   1      39.653  28.646  28.129  1.00  0.00     0.031 C 
ATOM     38  C   UNL A   1      43.532  26.961  30.806  1.00  0.00     0.029 A 
ATOM     39  N   UNL A   1      42.074  28.305  31.846  1.00  0.00    -0.354 N 
ATOM     40  C   UNL A   1      38.699  29.975  29.725  1.00  0.00     0.074 A 
ATOM     41  C   UNL A   1      38.657  29.484  28.365  1.00  0.00     0.031 C 
ATOM     42  C   UNL A   1      43.956  27.123  32.072  1.00  0.00     0.029 A 
ATOM     43  C   UNL A   1      43.069  28.063  32.762  1.00  0.00     0.049 A 
ATOM     44  H   UNL A   1      41.265  28.826  32.053  1.00  0.00     0.167 HD
ATOM     45  C   UNL A   1      37.784  30.818  30.261  1.00  0.00     0.037 A 
ATOM     46  C   UNL A   1      43.266  28.581  33.991  1.00  0.00     0.037 A 
ATOM     47  C   UNL A   1      37.840  31.314  31.610  1.00  0.00     0.049 A 
ATOM     48  C   UNL A   1      42.277  29.574  34.551  1.00  0.00     0.074 A 
ATOM     49  C   UNL A   1      36.948  32.146  32.260  1.00  0.00     0.029 A 
ATOM     50  N   UNL A   1      38.861  31.040  32.509  1.00  0.00    -0.354 N 
ATOM     51  N   UNL A   1      41.195  30.068  33.998  1.00  0.00    -0.248 NA
ATOM     52  C   UNL A   1      42.537  30.083  35.907  1.00  0.00     0.031 C 
ATOM     53  C   UNL A   1      37.465  32.436  33.526  1.00  0.00     0.029 A 
ATOM     54  C   UNL A   1      38.640  31.718  33.696  1.00  0.00     0.049 A 
ATOM     55  H   UNL A   1      39.630  30.451  32.329  1.00  0.00     0.167 HD
ATOM     56  C   UNL A   1      40.630  30.917  34.944  1.00  0.00     0.074 A 
ATOM     57  C   UNL A   1      41.489  30.872  36.108  1.00  0.00     0.031 C 
ATOM     58  C   UNL A   1      39.497  31.658  34.855  1.00  0.00     0.037 A 
BRANCH  45  59
ATOM     59  C   UNL A   1      36.685  31.303  29.358  1.00  0.00     0.064 A 
ATOM     60  C   UNL A   1      36.627  32.628  28.898  1.00  0.00     0.173 A 
ATOM     61  C   UNL A   1      35.664  30.428  28.960  1.00  0.00     0.173 A 
ATOM     62  F   UNL A   1      37.571  33.512  29.259  1.00  0.00    -0.203 F 
ATOM     63  C   UNL A   1      35.561  33.070  28.117  1.00  0.00     0.198 A 
ATOM     64  C   UNL A   1      34.621  30.862  28.146  1.00  0.00     0.198 A 
ATOM     65  F   UNL A   1      35.672  29.148  29.364  1.00  0.00    -0.203 F 
ATOM     66  F   UNL A   1      35.487  34.357  27.754  1.00  0.00    -0.200 F 
ATOM     67  C   UNL A   1      34.563  32.185  27.738  1.00  0.00     0.200 A 
ATOM     68  F   UNL A   1      33.667  30.001  27.768  1.00  0.00    -0.200 F 
ATOM     69  F   UNL A   1      33.536  32.612  26.990  1.00  0.00    -0.200 F 
ENDBRANCH  45  59
BRANCH  46  70
ATOM     70  C   UNL A   1      44.480  28.195  34.761  1.00  0.00     0.064 A 
ATOM     71  C   UNL A   1      44.471  27.094  35.627  1.00  0.00     0.173 A 
ATOM     72  C   UNL A   1      45.679  28.913  34.632  1.00  0.00     0.173 A 
ATOM     73  F   UNL A   1      43.343  26.392  35.807  1.00  0.00    -0.203 F 
ATOM     74  C   UNL A   1      45.614  26.727  36.336  1.00  0.00     0.198 A 
ATOM     75  C   UNL A   1      46.828  28.528  35.318  1.00  0.00     0.198 A 
ATOM     76  F   UNL A   1      45.740  29.978  33.820  1.00  0.00    -0.203 F 
ATOM     77  F   UNL A   1      45.571  25.688  37.181  1.00  0.00    -0.200 F 
ATOM     78  C   UNL A   1      46.795  27.437  36.172  1.00  0.00     0.200 A 
ATOM     79  F   UNL A   1      47.970  29.208  35.146  1.00  0.00    -0.200 F 
ATOM     80  F   UNL A   1      47.898  27.071  36.840  1.00  0.00    -0.200 F 
ENDBRANCH  46  70
BRANCH  58  81
ATOM     81  C   UNL A   1      39.072  32.447  36.063  1.00  0.00     0.064 A 
ATOM     82  C   UNL A   1      38.269  31.893  37.069  1.00  0.00     0.173 A 
ATOM     83  C   UNL A   1      39.558  33.751  36.255  1.00  0.00     0.173 A 
ATOM     84  F   UNL A   1      37.769  30.656  36.932  1.00  0.00    -0.203 F 
ATOM     85  C   UNL A   1      37.959  32.620  38.218  1.00  0.00     0.198 A 
ATOM     86  C   UNL A   1      39.273  34.461  37.418  1.00  0.00     0.198 A 
ATOM     87  F   UNL A   1      40.337  34.326  35.327  1.00  0.00    -0.203 F 
ATOM     88  F   UNL A   1      37.163  32.083  39.153  1.00  0.00    -0.200 F 
ATOM     89  C   UNL A   1      38.472  33.896  38.396  1.00  0.00     0.200 A 
ATOM     90  F   UNL A   1      39.786  35.686  37.595  1.00  0.00    -0.200 F 
ATOM     91  F   UNL A   1      38.190  34.584  39.513  1.00  0.00    -0.200 F 
ENDBRANCH  58  81
ENDBRANCH  32  33
ENDBRANCH  25  27
ENDBRANCH  24  25
ENDBRANCH  23  24
ENDBRANCH  22  23
ENDBRANCH  21  22
ENDBRANCH  20  21
ENDBRANCH  19  20
ENDBRANCH  18  19
ENDBRANCH   1  18
TORSDOF 24
ENDMDL
MODEL 2
REMARK VINA RESULT:      -8.7      4.759      9.397
REMARK SMILES O=C(CCCC[C@@H]1CCSS1)OCCOCCOCCOCCOC(=O)c1ccc(-c2c3nc(c(-c4c(F)c(F)c(F)c(F)c4F)c4ccc([nH]4)c(-c4c(F)c(F)c(F)c(F)c4F)c4nc(c(-c5c(F)c(F)c(F)c(F)c5F)c5ccc2[nH]5)C=C4)C=C3)cc1
REMARK SMILES IDX 17 1 16 2 15 3 14 4 13 5 12 6 2 7 1 8 3 9 4 10 5 11 6 12
REMARK SMILES IDX 7 13 8 14 11 15 9 16 10 17 18 18 19 19 20 20 21 21 22 22
REMARK SMILES IDX 23 23 24 24 25 25 26 26 27 27 28 28 89 29 29 30 88 31 30 32
REMARK SMILES IDX 31 33 32 34 82 35 33 36 87 37 81 38 83 39 34 40 86 41 80 42
REMARK SMILES IDX 79 43 35 45 67 46 47 47 66 48 48 49 51 50 65 51 84 52 49 53
REMARK SMILES IDX 50 54 64 56 85 57 52 58 36 59 37 60 45 61 38 62 39 63 43 64
REMARK SMILES IDX 46 65 40 66 41 67 44 68 42 69 68 70 69 71 77 72 70 73 71 74
REMARK SMILES IDX 75 75 78 76 72 77 73 78 76 79 74 80 53 81 54 82 62 83 55 84
REMARK SMILES IDX 56 85 60 86 63 87 57 88 58 89 61 90 59 91
REMARK H PARENT 83 44 51 55
REMARK Flexibility Score: inf
ROOT
ATOM      1  C   UNL A   1      35.427  24.305  25.500  1.00  0.00     0.188 C 
ENDROOT
BRANCH   1   2
ATOM      2  C   UNL A   1      33.946  24.171  25.168  1.00  0.00     0.188 C 
BRANCH   2   3
ATOM      3  O   UNL A   1      33.501  22.861  24.817  1.00  0.00    -0.376 OA
BRANCH   3   4
ATOM      4  C   UNL A   1      32.574  22.729  23.764  1.00  0.00     0.202 C 
BRANCH   4   5
ATOM      5  C   UNL A   1      31.319  23.542  24.027  1.00  0.00     0.261 C 
BRANCH   5   6
ATOM      6  O   UNL A   1      30.887  24.465  23.008  1.00  0.00    -0.463 OA
BRANCH   6   7
ATOM      7  C   UNL A   1      31.400  25.684  22.750  1.00  0.00     0.305 C 
ATOM      8  O   UNL A   1      31.712  25.963  21.591  1.00  0.00    -0.252 OA
BRANCH   7   9
ATOM      9  C   UNL A   1      31.525  26.736  23.841  1.00  0.00     0.123 C 
BRANCH   9  10
ATOM     10  C   UNL A   1      30.432  27.777  24.014  1.00  0.00     0.012 C 
BRANCH  10  11
ATOM     11  C   UNL A   1      29.040  27.484  23.451  1.00  0.00     0.002 C 
BRANCH  11  12
ATOM     12  C   UNL A   1      28.070  28.650  23.191  1.00  0.00     0.015 C 
BRANCH  12  13
ATOM     13  C   UNL A   1      28.640  30.073  23.020  1.00  0.00     0.059 C 
ATOM     14  C   UNL A   1      27.836  31.215  23.658  1.00  0.00     0.027 C 
ATOM     15  S   UNL A   1      28.902  30.452  21.252  1.00  0.00    -0.091 SA
ATOM     16  C   UNL A   1      28.169  32.566  23.033  1.00  0.00     0.083 C 
ATOM     17  S   UNL A   1      28.081  32.319  21.249  1.00  0.00    -0.094 SA
ENDBRANCH  12  13
ENDBRANCH  11  12
ENDBRANCH  10  11
ENDBRANCH   9  10
ENDBRANCH   7   9
ENDBRANCH   6   7
ENDBRANCH   5   6
ENDBRANCH   4   5
ENDBRANCH   3   4
ENDBRANCH   2   3
ENDBRANCH   1   2
BRANCH   1  18
ATOM     18  O   UNL A   1      36.253  23.144  25.433  1.00  0.00    -0.377 OA
BRANCH  18  19
ATOM     19  C   UNL A   1      37.597  23.181  25.882  1.00  0.00     0.188 C 
BRANCH  19  20
ATOM     20  C   UNL A   1      38.393  21.883  25.709  1.00  0.00     0.188 C 
BRANCH  20  21
ATOM     21  O   UNL A   1      37.777  20.811  25.016  1.00  0.00    -0.376 OA
BRANCH  21  22
ATOM     22  C   UNL A   1      38.407  19.534  25.037  1.00  0.00     0.202 C 
BRANCH  22  23
ATOM     23  C   UNL A   1      39.593  19.278  25.989  1.00  0.00     0.261 C 
BRANCH  23  24
ATOM     24  O   UNL A   1      40.890  19.312  25.359  1.00  0.00    -0.460 OA
BRANCH  24  25
ATOM     25  C   UNL A   1      41.971  19.223  26.174  1.00  0.00     0.338 C 
ATOM     26  O   UNL A   1      42.479  18.211  26.613  1.00  0.00    -0.246 OA
BRANCH  25  27
ATOM     27  C   UNL A   1      42.597  20.557  26.332  1.00  0.00     0.060 A 
ATOM     28  C   UNL A   1      42.649  21.134  27.611  1.00  0.00     0.016 A 
ATOM     29  C   UNL A   1      43.042  21.272  25.223  1.00  0.00     0.016 A 
ATOM     30  C   UNL A   1      43.142  22.431  27.786  1.00  0.00     0.010 A 
ATOM     31  C   UNL A   1      43.497  22.585  25.391  1.00  0.00     0.010 A 
ATOM     32  C   UNL A   1      43.523  23.181  26.668  1.00  0.00    -0.014 A 
BRANCH  32  33
ATOM     33  C   UNL A   1      43.706  24.650  26.767  1.00  0.00     0.031 A 
ATOM     34  C   UNL A   1      45.085  25.200  26.536  1.00  0.00     0.074 A 
ATOM     35  C   UNL A   1      42.706  25.476  27.119  1.00  0.00     0.049 A 
ATOM     36  N   UNL A   1      45.559  26.399  26.758  1.00  0.00    -0.248 NA
ATOM     37  C   UNL A   1      46.071  24.251  25.995  1.00  0.00     0.031 C 
ATOM     38  C   UNL A   1      41.316  25.081  27.321  1.00  0.00     0.029 A 
ATOM     39  N   UNL A   1      42.725  26.819  27.410  1.00  0.00    -0.354 N 
ATOM     40  C   UNL A   1      46.903  26.339  26.416  1.00  0.00     0.074 A 
ATOM     41  C   UNL A   1      47.172  24.984  25.985  1.00  0.00     0.031 C 
ATOM     42  C   UNL A   1      40.621  26.149  27.751  1.00  0.00     0.029 A 
ATOM     43  C   UNL A   1      41.529  27.288  27.899  1.00  0.00     0.049 A 
ATOM     44  H   UNL A   1      43.517  27.390  27.281  1.00  0.00     0.167 HD
ATOM     45  C   UNL A   1      47.833  27.322  26.470  1.00  0.00     0.037 A 
ATOM     46  C   UNL A   1      41.221  28.480  28.451  1.00  0.00     0.037 A 
ATOM     47  C   UNL A   1      47.561  28.663  26.915  1.00  0.00     0.049 A 
ATOM     48  C   UNL A   1      42.284  29.545  28.569  1.00  0.00     0.074 A 
ATOM     49  C   UNL A   1      48.423  29.742  26.977  1.00  0.00     0.029 A 
ATOM     50  N   UNL A   1      46.336  29.100  27.397  1.00  0.00    -0.354 N 
ATOM     51  N   UNL A   1      43.548  29.497  28.222  1.00  0.00    -0.248 NA
ATOM     52  C   UNL A   1      41.877  30.831  29.157  1.00  0.00     0.031 C 
ATOM     53  C   UNL A   1      47.741  30.811  27.566  1.00  0.00     0.029 A 
ATOM     54  C   UNL A   1      46.429  30.423  27.794  1.00  0.00     0.049 A 
ATOM     55  H   UNL A   1      45.520  28.550  27.449  1.00  0.00     0.167 HD
ATOM     56  C   UNL A   1      44.078  30.749  28.519  1.00  0.00     0.074 A 
ATOM     57  C   UNL A   1      42.999  31.536  29.075  1.00  0.00     0.031 C 
ATOM     58  C   UNL A   1      45.343  31.203  28.337  1.00  0.00     0.037 A 
BRANCH  45  59
ATOM     59  C   UNL A   1      49.242  26.956  26.097  1.00  0.00     0.064 A 
ATOM     60  C   UNL A   1      49.729  27.100  24.789  1.00  0.00     0.173 A 
ATOM     61  C   UNL A   1      50.113  26.436  27.065  1.00  0.00     0.173 A 
ATOM     62  F   UNL A   1      48.934  27.580  23.819  1.00  0.00    -0.203 F 
ATOM     63  C   UNL A   1      51.018  26.690  24.454  1.00  0.00     0.198 A 
ATOM     64  C   UNL A   1      51.414  26.064  26.737  1.00  0.00     0.198 A 
ATOM     65  F   UNL A   1      49.703  26.282  28.334  1.00  0.00    -0.203 F 
ATOM     66  F   UNL A   1      51.435  26.766  23.184  1.00  0.00    -0.200 F 
ATOM     67  C   UNL A   1      51.860  26.177  25.430  1.00  0.00     0.200 A 
ATOM     68  F   UNL A   1      52.231  25.585  27.684  1.00  0.00    -0.200 F 
ATOM     69  F   UNL A   1      53.098  25.779  25.106  1.00  0.00    -0.200 F 
ENDBRANCH  45  59
BRANCH  46  70
ATOM     70  C   UNL A   1      39.846  28.711  28.970  1.00  0.00     0.064 A 
ATOM     71  C   UNL A   1      39.506  28.395  30.292  1.00  0.00     0.173 A 
ATOM     72  C   UNL A   1      38.848  29.270  28.157  1.00  0.00     0.173 A 
ATOM     73  F   UNL A   1      40.416  27.832  31.101  1.00  0.00    -0.203 F 
ATOM     74  C   UNL A   1      38.221  28.626  30.780  1.00  0.00     0.198 A 
ATOM     75  C   UNL A   1      37.573  29.528  28.654  1.00  0.00     0.198 A 
ATOM     76  F   UNL A   1      39.120  29.587  26.883  1.00  0.00    -0.203 F 
ATOM     77  F   UNL A   1      37.913  28.285  32.039  1.00  0.00    -0.200 F 
ATOM     78  C   UNL A   1      37.259  29.203  29.964  1.00  0.00     0.200 A 
ATOM     79  F   UNL A   1      36.651  30.099  27.867  1.00  0.00    -0.200 F 
ATOM     80  F   UNL A   1      36.029  29.442  30.441  1.00  0.00    -0.200 F 
ENDBRANCH  46  70
BRANCH  58  81
ATOM     81  C   UNL A   1      45.636  32.637  28.686  1.00  0.00     0.064 A 
ATOM     82  C   UNL A   1      45.445  33.680  27.771  1.00  0.00     0.173 A 
ATOM     83  C   UNL A   1      46.028  32.974  29.992  1.00  0.00     0.173 A 
ATOM     84  F   UNL A   1      45.082  33.413  26.507  1.00  0.00    -0.203 F 
ATOM     85  C   UNL A   1      45.644  35.008  28.146  1.00  0.00     0.198 A 
ATOM     86  C   UNL A   1      46.195  34.303  30.373  1.00  0.00     0.198 A 
ATOM     87  F   UNL A   1      46.218  32.014  30.910  1.00  0.00    -0.203 F 
ATOM     88  F   UNL A   1      45.487  35.988  27.246  1.00  0.00    -0.200 F 
ATOM     89  C   UNL A   1      46.007  35.317  29.449  1.00  0.00     0.200 A 
ATOM     90  F   UNL A   1      46.526  34.599  31.637  1.00  0.00    -0.200 F 
ATOM     91  F   UNL A   1      46.176  36.597  29.813  1.00  0.00    -0.200 F 
ENDBRANCH  58  81
ENDBRANCH  32  33
ENDBRANCH  25  27
ENDBRANCH  24  25
ENDBRANCH  23  24
ENDBRANCH  22  23
ENDBRANCH  21  22
ENDBRANCH  20  21
ENDBRANCH  19  20
ENDBRANCH  18  19
ENDBRANCH   1  18
TORSDOF 24
ENDMDL
MODEL 3
REMARK VINA RESULT:      -8.6      4.967      9.858
REMARK SMILES O=C(CCCC[C@@H]1CCSS1)OCCOCCOCCOCCOC(=O)c1ccc(-c2c3nc(c(-c4c(F)c(F)c(F)c(F)c4F)c4ccc([nH]4)c(-c4c(F)c(F)c(F)c(F)c4F)c4nc(c(-c5c(F)c(F)c(F)c(F)c5F)c5ccc2[nH]5)C=C4)C=C3)cc1
REMARK SMILES IDX 17 1 16 2 15 3 14 4 13 5 12 6 2 7 1 8 3 9 4 10 5 11 6 12
REMARK SMILES IDX 7 13 8 14 11 15 9 16 10 17 18 18 19 19 20 20 21 21 22 22
REMARK SMILES IDX 23 23 24 24 25 25 26 26 27 27 28 28 89 29 29 30 88 31 30 32
REMARK SMILES IDX 31 33 32 34 82 35 33 36 87 37 81 38 83 39 34 40 86 41 80 42
REMARK SMILES IDX 79 43 35 45 67 46 47 47 66 48 48 49 51 50 65 51 84 52 49 53
REMARK SMILES IDX 50 54 64 56 85 57 52 58 36 59 37 60 45 61 38 62 39 63 43 64
REMARK SMILES IDX 46 65 40 66 41 67 44 68 42 69 68 70 69 71 77 72 70 73 71 74
REMARK SMILES IDX 75 75 78 76 72 77 73 78 76 79 74 80 53 81 54 82 62 83 55 84
REMARK SMILES IDX 56 85 60 86 63 87 57 88 58 89 61 90 59 91
REMARK H PARENT 83 44 51 55
REMARK Flexibility Score: inf
ROOT
ATOM      1  C   UNL A   1      35.263  23.328  23.770  1.00  0.00     0.188 C 
ENDROOT
BRANCH   1   2
ATOM      2  C   UNL A   1      33.938  23.911  23.294  1.00  0.00     0.188 C 
BRANCH   2   3
ATOM      3  O   UNL A   1      34.030  25.038  22.423  1.00  0.00    -0.376 OA
BRANCH   3   4
ATOM      4  C   UNL A   1      33.152  26.120  22.634  1.00  0.00     0.202 C 
BRANCH   4   5
ATOM      5  C   UNL A   1      33.678  27.058  23.706  1.00  0.00     0.261 C 
BRANCH   5   6
ATOM      6  O   UNL A   1      32.745  27.558  24.683  1.00  0.00    -0.463 OA
BRANCH   6   7
ATOM      7  C   UNL A   1      32.639  28.826  25.126  1.00  0.00     0.305 C 
ATOM      8  O   UNL A   1      31.732  29.534  24.685  1.00  0.00    -0.252 OA
BRANCH   7   9
ATOM      9  C   UNL A   1      33.562  29.365  26.207  1.00  0.00     0.123 C 
BRANCH   9  10
ATOM     10  C   UNL A   1      33.075  30.463  27.137  1.00  0.00     0.012 C 
BRANCH  10  11
ATOM     11  C   UNL A   1      34.096  31.193  28.013  1.00  0.00     0.002 C 
BRANCH  11  12
ATOM     12  C   UNL A   1      34.101  32.732  28.043  1.00  0.00     0.015 C 
BRANCH  12  13
ATOM     13  C   UNL A   1      35.080  33.458  28.988  1.00  0.00     0.059 C 
ATOM     14  C   UNL A   1      36.572  33.363  28.635  1.00  0.00     0.027 C 
ATOM     15  S   UNL A   1      34.845  32.898  30.711  1.00  0.00    -0.091 SA
ATOM     16  C   UNL A   1      37.462  33.649  29.839  1.00  0.00     0.083 C 
ATOM     17  S   UNL A   1      36.812  32.643  31.186  1.00  0.00    -0.094 SA
ENDBRANCH  12  13
ENDBRANCH  11  12
ENDBRANCH  10  11
ENDBRANCH   9  10
ENDBRANCH   7   9
ENDBRANCH   6   7
ENDBRANCH   5   6
ENDBRANCH   4   5
ENDBRANCH   3   4
ENDBRANCH   2   3
ENDBRANCH   1   2
BRANCH   1  18
ATOM     18  O   UNL A   1      35.372  21.916  23.936  1.00  0.00    -0.377 OA
BRANCH  18  19
ATOM     19  C   UNL A   1      35.886  21.362  25.135  1.00  0.00     0.188 C 
BRANCH  19  20
ATOM     20  C   UNL A   1      37.326  20.844  25.066  1.00  0.00     0.188 C 
BRANCH  20  21
ATOM     21  O   UNL A   1      38.375  21.748  25.368  1.00  0.00    -0.376 OA
BRANCH  21  22
ATOM     22  C   UNL A   1      39.549  21.244  25.998  1.00  0.00     0.202 C 
BRANCH  22  23
ATOM     23  C   UNL A   1      39.820  19.726  26.015  1.00  0.00     0.261 C 
BRANCH  23  24
ATOM     24  O   UNL A   1      41.036  19.323  25.353  1.00  0.00    -0.460 OA
BRANCH  24  25
ATOM     25  C   UNL A   1      42.140  19.181  26.128  1.00  0.00     0.338 C 
ATOM     26  O   UNL A   1      42.657  18.143  26.490  1.00  0.00    -0.246 OA
BRANCH  25  27
ATOM     27  C   UNL A   1      42.776  20.501  26.348  1.00  0.00     0.060 A 
ATOM     28  C   UNL A   1      42.732  21.070  27.632  1.00  0.00     0.016 A 
ATOM     29  C   UNL A   1      43.328  21.214  25.286  1.00  0.00     0.016 A 
ATOM     30  C   UNL A   1      43.234  22.355  27.857  1.00  0.00     0.010 A 
ATOM     31  C   UNL A   1      43.792  22.516  25.502  1.00  0.00     0.010 A 
ATOM     32  C   UNL A   1      43.722  23.104  26.781  1.00  0.00    -0.014 A 
BRANCH  32  33
ATOM     33  C   UNL A   1      43.924  24.569  26.905  1.00  0.00     0.031 A 
ATOM     34  C   UNL A   1      45.331  25.091  26.810  1.00  0.00     0.074 A 
ATOM     35  C   UNL A   1      42.913  25.414  27.166  1.00  0.00     0.049 A 
ATOM     36  N   UNL A   1      45.805  26.279  27.084  1.00  0.00    -0.248 NA
ATOM     37  C   UNL A   1      46.344  24.124  26.360  1.00  0.00     0.031 C 
ATOM     38  C   UNL A   1      41.502  25.047  27.232  1.00  0.00     0.029 A 
ATOM     39  N   UNL A   1      42.931  26.755  27.466  1.00  0.00    -0.354 N 
ATOM     40  C   UNL A   1      47.174  26.192  26.872  1.00  0.00     0.074 A 
ATOM     41  C   UNL A   1      47.456  24.834  26.459  1.00  0.00     0.031 C 
ATOM     42  C   UNL A   1      40.791  26.128  27.601  1.00  0.00     0.029 A 
ATOM     43  C   UNL A   1      41.704  27.247  27.842  1.00  0.00     0.049 A 
ATOM     44  H   UNL A   1      43.743  27.310  27.416  1.00  0.00     0.167 HD
ATOM     45  C   UNL A   1      48.115  27.155  27.020  1.00  0.00     0.037 A 
ATOM     46  C   UNL A   1      41.369  28.442  28.369  1.00  0.00     0.037 A 
ATOM     47  C   UNL A   1      47.829  28.500  27.445  1.00  0.00     0.049 A 
ATOM     48  C   UNL A   1      42.437  29.485  28.595  1.00  0.00     0.074 A 
ATOM     49  C   UNL A   1      48.703  29.560  27.596  1.00  0.00     0.029 A 
ATOM     50  N   UNL A   1      46.573  28.961  27.811  1.00  0.00    -0.354 N 
ATOM     51  N   UNL A   1      43.727  29.412  28.369  1.00  0.00    -0.248 NA
ATOM     52  C   UNL A   1      42.003  30.777  29.150  1.00  0.00     0.031 C 
ATOM     53  C   UNL A   1      47.990  30.640  28.123  1.00  0.00     0.029 A 
ATOM     54  C   UNL A   1      46.654  30.280  28.224  1.00  0.00     0.049 A 
ATOM     55  H   UNL A   1      45.744  28.428  27.782  1.00  0.00     0.167 HD
ATOM     56  C   UNL A   1      44.252  30.651  28.723  1.00  0.00     0.074 A 
ATOM     57  C   UNL A   1      43.141  31.458  29.178  1.00  0.00     0.031 C 
ATOM     58  C   UNL A   1      45.538  31.080  28.665  1.00  0.00     0.037 A 
BRANCH  45  59
ATOM     59  C   UNL A   1      49.545  26.762  26.780  1.00  0.00     0.064 A 
ATOM     60  C   UNL A   1      50.392  26.356  27.823  1.00  0.00     0.173 A 
ATOM     61  C   UNL A   1      50.080  26.809  25.485  1.00  0.00     0.173 A 
ATOM     62  F   UNL A   1      49.936  26.305  29.085  1.00  0.00    -0.203 F 
ATOM     63  C   UNL A   1      51.732  26.062  27.585  1.00  0.00     0.198 A 
ATOM     64  C   UNL A   1      51.410  26.476  25.243  1.00  0.00     0.198 A 
ATOM     65  F   UNL A   1      49.315  27.185  24.448  1.00  0.00    -0.203 F 
ATOM     66  F   UNL A   1      52.541  25.751  28.607  1.00  0.00    -0.200 F 
ATOM     67  C   UNL A   1      52.238  26.117  26.294  1.00  0.00     0.200 A 
ATOM     68  F   UNL A   1      51.892  26.514  23.993  1.00  0.00    -0.200 F 
ATOM     69  F   UNL A   1      53.529  25.837  26.066  1.00  0.00    -0.200 F 
ENDBRANCH  45  59
BRANCH  46  70
ATOM     70  C   UNL A   1      39.956  28.700  28.757  1.00  0.00     0.064 A 
ATOM     71  C   UNL A   1      39.488  28.395  30.042  1.00  0.00     0.173 A 
ATOM     72  C   UNL A   1      39.049  29.274  27.853  1.00  0.00     0.173 A 
ATOM     73  F   UNL A   1      40.307  27.819  30.933  1.00  0.00    -0.203 F 
ATOM     74  C   UNL A   1      38.167  28.650  30.406  1.00  0.00     0.198 A 
ATOM     75  C   UNL A   1      37.738  29.557  28.227  1.00  0.00     0.198 A 
ATOM     76  F   UNL A   1      39.445  29.582  26.609  1.00  0.00    -0.203 F 
ATOM     77  F   UNL A   1      37.736  28.320  31.631  1.00  0.00    -0.200 F 
ATOM     78  C   UNL A   1      37.296  29.242  29.503  1.00  0.00     0.200 A 
ATOM     79  F   UNL A   1      36.904  30.141  27.355  1.00  0.00    -0.200 F 
ATOM     80  F   UNL A   1      36.031  29.505  29.861  1.00  0.00    -0.200 F 
ENDBRANCH  46  70
BRANCH  58  81
ATOM     81  C   UNL A   1      45.825  32.505  29.050  1.00  0.00     0.064 A 
ATOM     82  C   UNL A   1      45.767  33.553  28.121  1.00  0.00     0.173 A 
ATOM     83  C   UNL A   1      46.074  32.833  30.393  1.00  0.00     0.173 A 
ATOM     84  F   UNL A   1      45.544  33.296  26.824  1.00  0.00    -0.203 F 
ATOM     85  C   UNL A   1      45.956  34.875  28.521  1.00  0.00     0.198 A 
ATOM     86  C   UNL A   1      46.230  34.157  30.794  1.00  0.00     0.198 A 
ATOM     87  F   UNL A   1      46.133  31.869  31.324  1.00  0.00    -0.203 F 
ATOM     88  F   UNL A   1      45.927  35.859  27.611  1.00  0.00    -0.200 F 
ATOM     89  C   UNL A   1      46.174  35.176  29.857  1.00  0.00     0.200 A 
ATOM     90  F   UNL A   1      46.421  34.444  32.089  1.00  0.00    -0.200 F 
ATOM     91  F   UNL A   1      46.333  36.450  30.242  1.00  0.00    -0.200 F 
ENDBRANCH  58  81
ENDBRANCH  32  33
ENDBRANCH  25  27
ENDBRANCH  24  25
ENDBRANCH  23  24
ENDBRANCH  22  23
ENDBRANCH  21  22
ENDBRANCH  20  21
ENDBRANCH  19  20
ENDBRANCH  18  19
ENDBRANCH   1  18
TORSDOF 24
ENDMDL
