MODEL 1
REMARK VINA RESULT:      -7.3      0.000      0.000
REMARK SMILES CC(C)C[C@H](NC(=O)[C@H](Cc1ccccc1)NC(=O)CNC(=O)CNC(=O)OCc1ccccc1)C(=O)OCCOCCOCCOCCOC(=O)c1ccc(-c2c3nc(c(-c4c(F)c(F)c(F)c(F)c4F)c4ccc([nH]4)c(-c4c(F)c(F)c(F)c(F)c4F)c4nc(c(-c5c(F)c(F)c(F)c(F)c5F)c5ccc2[nH]5)C=C4)C=C3)cc1
REMARK SMILES IDX 40 1 39 2 38 3 36 4 37 5 5 6 4 7 2 8 1 9 3 10 6 11 7 12 8 14
REMARK SMILES IDX 9 15 17 16 18 17 19 19 20 20 21 21 22 22 23 24 24 25 25 26
REMARK SMILES IDX 26 27 27 29 28 30 29 31 30 32 31 33 35 34 32 35 34 36 33 37
REMARK SMILES IDX 10 38 11 39 12 40 16 41 13 42 15 43 14 44 41 45 42 46 43 47
REMARK SMILES IDX 44 48 45 49 46 50 47 51 48 52 49 53 50 54 51 55 52 56 53 57
REMARK SMILES IDX 54 58 115 59 55 60 114 61 56 62 57 63 58 64 108 65 59 66
REMARK SMILES IDX 113 67 107 68 109 69 60 70 112 71 106 72 105 73 61 75 93 76
REMARK SMILES IDX 73 77 92 78 74 79 77 80 91 81 110 82 75 83 76 84 90 86
REMARK SMILES IDX 111 87 78 88 62 89 63 90 71 91 64 92 65 93 69 94 72 95 66 96
REMARK SMILES IDX 67 97 70 98 68 99 94 100 95 101 103 102 96 103 97 104
REMARK SMILES IDX 101 105 104 106 98 107 99 108 102 109 100 110 79 111 80 112
REMARK SMILES IDX 88 113 81 114 82 115 86 116 89 117 83 118 84 119 87 120
REMARK SMILES IDX 85 121
REMARK H PARENT 6 13 17 18 21 23 25 28 109 74 77 85
REMARK Flexibility Score: inf
ROOT
ATOM      1  C   UNL A   1      37.905  28.929  28.978  1.00  0.00     0.202 C 
ENDROOT
BRANCH   1   2
ATOM      2  C   UNL A   1      36.844  29.507  28.018  1.00  0.00     0.261 C 
BRANCH   2   3
ATOM      3  O   UNL A   1      35.468  29.322  28.332  1.00  0.00    -0.462 OA
BRANCH   3   4
ATOM      4  C   UNL A   1      34.667  29.817  27.375  1.00  0.00     0.328 C 
ATOM      5  O   UNL A   1      34.437  31.016  27.238  1.00  0.00    -0.250 OA
BRANCH   4   6
ATOM      6  C   UNL A   1      34.025  28.752  26.476  1.00  0.00     0.192 C 
BRANCH   6   7
ATOM      7  C   UNL A   1      33.231  29.525  25.410  1.00  0.00     0.040 C 
BRANCH   7   8
ATOM      8  C   UNL A   1      31.723  29.678  25.661  1.00  0.00    -0.015 C 
ATOM      9  C   UNL A   1      31.290  31.076  26.102  1.00  0.00     0.007 C 
ATOM     10  C   UNL A   1      30.980  29.279  24.389  1.00  0.00     0.007 C 
ENDBRANCH   7   8
ENDBRANCH   6   7
BRANCH   6  11
ATOM     11  N   UNL A   1      33.122  27.713  26.988  1.00  0.00    -0.341 N 
ATOM     12  C   UNL A   1      32.704  26.556  26.375  1.00  0.00     0.243 C 
ATOM     13  H   UNL A   1      32.766  27.867  27.894  1.00  0.00     0.164 HD
ATOM     14  O   UNL A   1      31.608  26.112  26.749  1.00  0.00    -0.273 OA
BRANCH  12  15
ATOM     15  C   UNL A   1      33.580  25.703  25.360  1.00  0.00     0.175 C 
BRANCH  15  16
ATOM     16  N   UNL A   1      33.426  26.324  24.032  1.00  0.00    -0.342 N 
ATOM     17  C   UNL A   1      32.558  26.216  23.000  1.00  0.00     0.240 C 
ATOM     18  H   UNL A   1      34.133  26.985  23.851  1.00  0.00     0.164 HD
ATOM     19  O   UNL A   1      32.784  26.931  22.014  1.00  0.00    -0.273 OA
BRANCH  17  20
ATOM     20  C   UNL A   1      31.275  25.368  22.998  1.00  0.00     0.216 C 
BRANCH  20  21
ATOM     21  N   UNL A   1      31.264  24.004  22.518  1.00  0.00    -0.346 N 
ATOM     22  C   UNL A   1      31.724  22.869  23.116  1.00  0.00     0.239 C 
ATOM     23  H   UNL A   1      30.865  23.876  21.627  1.00  0.00     0.164 HD
ATOM     24  O   UNL A   1      31.648  21.808  22.493  1.00  0.00    -0.273 OA
BRANCH  22  25
ATOM     25  C   UNL A   1      32.421  22.937  24.476  1.00  0.00     0.219 C 
BRANCH  25  26
ATOM     26  N   UNL A   1      31.951  21.814  25.256  1.00  0.00    -0.312 N 
ATOM     27  C   UNL A   1      32.448  20.548  25.223  1.00  0.00     0.407 C 
ATOM     28  H   UNL A   1      31.200  21.981  25.869  1.00  0.00     0.167 HD
ATOM     29  O   UNL A   1      31.772  19.611  25.607  1.00  0.00    -0.225 OA
BRANCH  27  30
ATOM     30  O   UNL A   1      33.729  20.498  24.788  1.00  0.00    -0.445 OA
BRANCH  30  31
ATOM     31  C   UNL A   1      34.019  19.489  23.804  1.00  0.00     0.270 C 
BRANCH  31  32
ATOM     32  C   UNL A   1      34.152  18.076  24.337  1.00  0.00    -0.011 A 
ATOM     33  C   UNL A   1      33.138  17.114  24.198  1.00  0.00     0.007 A 
ATOM     34  C   UNL A   1      35.358  17.691  24.939  1.00  0.00     0.007 A 
ATOM     35  C   UNL A   1      33.363  15.783  24.543  1.00  0.00     0.000 A 
ATOM     36  C   UNL A   1      35.570  16.364  25.319  1.00  0.00     0.000 A 
ATOM     37  C   UNL A   1      34.582  15.405  25.097  1.00  0.00     0.000 A 
ENDBRANCH  31  32
ENDBRANCH  30  31
ENDBRANCH  27  30
ENDBRANCH  25  26
ENDBRANCH  22  25
ENDBRANCH  20  21
ENDBRANCH  17  20
ENDBRANCH  15  16
BRANCH  15  38
ATOM     38  C   UNL A   1      35.026  25.364  25.748  1.00  0.00     0.070 C 
BRANCH  38  39
ATOM     39  C   UNL A   1      35.800  24.154  25.299  1.00  0.00    -0.045 A 
ATOM     40  C   UNL A   1      36.345  23.205  26.164  1.00  0.00     0.004 A 
ATOM     41  C   UNL A   1      35.816  23.892  23.914  1.00  0.00     0.004 A 
ATOM     42  C   UNL A   1      36.939  22.049  25.654  1.00  0.00     0.000 A 
ATOM     43  C   UNL A   1      36.374  22.721  23.411  1.00  0.00     0.000 A 
ATOM     44  C   UNL A   1      36.947  21.804  24.282  1.00  0.00     0.000 A 
ENDBRANCH  38  39
ENDBRANCH  15  38
ENDBRANCH  12  15
ENDBRANCH   6  11
ENDBRANCH   4   6
ENDBRANCH   3   4
ENDBRANCH   2   3
ENDBRANCH   1   2
BRANCH   1  45
ATOM     45  O   UNL A   1      38.708  29.608  29.930  1.00  0.00    -0.376 OA
BRANCH  45  46
ATOM     46  C   UNL A   1      40.112  29.769  29.899  1.00  0.00     0.188 C 
BRANCH  46  47
ATOM     47  C   UNL A   1      40.951  29.603  31.175  1.00  0.00     0.188 C 
BRANCH  47  48
ATOM     48  O   UNL A   1      41.872  28.537  31.120  1.00  0.00    -0.377 OA
BRANCH  48  49
ATOM     49  C   UNL A   1      43.206  28.796  31.539  1.00  0.00     0.188 C 
BRANCH  49  50
ATOM     50  C   UNL A   1      43.467  29.677  32.781  1.00  0.00     0.188 C 
BRANCH  50  51
ATOM     51  O   UNL A   1      42.929  29.165  33.989  1.00  0.00    -0.376 OA
BRANCH  51  52
ATOM     52  C   UNL A   1      43.818  28.614  34.947  1.00  0.00     0.202 C 
BRANCH  52  53
ATOM     53  C   UNL A   1      43.441  27.258  35.564  1.00  0.00     0.261 C 
BRANCH  53  54
ATOM     54  O   UNL A   1      44.327  26.746  36.573  1.00  0.00    -0.460 OA
BRANCH  54  55
ATOM     55  C   UNL A   1      44.715  25.457  36.479  1.00  0.00     0.338 C 
ATOM     56  O   UNL A   1      44.062  24.471  36.767  1.00  0.00    -0.246 OA
BRANCH  55  57
ATOM     57  C   UNL A   1      46.007  25.418  35.757  1.00  0.00     0.060 A 
ATOM     58  C   UNL A   1      46.793  26.579  35.719  1.00  0.00     0.016 A 
ATOM     59  C   UNL A   1      46.443  24.255  35.120  1.00  0.00     0.016 A 
ATOM     60  C   UNL A   1      47.992  26.592  35.007  1.00  0.00     0.010 A 
ATOM     61  C   UNL A   1      47.634  24.276  34.383  1.00  0.00     0.010 A 
ATOM     62  C   UNL A   1      48.394  25.456  34.292  1.00  0.00    -0.014 A 
BRANCH  62  63
ATOM     63  C   UNL A   1      49.500  25.571  33.309  1.00  0.00     0.031 A 
ATOM     64  C   UNL A   1      49.157  25.871  31.874  1.00  0.00     0.074 A 
ATOM     65  C   UNL A   1      50.787  25.468  33.687  1.00  0.00     0.049 A 
ATOM     66  N   UNL A   1      49.946  26.003  30.837  1.00  0.00    -0.248 NA
ATOM     67  C   UNL A   1      47.728  26.049  31.567  1.00  0.00     0.031 C 
ATOM     68  C   UNL A   1      51.251  25.225  35.050  1.00  0.00     0.029 A 
ATOM     69  N   UNL A   1      51.942  25.554  32.947  1.00  0.00    -0.354 N 
ATOM     70  C   UNL A   1      49.111  26.279  29.761  1.00  0.00     0.074 A 
ATOM     71  C   UNL A   1      47.753  26.261  30.260  1.00  0.00     0.031 C 
ATOM     72  C   UNL A   1      52.595  25.169  35.050  1.00  0.00     0.029 A 
ATOM     73  C   UNL A   1      53.082  25.338  33.682  1.00  0.00     0.049 A 
ATOM     74  H   UNL A   1      51.951  25.750  31.984  1.00  0.00     0.167 HD
ATOM     75  C   UNL A   1      49.448  26.539  28.475  1.00  0.00     0.037 A 
ATOM     76  C   UNL A   1      54.369  25.260  33.287  1.00  0.00     0.037 A 
ATOM     77  C   UNL A   1      50.799  26.553  27.979  1.00  0.00     0.049 A 
ATOM     78  C   UNL A   1      54.706  25.469  31.829  1.00  0.00     0.074 A 
ATOM     79  C   UNL A   1      51.243  26.810  26.692  1.00  0.00     0.029 A 
ATOM     80  N   UNL A   1      51.925  26.291  28.744  1.00  0.00    -0.354 N 
ATOM     81  N   UNL A   1      53.915  25.756  30.824  1.00  0.00    -0.248 NA
ATOM     82  C   UNL A   1      56.124  25.347  31.455  1.00  0.00     0.031 C 
ATOM     83  C   UNL A   1      52.630  26.644  26.666  1.00  0.00     0.029 A 
ATOM     84  C   UNL A   1      53.060  26.353  27.951  1.00  0.00     0.049 A 
ATOM     85  H   UNL A   1      51.920  26.091  29.707  1.00  0.00     0.167 HD
ATOM     86  C   UNL A   1      54.739  25.881  29.710  1.00  0.00     0.074 A 
ATOM     87  C   UNL A   1      56.094  25.666  30.169  1.00  0.00     0.031 C 
ATOM     88  C   UNL A   1      54.405  26.145  28.422  1.00  0.00     0.037 A 
BRANCH  75  89
ATOM     89  C   UNL A   1      48.336  26.813  27.504  1.00  0.00     0.064 A 
ATOM     90  C   UNL A   1      47.946  28.122  27.180  1.00  0.00     0.173 A 
ATOM     91  C   UNL A   1      47.694  25.756  26.843  1.00  0.00     0.173 A 
ATOM     92  F   UNL A   1      48.517  29.169  27.793  1.00  0.00    -0.203 F 
ATOM     93  C   UNL A   1      46.943  28.359  26.242  1.00  0.00     0.198 A 
ATOM     94  C   UNL A   1      46.715  25.997  25.883  1.00  0.00     0.198 A 
ATOM     95  F   UNL A   1      48.030  24.485  27.114  1.00  0.00    -0.203 F 
ATOM     96  F   UNL A   1      46.560  29.616  25.977  1.00  0.00    -0.200 F 
ATOM     97  C   UNL A   1      46.337  27.297  25.587  1.00  0.00     0.200 A 
ATOM     98  F   UNL A   1      46.141  24.970  25.242  1.00  0.00    -0.200 F 
ATOM     99  F   UNL A   1      45.385  27.528  24.673  1.00  0.00    -0.200 F 
ENDBRANCH  75  89
BRANCH  76 100
ATOM    100  C   UNL A   1      55.443  24.945  34.269  1.00  0.00     0.064 A 
ATOM    101  C   UNL A   1      56.211  25.958  34.859  1.00  0.00     0.173 A 
ATOM    102  C   UNL A   1      55.767  23.617  34.587  1.00  0.00     0.173 A 
ATOM    103  F   UNL A   1      55.962  27.244  34.568  1.00  0.00    -0.203 F 
ATOM    104  C   UNL A   1      57.281  25.655  35.700  1.00  0.00     0.198 A 
ATOM    105  C   UNL A   1      56.813  23.317  35.457  1.00  0.00     0.198 A 
ATOM    106  F   UNL A   1      55.068  22.608  34.048  1.00  0.00    -0.203 F 
ATOM    107  F   UNL A   1      58.044  26.643  36.191  1.00  0.00    -0.200 F 
ATOM    108  C   UNL A   1      57.578  24.336  36.001  1.00  0.00     0.200 A 
ATOM    109  F   UNL A   1      57.086  22.040  35.756  1.00  0.00    -0.200 F 
ATOM    110  F   UNL A   1      58.612  24.045  36.803  1.00  0.00    -0.200 F 
ENDBRANCH  76 100
BRANCH  88 111
ATOM    111  C   UNL A   1      55.529  26.259  27.428  1.00  0.00     0.064 A 
ATOM    112  C   UNL A   1      56.044  25.139  26.758  1.00  0.00     0.173 A 
ATOM    113  C   UNL A   1      56.087  27.513  27.130  1.00  0.00     0.173 A 
ATOM    114  F   UNL A   1      55.554  23.916  27.013  1.00  0.00    -0.203 F 
ATOM    115  C   UNL A   1      57.104  25.262  25.864  1.00  0.00     0.198 A 
ATOM    116  C   UNL A   1      57.120  27.637  26.205  1.00  0.00     0.198 A 
ATOM    117  F   UNL A   1      55.627  28.620  27.729  1.00  0.00    -0.203 F 
ATOM    118  F   UNL A   1      57.624  24.169  25.290  1.00  0.00    -0.200 F 
ATOM    119  C   UNL A   1      57.637  26.511  25.583  1.00  0.00     0.200 A 
ATOM    120  F   UNL A   1      57.621  28.848  25.921  1.00  0.00    -0.200 F 
ATOM    121  F   UNL A   1      58.657  26.628  24.721  1.00  0.00    -0.200 F 
ENDBRANCH  88 111
ENDBRANCH  62  63
ENDBRANCH  55  57
ENDBRANCH  54  55
ENDBRANCH  53  54
ENDBRANCH  52  53
ENDBRANCH  51  52
ENDBRANCH  50  51
ENDBRANCH  49  50
ENDBRANCH  48  49
ENDBRANCH  47  48
ENDBRANCH  46  47
ENDBRANCH  45  46
ENDBRANCH   1  45
TORSDOF 34
ENDMDL
MODEL 2
REMARK VINA RESULT:      -7.3      7.778     12.967
REMARK SMILES CC(C)C[C@H](NC(=O)[C@H](Cc1ccccc1)NC(=O)CNC(=O)CNC(=O)OCc1ccccc1)C(=O)OCCOCCOCCOCCOC(=O)c1ccc(-c2c3nc(c(-c4c(F)c(F)c(F)c(F)c4F)c4ccc([nH]4)c(-c4c(F)c(F)c(F)c(F)c4F)c4nc(c(-c5c(F)c(F)c(F)c(F)c5F)c5ccc2[nH]5)C=C4)C=C3)cc1
REMARK SMILES IDX 40 1 39 2 38 3 36 4 37 5 5 6 4 7 2 8 1 9 3 10 6 11 7 12 8 14
REMARK SMILES IDX 9 15 17 16 18 17 19 19 20 20 21 21 22 22 23 24 24 25 25 26
REMARK SMILES IDX 26 27 27 29 28 30 29 31 30 32 31 33 35 34 32 35 34 36 33 37
REMARK SMILES IDX 10 38 11 39 12 40 16 41 13 42 15 43 14 44 41 45 42 46 43 47
REMARK SMILES IDX 44 48 45 49 46 50 47 51 48 52 49 53 50 54 51 55 52 56 53 57
REMARK SMILES IDX 54 58 115 59 55 60 114 61 56 62 57 63 58 64 108 65 59 66
REMARK SMILES IDX 113 67 107 68 109 69 60 70 112 71 106 72 105 73 61 75 93 76
REMARK SMILES IDX 73 77 92 78 74 79 77 80 91 81 110 82 75 83 76 84 90 86
REMARK SMILES IDX 111 87 78 88 62 89 63 90 71 91 64 92 65 93 69 94 72 95 66 96
REMARK SMILES IDX 67 97 70 98 68 99 94 100 95 101 103 102 96 103 97 104
REMARK SMILES IDX 101 105 104 106 98 107 99 108 102 109 100 110 79 111 80 112
REMARK SMILES IDX 88 113 81 114 82 115 86 116 89 117 83 118 84 119 87 120
REMARK SMILES IDX 85 121
REMARK H PARENT 6 13 17 18 21 23 25 28 109 74 77 85
REMARK Flexibility Score: inf
ROOT
ATOM      1  C   UNL A   1      44.833  36.630  31.187  1.00  0.00     0.202 C 
ENDROOT
BRANCH   1   2
ATOM      2  C   UNL A   1      45.255  35.215  31.636  1.00  0.00     0.261 C 
BRANCH   2   3
ATOM      3  O   UNL A   1      44.316  34.419  32.351  1.00  0.00    -0.462 OA
BRANCH   3   4
ATOM      4  C   UNL A   1      43.111  35.008  32.415  1.00  0.00     0.328 C 
ATOM      5  O   UNL A   1      42.946  36.180  32.746  1.00  0.00    -0.250 OA
BRANCH   4   6
ATOM      6  C   UNL A   1      41.937  34.081  32.073  1.00  0.00     0.192 C 
BRANCH   6   7
ATOM      7  C   UNL A   1      42.083  33.752  30.579  1.00  0.00     0.040 C 
BRANCH   7   8
ATOM      8  C   UNL A   1      42.029  34.943  29.609  1.00  0.00    -0.015 C 
ATOM      9  C   UNL A   1      43.065  34.896  28.487  1.00  0.00     0.007 C 
ATOM     10  C   UNL A   1      40.624  35.022  29.020  1.00  0.00     0.007 C 
ENDBRANCH   7   8
ENDBRANCH   6   7
BRANCH   6  11
ATOM     11  N   UNL A   1      40.533  34.462  32.275  1.00  0.00    -0.341 N 
ATOM     12  C   UNL A   1      39.404  33.686  32.161  1.00  0.00     0.243 C 
ATOM     13  H   UNL A   1      40.379  35.402  32.525  1.00  0.00     0.164 HD
ATOM     14  O   UNL A   1      38.359  34.291  31.880  1.00  0.00    -0.273 OA
BRANCH  12  15
ATOM     15  C   UNL A   1      39.334  32.135  32.502  1.00  0.00     0.175 C 
BRANCH  15  16
ATOM     16  N   UNL A   1      39.778  31.409  31.297  1.00  0.00    -0.342 N 
ATOM     17  C   UNL A   1      39.321  31.247  30.035  1.00  0.00     0.240 C 
ATOM     18  H   UNL A   1      40.619  30.921  31.451  1.00  0.00     0.164 HD
ATOM     19  O   UNL A   1      40.000  30.524  29.293  1.00  0.00    -0.273 OA
BRANCH  17  20
ATOM     20  C   UNL A   1      38.103  31.962  29.427  1.00  0.00     0.216 C 
BRANCH  20  21
ATOM     21  N   UNL A   1      36.820  31.983  30.095  1.00  0.00    -0.346 N 
ATOM     22  C   UNL A   1      35.611  32.416  29.640  1.00  0.00     0.239 C 
ATOM     23  H   UNL A   1      36.820  31.632  31.015  1.00  0.00     0.164 HD
ATOM     24  O   UNL A   1      34.648  32.378  30.410  1.00  0.00    -0.273 OA
BRANCH  22  25
ATOM     25  C   UNL A   1      35.484  33.040  28.249  1.00  0.00     0.219 C 
BRANCH  25  26
ATOM     26  N   UNL A   1      35.549  34.474  28.414  1.00  0.00    -0.312 N 
ATOM     27  C   UNL A   1      34.496  35.335  28.396  1.00  0.00     0.407 C 
ATOM     28  H   UNL A   1      36.442  34.865  28.553  1.00  0.00     0.167 HD
ATOM     29  O   UNL A   1      34.671  36.517  28.163  1.00  0.00    -0.225 OA
BRANCH  27  30
ATOM     30  O   UNL A   1      33.323  34.736  28.710  1.00  0.00    -0.445 OA
BRANCH  30  31
ATOM     31  C   UNL A   1      32.481  35.450  29.632  1.00  0.00     0.270 C 
BRANCH  31  32
ATOM     32  C   UNL A   1      33.161  35.932  30.898  1.00  0.00    -0.011 A 
ATOM     33  C   UNL A   1      33.335  37.293  31.195  1.00  0.00     0.007 A 
ATOM     34  C   UNL A   1      33.581  34.985  31.844  1.00  0.00     0.007 A 
ATOM     35  C   UNL A   1      33.806  37.699  32.443  1.00  0.00     0.000 A 
ATOM     36  C   UNL A   1      34.088  35.391  33.080  1.00  0.00     0.000 A 
ATOM     37  C   UNL A   1      34.175  36.748  33.389  1.00  0.00     0.000 A 
ENDBRANCH  31  32
ENDBRANCH  30  31
ENDBRANCH  27  30
ENDBRANCH  25  26
ENDBRANCH  22  25
ENDBRANCH  20  21
ENDBRANCH  17  20
ENDBRANCH  15  16
BRANCH  15  38
ATOM     38  C   UNL A   1      39.963  31.647  33.814  1.00  0.00     0.070 C 
BRANCH  38  39
ATOM     39  C   UNL A   1      41.095  30.662  33.938  1.00  0.00    -0.045 A 
ATOM     40  C   UNL A   1      42.395  31.003  34.309  1.00  0.00     0.004 A 
ATOM     41  C   UNL A   1      40.759  29.297  33.837  1.00  0.00     0.004 A 
ATOM     42  C   UNL A   1      43.350  30.007  34.519  1.00  0.00     0.000 A 
ATOM     43  C   UNL A   1      41.701  28.304  34.085  1.00  0.00     0.000 A 
ATOM     44  C   UNL A   1      43.002  28.661  34.416  1.00  0.00     0.000 A 
ENDBRANCH  38  39
ENDBRANCH  15  38
ENDBRANCH  12  15
ENDBRANCH   6  11
ENDBRANCH   4   6
ENDBRANCH   3   4
ENDBRANCH   2   3
ENDBRANCH   1   2
BRANCH   1  45
ATOM     45  O   UNL A   1      45.352  37.420  30.129  1.00  0.00    -0.376 OA
BRANCH  45  46
ATOM     46  C   UNL A   1      44.623  38.266  29.263  1.00  0.00     0.188 C 
BRANCH  46  47
ATOM     47  C   UNL A   1      44.693  38.080  27.739  1.00  0.00     0.188 C 
BRANCH  47  48
ATOM     48  O   UNL A   1      44.737  39.290  27.016  1.00  0.00    -0.377 OA
BRANCH  48  49
ATOM     49  C   UNL A   1      45.731  39.421  26.009  1.00  0.00     0.188 C 
BRANCH  49  50
ATOM     50  C   UNL A   1      47.010  40.241  26.291  1.00  0.00     0.188 C 
BRANCH  50  51
ATOM     51  O   UNL A   1      47.354  40.340  27.663  1.00  0.00    -0.376 OA
BRANCH  51  52
ATOM     52  C   UNL A   1      48.309  39.434  28.190  1.00  0.00     0.202 C 
BRANCH  52  53
ATOM     53  C   UNL A   1      49.159  38.639  27.185  1.00  0.00     0.261 C 
BRANCH  53  54
ATOM     54  O   UNL A   1      49.138  37.208  27.321  1.00  0.00    -0.460 OA
BRANCH  54  55
ATOM     55  C   UNL A   1      48.678  36.480  26.282  1.00  0.00     0.338 C 
ATOM     56  O   UNL A   1      48.742  36.766  25.101  1.00  0.00    -0.246 OA
BRANCH  55  57
ATOM     57  C   UNL A   1      48.266  35.155  26.798  1.00  0.00     0.060 A 
ATOM     58  C   UNL A   1      47.024  35.038  27.439  1.00  0.00     0.016 A 
ATOM     59  C   UNL A   1      49.092  34.038  26.657  1.00  0.00     0.016 A 
ATOM     60  C   UNL A   1      46.627  33.816  27.980  1.00  0.00     0.010 A 
ATOM     61  C   UNL A   1      48.703  32.818  27.223  1.00  0.00     0.010 A 
ATOM     62  C   UNL A   1      47.486  32.711  27.921  1.00  0.00    -0.014 A 
BRANCH  62  63
ATOM     63  C   UNL A   1      47.189  31.514  28.747  1.00  0.00     0.031 A 
ATOM     64  C   UNL A   1      47.384  31.605  30.237  1.00  0.00     0.074 A 
ATOM     65  C   UNL A   1      46.701  30.387  28.199  1.00  0.00     0.049 A 
ATOM     66  N   UNL A   1      47.205  30.692  31.159  1.00  0.00    -0.248 NA
ATOM     67  C   UNL A   1      47.841  32.903  30.759  1.00  0.00     0.031 C 
ATOM     68  C   UNL A   1      46.426  30.189  26.778  1.00  0.00     0.029 A 
ATOM     69  N   UNL A   1      46.355  29.191  28.779  1.00  0.00    -0.354 N 
ATOM     70  C   UNL A   1      47.526  31.305  32.365  1.00  0.00     0.074 A 
ATOM     71  C   UNL A   1      47.946  32.655  32.056  1.00  0.00     0.031 C 
ATOM     72  C   UNL A   1      45.963  28.940  26.594  1.00  0.00     0.029 A 
ATOM     73  C   UNL A   1      45.943  28.241  27.878  1.00  0.00     0.049 A 
ATOM     74  H   UNL A   1      46.399  29.030  29.749  1.00  0.00     0.167 HD
ATOM     75  C   UNL A   1      47.463  30.793  33.617  1.00  0.00     0.037 A 
ATOM     76  C   UNL A   1      45.612  26.947  28.068  1.00  0.00     0.037 A 
ATOM     77  C   UNL A   1      47.049  29.448  33.922  1.00  0.00     0.049 A 
ATOM     78  C   UNL A   1      45.635  26.378  29.467  1.00  0.00     0.074 A 
ATOM     79  C   UNL A   1      46.949  28.837  35.160  1.00  0.00     0.029 A 
ATOM     80  N   UNL A   1      46.677  28.502  32.979  1.00  0.00    -0.354 N 
ATOM     81  N   UNL A   1      45.913  26.971  30.603  1.00  0.00    -0.248 NA
ATOM     82  C   UNL A   1      45.289  24.956  29.608  1.00  0.00     0.031 C 
ATOM     83  C   UNL A   1      46.573  27.505  34.962  1.00  0.00     0.029 A 
ATOM     84  C   UNL A   1      46.372  27.305  33.606  1.00  0.00     0.049 A 
ATOM     85  H   UNL A   1      46.634  28.658  32.008  1.00  0.00     0.167 HD
ATOM     86  C   UNL A   1      45.745  26.008  31.591  1.00  0.00     0.074 A 
ATOM     87  C   UNL A   1      45.313  24.799  30.923  1.00  0.00     0.031 C 
ATOM     88  C   UNL A   1      45.934  26.110  32.930  1.00  0.00     0.037 A 
BRANCH  75  89
ATOM     89  C   UNL A   1      47.867  31.683  34.756  1.00  0.00     0.064 A 
ATOM     90  C   UNL A   1      49.198  31.760  35.196  1.00  0.00     0.173 A 
ATOM     91  C   UNL A   1      46.923  32.515  35.376  1.00  0.00     0.173 A 
ATOM     92  F   UNL A   1      50.137  30.975  34.648  1.00  0.00    -0.203 F 
ATOM     93  C   UNL A   1      49.563  32.625  36.225  1.00  0.00     0.198 A 
ATOM     94  C   UNL A   1      47.297  33.402  36.382  1.00  0.00     0.198 A 
ATOM     95  F   UNL A   1      45.637  32.483  34.992  1.00  0.00    -0.203 F 
ATOM     96  F   UNL A   1      50.833  32.655  36.655  1.00  0.00    -0.200 F 
ATOM     97  C   UNL A   1      48.616  33.453  36.808  1.00  0.00     0.200 A 
ATOM     98  F   UNL A   1      46.383  34.211  36.934  1.00  0.00    -0.200 F 
ATOM     99  F   UNL A   1      48.973  34.298  37.785  1.00  0.00    -0.200 F 
ENDBRANCH  75  89
BRANCH  76 100
ATOM    100  C   UNL A   1      45.256  26.081  26.910  1.00  0.00     0.064 A 
ATOM    101  C   UNL A   1      43.927  25.939  26.487  1.00  0.00     0.173 A 
ATOM    102  C   UNL A   1      46.233  25.323  26.245  1.00  0.00     0.173 A 
ATOM    103  F   UNL A   1      42.951  26.618  27.106  1.00  0.00    -0.203 F 
ATOM    104  C   UNL A   1      43.585  25.050  25.469  1.00  0.00     0.198 A 
ATOM    105  C   UNL A   1      45.894  24.463  25.202  1.00  0.00     0.198 A 
ATOM    106  F   UNL A   1      47.519  25.416  26.611  1.00  0.00    -0.203 F 
ATOM    107  F   UNL A   1      42.297  24.882  25.135  1.00  0.00    -0.200 F 
ATOM    108  C   UNL A   1      44.569  24.317  24.825  1.00  0.00     0.200 A 
ATOM    109  F   UNL A   1      46.851  23.768  24.574  1.00  0.00    -0.200 F 
ATOM    110  F   UNL A   1      44.238  23.457  23.852  1.00  0.00    -0.200 F 
ENDBRANCH  76 100
BRANCH  88 111
ATOM    111  C   UNL A   1      45.634  24.895  33.765  1.00  0.00     0.064 A 
ATOM    112  C   UNL A   1      46.642  24.014  34.183  1.00  0.00     0.173 A 
ATOM    113  C   UNL A   1      44.317  24.618  34.166  1.00  0.00     0.173 A 
ATOM    114  F   UNL A   1      47.917  24.225  33.819  1.00  0.00    -0.203 F 
ATOM    115  C   UNL A   1      46.339  22.878  34.929  1.00  0.00     0.198 A 
ATOM    116  C   UNL A   1      44.022  23.504  34.947  1.00  0.00     0.198 A 
ATOM    117  F   UNL A   1      43.314  25.432  33.807  1.00  0.00    -0.203 F 
ATOM    118  F   UNL A   1      47.310  22.015  35.256  1.00  0.00    -0.200 F 
ATOM    119  C   UNL A   1      45.031  22.628  35.316  1.00  0.00     0.200 A 
ATOM    120  F   UNL A   1      42.760  23.274  35.335  1.00  0.00    -0.200 F 
ATOM    121  F   UNL A   1      44.741  21.534  36.036  1.00  0.00    -0.200 F 
ENDBRANCH  88 111
ENDBRANCH  62  63
ENDBRANCH  55  57
ENDBRANCH  54  55
ENDBRANCH  53  54
ENDBRANCH  52  53
ENDBRANCH  51  52
ENDBRANCH  50  51
ENDBRANCH  49  50
ENDBRANCH  48  49
ENDBRANCH  47  48
ENDBRANCH  46  47
ENDBRANCH  45  46
ENDBRANCH   1  45
TORSDOF 34
ENDMDL
MODEL 3
REMARK VINA RESULT:      -7.1      5.832     12.352
REMARK SMILES CC(C)C[C@H](NC(=O)[C@H](Cc1ccccc1)NC(=O)CNC(=O)CNC(=O)OCc1ccccc1)C(=O)OCCOCCOCCOCCOC(=O)c1ccc(-c2c3nc(c(-c4c(F)c(F)c(F)c(F)c4F)c4ccc([nH]4)c(-c4c(F)c(F)c(F)c(F)c4F)c4nc(c(-c5c(F)c(F)c(F)c(F)c5F)c5ccc2[nH]5)C=C4)C=C3)cc1
REMARK SMILES IDX 40 1 39 2 38 3 36 4 37 5 5 6 4 7 2 8 1 9 3 10 6 11 7 12 8 14
REMARK SMILES IDX 9 15 17 16 18 17 19 19 20 20 21 21 22 22 23 24 24 25 25 26
REMARK SMILES IDX 26 27 27 29 28 30 29 31 30 32 31 33 35 34 32 35 34 36 33 37
REMARK SMILES IDX 10 38 11 39 12 40 16 41 13 42 15 43 14 44 41 45 42 46 43 47
REMARK SMILES IDX 44 48 45 49 46 50 47 51 48 52 49 53 50 54 51 55 52 56 53 57
REMARK SMILES IDX 54 58 115 59 55 60 114 61 56 62 57 63 58 64 108 65 59 66
REMARK SMILES IDX 113 67 107 68 109 69 60 70 112 71 106 72 105 73 61 75 93 76
REMARK SMILES IDX 73 77 92 78 74 79 77 80 91 81 110 82 75 83 76 84 90 86
REMARK SMILES IDX 111 87 78 88 62 89 63 90 71 91 64 92 65 93 69 94 72 95 66 96
REMARK SMILES IDX 67 97 70 98 68 99 94 100 95 101 103 102 96 103 97 104
REMARK SMILES IDX 101 105 104 106 98 107 99 108 102 109 100 110 79 111 80 112
REMARK SMILES IDX 88 113 81 114 82 115 86 116 89 117 83 118 84 119 87 120
REMARK SMILES IDX 85 121
REMARK H PARENT 6 13 17 18 21 23 25 28 109 74 77 85
REMARK Flexibility Score: inf
ROOT
ATOM      1  C   UNL A   1      42.118  26.322  28.679  1.00  0.00     0.202 C 
ENDROOT
BRANCH   1   2
ATOM      2  C   UNL A   1      41.014  27.324  29.081  1.00  0.00     0.261 C 
BRANCH   2   3
ATOM      3  O   UNL A   1      41.298  28.279  30.098  1.00  0.00    -0.462 OA
BRANCH   3   4
ATOM      4  C   UNL A   1      40.565  29.395  29.952  1.00  0.00     0.328 C 
ATOM      5  O   UNL A   1      40.558  30.071  28.926  1.00  0.00    -0.250 OA
BRANCH   4   6
ATOM      6  C   UNL A   1      39.754  29.784  31.194  1.00  0.00     0.192 C 
BRANCH   6   7
ATOM      7  C   UNL A   1      40.566  29.282  32.400  1.00  0.00     0.040 C 
BRANCH   7   8
ATOM      8  C   UNL A   1      41.083  30.356  33.370  1.00  0.00    -0.015 C 
ATOM      9  C   UNL A   1      42.425  30.030  34.023  1.00  0.00     0.007 C 
ATOM     10  C   UNL A   1      41.177  31.680  32.618  1.00  0.00     0.007 C 
ENDBRANCH   7   8
ENDBRANCH   6   7
BRANCH   6  11
ATOM     11  N   UNL A   1      38.371  29.341  31.418  1.00  0.00    -0.341 N 
ATOM     12  C   UNL A   1      37.225  30.097  31.490  1.00  0.00     0.243 C 
ATOM     13  H   UNL A   1      38.249  28.370  31.531  1.00  0.00     0.164 HD
ATOM     14  O   UNL A   1      36.301  29.612  32.159  1.00  0.00    -0.273 OA
BRANCH  12  15
ATOM     15  C   UNL A   1      36.972  31.436  30.674  1.00  0.00     0.175 C 
BRANCH  15  16
ATOM     16  N   UNL A   1      37.327  31.159  29.270  1.00  0.00    -0.342 N 
ATOM     17  C   UNL A   1      36.856  30.359  28.286  1.00  0.00     0.240 C 
ATOM     18  H   UNL A   1      38.101  31.690  28.974  1.00  0.00     0.164 HD
ATOM     19  O   UNL A   1      37.457  30.406  27.204  1.00  0.00    -0.273 OA
BRANCH  17  20
ATOM     20  C   UNL A   1      35.589  29.491  28.371  1.00  0.00     0.216 C 
BRANCH  20  21
ATOM     21  N   UNL A   1      34.289  30.001  27.994  1.00  0.00    -0.346 N 
ATOM     22  C   UNL A   1      33.320  29.428  27.227  1.00  0.00     0.239 C 
ATOM     23  H   UNL A   1      34.073  30.896  28.345  1.00  0.00     0.164 HD
ATOM     24  O   UNL A   1      32.295  30.076  27.000  1.00  0.00    -0.273 OA
BRANCH  22  25
ATOM     25  C   UNL A   1      33.554  28.066  26.572  1.00  0.00     0.219 C 
BRANCH  25  26
ATOM     26  N   UNL A   1      32.371  27.270  26.804  1.00  0.00    -0.312 N 
ATOM     27  C   UNL A   1      32.185  25.975  26.427  1.00  0.00     0.407 C 
ATOM     28  H   UNL A   1      31.627  27.705  27.279  1.00  0.00     0.167 HD
ATOM     29  O   UNL A   1      31.061  25.519  26.321  1.00  0.00    -0.225 OA
BRANCH  27  30
ATOM     30  O   UNL A   1      33.350  25.306  26.258  1.00  0.00    -0.445 OA
BRANCH  30  31
ATOM     31  C   UNL A   1      33.377  24.356  25.178  1.00  0.00     0.270 C 
BRANCH  31  32
ATOM     32  C   UNL A   1      34.385  23.233  25.320  1.00  0.00    -0.011 A 
ATOM     33  C   UNL A   1      34.028  21.877  25.245  1.00  0.00     0.007 A 
ATOM     34  C   UNL A   1      35.742  23.557  25.473  1.00  0.00     0.007 A 
ATOM     35  C   UNL A   1      35.001  20.881  25.206  1.00  0.00     0.000 A 
ATOM     36  C   UNL A   1      36.715  22.556  25.471  1.00  0.00     0.000 A 
ATOM     37  C   UNL A   1      36.346  21.221  25.311  1.00  0.00     0.000 A 
ENDBRANCH  31  32
ENDBRANCH  30  31
ENDBRANCH  27  30
ENDBRANCH  25  26
ENDBRANCH  22  25
ENDBRANCH  20  21
ENDBRANCH  17  20
ENDBRANCH  15  16
BRANCH  15  38
ATOM     38  C   UNL A   1      35.636  32.167  30.866  1.00  0.00     0.070 C 
BRANCH  38  39
ATOM     39  C   UNL A   1      35.158  33.357  30.077  1.00  0.00    -0.045 A 
ATOM     40  C   UNL A   1      35.632  33.701  28.812  1.00  0.00     0.004 A 
ATOM     41  C   UNL A   1      34.045  34.051  30.592  1.00  0.00     0.004 A 
ATOM     42  C   UNL A   1      35.043  34.749  28.102  1.00  0.00     0.000 A 
ATOM     43  C   UNL A   1      33.434  35.069  29.867  1.00  0.00     0.000 A 
ATOM     44  C   UNL A   1      33.942  35.426  28.625  1.00  0.00     0.000 A 
ENDBRANCH  38  39
ENDBRANCH  15  38
ENDBRANCH  12  15
ENDBRANCH   6  11
ENDBRANCH   4   6
ENDBRANCH   3   4
ENDBRANCH   2   3
ENDBRANCH   1   2
BRANCH   1  45
ATOM     45  O   UNL A   1      43.394  26.581  28.119  1.00  0.00    -0.376 OA
BRANCH  45  46
ATOM     46  C   UNL A   1      44.262  25.646  27.510  1.00  0.00     0.188 C 
BRANCH  46  47
ATOM     47  C   UNL A   1      43.763  24.244  27.125  1.00  0.00     0.188 C 
BRANCH  47  48
ATOM     48  O   UNL A   1      43.782  23.991  25.739  1.00  0.00    -0.377 OA
BRANCH  48  49
ATOM     49  C   UNL A   1      44.694  23.012  25.260  1.00  0.00     0.188 C 
BRANCH  49  50
ATOM     50  C   UNL A   1      46.009  23.451  24.576  1.00  0.00     0.188 C 
BRANCH  50  51
ATOM     51  O   UNL A   1      46.591  24.623  25.122  1.00  0.00    -0.376 OA
BRANCH  51  52
ATOM     52  C   UNL A   1      47.525  24.486  26.180  1.00  0.00     0.202 C 
BRANCH  52  53
ATOM     53  C   UNL A   1      48.520  25.638  26.399  1.00  0.00     0.261 C 
BRANCH  53  54
ATOM     54  O   UNL A   1      49.037  26.269  25.216  1.00  0.00    -0.460 OA
BRANCH  54  55
ATOM     55  C   UNL A   1      48.214  27.084  24.522  1.00  0.00     0.338 C 
ATOM     56  O   UNL A   1      47.776  26.903  23.401  1.00  0.00    -0.246 OA
BRANCH  55  57
ATOM     57  C   UNL A   1      47.747  28.150  25.438  1.00  0.00     0.060 A 
ATOM     58  C   UNL A   1      48.697  28.854  26.192  1.00  0.00     0.016 A 
ATOM     59  C   UNL A   1      46.390  28.454  25.558  1.00  0.00     0.016 A 
ATOM     60  C   UNL A   1      48.288  29.830  27.100  1.00  0.00     0.010 A 
ATOM     61  C   UNL A   1      45.979  29.417  26.488  1.00  0.00     0.010 A 
ATOM     62  C   UNL A   1      46.923  30.081  27.291  1.00  0.00    -0.014 A 
BRANCH  62  63
ATOM     63  C   UNL A   1      46.490  30.895  28.454  1.00  0.00     0.031 A 
ATOM     64  C   UNL A   1      46.530  30.269  29.823  1.00  0.00     0.074 A 
ATOM     65  C   UNL A   1      46.122  32.181  28.312  1.00  0.00     0.049 A 
ATOM     66  N   UNL A   1      46.189  30.775  30.982  1.00  0.00    -0.248 NA
ATOM     67  C   UNL A   1      47.025  28.885  29.894  1.00  0.00     0.031 C 
ATOM     68  C   UNL A   1      46.085  32.915  27.049  1.00  0.00     0.029 A 
ATOM     69  N   UNL A   1      45.705  33.098  29.247  1.00  0.00    -0.354 N 
ATOM     70  C   UNL A   1      46.429  29.773  31.915  1.00  0.00     0.074 A 
ATOM     71  C   UNL A   1      46.908  28.619  31.187  1.00  0.00     0.031 C 
ATOM     72  C   UNL A   1      45.656  34.168  27.286  1.00  0.00     0.029 A 
ATOM     73  C   UNL A   1      45.357  34.312  28.709  1.00  0.00     0.049 A 
ATOM     74  H   UNL A   1      45.660  32.902  30.210  1.00  0.00     0.167 HD
ATOM     75  C   UNL A   1      46.275  29.817  33.260  1.00  0.00     0.037 A 
ATOM     76  C   UNL A   1      44.831  35.405  29.299  1.00  0.00     0.037 A 
ATOM     77  C   UNL A   1      45.794  30.965  33.984  1.00  0.00     0.049 A 
ATOM     78  C   UNL A   1      44.590  35.394  30.791  1.00  0.00     0.074 A 
ATOM     79  C   UNL A   1      45.607  31.108  35.348  1.00  0.00     0.029 A 
ATOM     80  N   UNL A   1      45.413  32.164  33.401  1.00  0.00    -0.354 N 
ATOM     81  N   UNL A   1      44.844  34.454  31.668  1.00  0.00    -0.248 NA
ATOM     82  C   UNL A   1      43.993  36.606  31.372  1.00  0.00     0.031 C 
ATOM     83  C   UNL A   1      45.058  32.371  35.585  1.00  0.00     0.029 A 
ATOM     84  C   UNL A   1      44.967  33.042  34.376  1.00  0.00     0.049 A 
ATOM     85  H   UNL A   1      45.454  32.362  32.438  1.00  0.00     0.167 HD
ATOM     86  C   UNL A   1      44.469  34.971  32.904  1.00  0.00     0.074 A 
ATOM     87  C   UNL A   1      43.997  36.317  32.665  1.00  0.00     0.031 C 
ATOM     88  C   UNL A   1      44.507  34.384  34.126  1.00  0.00     0.037 A 
BRANCH  75  89
ATOM     89  C   UNL A   1      46.615  28.581  34.042  1.00  0.00     0.064 A 
ATOM     90  C   UNL A   1      45.723  27.502  34.142  1.00  0.00     0.173 A 
ATOM     91  C   UNL A   1      47.874  28.448  34.648  1.00  0.00     0.173 A 
ATOM     92  F   UNL A   1      44.501  27.583  33.594  1.00  0.00    -0.203 F 
ATOM     93  C   UNL A   1      46.073  26.345  34.833  1.00  0.00     0.198 A 
ATOM     94  C   UNL A   1      48.232  27.278  35.311  1.00  0.00     0.198 A 
ATOM     95  F   UNL A   1      48.766  29.449  34.581  1.00  0.00    -0.203 F 
ATOM     96  F   UNL A   1      45.190  25.343  34.949  1.00  0.00    -0.200 F 
ATOM     97  C   UNL A   1      47.330  26.229  35.407  1.00  0.00     0.200 A 
ATOM     98  F   UNL A   1      49.452  27.163  35.852  1.00  0.00    -0.200 F 
ATOM     99  F   UNL A   1      47.671  25.107  36.056  1.00  0.00    -0.200 F 
ENDBRANCH  75  89
BRANCH  76 100
ATOM    100  C   UNL A   1      44.467  36.599  28.488  1.00  0.00     0.064 A 
ATOM    101  C   UNL A   1      43.172  36.766  27.978  1.00  0.00     0.173 A 
ATOM    102  C   UNL A   1      45.426  37.567  28.151  1.00  0.00     0.173 A 
ATOM    103  F   UNL A   1      42.223  35.857  28.246  1.00  0.00    -0.203 F 
ATOM    104  C   UNL A   1      42.860  37.833  27.135  1.00  0.00     0.198 A 
ATOM    105  C   UNL A   1      45.103  38.652  27.340  1.00  0.00     0.198 A 
ATOM    106  F   UNL A   1      46.682  37.455  28.607  1.00  0.00    -0.203 F 
ATOM    107  F   UNL A   1      41.633  37.926  26.604  1.00  0.00    -0.200 F 
ATOM    108  C   UNL A   1      43.824  38.776  26.821  1.00  0.00     0.200 A 
ATOM    109  F   UNL A   1      46.036  39.569  27.051  1.00  0.00    -0.200 F 
ATOM    110  F   UNL A   1      43.526  39.797  26.005  1.00  0.00    -0.200 F 
ENDBRANCH  76 100
BRANCH  88 111
ATOM    111  C   UNL A   1      44.066  35.211  35.303  1.00  0.00     0.064 A 
ATOM    112  C   UNL A   1      44.959  36.027  36.014  1.00  0.00     0.173 A 
ATOM    113  C   UNL A   1      42.723  35.200  35.714  1.00  0.00     0.173 A 
ATOM    114  F   UNL A   1      46.257  36.067  35.670  1.00  0.00    -0.203 F 
ATOM    115  C   UNL A   1      44.537  36.761  37.118  1.00  0.00     0.198 A 
ATOM    116  C   UNL A   1      42.296  35.968  36.794  1.00  0.00     0.198 A 
ATOM    117  F   UNL A   1      41.822  34.450  35.064  1.00  0.00    -0.203 F 
ATOM    118  F   UNL A   1      45.424  37.477  37.823  1.00  0.00    -0.200 F 
ATOM    119  C   UNL A   1      43.206  36.737  37.504  1.00  0.00     0.200 A 
ATOM    120  F   UNL A   1      41.005  35.957  37.153  1.00  0.00    -0.200 F 
ATOM    121  F   UNL A   1      42.800  37.446  38.567  1.00  0.00    -0.200 F 
ENDBRANCH  88 111
ENDBRANCH  62  63
ENDBRANCH  55  57
ENDBRANCH  54  55
ENDBRANCH  53  54
ENDBRANCH  52  53
ENDBRANCH  51  52
ENDBRANCH  50  51
ENDBRANCH  49  50
ENDBRANCH  48  49
ENDBRANCH  47  48
ENDBRANCH  46  47
ENDBRANCH  45  46
ENDBRANCH   1  45
TORSDOF 34
ENDMDL
