MODEL 1
REMARK VINA RESULT:     -10.3      0.000      0.000
REMARK SMILES O=C(OCCOCCOCCOCCOC(=O)c1cc(/C=C/c2cc(O)cc(O)c2)ccc1O)c1ccc(-c2c3nc(c(-c4c(F)c(F)c(F)c(F)c4F)c4ccc([nH]4)c(-c4c(F)c(F)c(F)c(F)c4F)c4nc(c(-c5c(F)c(F)c(F)c(F)c5F)c5ccc2[nH]5)C=C4)C=C3)cc1
REMARK SMILES IDX 10 1 9 2 8 3 7 4 6 5 5 6 4 7 3 8 2 9 1 10 35 11 36 12 97 13
REMARK SMILES IDX 37 14 96 15 38 16 39 17 40 18 90 19 41 20 95 21 89 22 91 23
REMARK SMILES IDX 42 24 94 25 88 26 87 27 43 29 75 30 55 31 74 32 56 33 59 34
REMARK SMILES IDX 73 35 92 36 57 37 58 38 72 40 93 41 60 42 44 43 45 44 53 45
REMARK SMILES IDX 46 46 47 47 51 48 54 49 48 50 49 51 52 52 50 53 76 54 77 55
REMARK SMILES IDX 85 56 78 57 79 58 83 59 86 60 80 61 81 62 84 63 82 64 61 65
REMARK SMILES IDX 62 66 70 67 63 68 64 69 68 70 71 71 65 72 66 73 69 74 67 75
REMARK SMILES IDX 11 76 12 77 13 78 14 79 15 80 16 81 17 82 18 83 19 84 33 85
REMARK SMILES IDX 20 86 32 87 31 88 34 89 21 91 22 92 23 93 24 94 30 95 25 96
REMARK SMILES IDX 28 97 27 98 26 99 29 101
REMARK H PARENT 91 28 59 39 34 90 26 100 29 102
REMARK Flexibility Score: inf
ROOT
ATOM      1  C   UNL A   1      34.066  29.344  27.558  1.00  0.00     0.188 C 
ENDROOT
BRANCH   1   2
ATOM      2  O   UNL A   1      34.321  30.717  27.284  1.00  0.00    -0.377 OA
BRANCH   2   3
ATOM      3  C   UNL A   1      34.477  31.577  28.410  1.00  0.00     0.188 C 
BRANCH   3   4
ATOM      4  C   UNL A   1      34.672  33.053  28.069  1.00  0.00     0.188 C 
BRANCH   4   5
ATOM      5  O   UNL A   1      33.764  33.869  28.813  1.00  0.00    -0.376 OA
BRANCH   5   6
ATOM      6  C   UNL A   1      34.013  35.272  28.760  1.00  0.00     0.202 C 
BRANCH   6   7
ATOM      7  C   UNL A   1      32.888  36.132  29.338  1.00  0.00     0.261 C 
BRANCH   7   8
ATOM      8  O   UNL A   1      32.288  35.546  30.499  1.00  0.00    -0.460 OA
BRANCH   8   9
ATOM      9  C   UNL A   1      32.703  35.640  31.788  1.00  0.00     0.338 C 
ATOM     10  O   UNL A   1      32.013  36.293  32.570  1.00  0.00    -0.246 OA
BRANCH   9  11
ATOM     11  C   UNL A   1      33.939  34.993  32.333  1.00  0.00     0.060 A 
ATOM     12  C   UNL A   1      35.221  35.547  32.352  1.00  0.00     0.016 A 
ATOM     13  C   UNL A   1      33.766  33.737  32.941  1.00  0.00     0.016 A 
ATOM     14  C   UNL A   1      36.306  34.875  32.898  1.00  0.00     0.010 A 
ATOM     15  C   UNL A   1      34.846  33.051  33.502  1.00  0.00     0.010 A 
ATOM     16  C   UNL A   1      36.125  33.614  33.450  1.00  0.00    -0.014 A 
BRANCH  16  17
ATOM     17  C   UNL A   1      37.323  32.818  33.757  1.00  0.00     0.031 A 
ATOM     18  C   UNL A   1      37.973  33.047  35.084  1.00  0.00     0.074 A 
ATOM     19  C   UNL A   1      37.729  31.848  32.922  1.00  0.00     0.049 A 
ATOM     20  N   UNL A   1      39.094  32.577  35.556  1.00  0.00    -0.248 NA
ATOM     21  C   UNL A   1      37.246  33.928  36.015  1.00  0.00     0.031 C 
ATOM     22  C   UNL A   1      37.051  31.466  31.683  1.00  0.00     0.029 A 
ATOM     23  N   UNL A   1      38.802  31.003  32.997  1.00  0.00    -0.354 N 
ATOM     24  C   UNL A   1      39.229  33.143  36.816  1.00  0.00     0.074 A 
ATOM     25  C   UNL A   1      38.077  33.983  37.042  1.00  0.00     0.031 C 
ATOM     26  C   UNL A   1      37.737  30.466  31.104  1.00  0.00     0.029 A 
ATOM     27  C   UNL A   1      38.933  30.195  31.895  1.00  0.00     0.049 A 
ATOM     28  H   UNL A   1      39.418  30.977  33.764  1.00  0.00     0.167 HD
ATOM     29  C   UNL A   1      40.248  32.981  37.690  1.00  0.00     0.037 A 
ATOM     30  C   UNL A   1      39.946  29.381  31.550  1.00  0.00     0.037 A 
ATOM     31  C   UNL A   1      41.375  32.133  37.419  1.00  0.00     0.049 A 
ATOM     32  C   UNL A   1      41.117  29.280  32.493  1.00  0.00     0.074 A 
ATOM     33  C   UNL A   1      42.503  31.913  38.182  1.00  0.00     0.029 A 
ATOM     34  N   UNL A   1      41.507  31.362  36.267  1.00  0.00    -0.354 N 
ATOM     35  N   UNL A   1      41.293  29.870  33.653  1.00  0.00    -0.248 NA
ATOM     36  C   UNL A   1      42.232  28.422  32.081  1.00  0.00     0.031 C 
ATOM     37  C   UNL A   1      43.341  31.049  37.469  1.00  0.00     0.029 A 
ATOM     38  C   UNL A   1      42.710  30.683  36.287  1.00  0.00     0.049 A 
ATOM     39  H   UNL A   1      40.840  31.308  35.545  1.00  0.00     0.167 HD
ATOM     40  C   UNL A   1      42.529  29.449  34.117  1.00  0.00     0.074 A 
ATOM     41  C   UNL A   1      43.054  28.539  33.116  1.00  0.00     0.031 C 
ATOM     42  C   UNL A   1      43.179  29.780  35.262  1.00  0.00     0.037 A 
BRANCH  29  43
ATOM     43  C   UNL A   1      40.210  33.815  38.937  1.00  0.00     0.064 A 
ATOM     44  C   UNL A   1      39.497  33.425  40.081  1.00  0.00     0.173 A 
ATOM     45  C   UNL A   1      40.830  35.075  38.953  1.00  0.00     0.173 A 
ATOM     46  F   UNL A   1      38.855  32.247  40.108  1.00  0.00    -0.203 F 
ATOM     47  C   UNL A   1      39.365  34.284  41.171  1.00  0.00     0.198 A 
ATOM     48  C   UNL A   1      40.723  35.916  40.056  1.00  0.00     0.198 A 
ATOM     49  F   UNL A   1      41.517  35.503  37.883  1.00  0.00    -0.203 F 
ATOM     50  F   UNL A   1      38.607  33.925  42.217  1.00  0.00    -0.200 F 
ATOM     51  C   UNL A   1      39.979  35.527  41.158  1.00  0.00     0.200 A 
ATOM     52  F   UNL A   1      41.318  37.117  40.040  1.00  0.00    -0.200 F 
ATOM     53  F   UNL A   1      39.832  36.360  42.198  1.00  0.00    -0.200 F 
ENDBRANCH  29  43
BRANCH  30  54
ATOM     54  C   UNL A   1      39.916  28.676  30.239  1.00  0.00     0.064 A 
ATOM     55  C   UNL A   1      40.483  29.238  29.090  1.00  0.00     0.173 A 
ATOM     56  C   UNL A   1      39.343  27.399  30.122  1.00  0.00     0.173 A 
ATOM     57  F   UNL A   1      41.024  30.464  29.139  1.00  0.00    -0.203 F 
ATOM     58  C   UNL A   1      40.478  28.552  27.874  1.00  0.00     0.198 A 
ATOM     59  C   UNL A   1      39.365  26.702  28.916  1.00  0.00     0.198 A 
ATOM     60  F   UNL A   1      38.781  26.814  31.190  1.00  0.00    -0.203 F 
ATOM     61  F   UNL A   1      41.002  29.125  26.782  1.00  0.00    -0.200 F 
ATOM     62  C   UNL A   1      39.929  27.282  27.791  1.00  0.00     0.200 A 
ATOM     63  F   UNL A   1      38.847  25.468  28.846  1.00  0.00    -0.200 F 
ATOM     64  F   UNL A   1      39.940  26.617  26.626  1.00  0.00    -0.200 F 
ENDBRANCH  30  54
BRANCH  42  65
ATOM     65  C   UNL A   1      44.507  29.131  35.503  1.00  0.00     0.064 A 
ATOM     66  C   UNL A   1      44.613  27.906  36.174  1.00  0.00     0.173 A 
ATOM     67  C   UNL A   1      45.673  29.701  34.972  1.00  0.00     0.173 A 
ATOM     68  F   UNL A   1      43.525  27.332  36.709  1.00  0.00    -0.203 F 
ATOM     69  C   UNL A   1      45.846  27.277  36.312  1.00  0.00     0.198 A 
ATOM     70  C   UNL A   1      46.898  29.056  35.086  1.00  0.00     0.198 A 
ATOM     71  F   UNL A   1      45.615  30.869  34.313  1.00  0.00    -0.203 F 
ATOM     72  F   UNL A   1      45.934  26.119  36.982  1.00  0.00    -0.200 F 
ATOM     73  C   UNL A   1      46.984  27.845  35.758  1.00  0.00     0.200 A 
ATOM     74  F   UNL A   1      47.993  29.597  34.535  1.00  0.00    -0.200 F 
ATOM     75  F   UNL A   1      48.167  27.227  35.873  1.00  0.00    -0.200 F 
ENDBRANCH  42  65
ENDBRANCH  16  17
ENDBRANCH   9  11
ENDBRANCH   8   9
ENDBRANCH   7   8
ENDBRANCH   6   7
ENDBRANCH   5   6
ENDBRANCH   4   5
ENDBRANCH   3   4
ENDBRANCH   2   3
ENDBRANCH   1   2
BRANCH   1  76
ATOM     76  C   UNL A   1      34.083  28.336  26.385  1.00  0.00     0.188 C 
BRANCH  76  77
ATOM     77  O   UNL A   1      33.444  28.798  25.205  1.00  0.00    -0.376 OA
BRANCH  77  78
ATOM     78  C   UNL A   1      33.842  28.155  23.999  1.00  0.00     0.202 C 
BRANCH  78  79
ATOM     79  C   UNL A   1      33.165  26.817  23.669  1.00  0.00     0.261 C 
BRANCH  79  80
ATOM     80  O   UNL A   1      33.988  25.648  23.815  1.00  0.00    -0.460 OA
BRANCH  80  81
ATOM     81  C   UNL A   1      33.911  24.646  22.908  1.00  0.00     0.342 C 
ATOM     82  O   UNL A   1      33.654  24.756  21.721  1.00  0.00    -0.246 OA
BRANCH  81  83
ATOM     83  C   UNL A   1      34.487  23.436  23.555  1.00  0.00     0.102 A 
ATOM     84  C   UNL A   1      35.758  23.542  24.163  1.00  0.00     0.027 A 
ATOM     85  C   UNL A   1      33.716  22.285  23.750  1.00  0.00     0.130 A 
ATOM     86  C   UNL A   1      36.219  22.531  25.020  1.00  0.00    -0.025 A 
ATOM     87  C   UNL A   1      34.196  21.251  24.550  1.00  0.00     0.048 A 
ATOM     88  C   UNL A   1      35.434  21.378  25.184  1.00  0.00     0.012 A 
BRANCH  85  89
ATOM     89  O   UNL A   1      32.484  22.171  23.171  1.00  0.00    -0.507 OA
ATOM     90  H   UNL A   1      32.291  22.640  22.383  1.00  0.00     0.293 HD
ENDBRANCH  85  89
BRANCH  86  91
ATOM     91  C   UNL A   1      37.498  22.593  25.750  1.00  0.00     0.009 C 
ATOM     92  C   UNL A   1      38.479  21.673  25.716  1.00  0.00     0.009 C 
BRANCH  92  93
ATOM     93  C   UNL A   1      39.749  21.837  26.456  1.00  0.00    -0.018 A 
ATOM     94  C   UNL A   1      40.197  23.106  26.861  1.00  0.00     0.054 A 
ATOM     95  C   UNL A   1      40.512  20.711  26.806  1.00  0.00     0.054 A 
ATOM     96  C   UNL A   1      41.391  23.238  27.570  1.00  0.00     0.119 A 
ATOM     97  C   UNL A   1      41.705  20.868  27.518  1.00  0.00     0.119 A 
ATOM     98  C   UNL A   1      42.151  22.126  27.899  1.00  0.00     0.092 A 
BRANCH  96  99
ATOM     99  O   UNL A   1      41.849  24.462  27.964  1.00  0.00    -0.508 OA
ATOM    100  H   UNL A   1      42.107  25.095  27.324  1.00  0.00     0.293 HD
ENDBRANCH  96  99
BRANCH  97 101
ATOM    101  O   UNL A   1      42.477  19.798  27.869  1.00  0.00    -0.508 OA
ATOM    102  H   UNL A   1      42.804  19.723  28.744  1.00  0.00     0.293 HD
ENDBRANCH  97 101
ENDBRANCH  92  93
ENDBRANCH  86  91
ENDBRANCH  81  83
ENDBRANCH  80  81
ENDBRANCH  79  80
ENDBRANCH  78  79
ENDBRANCH  77  78
ENDBRANCH  76  77
ENDBRANCH   1  76
TORSDOF 25
ENDMDL
MODEL 2
REMARK VINA RESULT:      -9.8      2.151      7.821
REMARK SMILES O=C(OCCOCCOCCOCCOC(=O)c1cc(/C=C/c2cc(O)cc(O)c2)ccc1O)c1ccc(-c2c3nc(c(-c4c(F)c(F)c(F)c(F)c4F)c4ccc([nH]4)c(-c4c(F)c(F)c(F)c(F)c4F)c4nc(c(-c5c(F)c(F)c(F)c(F)c5F)c5ccc2[nH]5)C=C4)C=C3)cc1
REMARK SMILES IDX 10 1 9 2 8 3 7 4 6 5 5 6 4 7 3 8 2 9 1 10 35 11 36 12 97 13
REMARK SMILES IDX 37 14 96 15 38 16 39 17 40 18 90 19 41 20 95 21 89 22 91 23
REMARK SMILES IDX 42 24 94 25 88 26 87 27 43 29 75 30 55 31 74 32 56 33 59 34
REMARK SMILES IDX 73 35 92 36 57 37 58 38 72 40 93 41 60 42 44 43 45 44 53 45
REMARK SMILES IDX 46 46 47 47 51 48 54 49 48 50 49 51 52 52 50 53 76 54 77 55
REMARK SMILES IDX 85 56 78 57 79 58 83 59 86 60 80 61 81 62 84 63 82 64 61 65
REMARK SMILES IDX 62 66 70 67 63 68 64 69 68 70 71 71 65 72 66 73 69 74 67 75
REMARK SMILES IDX 11 76 12 77 13 78 14 79 15 80 16 81 17 82 18 83 19 84 33 85
REMARK SMILES IDX 20 86 32 87 31 88 34 89 21 91 22 92 23 93 24 94 30 95 25 96
REMARK SMILES IDX 28 97 27 98 26 99 29 101
REMARK H PARENT 91 28 59 39 34 90 26 100 29 102
REMARK Flexibility Score: inf
ROOT
ATOM      1  C   UNL A   1      34.045  30.009  27.303  1.00  0.00     0.188 C 
ENDROOT
BRANCH   1   2
ATOM      2  O   UNL A   1      33.526  31.275  27.697  1.00  0.00    -0.377 OA
BRANCH   2   3
ATOM      3  C   UNL A   1      34.403  32.128  28.428  1.00  0.00     0.188 C 
BRANCH   3   4
ATOM      4  C   UNL A   1      34.497  33.557  27.898  1.00  0.00     0.188 C 
BRANCH   4   5
ATOM      5  O   UNL A   1      33.427  34.357  28.407  1.00  0.00    -0.376 OA
BRANCH   5   6
ATOM      6  C   UNL A   1      33.712  35.747  28.553  1.00  0.00     0.202 C 
BRANCH   6   7
ATOM      7  C   UNL A   1      32.893  36.446  29.640  1.00  0.00     0.261 C 
BRANCH   7   8
ATOM      8  O   UNL A   1      32.374  35.531  30.612  1.00  0.00    -0.460 OA
BRANCH   8   9
ATOM      9  C   UNL A   1      32.868  35.259  31.846  1.00  0.00     0.338 C 
ATOM     10  O   UNL A   1      32.252  35.684  32.822  1.00  0.00    -0.246 OA
BRANCH   9  11
ATOM     11  C   UNL A   1      34.110  34.462  32.109  1.00  0.00     0.060 A 
ATOM     12  C   UNL A   1      34.173  33.220  32.746  1.00  0.00     0.016 A 
ATOM     13  C   UNL A   1      35.309  34.995  31.603  1.00  0.00     0.016 A 
ATOM     14  C   UNL A   1      35.374  32.547  32.928  1.00  0.00     0.010 A 
ATOM     15  C   UNL A   1      36.524  34.325  31.772  1.00  0.00     0.010 A 
ATOM     16  C   UNL A   1      36.555  33.112  32.465  1.00  0.00    -0.014 A 
BRANCH  16  17
ATOM     17  C   UNL A   1      37.823  32.523  32.919  1.00  0.00     0.031 A 
ATOM     18  C   UNL A   1      38.480  31.533  32.011  1.00  0.00     0.074 A 
ATOM     19  C   UNL A   1      38.413  32.957  34.044  1.00  0.00     0.049 A 
ATOM     20  N   UNL A   1      39.526  30.782  32.212  1.00  0.00    -0.248 NA
ATOM     21  C   UNL A   1      37.871  31.376  30.678  1.00  0.00     0.031 C 
ATOM     22  C   UNL A   1      37.905  34.030  34.900  1.00  0.00     0.029 A 
ATOM     23  N   UNL A   1      39.570  32.555  34.654  1.00  0.00    -0.354 N 
ATOM     24  C   UNL A   1      39.670  30.031  31.054  1.00  0.00     0.074 A 
ATOM     25  C   UNL A   1      38.613  30.419  30.150  1.00  0.00     0.031 C 
ATOM     26  C   UNL A   1      38.744  34.193  35.937  1.00  0.00     0.029 A 
ATOM     27  C   UNL A   1      39.799  33.188  35.851  1.00  0.00     0.049 A 
ATOM     28  H   UNL A   1      40.176  31.881  34.272  1.00  0.00     0.167 HD
ATOM     29  C   UNL A   1      40.600  29.084  30.791  1.00  0.00     0.037 A 
ATOM     30  C   UNL A   1      40.726  32.927  36.789  1.00  0.00     0.037 A 
ATOM     31  C   UNL A   1      41.632  28.732  31.725  1.00  0.00     0.049 A 
ATOM     32  C   UNL A   1      41.700  31.809  36.521  1.00  0.00     0.074 A 
ATOM     33  C   UNL A   1      42.607  27.761  31.621  1.00  0.00     0.029 A 
ATOM     34  N   UNL A   1      41.812  29.357  32.956  1.00  0.00    -0.354 N 
ATOM     35  N   UNL A   1      41.797  31.039  35.461  1.00  0.00    -0.248 NA
ATOM     36  C   UNL A   1      42.676  31.509  37.574  1.00  0.00     0.031 C 
ATOM     37  C   UNL A   1      43.343  27.763  32.811  1.00  0.00     0.029 A 
ATOM     38  C   UNL A   1      42.867  28.776  33.633  1.00  0.00     0.049 A 
ATOM     39  H   UNL A   1      41.267  30.105  33.294  1.00  0.00     0.167 HD
ATOM     40  C   UNL A   1      42.850  30.171  35.711  1.00  0.00     0.074 A 
ATOM     41  C   UNL A   1      43.369  30.522  37.020  1.00  0.00     0.031 C 
ATOM     42  C   UNL A   1      43.347  29.173  34.936  1.00  0.00     0.037 A 
BRANCH  29  43
ATOM     43  C   UNL A   1      40.449  28.325  29.505  1.00  0.00     0.064 A 
ATOM     44  C   UNL A   1      39.670  27.162  29.406  1.00  0.00     0.173 A 
ATOM     45  C   UNL A   1      41.174  28.723  28.372  1.00  0.00     0.173 A 
ATOM     46  F   UNL A   1      38.985  26.715  30.470  1.00  0.00    -0.203 F 
ATOM     47  C   UNL A   1      39.662  26.401  28.238  1.00  0.00     0.198 A 
ATOM     48  C   UNL A   1      41.138  27.979  27.196  1.00  0.00     0.198 A 
ATOM     49  F   UNL A   1      41.943  29.822  28.412  1.00  0.00    -0.203 F 
ATOM     50  F   UNL A   1      38.979  25.249  28.196  1.00  0.00    -0.200 F 
ATOM     51  C   UNL A   1      40.395  26.811  27.134  1.00  0.00     0.200 A 
ATOM     52  F   UNL A   1      41.847  28.378  26.131  1.00  0.00    -0.200 F 
ATOM     53  F   UNL A   1      40.403  26.068  26.020  1.00  0.00    -0.200 F 
ENDBRANCH  29  43
BRANCH  30  54
ATOM     54  C   UNL A   1      40.716  33.686  38.069  1.00  0.00     0.064 A 
ATOM     55  C   UNL A   1      41.573  34.771  38.287  1.00  0.00     0.173 A 
ATOM     56  C   UNL A   1      39.815  33.356  39.095  1.00  0.00     0.173 A 
ATOM     57  F   UNL A   1      42.469  35.117  37.351  1.00  0.00    -0.203 F 
ATOM     58  C   UNL A   1      41.530  35.496  39.479  1.00  0.00     0.198 A 
ATOM     59  C   UNL A   1      39.751  34.097  40.272  1.00  0.00     0.198 A 
ATOM     60  F   UNL A   1      38.973  32.323  38.943  1.00  0.00    -0.203 F 
ATOM     61  F   UNL A   1      42.381  36.512  39.674  1.00  0.00    -0.200 F 
ATOM     62  C   UNL A   1      40.613  35.165  40.465  1.00  0.00     0.200 A 
ATOM     63  F   UNL A   1      38.852  33.783  41.214  1.00  0.00    -0.200 F 
ATOM     64  F   UNL A   1      40.562  35.873  41.603  1.00  0.00    -0.200 F 
ENDBRANCH  30  54
BRANCH  42  65
ATOM     65  C   UNL A   1      44.524  28.418  35.472  1.00  0.00     0.064 A 
ATOM     66  C   UNL A   1      45.836  28.853  35.250  1.00  0.00     0.173 A 
ATOM     67  C   UNL A   1      44.324  27.299  36.293  1.00  0.00     0.173 A 
ATOM     68  F   UNL A   1      46.073  29.912  34.460  1.00  0.00    -0.203 F 
ATOM     69  C   UNL A   1      46.912  28.188  35.827  1.00  0.00     0.198 A 
ATOM     70  C   UNL A   1      45.400  26.654  36.892  1.00  0.00     0.198 A 
ATOM     71  F   UNL A   1      43.083  26.853  36.540  1.00  0.00    -0.203 F 
ATOM     72  F   UNL A   1      48.163  28.601  35.581  1.00  0.00    -0.200 F 
ATOM     73  C   UNL A   1      46.692  27.097  36.656  1.00  0.00     0.200 A 
ATOM     74  F   UNL A   1      45.185  25.612  37.706  1.00  0.00    -0.200 F 
ATOM     75  F   UNL A   1      47.729  26.471  37.230  1.00  0.00    -0.200 F 
ENDBRANCH  42  65
ENDBRANCH  16  17
ENDBRANCH   9  11
ENDBRANCH   8   9
ENDBRANCH   7   8
ENDBRANCH   6   7
ENDBRANCH   5   6
ENDBRANCH   4   5
ENDBRANCH   3   4
ENDBRANCH   2   3
ENDBRANCH   1   2
BRANCH   1  76
ATOM     76  C   UNL A   1      33.150  29.065  26.469  1.00  0.00     0.188 C 
BRANCH  76  77
ATOM     77  O   UNL A   1      32.992  27.767  27.019  1.00  0.00    -0.376 OA
BRANCH  77  78
ATOM     78  C   UNL A   1      31.698  27.190  26.872  1.00  0.00     0.202 C 
BRANCH  78  79
ATOM     79  C   UNL A   1      31.325  26.668  25.476  1.00  0.00     0.261 C 
BRANCH  79  80
ATOM     80  O   UNL A   1      30.983  25.275  25.401  1.00  0.00    -0.460 OA
BRANCH  80  81
ATOM     81  C   UNL A   1      31.054  24.621  24.219  1.00  0.00     0.342 C 
ATOM     82  O   UNL A   1      30.351  24.809  23.239  1.00  0.00    -0.246 OA
BRANCH  81  83
ATOM     83  C   UNL A   1      32.327  23.850  24.229  1.00  0.00     0.102 A 
ATOM     84  C   UNL A   1      32.301  22.520  24.703  1.00  0.00     0.027 A 
ATOM     85  C   UNL A   1      33.473  24.341  23.593  1.00  0.00     0.130 A 
ATOM     86  C   UNL A   1      33.390  21.666  24.475  1.00  0.00    -0.025 A 
ATOM     87  C   UNL A   1      34.581  23.516  23.419  1.00  0.00     0.048 A 
ATOM     88  C   UNL A   1      34.535  22.188  23.851  1.00  0.00     0.012 A 
BRANCH  85  89
ATOM     89  O   UNL A   1      33.509  25.624  23.126  1.00  0.00    -0.507 OA
ATOM     90  H   UNL A   1      33.470  26.342  23.726  1.00  0.00     0.293 HD
ENDBRANCH  85  89
BRANCH  86  91
ATOM     91  C   UNL A   1      33.420  20.246  24.872  1.00  0.00     0.009 C 
ATOM     92  C   UNL A   1      33.523  19.191  24.044  1.00  0.00     0.009 C 
BRANCH  92  93
ATOM     93  C   UNL A   1      33.583  17.798  24.537  1.00  0.00    -0.018 A 
ATOM     94  C   UNL A   1      34.810  17.130  24.687  1.00  0.00     0.054 A 
ATOM     95  C   UNL A   1      32.404  17.130  24.907  1.00  0.00     0.054 A 
ATOM     96  C   UNL A   1      34.845  15.820  25.166  1.00  0.00     0.119 A 
ATOM     97  C   UNL A   1      32.464  15.818  25.386  1.00  0.00     0.119 A 
ATOM     98  C   UNL A   1      33.678  15.158  25.514  1.00  0.00     0.092 A 
BRANCH  96  99
ATOM     99  O   UNL A   1      36.025  15.150  25.310  1.00  0.00    -0.508 OA
ATOM    100  H   UNL A   1      36.813  15.622  25.494  1.00  0.00     0.293 HD
ENDBRANCH  96  99
BRANCH  97 101
ATOM    101  O   UNL A   1      31.339  15.133  25.747  1.00  0.00    -0.508 OA
ATOM    102  H   UNL A   1      30.680  14.944  25.107  1.00  0.00     0.293 HD
ENDBRANCH  97 101
ENDBRANCH  92  93
ENDBRANCH  86  91
ENDBRANCH  81  83
ENDBRANCH  80  81
ENDBRANCH  79  80
ENDBRANCH  78  79
ENDBRANCH  77  78
ENDBRANCH  76  77
ENDBRANCH   1  76
TORSDOF 25
ENDMDL
MODEL 3
REMARK VINA RESULT:      -9.7      2.194      3.775
REMARK SMILES O=C(OCCOCCOCCOCCOC(=O)c1cc(/C=C/c2cc(O)cc(O)c2)ccc1O)c1ccc(-c2c3nc(c(-c4c(F)c(F)c(F)c(F)c4F)c4ccc([nH]4)c(-c4c(F)c(F)c(F)c(F)c4F)c4nc(c(-c5c(F)c(F)c(F)c(F)c5F)c5ccc2[nH]5)C=C4)C=C3)cc1
REMARK SMILES IDX 10 1 9 2 8 3 7 4 6 5 5 6 4 7 3 8 2 9 1 10 35 11 36 12 97 13
REMARK SMILES IDX 37 14 96 15 38 16 39 17 40 18 90 19 41 20 95 21 89 22 91 23
REMARK SMILES IDX 42 24 94 25 88 26 87 27 43 29 75 30 55 31 74 32 56 33 59 34
REMARK SMILES IDX 73 35 92 36 57 37 58 38 72 40 93 41 60 42 44 43 45 44 53 45
REMARK SMILES IDX 46 46 47 47 51 48 54 49 48 50 49 51 52 52 50 53 76 54 77 55
REMARK SMILES IDX 85 56 78 57 79 58 83 59 86 60 80 61 81 62 84 63 82 64 61 65
REMARK SMILES IDX 62 66 70 67 63 68 64 69 68 70 71 71 65 72 66 73 69 74 67 75
REMARK SMILES IDX 11 76 12 77 13 78 14 79 15 80 16 81 17 82 18 83 19 84 33 85
REMARK SMILES IDX 20 86 32 87 31 88 34 89 21 91 22 92 23 93 24 94 30 95 25 96
REMARK SMILES IDX 28 97 27 98 26 99 29 101
REMARK H PARENT 91 28 59 39 34 90 26 100 29 102
REMARK Flexibility Score: inf
ROOT
ATOM      1  C   UNL A   1      34.632  29.622  27.619  1.00  0.00     0.188 C 
ENDROOT
BRANCH   1   2
ATOM      2  O   UNL A   1      34.346  31.012  27.504  1.00  0.00    -0.377 OA
BRANCH   2   3
ATOM      3  C   UNL A   1      34.812  31.852  28.557  1.00  0.00     0.188 C 
BRANCH   3   4
ATOM      4  C   UNL A   1      34.997  33.319  28.175  1.00  0.00     0.188 C 
BRANCH   4   5
ATOM      5  O   UNL A   1      33.912  34.111  28.666  1.00  0.00    -0.376 OA
BRANCH   5   6
ATOM      6  C   UNL A   1      34.049  35.519  28.491  1.00  0.00     0.202 C 
BRANCH   6   7
ATOM      7  C   UNL A   1      32.938  36.345  29.141  1.00  0.00     0.261 C 
BRANCH   7   8
ATOM      8  O   UNL A   1      32.306  35.657  30.228  1.00  0.00    -0.460 OA
BRANCH   8   9
ATOM      9  C   UNL A   1      32.642  35.690  31.542  1.00  0.00     0.338 C 
ATOM     10  O   UNL A   1      31.893  36.286  32.314  1.00  0.00    -0.246 OA
BRANCH   9  11
ATOM     11  C   UNL A   1      33.859  35.039  32.126  1.00  0.00     0.060 A 
ATOM     12  C   UNL A   1      35.134  35.601  32.212  1.00  0.00     0.016 A 
ATOM     13  C   UNL A   1      33.668  33.769  32.699  1.00  0.00     0.016 A 
ATOM     14  C   UNL A   1      36.200  34.924  32.790  1.00  0.00     0.010 A 
ATOM     15  C   UNL A   1      34.729  33.078  33.291  1.00  0.00     0.010 A 
ATOM     16  C   UNL A   1      36.004  33.650  33.305  1.00  0.00    -0.014 A 
BRANCH  16  17
ATOM     17  C   UNL A   1      37.194  32.856  33.646  1.00  0.00     0.031 A 
ATOM     18  C   UNL A   1      37.804  33.083  34.992  1.00  0.00     0.074 A 
ATOM     19  C   UNL A   1      37.626  31.887  32.823  1.00  0.00     0.049 A 
ATOM     20  N   UNL A   1      38.912  32.614  35.496  1.00  0.00    -0.248 NA
ATOM     21  C   UNL A   1      37.050  33.961  35.903  1.00  0.00     0.031 C 
ATOM     22  C   UNL A   1      36.986  31.506  31.563  1.00  0.00     0.029 A 
ATOM     23  N   UNL A   1      38.698  31.044  32.928  1.00  0.00    -0.354 N 
ATOM     24  C   UNL A   1      39.009  33.178  36.761  1.00  0.00     0.074 A 
ATOM     25  C   UNL A   1      37.849  34.016  36.954  1.00  0.00     0.031 C 
ATOM     26  C   UNL A   1      37.689  30.508  31.003  1.00  0.00     0.029 A 
ATOM     27  C   UNL A   1      38.862  30.238  31.828  1.00  0.00     0.049 A 
ATOM     28  H   UNL A   1      39.290  31.017  33.713  1.00  0.00     0.167 HD
ATOM     29  C   UNL A   1      40.002  33.016  37.665  1.00  0.00     0.037 A 
ATOM     30  C   UNL A   1      39.886  29.425  31.513  1.00  0.00     0.037 A 
ATOM     31  C   UNL A   1      41.138  32.171  37.425  1.00  0.00     0.049 A 
ATOM     32  C   UNL A   1      41.029  29.324  32.489  1.00  0.00     0.074 A 
ATOM     33  C   UNL A   1      42.243  31.950  38.221  1.00  0.00     0.029 A 
ATOM     34  N   UNL A   1      41.304  31.401  36.277  1.00  0.00    -0.354 N 
ATOM     35  N   UNL A   1      41.169  29.913  33.655  1.00  0.00    -0.248 NA
ATOM     36  C   UNL A   1      42.157  28.468  32.109  1.00  0.00     0.031 C 
ATOM     37  C   UNL A   1      43.103  31.088  37.531  1.00  0.00     0.029 A 
ATOM     38  C   UNL A   1      42.507  30.723  36.331  1.00  0.00     0.049 A 
ATOM     39  H   UNL A   1      40.659  31.347  35.535  1.00  0.00     0.167 HD
ATOM     40  C   UNL A   1      42.392  29.493  34.155  1.00  0.00     0.074 A 
ATOM     41  C   UNL A   1      42.948  28.585  33.168  1.00  0.00     0.031 C 
ATOM     42  C   UNL A   1      43.008  29.823  35.319  1.00  0.00     0.037 A 
BRANCH  29  43
ATOM     43  C   UNL A   1      39.926  33.849  38.911  1.00  0.00     0.064 A 
ATOM     44  C   UNL A   1      39.184  33.453  40.035  1.00  0.00     0.173 A 
ATOM     45  C   UNL A   1      40.540  35.110  38.945  1.00  0.00     0.173 A 
ATOM     46  F   UNL A   1      38.547  32.273  40.042  1.00  0.00    -0.203 F 
ATOM     47  C   UNL A   1      39.018  34.310  41.122  1.00  0.00     0.198 A 
ATOM     48  C   UNL A   1      40.399  35.950  40.046  1.00  0.00     0.198 A 
ATOM     49  F   UNL A   1      41.254  35.544  37.895  1.00  0.00    -0.203 F 
ATOM     50  F   UNL A   1      38.234  33.946  42.146  1.00  0.00    -0.200 F 
ATOM     51  C   UNL A   1      39.626  35.556  41.127  1.00  0.00     0.200 A 
ATOM     52  F   UNL A   1      40.989  37.153  40.049  1.00  0.00    -0.200 F 
ATOM     53  F   UNL A   1      39.448  36.387  42.163  1.00  0.00    -0.200 F 
ENDBRANCH  29  43
BRANCH  30  54
ATOM     54  C   UNL A   1      39.895  28.723  30.201  1.00  0.00     0.064 A 
ATOM     55  C   UNL A   1      40.482  29.294  29.065  1.00  0.00     0.173 A 
ATOM     56  C   UNL A   1      39.341  27.439  30.067  1.00  0.00     0.173 A 
ATOM     57  F   UNL A   1      41.007  30.526  29.130  1.00  0.00    -0.203 F 
ATOM     58  C   UNL A   1      40.515  28.610  27.849  1.00  0.00     0.198 A 
ATOM     59  C   UNL A   1      39.400  26.744  28.862  1.00  0.00     0.198 A 
ATOM     60  F   UNL A   1      38.762  26.844  31.121  1.00  0.00    -0.203 F 
ATOM     61  F   UNL A   1      41.057  29.191  26.770  1.00  0.00    -0.200 F 
ATOM     62  C   UNL A   1      39.983  27.333  27.751  1.00  0.00     0.200 A 
ATOM     63  F   UNL A   1      38.900  25.504  28.778  1.00  0.00    -0.200 F 
ATOM     64  F   UNL A   1      40.030  26.670  26.586  1.00  0.00    -0.200 F 
ENDBRANCH  30  54
BRANCH  42  65
ATOM     65  C   UNL A   1      44.329  29.175  35.598  1.00  0.00     0.064 A 
ATOM     66  C   UNL A   1      44.419  27.966  36.300  1.00  0.00     0.173 A 
ATOM     67  C   UNL A   1      45.506  29.729  35.073  1.00  0.00     0.173 A 
ATOM     68  F   UNL A   1      43.320  27.409  36.830  1.00  0.00    -0.203 F 
ATOM     69  C   UNL A   1      45.647  27.337  36.474  1.00  0.00     0.198 A 
ATOM     70  C   UNL A   1      46.726  29.082  35.223  1.00  0.00     0.198 A 
ATOM     71  F   UNL A   1      45.464  30.880  34.385  1.00  0.00    -0.203 F 
ATOM     72  F   UNL A   1      45.719  26.195  37.173  1.00  0.00    -0.200 F 
ATOM     73  C   UNL A   1      46.796  27.888  35.926  1.00  0.00     0.200 A 
ATOM     74  F   UNL A   1      47.832  29.606  34.678  1.00  0.00    -0.200 F 
ATOM     75  F   UNL A   1      47.975  27.268  36.075  1.00  0.00    -0.200 F 
ENDBRANCH  42  65
ENDBRANCH  16  17
ENDBRANCH   9  11
ENDBRANCH   8   9
ENDBRANCH   7   8
ENDBRANCH   6   7
ENDBRANCH   5   6
ENDBRANCH   4   5
ENDBRANCH   3   4
ENDBRANCH   2   3
ENDBRANCH   1   2
BRANCH   1  76
ATOM     76  C   UNL A   1      34.074  28.657  26.548  1.00  0.00     0.188 C 
BRANCH  76  77
ATOM     77  O   UNL A   1      33.629  29.293  25.360  1.00  0.00    -0.376 OA
BRANCH  77  78
ATOM     78  C   UNL A   1      32.257  29.097  25.034  1.00  0.00     0.202 C 
BRANCH  78  79
ATOM     79  C   UNL A   1      31.849  29.337  23.572  1.00  0.00     0.261 C 
BRANCH  79  80
ATOM     80  O   UNL A   1      30.611  30.039  23.377  1.00  0.00    -0.460 OA
BRANCH  80  81
ATOM     81  C   UNL A   1      29.752  29.646  22.408  1.00  0.00     0.342 C 
ATOM     82  O   UNL A   1      29.695  30.076  21.268  1.00  0.00    -0.246 OA
BRANCH  81  83
ATOM     83  C   UNL A   1      29.102  28.397  22.890  1.00  0.00     0.102 A 
ATOM     84  C   UNL A   1      29.924  27.298  23.222  1.00  0.00     0.027 A 
ATOM     85  C   UNL A   1      27.741  28.371  23.214  1.00  0.00     0.130 A 
ATOM     86  C   UNL A   1      29.400  26.212  23.939  1.00  0.00    -0.025 A 
ATOM     87  C   UNL A   1      27.201  27.269  23.871  1.00  0.00     0.048 A 
ATOM     88  C   UNL A   1      28.027  26.202  24.235  1.00  0.00     0.012 A 
BRANCH  85  89
ATOM     89  O   UNL A   1      26.935  29.430  22.903  1.00  0.00    -0.507 OA
ATOM     90  H   UNL A   1      26.557  29.496  22.048  1.00  0.00     0.293 HD
ENDBRANCH  85  89
BRANCH  86  91
ATOM     91  C   UNL A   1      30.200  25.058  24.387  1.00  0.00     0.009 C 
ATOM     92  C   UNL A   1      31.249  25.096  25.228  1.00  0.00     0.009 C 
BRANCH  92  93
ATOM     93  C   UNL A   1      31.972  23.878  25.653  1.00  0.00    -0.018 A 
ATOM     94  C   UNL A   1      31.512  22.598  25.301  1.00  0.00     0.054 A 
ATOM     95  C   UNL A   1      33.166  23.985  26.385  1.00  0.00     0.054 A 
ATOM     96  C   UNL A   1      32.216  21.462  25.699  1.00  0.00     0.119 A 
ATOM     97  C   UNL A   1      33.856  22.833  26.772  1.00  0.00     0.119 A 
ATOM     98  C   UNL A   1      33.386  21.571  26.437  1.00  0.00     0.092 A 
BRANCH  96  99
ATOM     99  O   UNL A   1      31.782  20.209  25.376  1.00  0.00    -0.508 OA
ATOM    100  H   UNL A   1      31.054  20.100  24.797  1.00  0.00     0.293 HD
ENDBRANCH  96  99
BRANCH  97 101
ATOM    101  O   UNL A   1      35.014  22.898  27.492  1.00  0.00    -0.508 OA
ATOM    102  H   UNL A   1      35.662  22.226  27.398  1.00  0.00     0.293 HD
ENDBRANCH  97 101
ENDBRANCH  92  93
ENDBRANCH  86  91
ENDBRANCH  81  83
ENDBRANCH  80  81
ENDBRANCH  79  80
ENDBRANCH  78  79
ENDBRANCH  77  78
ENDBRANCH  76  77
ENDBRANCH   1  76
TORSDOF 25
ENDMDL
