MODEL 1
REMARK VINA RESULT:     -10.3      0.000      0.000
REMARK SMILES COc1ccc(Cc2ncc(C(=O)OCCOCCOCCOCCOC(=O)c3ccc(-c4c5nc(c(-c6c(F)c(F)c(F)c(F)c6F)c6ccc([nH]6)c(-c6c(F)c(F)c(F)c(F)c6F)c6nc(c(-c7c(F)c(F)c(F)c(F)c7F)c7ccc4[nH]7)C=C6)C=C5)cc3)c(C)n2)cn1
REMARK SMILES IDX 19 1 18 2 17 3 16 4 15 5 14 6 12 7 13 8 11 9 8 10 9 11 94 12
REMARK SMILES IDX 10 13 92 14 93 15 7 16 6 17 3 18 4 19 96 20 5 21 95 22 2 23
REMARK SMILES IDX 1 24 20 25 21 26 22 27 23 28 24 29 25 30 26 31 27 32 28 33
REMARK SMILES IDX 29 34 30 35 91 36 31 37 90 38 32 39 33 40 34 41 84 42 35 43
REMARK SMILES IDX 89 44 83 45 85 46 36 47 88 48 82 49 81 50 37 52 69 53 49 54
REMARK SMILES IDX 68 55 50 56 53 57 67 58 86 59 51 60 52 61 66 63 87 64 54 65
REMARK SMILES IDX 38 66 39 67 47 68 40 69 41 70 45 71 48 72 42 73 43 74 46 75
REMARK SMILES IDX 44 76 70 77 71 78 79 79 72 80 73 81 77 82 80 83 74 84 75 85
REMARK SMILES IDX 78 86 76 87 55 88 56 89 64 90 57 91 58 92 62 93 65 94 59 95
REMARK SMILES IDX 60 96 63 97 61 98
REMARK H PARENT 85 51 53 62
REMARK Flexibility Score: inf
ROOT
ATOM      1  C   UNL A   1      33.058  24.128  24.789  1.00  0.00     0.188 C 
ENDROOT
BRANCH   1   2
ATOM      2  C   UNL A   1      32.563  25.500  24.285  1.00  0.00     0.188 C 
BRANCH   2   3
ATOM      3  O   UNL A   1      31.551  26.078  25.084  1.00  0.00    -0.376 OA
BRANCH   3   4
ATOM      4  C   UNL A   1      31.722  26.308  26.470  1.00  0.00     0.202 C 
BRANCH   4   5
ATOM      5  C   UNL A   1      31.406  27.626  27.202  1.00  0.00     0.261 C 
BRANCH   5   6
ATOM      6  O   UNL A   1      32.425  28.625  27.213  1.00  0.00    -0.460 OA
BRANCH   6   7
ATOM      7  C   UNL A   1      32.282  29.674  26.383  1.00  0.00     0.341 C 
ATOM      8  O   UNL A   1      31.564  29.722  25.399  1.00  0.00    -0.246 OA
BRANCH   7   9
ATOM      9  C   UNL A   1      32.942  30.855  26.963  1.00  0.00     0.099 A 
ATOM     10  C   UNL A   1      33.889  33.188  28.003  1.00  0.00     0.133 A 
ATOM     11  N   UNL A   1      32.598  33.153  27.627  1.00  0.00    -0.240 NA
ATOM     12  N   UNL A   1      34.723  32.126  27.939  1.00  0.00    -0.237 NA
ATOM     13  C   UNL A   1      32.160  31.986  27.110  1.00  0.00     0.130 A 
ATOM     14  C   UNL A   1      34.240  30.955  27.437  1.00  0.00     0.056 A 
ATOM     15  C   UNL A   1      35.244  29.842  27.382  1.00  0.00     0.068 C 
BRANCH  10  16
ATOM     16  C   UNL A   1      34.468  34.528  28.394  1.00  0.00     0.114 C 
BRANCH  16  17
ATOM     17  C   UNL A   1      33.848  35.183  29.601  1.00  0.00    -0.022 A 
ATOM     18  C   UNL A   1      32.765  36.477  31.779  1.00  0.00     0.212 A 
ATOM     19  C   UNL A   1      33.405  35.262  31.974  1.00  0.00     0.069 A 
ATOM     20  N   UNL A   1      32.641  37.052  30.567  1.00  0.00    -0.222 NA
ATOM     21  C   UNL A   1      33.956  34.612  30.871  1.00  0.00     0.011 A 
ATOM     22  C   UNL A   1      33.186  36.403  29.511  1.00  0.00     0.119 A 
BRANCH  18  23
ATOM     23  O   UNL A   1      32.124  37.149  32.784  1.00  0.00    -0.481 OA
ATOM     24  C   UNL A   1      31.002  36.457  33.317  1.00  0.00     0.280 C 
ENDBRANCH  18  23
ENDBRANCH  16  17
ENDBRANCH  10  16
ENDBRANCH   7   9
ENDBRANCH   6   7
ENDBRANCH   5   6
ENDBRANCH   4   5
ENDBRANCH   3   4
ENDBRANCH   2   3
ENDBRANCH   1   2
BRANCH   1  25
ATOM     25  O   UNL A   1      32.068  23.114  24.830  1.00  0.00    -0.377 OA
BRANCH  25  26
ATOM     26  C   UNL A   1      32.354  21.894  25.514  1.00  0.00     0.188 C 
BRANCH  26  27
ATOM     27  C   UNL A   1      32.921  20.639  24.804  1.00  0.00     0.188 C 
BRANCH  27  28
ATOM     28  O   UNL A   1      34.173  20.189  25.293  1.00  0.00    -0.376 OA
BRANCH  28  29
ATOM     29  C   UNL A   1      35.355  20.773  24.775  1.00  0.00     0.202 C 
BRANCH  29  30
ATOM     30  C   UNL A   1      36.217  21.574  25.759  1.00  0.00     0.261 C 
BRANCH  30  31
ATOM     31  O   UNL A   1      37.475  22.042  25.249  1.00  0.00    -0.460 OA
BRANCH  31  32
ATOM     32  C   UNL A   1      38.592  21.607  25.866  1.00  0.00     0.338 C 
ATOM     33  O   UNL A   1      39.065  20.482  25.838  1.00  0.00    -0.246 OA
BRANCH  32  34
ATOM     34  C   UNL A   1      39.265  22.782  26.453  1.00  0.00     0.060 A 
ATOM     35  C   UNL A   1      38.773  24.064  26.170  1.00  0.00     0.016 A 
ATOM     36  C   UNL A   1      40.373  22.617  27.286  1.00  0.00     0.016 A 
ATOM     37  C   UNL A   1      39.413  25.187  26.693  1.00  0.00     0.010 A 
ATOM     38  C   UNL A   1      41.025  23.744  27.794  1.00  0.00     0.010 A 
ATOM     39  C   UNL A   1      40.568  25.035  27.472  1.00  0.00    -0.014 A 
BRANCH  39  40
ATOM     40  C   UNL A   1      41.410  26.215  27.786  1.00  0.00     0.031 A 
ATOM     41  C   UNL A   1      40.812  27.316  28.618  1.00  0.00     0.074 A 
ATOM     42  C   UNL A   1      42.680  26.308  27.354  1.00  0.00     0.049 A 
ATOM     43  N   UNL A   1      41.320  28.469  28.967  1.00  0.00    -0.248 NA
ATOM     44  C   UNL A   1      39.450  27.081  29.124  1.00  0.00     0.031 C 
ATOM     45  C   UNL A   1      43.385  25.291  26.577  1.00  0.00     0.029 A 
ATOM     46  N   UNL A   1      43.597  27.318  27.500  1.00  0.00    -0.354 N 
ATOM     47  C   UNL A   1      40.340  29.099  29.722  1.00  0.00     0.074 A 
ATOM     48  C   UNL A   1      39.195  28.216  29.755  1.00  0.00     0.031 C 
ATOM     49  C   UNL A   1      44.624  25.736  26.303  1.00  0.00     0.029 A 
ATOM     50  C   UNL A   1      44.784  27.082  26.852  1.00  0.00     0.049 A 
ATOM     51  H   UNL A   1      43.421  28.134  28.023  1.00  0.00     0.167 HD
ATOM     52  C   UNL A   1      40.394  30.303  30.342  1.00  0.00     0.037 A 
ATOM     53  C   UNL A   1      45.862  27.877  26.696  1.00  0.00     0.037 A 
ATOM     54  C   UNL A   1      41.535  31.179  30.304  1.00  0.00     0.049 A 
ATOM     55  C   UNL A   1      45.864  29.249  27.324  1.00  0.00     0.074 A 
ATOM     56  C   UNL A   1      41.695  32.412  30.911  1.00  0.00     0.029 A 
ATOM     57  N   UNL A   1      42.707  30.920  29.609  1.00  0.00    -0.354 N 
ATOM     58  N   UNL A   1      44.947  29.828  28.061  1.00  0.00    -0.248 NA
ATOM     59  C   UNL A   1      47.059  30.078  27.102  1.00  0.00     0.031 C 
ATOM     60  C   UNL A   1      42.939  32.927  30.531  1.00  0.00     0.029 A 
ATOM     61  C   UNL A   1      43.584  31.983  29.747  1.00  0.00     0.049 A 
ATOM     62  H   UNL A   1      42.890  30.100  29.094  1.00  0.00     0.167 HD
ATOM     63  C   UNL A   1      45.465  31.068  28.416  1.00  0.00     0.074 A 
ATOM     64  C   UNL A   1      46.784  31.152  27.828  1.00  0.00     0.031 C 
ATOM     65  C   UNL A   1      44.900  32.049  29.165  1.00  0.00     0.037 A 
BRANCH  52  66
ATOM     66  C   UNL A   1      39.171  30.756  31.085  1.00  0.00     0.064 A 
ATOM     67  C   UNL A   1      38.095  31.377  30.432  1.00  0.00     0.173 A 
ATOM     68  C   UNL A   1      39.060  30.536  32.465  1.00  0.00     0.173 A 
ATOM     69  F   UNL A   1      38.156  31.626  29.115  1.00  0.00    -0.203 F 
ATOM     70  C   UNL A   1      36.967  31.785  31.139  1.00  0.00     0.198 A 
ATOM     71  C   UNL A   1      37.916  30.913  33.163  1.00  0.00     0.198 A 
ATOM     72  F   UNL A   1      40.058  29.945  33.140  1.00  0.00    -0.203 F 
ATOM     73  F   UNL A   1      35.973  32.422  30.504  1.00  0.00    -0.200 F 
ATOM     74  C   UNL A   1      36.875  31.545  32.502  1.00  0.00     0.200 A 
ATOM     75  F   UNL A   1      37.823  30.667  34.477  1.00  0.00    -0.200 F 
ATOM     76  F   UNL A   1      35.784  31.928  33.179  1.00  0.00    -0.200 F 
ENDBRANCH  52  66
BRANCH  53  77
ATOM     77  C   UNL A   1      47.027  27.410  25.896  1.00  0.00     0.064 A 
ATOM     78  C   UNL A   1      48.118  26.775  26.505  1.00  0.00     0.173 A 
ATOM     79  C   UNL A   1      47.090  27.623  24.511  1.00  0.00     0.173 A 
ATOM     80  F   UNL A   1      48.119  26.571  27.832  1.00  0.00    -0.203 F 
ATOM     81  C   UNL A   1      49.237  26.394  25.766  1.00  0.00     0.198 A 
ATOM     82  C   UNL A   1      48.195  27.212  23.766  1.00  0.00     0.198 A 
ATOM     83  F   UNL A   1      46.076  28.230  23.876  1.00  0.00    -0.203 F 
ATOM     84  F   UNL A   1      50.289  25.842  26.385  1.00  0.00    -0.200 F 
ATOM     85  C   UNL A   1      49.272  26.607  24.397  1.00  0.00     0.200 A 
ATOM     86  F   UNL A   1      48.218  27.408  22.441  1.00  0.00    -0.200 F 
ATOM     87  F   UNL A   1      50.346  26.240  23.686  1.00  0.00    -0.200 F 
ENDBRANCH  53  77
BRANCH  65  88
ATOM     88  C   UNL A   1      45.723  33.278  29.435  1.00  0.00     0.064 A 
ATOM     89  C   UNL A   1      46.597  33.362  30.531  1.00  0.00     0.173 A 
ATOM     90  C   UNL A   1      45.669  34.372  28.557  1.00  0.00     0.173 A 
ATOM     91  F   UNL A   1      46.678  32.350  31.408  1.00  0.00    -0.203 F 
ATOM     92  C   UNL A   1      47.360  34.505  30.752  1.00  0.00     0.198 A 
ATOM     93  C   UNL A   1      46.462  35.498  28.761  1.00  0.00     0.198 A 
ATOM     94  F   UNL A   1      44.860  34.342  27.487  1.00  0.00    -0.203 F 
ATOM     95  F   UNL A   1      48.145  34.584  31.835  1.00  0.00    -0.200 F 
ATOM     96  C   UNL A   1      47.299  35.568  29.863  1.00  0.00     0.200 A 
ATOM     97  F   UNL A   1      46.415  36.515  27.889  1.00  0.00    -0.200 F 
ATOM     98  F   UNL A   1      48.042  36.664  30.073  1.00  0.00    -0.200 F 
ENDBRANCH  65  88
ENDBRANCH  39  40
ENDBRANCH  32  34
ENDBRANCH  31  32
ENDBRANCH  30  31
ENDBRANCH  29  30
ENDBRANCH  28  29
ENDBRANCH  27  28
ENDBRANCH  26  27
ENDBRANCH  25  26
ENDBRANCH   1  25
TORSDOF 23
ENDMDL
MODEL 2
REMARK VINA RESULT:     -10.2      3.468      5.909
REMARK SMILES COc1ccc(Cc2ncc(C(=O)OCCOCCOCCOCCOC(=O)c3ccc(-c4c5nc(c(-c6c(F)c(F)c(F)c(F)c6F)c6ccc([nH]6)c(-c6c(F)c(F)c(F)c(F)c6F)c6nc(c(-c7c(F)c(F)c(F)c(F)c7F)c7ccc4[nH]7)C=C6)C=C5)cc3)c(C)n2)cn1
REMARK SMILES IDX 19 1 18 2 17 3 16 4 15 5 14 6 12 7 13 8 11 9 8 10 9 11 94 12
REMARK SMILES IDX 10 13 92 14 93 15 7 16 6 17 3 18 4 19 96 20 5 21 95 22 2 23
REMARK SMILES IDX 1 24 20 25 21 26 22 27 23 28 24 29 25 30 26 31 27 32 28 33
REMARK SMILES IDX 29 34 30 35 91 36 31 37 90 38 32 39 33 40 34 41 84 42 35 43
REMARK SMILES IDX 89 44 83 45 85 46 36 47 88 48 82 49 81 50 37 52 69 53 49 54
REMARK SMILES IDX 68 55 50 56 53 57 67 58 86 59 51 60 52 61 66 63 87 64 54 65
REMARK SMILES IDX 38 66 39 67 47 68 40 69 41 70 45 71 48 72 42 73 43 74 46 75
REMARK SMILES IDX 44 76 70 77 71 78 79 79 72 80 73 81 77 82 80 83 74 84 75 85
REMARK SMILES IDX 78 86 76 87 55 88 56 89 64 90 57 91 58 92 62 93 65 94 59 95
REMARK SMILES IDX 60 96 63 97 61 98
REMARK H PARENT 85 51 53 62
REMARK Flexibility Score: inf
ROOT
ATOM      1  C   UNL A   1      33.848  23.550  23.155  1.00  0.00     0.188 C 
ENDROOT
BRANCH   1   2
ATOM      2  C   UNL A   1      34.031  25.065  23.384  1.00  0.00     0.188 C 
BRANCH   2   3
ATOM      3  O   UNL A   1      33.269  25.878  22.515  1.00  0.00    -0.376 OA
BRANCH   3   4
ATOM      4  C   UNL A   1      33.657  27.198  22.182  1.00  0.00     0.202 C 
BRANCH   4   5
ATOM      5  C   UNL A   1      32.793  28.458  22.377  1.00  0.00     0.261 C 
BRANCH   5   6
ATOM      6  O   UNL A   1      32.741  29.015  23.689  1.00  0.00    -0.460 OA
BRANCH   6   7
ATOM      7  C   UNL A   1      31.600  28.865  24.387  1.00  0.00     0.341 C 
ATOM      8  O   UNL A   1      30.622  29.591  24.335  1.00  0.00    -0.246 OA
BRANCH   7   9
ATOM      9  C   UNL A   1      31.602  27.556  25.061  1.00  0.00     0.099 A 
ATOM     10  C   UNL A   1      31.354  25.065  26.136  1.00  0.00     0.133 A 
ATOM     11  N   UNL A   1      30.462  25.430  25.197  1.00  0.00    -0.240 NA
ATOM     12  N   UNL A   1      32.386  25.840  26.538  1.00  0.00    -0.237 NA
ATOM     13  C   UNL A   1      30.608  26.671  24.688  1.00  0.00     0.130 A 
ATOM     14  C   UNL A   1      32.519  27.078  25.984  1.00  0.00     0.056 A 
ATOM     15  C   UNL A   1      33.677  27.873  26.510  1.00  0.00     0.068 C 
BRANCH  10  16
ATOM     16  C   UNL A   1      31.104  23.770  26.872  1.00  0.00     0.114 C 
BRANCH  16  17
ATOM     17  C   UNL A   1      31.885  22.578  26.384  1.00  0.00    -0.022 A 
ATOM     18  C   UNL A   1      33.220  20.334  25.501  1.00  0.00     0.212 A 
ATOM     19  C   UNL A   1      33.779  21.085  26.525  1.00  0.00     0.069 A 
ATOM     20  N   UNL A   1      32.052  20.658  24.912  1.00  0.00    -0.222 NA
ATOM     21  C   UNL A   1      33.099  22.216  26.973  1.00  0.00     0.011 A 
ATOM     22  C   UNL A   1      31.409  21.759  25.365  1.00  0.00     0.119 A 
BRANCH  18  23
ATOM     23  O   UNL A   1      33.849  19.256  24.940  1.00  0.00    -0.481 OA
ATOM     24  C   UNL A   1      33.036  18.522  24.034  1.00  0.00     0.280 C 
ENDBRANCH  18  23
ENDBRANCH  16  17
ENDBRANCH  10  16
ENDBRANCH   7   9
ENDBRANCH   6   7
ENDBRANCH   5   6
ENDBRANCH   4   5
ENDBRANCH   3   4
ENDBRANCH   2   3
ENDBRANCH   1   2
BRANCH   1  25
ATOM     25  O   UNL A   1      34.862  22.734  23.718  1.00  0.00    -0.377 OA
BRANCH  25  26
ATOM     26  C   UNL A   1      36.067  23.346  24.179  1.00  0.00     0.188 C 
BRANCH  26  27
ATOM     27  C   UNL A   1      36.497  23.352  25.667  1.00  0.00     0.188 C 
BRANCH  27  28
ATOM     28  O   UNL A   1      37.208  22.201  26.090  1.00  0.00    -0.376 OA
BRANCH  28  29
ATOM     29  C   UNL A   1      38.367  21.816  25.374  1.00  0.00     0.202 C 
BRANCH  29  30
ATOM     30  C   UNL A   1      39.567  21.345  26.206  1.00  0.00     0.261 C 
BRANCH  30  31
ATOM     31  O   UNL A   1      39.904  19.954  26.084  1.00  0.00    -0.460 OA
BRANCH  31  32
ATOM     32  C   UNL A   1      41.212  19.630  26.130  1.00  0.00     0.338 C 
ATOM     33  O   UNL A   1      41.719  18.554  25.859  1.00  0.00    -0.246 OA
BRANCH  32  34
ATOM     34  C   UNL A   1      41.970  20.868  26.395  1.00  0.00     0.060 A 
ATOM     35  C   UNL A   1      42.256  21.225  27.721  1.00  0.00     0.016 A 
ATOM     36  C   UNL A   1      42.404  21.670  25.337  1.00  0.00     0.016 A 
ATOM     37  C   UNL A   1      42.947  22.405  27.991  1.00  0.00     0.010 A 
ATOM     38  C   UNL A   1      43.079  22.862  25.611  1.00  0.00     0.010 A 
ATOM     39  C   UNL A   1      43.324  23.252  26.940  1.00  0.00    -0.014 A 
BRANCH  39  40
ATOM     40  C   UNL A   1      43.794  24.628  27.230  1.00  0.00     0.031 A 
ATOM     41  C   UNL A   1      42.786  25.639  27.707  1.00  0.00     0.074 A 
ATOM     42  C   UNL A   1      45.084  24.976  27.087  1.00  0.00     0.049 A 
ATOM     43  N   UNL A   1      42.937  26.913  27.960  1.00  0.00    -0.248 NA
ATOM     44  C   UNL A   1      41.418  25.140  27.924  1.00  0.00     0.031 C 
ATOM     45  C   UNL A   1      46.160  24.079  26.675  1.00  0.00     0.029 A 
ATOM     46  N   UNL A   1      45.703  26.189  27.263  1.00  0.00    -0.354 N 
ATOM     47  C   UNL A   1      41.687  27.369  28.356  1.00  0.00     0.074 A 
ATOM     48  C   UNL A   1      40.780  26.244  28.279  1.00  0.00     0.031 C 
ATOM     49  C   UNL A   1      47.309  24.777  26.616  1.00  0.00     0.029 A 
ATOM     50  C   UNL A   1      47.039  26.175  26.949  1.00  0.00     0.049 A 
ATOM     51  H   UNL A   1      45.233  26.992  27.585  1.00  0.00     0.167 HD
ATOM     52  C   UNL A   1      41.328  28.612  28.758  1.00  0.00     0.037 A 
ATOM     53  C   UNL A   1      47.932  27.185  26.908  1.00  0.00     0.037 A 
ATOM     54  C   UNL A   1      42.233  29.728  28.830  1.00  0.00     0.049 A 
ATOM     55  C   UNL A   1      47.488  28.578  27.278  1.00  0.00     0.074 A 
ATOM     56  C   UNL A   1      41.972  31.024  29.239  1.00  0.00     0.029 A 
ATOM     57  N   UNL A   1      43.573  29.683  28.472  1.00  0.00    -0.354 N 
ATOM     58  N   UNL A   1      46.312  28.998  27.678  1.00  0.00    -0.248 NA
ATOM     59  C   UNL A   1      48.501  29.642  27.194  1.00  0.00     0.031 C 
ATOM     60  C   UNL A   1      43.138  31.778  29.068  1.00  0.00     0.029 A 
ATOM     61  C   UNL A   1      44.144  30.936  28.622  1.00  0.00     0.049 A 
ATOM     62  H   UNL A   1      44.048  28.880  28.159  1.00  0.00     0.167 HD
ATOM     63  C   UNL A   1      46.453  30.359  27.926  1.00  0.00     0.074 A 
ATOM     64  C   UNL A   1      47.832  30.693  27.645  1.00  0.00     0.031 C 
ATOM     65  C   UNL A   1      45.523  31.252  28.350  1.00  0.00     0.037 A 
BRANCH  52  66
ATOM     66  C   UNL A   1      39.888  28.837  29.117  1.00  0.00     0.064 A 
ATOM     67  C   UNL A   1      38.930  29.189  28.154  1.00  0.00     0.173 A 
ATOM     68  C   UNL A   1      39.454  28.666  30.440  1.00  0.00     0.173 A 
ATOM     69  F   UNL A   1      39.294  29.380  26.877  1.00  0.00    -0.203 F 
ATOM     70  C   UNL A   1      37.598  29.387  28.507  1.00  0.00     0.198 A 
ATOM     71  C   UNL A   1      38.115  28.830  30.783  1.00  0.00     0.198 A 
ATOM     72  F   UNL A   1      40.327  28.327  31.401  1.00  0.00    -0.203 F 
ATOM     73  F   UNL A   1      36.710  29.772  27.580  1.00  0.00    -0.200 F 
ATOM     74  C   UNL A   1      37.190  29.199  29.820  1.00  0.00     0.200 A 
ATOM     75  F   UNL A   1      37.721  28.634  32.049  1.00  0.00    -0.200 F 
ATOM     76  F   UNL A   1      35.906  29.380  30.156  1.00  0.00    -0.200 F 
ENDBRANCH  52  66
BRANCH  53  77
ATOM     77  C   UNL A   1      49.335  26.926  26.483  1.00  0.00     0.064 A 
ATOM     78  C   UNL A   1      49.713  27.007  25.136  1.00  0.00     0.173 A 
ATOM     79  C   UNL A   1      50.319  26.555  27.412  1.00  0.00     0.173 A 
ATOM     80  F   UNL A   1      48.803  27.331  24.204  1.00  0.00    -0.203 F 
ATOM     81  C   UNL A   1      51.012  26.704  24.730  1.00  0.00     0.198 A 
ATOM     82  C   UNL A   1      51.626  26.285  27.011  1.00  0.00     0.198 A 
ATOM     83  F   UNL A   1      50.012  26.458  28.714  1.00  0.00    -0.203 F 
ATOM     84  F   UNL A   1      51.329  26.734  23.429  1.00  0.00    -0.200 F 
ATOM     85  C   UNL A   1      51.969  26.349  25.669  1.00  0.00     0.200 A 
ATOM     86  F   UNL A   1      52.550  25.955  27.924  1.00  0.00    -0.200 F 
ATOM     87  F   UNL A   1      53.217  26.059  25.279  1.00  0.00    -0.200 F 
ENDBRANCH  53  77
BRANCH  65  88
ATOM     88  C   UNL A   1      45.975  32.667  28.586  1.00  0.00     0.064 A 
ATOM     89  C   UNL A   1      46.511  33.081  29.815  1.00  0.00     0.173 A 
ATOM     90  C   UNL A   1      45.914  33.611  27.549  1.00  0.00     0.173 A 
ATOM     91  F   UNL A   1      46.582  32.222  30.844  1.00  0.00    -0.203 F 
ATOM     92  C   UNL A   1      46.937  34.393  30.006  1.00  0.00     0.198 A 
ATOM     93  C   UNL A   1      46.376  34.912  27.732  1.00  0.00     0.198 A 
ATOM     94  F   UNL A   1      45.421  33.267  26.348  1.00  0.00    -0.203 F 
ATOM     95  F   UNL A   1      47.393  34.779  31.205  1.00  0.00    -0.200 F 
ATOM     96  C   UNL A   1      46.877  35.304  28.961  1.00  0.00     0.200 A 
ATOM     97  F   UNL A   1      46.335  35.784  26.715  1.00  0.00    -0.200 F 
ATOM     98  F   UNL A   1      47.298  36.564  29.144  1.00  0.00    -0.200 F 
ENDBRANCH  65  88
ENDBRANCH  39  40
ENDBRANCH  32  34
ENDBRANCH  31  32
ENDBRANCH  30  31
ENDBRANCH  29  30
ENDBRANCH  28  29
ENDBRANCH  27  28
ENDBRANCH  26  27
ENDBRANCH  25  26
ENDBRANCH   1  25
TORSDOF 23
ENDMDL
MODEL 3
REMARK VINA RESULT:      -9.9      2.948      9.514
REMARK SMILES COc1ccc(Cc2ncc(C(=O)OCCOCCOCCOCCOC(=O)c3ccc(-c4c5nc(c(-c6c(F)c(F)c(F)c(F)c6F)c6ccc([nH]6)c(-c6c(F)c(F)c(F)c(F)c6F)c6nc(c(-c7c(F)c(F)c(F)c(F)c7F)c7ccc4[nH]7)C=C6)C=C5)cc3)c(C)n2)cn1
REMARK SMILES IDX 19 1 18 2 17 3 16 4 15 5 14 6 12 7 13 8 11 9 8 10 9 11 94 12
REMARK SMILES IDX 10 13 92 14 93 15 7 16 6 17 3 18 4 19 96 20 5 21 95 22 2 23
REMARK SMILES IDX 1 24 20 25 21 26 22 27 23 28 24 29 25 30 26 31 27 32 28 33
REMARK SMILES IDX 29 34 30 35 91 36 31 37 90 38 32 39 33 40 34 41 84 42 35 43
REMARK SMILES IDX 89 44 83 45 85 46 36 47 88 48 82 49 81 50 37 52 69 53 49 54
REMARK SMILES IDX 68 55 50 56 53 57 67 58 86 59 51 60 52 61 66 63 87 64 54 65
REMARK SMILES IDX 38 66 39 67 47 68 40 69 41 70 45 71 48 72 42 73 43 74 46 75
REMARK SMILES IDX 44 76 70 77 71 78 79 79 72 80 73 81 77 82 80 83 74 84 75 85
REMARK SMILES IDX 78 86 76 87 55 88 56 89 64 90 57 91 58 92 62 93 65 94 59 95
REMARK SMILES IDX 60 96 63 97 61 98
REMARK H PARENT 85 51 53 62
REMARK Flexibility Score: inf
ROOT
ATOM      1  C   UNL A   1      34.689  31.846  28.388  1.00  0.00     0.188 C 
ENDROOT
BRANCH   1   2
ATOM      2  C   UNL A   1      35.598  30.657  28.015  1.00  0.00     0.188 C 
BRANCH   2   3
ATOM      3  O   UNL A   1      35.136  29.899  26.915  1.00  0.00    -0.376 OA
BRANCH   3   4
ATOM      4  C   UNL A   1      33.807  29.420  26.834  1.00  0.00     0.202 C 
BRANCH   4   5
ATOM      5  C   UNL A   1      32.841  29.663  25.659  1.00  0.00     0.261 C 
BRANCH   5   6
ATOM      6  O   UNL A   1      31.537  29.092  25.760  1.00  0.00    -0.460 OA
BRANCH   6   7
ATOM      7  C   UNL A   1      31.020  28.515  24.660  1.00  0.00     0.341 C 
ATOM      8  O   UNL A   1      30.733  29.077  23.617  1.00  0.00    -0.246 OA
BRANCH   7   9
ATOM      9  C   UNL A   1      31.063  27.051  24.805  1.00  0.00     0.099 A 
ATOM     10  C   UNL A   1      31.049  24.386  25.369  1.00  0.00     0.133 A 
ATOM     11  N   UNL A   1      30.679  25.231  26.348  1.00  0.00    -0.240 NA
ATOM     12  N   UNL A   1      31.379  24.777  24.119  1.00  0.00    -0.237 NA
ATOM     13  C   UNL A   1      30.701  26.544  26.040  1.00  0.00     0.130 A 
ATOM     14  C   UNL A   1      31.366  26.109  23.834  1.00  0.00     0.056 A 
ATOM     15  C   UNL A   1      31.770  26.449  22.430  1.00  0.00     0.068 C 
BRANCH  10  16
ATOM     16  C   UNL A   1      31.232  22.931  25.734  1.00  0.00     0.114 C 
BRANCH  16  17
ATOM     17  C   UNL A   1      32.651  22.425  25.719  1.00  0.00    -0.022 A 
ATOM     18  C   UNL A   1      35.281  21.603  25.658  1.00  0.00     0.212 A 
ATOM     19  C   UNL A   1      34.329  20.845  24.993  1.00  0.00     0.069 A 
ATOM     20  N   UNL A   1      34.976  22.724  26.342  1.00  0.00    -0.222 NA
ATOM     21  C   UNL A   1      33.000  21.266  25.021  1.00  0.00     0.011 A 
ATOM     22  C   UNL A   1      33.680  23.114  26.353  1.00  0.00     0.119 A 
BRANCH  18  23
ATOM     23  O   UNL A   1      36.593  21.229  25.757  1.00  0.00    -0.481 OA
ATOM     24  C   UNL A   1      36.934  20.104  24.957  1.00  0.00     0.280 C 
ENDBRANCH  18  23
ENDBRANCH  16  17
ENDBRANCH  10  16
ENDBRANCH   7   9
ENDBRANCH   6   7
ENDBRANCH   5   6
ENDBRANCH   4   5
ENDBRANCH   3   4
ENDBRANCH   2   3
ENDBRANCH   1   2
BRANCH   1  25
ATOM     25  O   UNL A   1      35.097  33.099  27.863  1.00  0.00    -0.377 OA
BRANCH  25  26
ATOM     26  C   UNL A   1      34.226  34.222  27.993  1.00  0.00     0.188 C 
BRANCH  26  27
ATOM     27  C   UNL A   1      33.727  34.753  29.360  1.00  0.00     0.188 C 
BRANCH  27  28
ATOM     28  O   UNL A   1      34.650  34.618  30.427  1.00  0.00    -0.376 OA
BRANCH  28  29
ATOM     29  C   UNL A   1      34.186  34.118  31.668  1.00  0.00     0.202 C 
BRANCH  29  30
ATOM     30  C   UNL A   1      34.643  32.706  32.057  1.00  0.00     0.261 C 
BRANCH  30  31
ATOM     31  O   UNL A   1      35.653  32.636  33.077  1.00  0.00    -0.460 OA
BRANCH  31  32
ATOM     32  C   UNL A   1      36.765  33.376  32.897  1.00  0.00     0.338 C 
ATOM     33  O   UNL A   1      37.017  34.467  33.381  1.00  0.00    -0.246 OA
BRANCH  32  34
ATOM     34  C   UNL A   1      37.731  32.554  32.141  1.00  0.00     0.060 A 
ATOM     35  C   UNL A   1      38.627  31.734  32.842  1.00  0.00     0.016 A 
ATOM     36  C   UNL A   1      37.745  32.587  30.745  1.00  0.00     0.016 A 
ATOM     37  C   UNL A   1      39.564  30.972  32.146  1.00  0.00     0.010 A 
ATOM     38  C   UNL A   1      38.697  31.838  30.050  1.00  0.00     0.010 A 
ATOM     39  C   UNL A   1      39.633  31.053  30.748  1.00  0.00    -0.014 A 
BRANCH  39  40
ATOM     40  C   UNL A   1      40.797  30.480  30.030  1.00  0.00     0.031 A 
ATOM     41  C   UNL A   1      41.975  31.376  29.755  1.00  0.00     0.074 A 
ATOM     42  C   UNL A   1      40.820  29.195  29.639  1.00  0.00     0.049 A 
ATOM     43  N   UNL A   1      43.074  31.129  29.090  1.00  0.00    -0.248 NA
ATOM     44  C   UNL A   1      41.898  32.738  30.305  1.00  0.00     0.031 C 
ATOM     45  C   UNL A   1      39.761  28.219  29.883  1.00  0.00     0.029 A 
ATOM     46  N   UNL A   1      41.770  28.494  28.938  1.00  0.00    -0.354 N 
ATOM     47  C   UNL A   1      43.812  32.304  29.134  1.00  0.00     0.074 A 
ATOM     48  C   UNL A   1      43.024  33.274  29.861  1.00  0.00     0.031 C 
ATOM     49  C   UNL A   1      40.115  27.045  29.328  1.00  0.00     0.029 A 
ATOM     50  C   UNL A   1      41.406  27.201  28.658  1.00  0.00     0.049 A 
ATOM     51  H   UNL A   1      42.632  28.884  28.664  1.00  0.00     0.167 HD
ATOM     52  C   UNL A   1      45.042  32.549  28.622  1.00  0.00     0.037 A 
ATOM     53  C   UNL A   1      42.031  26.263  27.919  1.00  0.00     0.037 A 
ATOM     54  C   UNL A   1      45.821  31.581  27.896  1.00  0.00     0.049 A 
ATOM     55  C   UNL A   1      43.362  26.588  27.287  1.00  0.00     0.074 A 
ATOM     56  C   UNL A   1      47.084  31.726  27.350  1.00  0.00     0.029 A 
ATOM     57  N   UNL A   1      45.404  30.291  27.604  1.00  0.00    -0.354 N 
ATOM     58  N   UNL A   1      44.068  27.691  27.355  1.00  0.00    -0.248 NA
ATOM     59  C   UNL A   1      43.987  25.532  26.475  1.00  0.00     0.031 C 
ATOM     60  C   UNL A   1      47.405  30.544  26.673  1.00  0.00     0.029 A 
ATOM     61  C   UNL A   1      46.373  29.638  26.859  1.00  0.00     0.049 A 
ATOM     62  H   UNL A   1      44.547  29.896  27.885  1.00  0.00     0.167 HD
ATOM     63  C   UNL A   1      45.229  27.450  26.629  1.00  0.00     0.074 A 
ATOM     64  C   UNL A   1      45.141  26.091  26.140  1.00  0.00     0.031 C 
ATOM     65  C   UNL A   1      46.276  28.280  26.389  1.00  0.00     0.037 A 
BRANCH  52  66
ATOM     66  C   UNL A   1      45.606  33.929  28.799  1.00  0.00     0.064 A 
ATOM     67  C   UNL A   1      45.346  34.959  27.882  1.00  0.00     0.173 A 
ATOM     68  C   UNL A   1      46.388  34.234  29.922  1.00  0.00     0.173 A 
ATOM     69  F   UNL A   1      44.616  34.717  26.782  1.00  0.00    -0.203 F 
ATOM     70  C   UNL A   1      45.874  36.235  28.069  1.00  0.00     0.198 A 
ATOM     71  C   UNL A   1      46.885  35.519  30.124  1.00  0.00     0.198 A 
ATOM     72  F   UNL A   1      46.665  33.289  30.832  1.00  0.00    -0.203 F 
ATOM     73  F   UNL A   1      45.656  37.189  27.153  1.00  0.00    -0.200 F 
ATOM     74  C   UNL A   1      46.635  36.516  29.193  1.00  0.00     0.200 A 
ATOM     75  F   UNL A   1      47.608  35.792  31.219  1.00  0.00    -0.200 F 
ATOM     76  F   UNL A   1      47.133  37.746  29.377  1.00  0.00    -0.200 F 
ENDBRANCH  52  66
BRANCH  53  77
ATOM     77  C   UNL A   1      41.405  24.928  27.717  1.00  0.00     0.064 A 
ATOM     78  C   UNL A   1      41.911  23.785  28.350  1.00  0.00     0.173 A 
ATOM     79  C   UNL A   1      40.309  24.763  26.856  1.00  0.00     0.173 A 
ATOM     80  F   UNL A   1      42.974  23.885  29.162  1.00  0.00    -0.203 F 
ATOM     81  C   UNL A   1      41.363  22.525  28.112  1.00  0.00     0.198 A 
ATOM     82  C   UNL A   1      39.740  23.508  26.644  1.00  0.00     0.198 A 
ATOM     83  F   UNL A   1      39.786  25.822  26.220  1.00  0.00    -0.203 F 
ATOM     84  F   UNL A   1      41.905  21.443  28.685  1.00  0.00    -0.200 F 
ATOM     85  C   UNL A   1      40.275  22.388  27.264  1.00  0.00     0.200 A 
ATOM     86  F   UNL A   1      38.680  23.384  25.834  1.00  0.00    -0.200 F 
ATOM     87  F   UNL A   1      39.748  21.178  27.036  1.00  0.00    -0.200 F 
ENDBRANCH  53  77
BRANCH  65  88
ATOM     88  C   UNL A   1      47.435  27.728  25.606  1.00  0.00     0.064 A 
ATOM     89  C   UNL A   1      47.484  27.794  24.205  1.00  0.00     0.173 A 
ATOM     90  C   UNL A   1      48.535  27.166  26.272  1.00  0.00     0.173 A 
ATOM     91  F   UNL A   1      46.454  28.310  23.517  1.00  0.00    -0.203 F 
ATOM     92  C   UNL A   1      48.575  27.290  23.501  1.00  0.00     0.198 A 
ATOM     93  C   UNL A   1      49.641  26.697  25.567  1.00  0.00     0.198 A 
ATOM     94  F   UNL A   1      48.548  27.087  27.612  1.00  0.00    -0.203 F 
ATOM     95  F   UNL A   1      48.574  27.313  22.162  1.00  0.00    -0.200 F 
ATOM     96  C   UNL A   1      49.656  26.750  24.184  1.00  0.00     0.200 A 
ATOM     97  F   UNL A   1      50.692  26.195  26.230  1.00  0.00    -0.200 F 
ATOM     98  F   UNL A   1      50.709  26.275  23.505  1.00  0.00    -0.200 F 
ENDBRANCH  65  88
ENDBRANCH  39  40
ENDBRANCH  32  34
ENDBRANCH  31  32
ENDBRANCH  30  31
ENDBRANCH  29  30
ENDBRANCH  28  29
ENDBRANCH  27  28
ENDBRANCH  26  27
ENDBRANCH  25  26
ENDBRANCH   1  25
TORSDOF 23
ENDMDL
