MODEL 1
REMARK VINA RESULT:      -9.2      0.000      0.000
REMARK SMILES O=C(OCCOCCOCCOCCOC(=O)c1ccc2nc(Cl)sc2c1)c1ccc(-c2c3nc(c(-c4c(F)c(F)c(F)c(F)c4F)c4ccc([nH]4)c(-c4c(F)c(F)c(F)c(F)c4F)c4nc(c(-c5c(F)c(F)c(F)c(F)c5F)c5ccc2[nH]5)C=C4)C=C3)cc1
REMARK SMILES IDX 8 1 7 2 6 3 5 4 4 5 3 6 2 7 1 8 28 9 29 10 90 11 30 12 89 13
REMARK SMILES IDX 31 14 32 15 33 16 83 17 34 18 88 19 82 20 84 21 35 22 87 23
REMARK SMILES IDX 81 24 80 25 36 27 68 28 48 29 67 30 49 31 52 32 66 33 85 34
REMARK SMILES IDX 50 35 51 36 65 38 86 39 53 40 37 41 38 42 46 43 39 44 40 45
REMARK SMILES IDX 44 46 47 47 41 48 42 49 45 50 43 51 69 52 70 53 78 54 71 55
REMARK SMILES IDX 72 56 76 57 79 58 73 59 74 60 77 61 75 62 54 63 55 64 63 65
REMARK SMILES IDX 56 66 57 67 61 68 64 69 58 70 59 71 62 72 60 73 9 74 10 75
REMARK SMILES IDX 11 76 12 77 13 78 14 79 15 80 16 81 17 82 18 83 19 84 27 85
REMARK SMILES IDX 20 86 26 87 21 88 25 89 22 90 23 91 24 92
REMARK H PARENT 84 26 52 37
REMARK Flexibility Score: inf
ROOT
ATOM      1  C   UNL A   1      44.110  19.000  24.925  1.00  0.00     0.188 C 
ENDROOT
BRANCH   1   2
ATOM      2  C   UNL A   1      43.074  19.237  26.033  1.00  0.00     0.188 C 
BRANCH   2   3
ATOM      3  O   UNL A   1      41.814  18.682  25.662  1.00  0.00    -0.376 OA
BRANCH   3   4
ATOM      4  C   UNL A   1      40.651  19.431  25.998  1.00  0.00     0.202 C 
BRANCH   4   5
ATOM      5  C   UNL A   1      40.943  20.600  26.931  1.00  0.00     0.261 C 
BRANCH   5   6
ATOM      6  O   UNL A   1      40.803  21.810  26.173  1.00  0.00    -0.460 OA
BRANCH   6   7
ATOM      7  C   UNL A   1      39.765  22.587  26.568  1.00  0.00     0.338 C 
ATOM      8  O   UNL A   1      38.583  22.292  26.513  1.00  0.00    -0.246 OA
BRANCH   7   9
ATOM      9  C   UNL A   1      40.266  23.924  26.965  1.00  0.00     0.060 A 
ATOM     10  C   UNL A   1      41.590  24.276  26.700  1.00  0.00     0.016 A 
ATOM     11  C   UNL A   1      39.457  24.782  27.713  1.00  0.00     0.016 A 
ATOM     12  C   UNL A   1      42.075  25.517  27.127  1.00  0.00     0.010 A 
ATOM     13  C   UNL A   1      39.960  25.974  28.200  1.00  0.00     0.010 A 
ATOM     14  C   UNL A   1      41.251  26.387  27.860  1.00  0.00    -0.014 A 
BRANCH  14  15
ATOM     15  C   UNL A   1      41.636  27.801  28.050  1.00  0.00     0.031 A 
ATOM     16  C   UNL A   1      40.509  28.787  27.909  1.00  0.00     0.074 A 
ATOM     17  C   UNL A   1      42.724  28.185  28.744  1.00  0.00     0.049 A 
ATOM     18  N   UNL A   1      39.730  29.137  28.896  1.00  0.00    -0.248 NA
ATOM     19  C   UNL A   1      39.994  29.165  26.591  1.00  0.00     0.031 C 
ATOM     20  C   UNL A   1      43.162  27.554  29.991  1.00  0.00     0.029 A 
ATOM     21  N   UNL A   1      43.470  29.337  28.656  1.00  0.00    -0.354 N 
ATOM     22  C   UNL A   1      38.601  29.716  28.341  1.00  0.00     0.074 A 
ATOM     23  C   UNL A   1      38.820  29.732  26.910  1.00  0.00     0.031 C 
ATOM     24  C   UNL A   1      43.965  28.419  30.646  1.00  0.00     0.029 A 
ATOM     25  C   UNL A   1      44.211  29.590  29.805  1.00  0.00     0.049 A 
ATOM     26  H   UNL A   1      43.479  29.920  27.863  1.00  0.00     0.167 HD
ATOM     27  C   UNL A   1      37.529  30.130  29.069  1.00  0.00     0.037 A 
ATOM     28  C   UNL A   1      44.508  30.837  30.263  1.00  0.00     0.037 A 
ATOM     29  C   UNL A   1      37.608  29.943  30.485  1.00  0.00     0.049 A 
ATOM     30  C   UNL A   1      43.165  31.262  30.807  1.00  0.00     0.074 A 
ATOM     31  C   UNL A   1      37.142  29.056  31.430  1.00  0.00     0.029 A 
ATOM     32  N   UNL A   1      38.344  30.851  31.209  1.00  0.00    -0.354 N 
ATOM     33  N   UNL A   1      42.640  30.913  31.951  1.00  0.00    -0.248 NA
ATOM     34  C   UNL A   1      42.219  31.851  29.854  1.00  0.00     0.031 C 
ATOM     35  C   UNL A   1      38.014  29.208  32.559  1.00  0.00     0.029 A 
ATOM     36  C   UNL A   1      38.979  30.144  32.194  1.00  0.00     0.049 A 
ATOM     37  H   UNL A   1      38.403  31.821  31.049  1.00  0.00     0.167 HD
ATOM     38  C   UNL A   1      41.258  31.003  31.764  1.00  0.00     0.074 A 
ATOM     39  C   UNL A   1      41.070  31.623  30.471  1.00  0.00     0.031 C 
ATOM     40  C   UNL A   1      40.346  30.400  32.576  1.00  0.00     0.037 A 
BRANCH  27  41
ATOM     41  C   UNL A   1      36.417  30.931  28.523  1.00  0.00     0.064 A 
ATOM     42  C   UNL A   1      36.552  32.327  28.558  1.00  0.00     0.173 A 
ATOM     43  C   UNL A   1      35.176  30.393  28.175  1.00  0.00     0.173 A 
ATOM     44  F   UNL A   1      37.728  32.876  28.908  1.00  0.00    -0.203 F 
ATOM     45  C   UNL A   1      35.474  33.161  28.295  1.00  0.00     0.198 A 
ATOM     46  C   UNL A   1      34.096  31.234  27.898  1.00  0.00     0.198 A 
ATOM     47  F   UNL A   1      34.997  29.064  28.143  1.00  0.00    -0.203 F 
ATOM     48  F   UNL A   1      35.623  34.490  28.386  1.00  0.00    -0.200 F 
ATOM     49  C   UNL A   1      34.242  32.614  27.973  1.00  0.00     0.200 A 
ATOM     50  F   UNL A   1      32.902  30.710  27.589  1.00  0.00    -0.200 F 
ATOM     51  F   UNL A   1      33.194  33.418  27.747  1.00  0.00    -0.200 F 
ENDBRANCH  27  41
BRANCH  28  52
ATOM     52  C   UNL A   1      45.327  31.700  29.345  1.00  0.00     0.064 A 
ATOM     53  C   UNL A   1      46.305  31.089  28.532  1.00  0.00     0.173 A 
ATOM     54  C   UNL A   1      45.216  33.094  29.223  1.00  0.00     0.173 A 
ATOM     55  F   UNL A   1      46.573  29.780  28.666  1.00  0.00    -0.203 F 
ATOM     56  C   UNL A   1      47.021  31.801  27.568  1.00  0.00     0.198 A 
ATOM     57  C   UNL A   1      45.909  33.804  28.239  1.00  0.00     0.198 A 
ATOM     58  F   UNL A   1      44.424  33.799  30.042  1.00  0.00    -0.203 F 
ATOM     59  F   UNL A   1      47.910  31.168  26.793  1.00  0.00    -0.200 F 
ATOM     60  C   UNL A   1      46.796  33.154  27.399  1.00  0.00     0.200 A 
ATOM     61  F   UNL A   1      45.694  35.119  28.094  1.00  0.00    -0.200 F 
ATOM     62  F   UNL A   1      47.435  33.832  26.436  1.00  0.00    -0.200 F 
ENDBRANCH  28  52
BRANCH  40  63
ATOM     63  C   UNL A   1      40.893  29.759  33.799  1.00  0.00     0.064 A 
ATOM     64  C   UNL A   1      41.208  28.398  33.801  1.00  0.00     0.173 A 
ATOM     65  C   UNL A   1      41.168  30.507  34.952  1.00  0.00     0.173 A 
ATOM     66  F   UNL A   1      40.960  27.645  32.718  1.00  0.00    -0.203 F 
ATOM     67  C   UNL A   1      41.818  27.813  34.906  1.00  0.00     0.198 A 
ATOM     68  C   UNL A   1      41.798  29.926  36.046  1.00  0.00     0.198 A 
ATOM     69  F   UNL A   1      40.860  31.811  35.010  1.00  0.00    -0.203 F 
ATOM     70  F   UNL A   1      42.133  26.510  34.884  1.00  0.00    -0.200 F 
ATOM     71  C   UNL A   1      42.129  28.581  36.020  1.00  0.00     0.200 A 
ATOM     72  F   UNL A   1      42.113  30.676  37.112  1.00  0.00    -0.200 F 
ATOM     73  F   UNL A   1      42.761  28.026  37.064  1.00  0.00    -0.200 F 
ENDBRANCH  40  63
ENDBRANCH  14  15
ENDBRANCH   7   9
ENDBRANCH   6   7
ENDBRANCH   5   6
ENDBRANCH   4   5
ENDBRANCH   3   4
ENDBRANCH   2   3
ENDBRANCH   1   2
BRANCH   1  74
ATOM     74  O   UNL A   1      44.380  20.116  24.067  1.00  0.00    -0.377 OA
BRANCH  74  75
ATOM     75  C   UNL A   1      44.265  21.417  24.640  1.00  0.00     0.188 C 
BRANCH  75  76
ATOM     76  C   UNL A   1      44.720  22.632  23.803  1.00  0.00     0.188 C 
BRANCH  76  77
ATOM     77  O   UNL A   1      44.985  23.775  24.586  1.00  0.00    -0.376 OA
BRANCH  77  78
ATOM     78  C   UNL A   1      46.333  24.048  24.931  1.00  0.00     0.202 C 
BRANCH  78  79
ATOM     79  C   UNL A   1      46.788  24.159  26.402  1.00  0.00     0.261 C 
BRANCH  79  80
ATOM     80  O   UNL A   1      45.917  24.834  27.321  1.00  0.00    -0.460 OA
BRANCH  80  81
ATOM     81  C   UNL A   1      45.196  24.082  28.192  1.00  0.00     0.338 C 
ATOM     82  O   UNL A   1      44.657  23.028  27.982  1.00  0.00    -0.246 OA
BRANCH  81  83
ATOM     83  C   UNL A   1      45.387  24.694  29.535  1.00  0.00     0.061 A 
ATOM     84  C   UNL A   1      46.419  25.603  29.767  1.00  0.00     0.018 A 
ATOM     85  C   UNL A   1      44.571  24.241  30.584  1.00  0.00     0.037 A 
ATOM     86  C   UNL A   1      46.666  26.070  31.067  1.00  0.00     0.031 A 
ATOM     87  C   UNL A   1      44.874  24.670  31.887  1.00  0.00     0.057 A 
ATOM     88  C   UNL A   1      45.903  25.582  32.149  1.00  0.00     0.083 A 
ATOM     89  S   UNL A   1      44.151  24.200  33.383  1.00  0.00    -0.102 S 
ATOM     90  N   UNL A   1      46.078  25.913  33.483  1.00  0.00    -0.225 NA
ATOM     91  C   UNL A   1      45.214  25.240  34.197  1.00  0.00     0.184 A 
ATOM     92  Cl  UNL A   1      45.134  25.374  35.907  1.00  0.00    -0.050 Cl
ENDBRANCH  81  83
ENDBRANCH  80  81
ENDBRANCH  79  80
ENDBRANCH  78  79
ENDBRANCH  77  78
ENDBRANCH  76  77
ENDBRANCH  75  76
ENDBRANCH  74  75
ENDBRANCH   1  74
TORSDOF 20
ENDMDL
MODEL 2
REMARK VINA RESULT:      -9.1      5.263     10.256
REMARK SMILES O=C(OCCOCCOCCOCCOC(=O)c1ccc2nc(Cl)sc2c1)c1ccc(-c2c3nc(c(-c4c(F)c(F)c(F)c(F)c4F)c4ccc([nH]4)c(-c4c(F)c(F)c(F)c(F)c4F)c4nc(c(-c5c(F)c(F)c(F)c(F)c5F)c5ccc2[nH]5)C=C4)C=C3)cc1
REMARK SMILES IDX 8 1 7 2 6 3 5 4 4 5 3 6 2 7 1 8 28 9 29 10 90 11 30 12 89 13
REMARK SMILES IDX 31 14 32 15 33 16 83 17 34 18 88 19 82 20 84 21 35 22 87 23
REMARK SMILES IDX 81 24 80 25 36 27 68 28 48 29 67 30 49 31 52 32 66 33 85 34
REMARK SMILES IDX 50 35 51 36 65 38 86 39 53 40 37 41 38 42 46 43 39 44 40 45
REMARK SMILES IDX 44 46 47 47 41 48 42 49 45 50 43 51 69 52 70 53 78 54 71 55
REMARK SMILES IDX 72 56 76 57 79 58 73 59 74 60 77 61 75 62 54 63 55 64 63 65
REMARK SMILES IDX 56 66 57 67 61 68 64 69 58 70 59 71 62 72 60 73 9 74 10 75
REMARK SMILES IDX 11 76 12 77 13 78 14 79 15 80 16 81 17 82 18 83 19 84 27 85
REMARK SMILES IDX 20 86 26 87 21 88 25 89 22 90 23 91 24 92
REMARK H PARENT 84 26 52 37
REMARK Flexibility Score: inf
ROOT
ATOM      1  C   UNL A   1      33.198  28.019  24.709  1.00  0.00     0.188 C 
ENDROOT
BRANCH   1   2
ATOM      2  C   UNL A   1      32.571  27.540  26.027  1.00  0.00     0.188 C 
BRANCH   2   3
ATOM      3  O   UNL A   1      32.657  28.561  27.018  1.00  0.00    -0.376 OA
BRANCH   3   4
ATOM      4  C   UNL A   1      31.932  29.763  26.777  1.00  0.00     0.202 C 
BRANCH   4   5
ATOM      5  C   UNL A   1      32.795  31.013  26.900  1.00  0.00     0.261 C 
BRANCH   5   6
ATOM      6  O   UNL A   1      34.075  30.612  27.410  1.00  0.00    -0.460 OA
BRANCH   6   7
ATOM      7  C   UNL A   1      34.854  31.647  27.808  1.00  0.00     0.338 C 
ATOM      8  O   UNL A   1      34.652  32.828  27.583  1.00  0.00    -0.246 OA
BRANCH   7   9
ATOM      9  C   UNL A   1      36.080  31.126  28.457  1.00  0.00     0.060 A 
ATOM     10  C   UNL A   1      36.482  31.636  29.694  1.00  0.00     0.016 A 
ATOM     11  C   UNL A   1      36.902  30.222  27.781  1.00  0.00     0.016 A 
ATOM     12  C   UNL A   1      37.670  31.183  30.276  1.00  0.00     0.010 A 
ATOM     13  C   UNL A   1      38.113  29.833  28.323  1.00  0.00     0.010 A 
ATOM     14  C   UNL A   1      38.483  30.255  29.602  1.00  0.00    -0.014 A 
BRANCH  14  15
ATOM     15  C   UNL A   1      39.562  29.546  30.320  1.00  0.00     0.031 A 
ATOM     16  C   UNL A   1      39.709  28.093  29.961  1.00  0.00     0.074 A 
ATOM     17  C   UNL A   1      40.623  30.170  30.865  1.00  0.00     0.049 A 
ATOM     18  N   UNL A   1      40.442  27.667  28.969  1.00  0.00    -0.248 NA
ATOM     19  C   UNL A   1      38.781  27.086  30.480  1.00  0.00     0.031 C 
ATOM     20  C   UNL A   1      41.328  31.287  30.232  1.00  0.00     0.029 A 
ATOM     21  N   UNL A   1      41.441  29.784  31.903  1.00  0.00    -0.354 N 
ATOM     22  C   UNL A   1      40.038  26.373  28.687  1.00  0.00     0.074 A 
ATOM     23  C   UNL A   1      39.020  26.048  29.664  1.00  0.00     0.031 C 
ATOM     24  C   UNL A   1      42.559  31.376  30.778  1.00  0.00     0.029 A 
ATOM     25  C   UNL A   1      42.673  30.428  31.886  1.00  0.00     0.049 A 
ATOM     26  H   UNL A   1      41.180  29.123  32.584  1.00  0.00     0.167 HD
ATOM     27  C   UNL A   1      40.528  25.636  27.653  1.00  0.00     0.037 A 
ATOM     28  C   UNL A   1      43.834  29.867  32.323  1.00  0.00     0.037 A 
ATOM     29  C   UNL A   1      41.518  26.265  26.835  1.00  0.00     0.049 A 
ATOM     30  C   UNL A   1      44.113  28.896  31.201  1.00  0.00     0.074 A 
ATOM     31  C   UNL A   1      41.587  26.905  25.617  1.00  0.00     0.029 A 
ATOM     32  N   UNL A   1      42.808  26.304  27.309  1.00  0.00    -0.354 N 
ATOM     33  N   UNL A   1      44.631  29.177  30.035  1.00  0.00    -0.248 NA
ATOM     34  C   UNL A   1      43.463  27.584  31.282  1.00  0.00     0.031 C 
ATOM     35  C   UNL A   1      42.782  27.697  25.669  1.00  0.00     0.029 A 
ATOM     36  C   UNL A   1      43.325  27.516  26.939  1.00  0.00     0.049 A 
ATOM     37  H   UNL A   1      43.269  25.597  27.816  1.00  0.00     0.167 HD
ATOM     38  C   UNL A   1      44.148  28.190  29.171  1.00  0.00     0.074 A 
ATOM     39  C   UNL A   1      43.472  27.223  30.008  1.00  0.00     0.031 C 
ATOM     40  C   UNL A   1      44.154  28.307  27.814  1.00  0.00     0.037 A 
BRANCH  27  41
ATOM     41  C   UNL A   1      40.264  24.197  27.464  1.00  0.00     0.064 A 
ATOM     42  C   UNL A   1      41.174  23.295  28.036  1.00  0.00     0.173 A 
ATOM     43  C   UNL A   1      39.298  23.699  26.587  1.00  0.00     0.173 A 
ATOM     44  F   UNL A   1      42.127  23.747  28.869  1.00  0.00    -0.203 F 
ATOM     45  C   UNL A   1      41.148  21.945  27.714  1.00  0.00     0.198 A 
ATOM     46  C   UNL A   1      39.266  22.338  26.273  1.00  0.00     0.198 A 
ATOM     47  F   UNL A   1      38.418  24.526  26.004  1.00  0.00    -0.203 F 
ATOM     48  F   UNL A   1      42.062  21.119  28.240  1.00  0.00    -0.200 F 
ATOM     49  C   UNL A   1      40.198  21.467  26.825  1.00  0.00     0.200 A 
ATOM     50  F   UNL A   1      38.352  21.871  25.411  1.00  0.00    -0.200 F 
ATOM     51  F   UNL A   1      40.191  20.170  26.491  1.00  0.00    -0.200 F 
ENDBRANCH  27  41
BRANCH  28  52
ATOM     52  C   UNL A   1      43.872  29.473  33.773  1.00  0.00     0.064 A 
ATOM     53  C   UNL A   1      44.920  28.641  34.222  1.00  0.00     0.173 A 
ATOM     54  C   UNL A   1      42.935  29.854  34.745  1.00  0.00     0.173 A 
ATOM     55  F   UNL A   1      45.795  28.123  33.346  1.00  0.00    -0.203 F 
ATOM     56  C   UNL A   1      45.094  28.330  35.572  1.00  0.00     0.198 A 
ATOM     57  C   UNL A   1      43.123  29.569  36.100  1.00  0.00     0.198 A 
ATOM     58  F   UNL A   1      41.824  30.524  34.410  1.00  0.00    -0.203 F 
ATOM     59  F   UNL A   1      46.127  27.570  35.955  1.00  0.00    -0.200 F 
ATOM     60  C   UNL A   1      44.213  28.824  36.516  1.00  0.00     0.200 A 
ATOM     61  F   UNL A   1      42.255  30.041  37.005  1.00  0.00    -0.200 F 
ATOM     62  F   UNL A   1      44.408  28.580  37.818  1.00  0.00    -0.200 F 
ENDBRANCH  28  52
BRANCH  40  63
ATOM     63  C   UNL A   1      44.866  29.492  27.270  1.00  0.00     0.064 A 
ATOM     64  C   UNL A   1      44.170  30.676  27.014  1.00  0.00     0.173 A 
ATOM     65  C   UNL A   1      46.251  29.477  27.064  1.00  0.00     0.173 A 
ATOM     66  F   UNL A   1      42.841  30.733  27.197  1.00  0.00    -0.203 F 
ATOM     67  C   UNL A   1      44.846  31.821  26.605  1.00  0.00     0.198 A 
ATOM     68  C   UNL A   1      46.928  30.628  26.678  1.00  0.00     0.198 A 
ATOM     69  F   UNL A   1      46.961  28.358  27.270  1.00  0.00    -0.203 F 
ATOM     70  F   UNL A   1      44.166  32.954  26.383  1.00  0.00    -0.200 F 
ATOM     71  C   UNL A   1      46.225  31.801  26.455  1.00  0.00     0.200 A 
ATOM     72  F   UNL A   1      48.263  30.608  26.553  1.00  0.00    -0.200 F 
ATOM     73  F   UNL A   1      46.880  32.918  26.108  1.00  0.00    -0.200 F 
ENDBRANCH  40  63
ENDBRANCH  14  15
ENDBRANCH   7   9
ENDBRANCH   6   7
ENDBRANCH   5   6
ENDBRANCH   4   5
ENDBRANCH   3   4
ENDBRANCH   2   3
ENDBRANCH   1   2
BRANCH   1  74
ATOM     74  O   UNL A   1      32.280  28.455  23.699  1.00  0.00    -0.377 OA
BRANCH  74  75
ATOM     75  C   UNL A   1      32.192  27.662  22.517  1.00  0.00     0.188 C 
BRANCH  75  76
ATOM     76  C   UNL A   1      33.463  26.937  22.022  1.00  0.00     0.188 C 
BRANCH  76  77
ATOM     77  O   UNL A   1      33.202  25.648  21.514  1.00  0.00    -0.376 OA
BRANCH  77  78
ATOM     78  C   UNL A   1      33.288  24.550  22.408  1.00  0.00     0.202 C 
BRANCH  78  79
ATOM     79  C   UNL A   1      32.234  24.317  23.512  1.00  0.00     0.261 C 
BRANCH  79  80
ATOM     80  O   UNL A   1      32.684  24.314  24.874  1.00  0.00    -0.460 OA
BRANCH  80  81
ATOM     81  C   UNL A   1      32.139  23.409  25.728  1.00  0.00     0.338 C 
ATOM     82  O   UNL A   1      31.136  23.523  26.380  1.00  0.00    -0.246 OA
BRANCH  81  83
ATOM     83  C   UNL A   1      32.896  22.141  25.535  1.00  0.00     0.061 A 
ATOM     84  C   UNL A   1      34.286  22.113  25.648  1.00  0.00     0.018 A 
ATOM     85  C   UNL A   1      32.179  21.006  25.124  1.00  0.00     0.037 A 
ATOM     86  C   UNL A   1      34.993  20.943  25.335  1.00  0.00     0.031 A 
ATOM     87  C   UNL A   1      32.909  19.864  24.754  1.00  0.00     0.057 A 
ATOM     88  C   UNL A   1      34.304  19.808  24.858  1.00  0.00     0.083 A 
ATOM     89  S   UNL A   1      32.338  18.374  24.095  1.00  0.00    -0.102 S 
ATOM     90  N   UNL A   1      34.881  18.613  24.460  1.00  0.00    -0.225 NA
ATOM     91  C   UNL A   1      33.936  17.810  24.045  1.00  0.00     0.184 A 
ATOM     92  Cl  UNL A   1      34.265  16.231  23.456  1.00  0.00    -0.050 Cl
ENDBRANCH  81  83
ENDBRANCH  80  81
ENDBRANCH  79  80
ENDBRANCH  78  79
ENDBRANCH  77  78
ENDBRANCH  76  77
ENDBRANCH  75  76
ENDBRANCH  74  75
ENDBRANCH   1  74
TORSDOF 20
ENDMDL
MODEL 3
REMARK VINA RESULT:      -8.6      4.503      7.459
REMARK SMILES O=C(OCCOCCOCCOCCOC(=O)c1ccc2nc(Cl)sc2c1)c1ccc(-c2c3nc(c(-c4c(F)c(F)c(F)c(F)c4F)c4ccc([nH]4)c(-c4c(F)c(F)c(F)c(F)c4F)c4nc(c(-c5c(F)c(F)c(F)c(F)c5F)c5ccc2[nH]5)C=C4)C=C3)cc1
REMARK SMILES IDX 8 1 7 2 6 3 5 4 4 5 3 6 2 7 1 8 28 9 29 10 90 11 30 12 89 13
REMARK SMILES IDX 31 14 32 15 33 16 83 17 34 18 88 19 82 20 84 21 35 22 87 23
REMARK SMILES IDX 81 24 80 25 36 27 68 28 48 29 67 30 49 31 52 32 66 33 85 34
REMARK SMILES IDX 50 35 51 36 65 38 86 39 53 40 37 41 38 42 46 43 39 44 40 45
REMARK SMILES IDX 44 46 47 47 41 48 42 49 45 50 43 51 69 52 70 53 78 54 71 55
REMARK SMILES IDX 72 56 76 57 79 58 73 59 74 60 77 61 75 62 54 63 55 64 63 65
REMARK SMILES IDX 56 66 57 67 61 68 64 69 58 70 59 71 62 72 60 73 9 74 10 75
REMARK SMILES IDX 11 76 12 77 13 78 14 79 15 80 16 81 17 82 18 83 19 84 27 85
REMARK SMILES IDX 20 86 26 87 21 88 25 89 22 90 23 91 24 92
REMARK H PARENT 84 26 52 37
REMARK Flexibility Score: inf
ROOT
ATOM      1  C   UNL A   1      35.319  21.772  24.620  1.00  0.00     0.188 C 
ENDROOT
BRANCH   1   2
ATOM      2  C   UNL A   1      36.748  22.033  24.122  1.00  0.00     0.188 C 
BRANCH   2   3
ATOM      3  O   UNL A   1      37.693  21.363  24.953  1.00  0.00    -0.376 OA
BRANCH   3   4
ATOM      4  C   UNL A   1      38.423  22.159  25.881  1.00  0.00     0.202 C 
BRANCH   4   5
ATOM      5  C   UNL A   1      39.697  21.484  26.374  1.00  0.00     0.261 C 
BRANCH   5   6
ATOM      6  O   UNL A   1      40.792  22.373  26.111  1.00  0.00    -0.460 OA
BRANCH   6   7
ATOM      7  C   UNL A   1      41.678  22.467  27.132  1.00  0.00     0.338 C 
ATOM      8  O   UNL A   1      42.113  21.541  27.795  1.00  0.00    -0.246 OA
BRANCH   7   9
ATOM      9  C   UNL A   1      41.954  23.894  27.422  1.00  0.00     0.060 A 
ATOM     10  C   UNL A   1      43.136  24.480  26.963  1.00  0.00     0.016 A 
ATOM     11  C   UNL A   1      41.100  24.618  28.256  1.00  0.00     0.016 A 
ATOM     12  C   UNL A   1      43.420  25.810  27.287  1.00  0.00     0.010 A 
ATOM     13  C   UNL A   1      41.420  25.909  28.638  1.00  0.00     0.010 A 
ATOM     14  C   UNL A   1      42.547  26.543  28.109  1.00  0.00    -0.014 A 
BRANCH  14  15
ATOM     15  C   UNL A   1      42.668  28.012  28.208  1.00  0.00     0.031 A 
ATOM     16  C   UNL A   1      41.390  28.769  27.972  1.00  0.00     0.074 A 
ATOM     17  C   UNL A   1      43.646  28.629  28.899  1.00  0.00     0.049 A 
ATOM     18  N   UNL A   1      40.528  29.037  28.914  1.00  0.00    -0.248 NA
ATOM     19  C   UNL A   1      40.862  28.963  26.620  1.00  0.00     0.031 C 
ATOM     20  C   UNL A   1      44.145  28.169  30.196  1.00  0.00     0.029 A 
ATOM     21  N   UNL A   1      44.179  29.889  28.747  1.00  0.00    -0.354 N 
ATOM     22  C   UNL A   1      39.334  29.367  28.294  1.00  0.00     0.074 A 
ATOM     23  C   UNL A   1      39.596  29.329  26.871  1.00  0.00     0.031 C 
ATOM     24  C   UNL A   1      44.758  29.205  30.807  1.00  0.00     0.029 A 
ATOM     25  C   UNL A   1      44.822  30.344  29.892  1.00  0.00     0.049 A 
ATOM     26  H   UNL A   1      44.112  30.411  27.916  1.00  0.00     0.167 HD
ATOM     27  C   UNL A   1      38.180  29.629  28.966  1.00  0.00     0.037 A 
ATOM     28  C   UNL A   1      44.877  31.651  30.269  1.00  0.00     0.037 A 
ATOM     29  C   UNL A   1      38.242  29.551  30.393  1.00  0.00     0.049 A 
ATOM     30  C   UNL A   1      43.462  31.862  30.750  1.00  0.00     0.074 A 
ATOM     31  C   UNL A   1      37.907  28.658  31.387  1.00  0.00     0.029 A 
ATOM     32  N   UNL A   1      38.779  30.620  31.069  1.00  0.00    -0.354 N 
ATOM     33  N   UNL A   1      42.967  31.500  31.904  1.00  0.00    -0.248 NA
ATOM     34  C   UNL A   1      42.461  32.209  29.737  1.00  0.00     0.031 C 
ATOM     35  C   UNL A   1      38.698  29.036  32.522  1.00  0.00     0.029 A 
ATOM     36  C   UNL A   1      39.494  30.104  32.115  1.00  0.00     0.049 A 
ATOM     37  H   UNL A   1      38.671  31.573  30.843  1.00  0.00     0.167 HD
ATOM     38  C   UNL A   1      41.598  31.328  31.679  1.00  0.00     0.074 A 
ATOM     39  C   UNL A   1      41.349  31.819  30.341  1.00  0.00     0.031 C 
ATOM     40  C   UNL A   1      40.779  30.625  32.510  1.00  0.00     0.037 A 
BRANCH  27  41
ATOM     41  C   UNL A   1      36.964  30.180  28.340  1.00  0.00     0.064 A 
ATOM     42  C   UNL A   1      36.776  31.569  28.412  1.00  0.00     0.173 A 
ATOM     43  C   UNL A   1      35.909  29.391  27.876  1.00  0.00     0.173 A 
ATOM     44  F   UNL A   1      37.766  32.354  28.873  1.00  0.00    -0.203 F 
ATOM     45  C   UNL A   1      35.562  32.150  28.071  1.00  0.00     0.198 A 
ATOM     46  C   UNL A   1      34.693  29.979  27.521  1.00  0.00     0.198 A 
ATOM     47  F   UNL A   1      36.038  28.058  27.804  1.00  0.00    -0.203 F 
ATOM     48  F   UNL A   1      35.400  33.473  28.199  1.00  0.00    -0.200 F 
ATOM     49  C   UNL A   1      34.517  31.353  27.633  1.00  0.00     0.200 A 
ATOM     50  F   UNL A   1      33.676  29.213  27.100  1.00  0.00    -0.200 F 
ATOM     51  F   UNL A   1      33.336  31.910  27.332  1.00  0.00    -0.200 F 
ENDBRANCH  27  41
BRANCH  28  52
ATOM     52  C   UNL A   1      45.562  32.585  29.312  1.00  0.00     0.064 A 
ATOM     53  C   UNL A   1      46.605  33.405  29.793  1.00  0.00     0.173 A 
ATOM     54  C   UNL A   1      45.247  32.732  27.952  1.00  0.00     0.173 A 
ATOM     55  F   UNL A   1      46.897  33.428  31.103  1.00  0.00    -0.203 F 
ATOM     56  C   UNL A   1      47.369  34.209  28.945  1.00  0.00     0.198 A 
ATOM     57  C   UNL A   1      46.029  33.513  27.096  1.00  0.00     0.198 A 
ATOM     58  F   UNL A   1      44.187  32.113  27.416  1.00  0.00    -0.203 F 
ATOM     59  F   UNL A   1      48.376  34.938  29.443  1.00  0.00    -0.200 F 
ATOM     60  C   UNL A   1      47.102  34.235  27.589  1.00  0.00     0.200 A 
ATOM     61  F   UNL A   1      45.751  33.543  25.785  1.00  0.00    -0.200 F 
ATOM     62  F   UNL A   1      47.868  34.957  26.761  1.00  0.00    -0.200 F 
ENDBRANCH  28  52
BRANCH  40  63
ATOM     63  C   UNL A   1      41.388  30.173  33.787  1.00  0.00     0.064 A 
ATOM     64  C   UNL A   1      42.043  28.942  33.859  1.00  0.00     0.173 A 
ATOM     65  C   UNL A   1      41.381  30.990  34.926  1.00  0.00     0.173 A 
ATOM     66  F   UNL A   1      42.072  28.128  32.792  1.00  0.00    -0.203 F 
ATOM     67  C   UNL A   1      42.706  28.558  35.020  1.00  0.00     0.198 A 
ATOM     68  C   UNL A   1      42.064  30.615  36.077  1.00  0.00     0.198 A 
ATOM     69  F   UNL A   1      40.744  32.170  34.916  1.00  0.00    -0.203 F 
ATOM     70  F   UNL A   1      43.346  27.381  35.066  1.00  0.00    -0.200 F 
ATOM     71  C   UNL A   1      42.731  29.402  36.121  1.00  0.00     0.200 A 
ATOM     72  F   UNL A   1      42.100  31.443  37.131  1.00  0.00    -0.200 F 
ATOM     73  F   UNL A   1      43.411  29.052  37.222  1.00  0.00    -0.200 F 
ENDBRANCH  40  63
ENDBRANCH  14  15
ENDBRANCH   7   9
ENDBRANCH   6   7
ENDBRANCH   5   6
ENDBRANCH   4   5
ENDBRANCH   3   4
ENDBRANCH   2   3
ENDBRANCH   1   2
BRANCH   1  74
ATOM     74  O   UNL A   1      35.091  20.497  25.235  1.00  0.00    -0.377 OA
BRANCH  74  75
ATOM     75  C   UNL A   1      33.923  19.784  24.834  1.00  0.00     0.188 C 
BRANCH  75  76
ATOM     76  C   UNL A   1      32.696  20.591  24.356  1.00  0.00     0.188 C 
BRANCH  76  77
ATOM     77  O   UNL A   1      31.756  20.826  25.381  1.00  0.00    -0.376 OA
BRANCH  77  78
ATOM     78  C   UNL A   1      31.341  22.164  25.609  1.00  0.00     0.202 C 
BRANCH  78  79
ATOM     79  C   UNL A   1      31.733  22.927  26.894  1.00  0.00     0.261 C 
BRANCH  79  80
ATOM     80  O   UNL A   1      31.555  24.350  26.904  1.00  0.00    -0.460 OA
BRANCH  80  81
ATOM     81  C   UNL A   1      32.396  25.107  26.152  1.00  0.00     0.338 C 
ATOM     82  O   UNL A   1      33.596  25.051  26.108  1.00  0.00    -0.246 OA
BRANCH  81  83
ATOM     83  C   UNL A   1      31.539  25.876  25.208  1.00  0.00     0.061 A 
ATOM     84  C   UNL A   1      30.932  25.249  24.120  1.00  0.00     0.018 A 
ATOM     85  C   UNL A   1      31.458  27.267  25.382  1.00  0.00     0.037 A 
ATOM     86  C   UNL A   1      30.237  26.010  23.168  1.00  0.00     0.031 A 
ATOM     87  C   UNL A   1      30.812  28.018  24.385  1.00  0.00     0.057 A 
ATOM     88  C   UNL A   1      30.194  27.415  23.283  1.00  0.00     0.083 A 
ATOM     89  S   UNL A   1      30.658  29.732  24.243  1.00  0.00    -0.102 S 
ATOM     90  N   UNL A   1      29.595  28.287  22.388  1.00  0.00    -0.225 NA
ATOM     91  C   UNL A   1      29.790  29.512  22.804  1.00  0.00     0.184 A 
ATOM     92  Cl  UNL A   1      29.203  30.877  21.944  1.00  0.00    -0.050 Cl
ENDBRANCH  81  83
ENDBRANCH  80  81
ENDBRANCH  79  80
ENDBRANCH  78  79
ENDBRANCH  77  78
ENDBRANCH  76  77
ENDBRANCH  75  76
ENDBRANCH  74  75
ENDBRANCH   1  74
TORSDOF 20
ENDMDL
