MODEL 1
REMARK VINA RESULT:     -11.1      0.000      0.000
REMARK SMILES C[C@H]1[C@H](C(=O)OCCOCCOCCOCCOC(=O)c2ccc(-c3c4nc(c(-c5c(F)c(F)c(F)c(F)c5F)c5ccc([nH]5)c(-c5c(F)c(F)c(F)c(F)c5F)c5nc(c(-c6c(F)c(F)c(F)c(F)c6F)c6ccc3[nH]6)C=C5)C=C4)cc2)CCN1C(=O)Nc1ccc(F)c(Cl)c1
REMARK SMILES IDX 12 1 11 2 10 3 9 4 8 5 7 6 6 7 4 8 5 9 3 10 1 11 2 12 86 13
REMARK SMILES IDX 84 14 85 15 87 16 88 17 89 18 90 20 91 21 97 22 92 23 95 24
REMARK SMILES IDX 93 25 96 26 94 27 13 28 14 29 15 30 16 31 17 32 18 33 19 34
REMARK SMILES IDX 20 35 21 36 22 37 83 38 23 39 82 40 24 41 25 42 26 43 76 44
REMARK SMILES IDX 27 45 81 46 75 47 77 48 28 49 80 50 74 51 73 52 29 54 61 55
REMARK SMILES IDX 41 56 60 57 42 58 45 59 59 60 78 61 43 62 44 63 58 65 79 66
REMARK SMILES IDX 46 67 30 68 31 69 39 70 32 71 33 72 37 73 40 74 34 75 35 76
REMARK SMILES IDX 38 77 36 78 62 79 63 80 71 81 64 82 65 83 69 84 72 85 66 86
REMARK SMILES IDX 67 87 70 88 68 89 47 90 48 91 56 92 49 93 50 94 54 95 57 96
REMARK SMILES IDX 51 97 52 98 55 99 53 100
REMARK H PARENT 89 19 77 53 45 64
REMARK Flexibility Score: inf
ROOT
ATOM      1  O   UNL A   1      34.009  31.654  28.491  1.00  0.00    -0.377 OA
ENDROOT
BRANCH   1   2
ATOM      2  C   UNL A   1      34.643  30.728  27.630  1.00  0.00     0.188 C 
BRANCH   2   3
ATOM      3  C   UNL A   1      33.693  29.966  26.682  1.00  0.00     0.188 C 
BRANCH   3   4
ATOM      4  O   UNL A   1      34.120  28.826  25.937  1.00  0.00    -0.376 OA
BRANCH   4   5
ATOM      5  C   UNL A   1      33.554  28.574  24.665  1.00  0.00     0.202 C 
BRANCH   5   6
ATOM      6  C   UNL A   1      32.628  27.345  24.631  1.00  0.00     0.261 C 
BRANCH   6   7
ATOM      7  O   UNL A   1      32.639  26.584  23.403  1.00  0.00    -0.463 OA
BRANCH   7   8
ATOM      8  C   UNL A   1      33.509  25.541  23.374  1.00  0.00     0.311 C 
ATOM      9  O   UNL A   1      33.923  25.009  22.350  1.00  0.00    -0.252 OA
BRANCH   8  10
ATOM     10  C   UNL A   1      33.803  24.952  24.739  1.00  0.00     0.123 C 
ATOM     11  C   UNL A   1      31.901  24.497  26.301  1.00  0.00     0.032 C 
ATOM     12  C   UNL A   1      32.901  23.842  25.342  1.00  0.00     0.098 C 
ATOM     13  N   UNL A   1      33.837  22.912  26.014  1.00  0.00    -0.321 N 
ATOM     14  C   UNL A   1      35.191  24.335  24.690  1.00  0.00     0.039 C 
ATOM     15  C   UNL A   1      35.199  23.398  25.871  1.00  0.00     0.122 C 
BRANCH  13  16
ATOM     16  C   UNL A   1      33.671  21.819  26.821  1.00  0.00     0.322 C 
ATOM     17  O   UNL A   1      34.054  21.835  27.997  1.00  0.00    -0.248 OA
ATOM     18  N   UNL A   1      32.927  20.747  26.471  1.00  0.00    -0.308 N 
ATOM     19  H   UNL A   1      32.384  20.405  27.219  1.00  0.00     0.171 HD
BRANCH  18  20
ATOM     20  C   UNL A   1      32.745  20.014  25.301  1.00  0.00     0.044 A 
ATOM     21  C   UNL A   1      33.180  18.679  25.302  1.00  0.00     0.029 A 
ATOM     22  C   UNL A   1      32.258  20.580  24.133  1.00  0.00     0.049 A 
ATOM     23  C   UNL A   1      33.040  17.885  24.163  1.00  0.00     0.043 A 
ATOM     24  C   UNL A   1      32.195  19.807  22.976  1.00  0.00     0.078 A 
ATOM     25  C   UNL A   1      32.543  18.456  22.998  1.00  0.00     0.141 A 
ATOM     26  Cl  UNL A   1      31.779  20.604  21.522  1.00  0.00    -0.081 Cl
ATOM     27  F   UNL A   1      32.437  17.693  21.899  1.00  0.00    -0.205 F 
ENDBRANCH  18  20
ENDBRANCH  13  16
ENDBRANCH   8  10
ENDBRANCH   7   8
ENDBRANCH   6   7
ENDBRANCH   5   6
ENDBRANCH   4   5
ENDBRANCH   3   4
ENDBRANCH   2   3
ENDBRANCH   1   2
BRANCH   1  28
ATOM     28  C   UNL A   1      34.023  33.017  28.111  1.00  0.00     0.188 C 
BRANCH  28  29
ATOM     29  C   UNL A   1      35.238  33.875  28.490  1.00  0.00     0.188 C 
BRANCH  29  30
ATOM     30  O   UNL A   1      35.433  34.179  29.851  1.00  0.00    -0.376 OA
BRANCH  30  31
ATOM     31  C   UNL A   1      34.411  34.321  30.819  1.00  0.00     0.202 C 
BRANCH  31  32
ATOM     32  C   UNL A   1      34.439  33.790  32.256  1.00  0.00     0.261 C 
BRANCH  32  33
ATOM     33  O   UNL A   1      34.798  32.424  32.420  1.00  0.00    -0.460 OA
BRANCH  33  34
ATOM     34  C   UNL A   1      35.955  32.227  33.093  1.00  0.00     0.338 C 
ATOM     35  O   UNL A   1      36.220  32.556  34.239  1.00  0.00    -0.246 OA
BRANCH  34  36
ATOM     36  C   UNL A   1      36.841  31.381  32.289  1.00  0.00     0.060 A 
ATOM     37  C   UNL A   1      38.023  30.927  32.879  1.00  0.00     0.016 A 
ATOM     38  C   UNL A   1      36.542  31.086  30.959  1.00  0.00     0.016 A 
ATOM     39  C   UNL A   1      38.939  30.206  32.121  1.00  0.00     0.010 A 
ATOM     40  C   UNL A   1      37.450  30.337  30.206  1.00  0.00     0.010 A 
ATOM     41  C   UNL A   1      38.681  29.949  30.768  1.00  0.00    -0.014 A 
BRANCH  41  42
ATOM     42  C   UNL A   1      39.819  29.544  29.904  1.00  0.00     0.031 A 
ATOM     43  C   UNL A   1      40.941  30.530  29.711  1.00  0.00     0.074 A 
ATOM     44  C   UNL A   1      39.919  28.300  29.402  1.00  0.00     0.049 A 
ATOM     45  N   UNL A   1      42.088  30.380  29.098  1.00  0.00    -0.248 NA
ATOM     46  C   UNL A   1      40.742  31.872  30.286  1.00  0.00     0.031 C 
ATOM     47  C   UNL A   1      38.917  27.245  29.538  1.00  0.00     0.029 A 
ATOM     48  N   UNL A   1      40.935  27.711  28.690  1.00  0.00    -0.354 N 
ATOM     49  C   UNL A   1      42.737  31.602  29.218  1.00  0.00     0.074 A 
ATOM     50  C   UNL A   1      41.837  32.502  29.899  1.00  0.00     0.031 C 
ATOM     51  C   UNL A   1      39.376  26.129  28.941  1.00  0.00     0.029 A 
ATOM     52  C   UNL A   1      40.696  26.397  28.371  1.00  0.00     0.049 A 
ATOM     53  H   UNL A   1      41.757  28.186  28.432  1.00  0.00     0.167 HD
ATOM     54  C   UNL A   1      43.988  31.940  28.829  1.00  0.00     0.037 A 
ATOM     55  C   UNL A   1      41.462  25.515  27.699  1.00  0.00     0.037 A 
ATOM     56  C   UNL A   1      44.896  31.048  28.164  1.00  0.00     0.049 A 
ATOM     57  C   UNL A   1      42.833  25.935  27.222  1.00  0.00     0.074 A 
ATOM     58  C   UNL A   1      46.189  31.292  27.741  1.00  0.00     0.029 A 
ATOM     59  N   UNL A   1      44.600  29.738  27.822  1.00  0.00    -0.354 N 
ATOM     60  N   UNL A   1      43.456  27.077  27.382  1.00  0.00    -0.248 NA
ATOM     61  C   UNL A   1      43.611  24.931  26.483  1.00  0.00     0.031 C 
ATOM     62  C   UNL A   1      46.658  30.145  27.094  1.00  0.00     0.029 A 
ATOM     63  C   UNL A   1      45.680  29.167  27.171  1.00  0.00     0.049 A 
ATOM     64  H   UNL A   1      43.749  29.281  28.015  1.00  0.00     0.167 HD
ATOM     65  C   UNL A   1      44.709  26.917  26.799  1.00  0.00     0.074 A 
ATOM     66  C   UNL A   1      44.762  25.560  26.297  1.00  0.00     0.031 C 
ATOM     67  C   UNL A   1      45.724  27.809  26.690  1.00  0.00     0.037 A 
BRANCH  54  68
ATOM     68  C   UNL A   1      44.431  33.348  29.103  1.00  0.00     0.064 A 
ATOM     69  C   UNL A   1      44.256  34.374  28.161  1.00  0.00     0.173 A 
ATOM     70  C   UNL A   1      45.040  33.673  30.323  1.00  0.00     0.173 A 
ATOM     71  F   UNL A   1      43.700  34.109  26.968  1.00  0.00    -0.203 F 
ATOM     72  C   UNL A   1      44.705  35.666  28.418  1.00  0.00     0.198 A 
ATOM     73  C   UNL A   1      45.456  34.974  30.591  1.00  0.00     0.198 A 
ATOM     74  F   UNL A   1      45.233  32.729  31.256  1.00  0.00    -0.203 F 
ATOM     75  F   UNL A   1      44.584  36.615  27.479  1.00  0.00    -0.200 F 
ATOM     76  C   UNL A   1      45.298  35.967  29.635  1.00  0.00     0.200 A 
ATOM     77  F   UNL A   1      46.019  35.266  31.771  1.00  0.00    -0.200 F 
ATOM     78  F   UNL A   1      45.727  37.212  29.883  1.00  0.00    -0.200 F 
ENDBRANCH  54  68
BRANCH  55  79
ATOM     79  C   UNL A   1      40.969  24.135  27.440  1.00  0.00     0.064 A 
ATOM     80  C   UNL A   1      41.549  23.024  28.070  1.00  0.00     0.173 A 
ATOM     81  C   UNL A   1      39.941  23.894  26.517  1.00  0.00     0.173 A 
ATOM     82  F   UNL A   1      42.555  23.199  28.940  1.00  0.00    -0.203 F 
ATOM     83  C   UNL A   1      41.141  21.728  27.765  1.00  0.00     0.198 A 
ATOM     84  C   UNL A   1      39.513  22.599  26.236  1.00  0.00     0.198 A 
ATOM     85  F   UNL A   1      39.354  24.921  25.882  1.00  0.00    -0.203 F 
ATOM     86  F   UNL A   1      41.757  20.683  28.335  1.00  0.00    -0.200 F 
ATOM     87  C   UNL A   1      40.120  21.516  26.851  1.00  0.00     0.200 A 
ATOM     88  F   UNL A   1      38.520  22.399  25.357  1.00  0.00    -0.200 F 
ATOM     89  F   UNL A   1      39.734  20.268  26.553  1.00  0.00    -0.200 F 
ENDBRANCH  55  79
BRANCH  67  90
ATOM     90  C   UNL A   1      46.999  27.338  26.047  1.00  0.00     0.064 A 
ATOM     91  C   UNL A   1      47.196  27.399  24.660  1.00  0.00     0.173 A 
ATOM     92  C   UNL A   1      48.052  26.854  26.838  1.00  0.00     0.173 A 
ATOM     93  F   UNL A   1      46.218  27.846  23.857  1.00  0.00    -0.203 F 
ATOM     94  C   UNL A   1      48.386  26.958  24.085  1.00  0.00     0.198 A 
ATOM     95  C   UNL A   1      49.255  26.448  26.264  1.00  0.00     0.198 A 
ATOM     96  F   UNL A   1      47.924  26.787  28.171  1.00  0.00    -0.203 F 
ATOM     97  F   UNL A   1      48.529  26.971  22.753  1.00  0.00    -0.200 F 
ATOM     98  C   UNL A   1      49.416  26.489  24.887  1.00  0.00     0.200 A 
ATOM     99  F   UNL A   1      50.255  26.015  27.042  1.00  0.00    -0.200 F 
ATOM    100  F   UNL A   1      50.562  26.071  24.333  1.00  0.00    -0.200 F 
ENDBRANCH  67  90
ENDBRANCH  41  42
ENDBRANCH  34  36
ENDBRANCH  33  34
ENDBRANCH  32  33
ENDBRANCH  31  32
ENDBRANCH  30  31
ENDBRANCH  29  30
ENDBRANCH  28  29
ENDBRANCH   1  28
TORSDOF 22
ENDMDL
MODEL 2
REMARK VINA RESULT:     -10.8      4.874      7.180
REMARK SMILES C[C@H]1[C@H](C(=O)OCCOCCOCCOCCOC(=O)c2ccc(-c3c4nc(c(-c5c(F)c(F)c(F)c(F)c5F)c5ccc([nH]5)c(-c5c(F)c(F)c(F)c(F)c5F)c5nc(c(-c6c(F)c(F)c(F)c(F)c6F)c6ccc3[nH]6)C=C5)C=C4)cc2)CCN1C(=O)Nc1ccc(F)c(Cl)c1
REMARK SMILES IDX 12 1 11 2 10 3 9 4 8 5 7 6 6 7 4 8 5 9 3 10 1 11 2 12 86 13
REMARK SMILES IDX 84 14 85 15 87 16 88 17 89 18 90 20 91 21 97 22 92 23 95 24
REMARK SMILES IDX 93 25 96 26 94 27 13 28 14 29 15 30 16 31 17 32 18 33 19 34
REMARK SMILES IDX 20 35 21 36 22 37 83 38 23 39 82 40 24 41 25 42 26 43 76 44
REMARK SMILES IDX 27 45 81 46 75 47 77 48 28 49 80 50 74 51 73 52 29 54 61 55
REMARK SMILES IDX 41 56 60 57 42 58 45 59 59 60 78 61 43 62 44 63 58 65 79 66
REMARK SMILES IDX 46 67 30 68 31 69 39 70 32 71 33 72 37 73 40 74 34 75 35 76
REMARK SMILES IDX 38 77 36 78 62 79 63 80 71 81 64 82 65 83 69 84 72 85 66 86
REMARK SMILES IDX 67 87 70 88 68 89 47 90 48 91 56 92 49 93 50 94 54 95 57 96
REMARK SMILES IDX 51 97 52 98 55 99 53 100
REMARK H PARENT 89 19 77 53 45 64
REMARK Flexibility Score: inf
ROOT
ATOM      1  O   UNL A   1      35.235  29.762  27.275  1.00  0.00    -0.377 OA
ENDROOT
BRANCH   1   2
ATOM      2  C   UNL A   1      33.900  29.309  27.387  1.00  0.00     0.188 C 
BRANCH   2   3
ATOM      3  C   UNL A   1      33.117  29.258  26.058  1.00  0.00     0.188 C 
BRANCH   3   4
ATOM      4  O   UNL A   1      33.610  28.560  24.914  1.00  0.00    -0.376 OA
BRANCH   4   5
ATOM      5  C   UNL A   1      33.188  28.956  23.623  1.00  0.00     0.202 C 
BRANCH   5   6
ATOM      6  C   UNL A   1      33.433  27.892  22.538  1.00  0.00     0.261 C 
BRANCH   6   7
ATOM      7  O   UNL A   1      32.782  26.619  22.749  1.00  0.00    -0.463 OA
BRANCH   7   8
ATOM      8  C   UNL A   1      31.434  26.624  22.593  1.00  0.00     0.311 C 
ATOM      9  O   UNL A   1      30.824  27.373  21.835  1.00  0.00    -0.252 OA
BRANCH   8  10
ATOM     10  C   UNL A   1      30.700  25.737  23.578  1.00  0.00     0.123 C 
ATOM     11  C   UNL A   1      30.825  23.253  23.302  1.00  0.00     0.032 C 
ATOM     12  C   UNL A   1      31.350  24.437  24.121  1.00  0.00     0.098 C 
ATOM     13  N   UNL A   1      30.961  24.382  25.548  1.00  0.00    -0.321 N 
ATOM     14  C   UNL A   1      30.402  26.565  24.817  1.00  0.00     0.039 C 
ATOM     15  C   UNL A   1      30.124  25.525  25.874  1.00  0.00     0.122 C 
BRANCH  13  16
ATOM     16  C   UNL A   1      31.107  23.445  26.536  1.00  0.00     0.322 C 
ATOM     17  O   UNL A   1      30.356  23.437  27.518  1.00  0.00    -0.248 OA
ATOM     18  N   UNL A   1      31.922  22.374  26.424  1.00  0.00    -0.308 N 
ATOM     19  H   UNL A   1      31.516  21.552  26.786  1.00  0.00     0.171 HD
BRANCH  18  20
ATOM     20  C   UNL A   1      33.201  22.158  25.916  1.00  0.00     0.044 A 
ATOM     21  C   UNL A   1      33.442  20.933  25.274  1.00  0.00     0.029 A 
ATOM     22  C   UNL A   1      34.244  23.048  26.118  1.00  0.00     0.049 A 
ATOM     23  C   UNL A   1      34.702  20.641  24.749  1.00  0.00     0.043 A 
ATOM     24  C   UNL A   1      35.519  22.719  25.663  1.00  0.00     0.078 A 
ATOM     25  C   UNL A   1      35.741  21.543  24.945  1.00  0.00     0.141 A 
ATOM     26  Cl  UNL A   1      36.803  23.755  26.110  1.00  0.00    -0.081 Cl
ATOM     27  F   UNL A   1      36.956  21.242  24.462  1.00  0.00    -0.205 F 
ENDBRANCH  18  20
ENDBRANCH  13  16
ENDBRANCH   8  10
ENDBRANCH   7   8
ENDBRANCH   6   7
ENDBRANCH   5   6
ENDBRANCH   4   5
ENDBRANCH   3   4
ENDBRANCH   2   3
ENDBRANCH   1   2
BRANCH   1  28
ATOM     28  C   UNL A   1      35.559  30.998  27.883  1.00  0.00     0.188 C 
BRANCH  28  29
ATOM     29  C   UNL A   1      34.449  32.040  28.073  1.00  0.00     0.188 C 
BRANCH  29  30
ATOM     30  O   UNL A   1      34.784  33.258  28.697  1.00  0.00    -0.376 OA
BRANCH  30  31
ATOM     31  C   UNL A   1      34.362  34.541  28.279  1.00  0.00     0.202 C 
BRANCH  31  32
ATOM     32  C   UNL A   1      33.360  35.450  29.001  1.00  0.00     0.261 C 
BRANCH  32  33
ATOM     33  O   UNL A   1      32.683  34.885  30.117  1.00  0.00    -0.460 OA
BRANCH  33  34
ATOM     34  C   UNL A   1      32.934  35.504  31.294  1.00  0.00     0.338 C 
ATOM     35  O   UNL A   1      32.284  36.391  31.827  1.00  0.00    -0.246 OA
BRANCH  34  36
ATOM     36  C   UNL A   1      34.051  34.831  31.964  1.00  0.00     0.060 A 
ATOM     37  C   UNL A   1      35.195  35.584  32.241  1.00  0.00     0.016 A 
ATOM     38  C   UNL A   1      33.996  33.470  32.262  1.00  0.00     0.016 A 
ATOM     39  C   UNL A   1      36.313  34.963  32.783  1.00  0.00     0.010 A 
ATOM     40  C   UNL A   1      35.111  32.852  32.834  1.00  0.00     0.010 A 
ATOM     41  C   UNL A   1      36.296  33.584  33.036  1.00  0.00    -0.014 A 
BRANCH  41  42
ATOM     42  C   UNL A   1      37.595  32.893  33.229  1.00  0.00     0.031 A 
ATOM     43  C   UNL A   1      38.350  33.159  34.505  1.00  0.00     0.074 A 
ATOM     44  C   UNL A   1      38.041  31.966  32.362  1.00  0.00     0.049 A 
ATOM     45  N   UNL A   1      39.445  32.602  34.960  1.00  0.00    -0.248 NA
ATOM     46  C   UNL A   1      37.796  34.196  35.393  1.00  0.00     0.031 C 
ATOM     47  C   UNL A   1      37.393  31.597  31.105  1.00  0.00     0.029 A 
ATOM     48  N   UNL A   1      39.142  31.149  32.426  1.00  0.00    -0.354 N 
ATOM     49  C   UNL A   1      39.701  33.222  36.176  1.00  0.00     0.074 A 
ATOM     50  C   UNL A   1      38.694  34.239  36.361  1.00  0.00     0.031 C 
ATOM     51  C   UNL A   1      38.102  30.613  30.522  1.00  0.00     0.029 A 
ATOM     52  C   UNL A   1      39.259  30.293  31.359  1.00  0.00     0.049 A 
ATOM     53  H   UNL A   1      39.788  31.174  33.168  1.00  0.00     0.167 HD
ATOM     54  C   UNL A   1      40.669  32.948  37.081  1.00  0.00     0.037 A 
ATOM     55  C   UNL A   1      40.193  29.359  31.095  1.00  0.00     0.037 A 
ATOM     56  C   UNL A   1      41.666  31.928  36.913  1.00  0.00     0.049 A 
ATOM     57  C   UNL A   1      41.299  29.112  32.095  1.00  0.00     0.074 A 
ATOM     58  C   UNL A   1      42.682  31.565  37.778  1.00  0.00     0.029 A 
ATOM     59  N   UNL A   1      41.775  31.112  35.798  1.00  0.00    -0.354 N 
ATOM     60  N   UNL A   1      41.505  29.670  33.263  1.00  0.00    -0.248 NA
ATOM     61  C   UNL A   1      42.293  28.088  31.740  1.00  0.00     0.031 C 
ATOM     62  C   UNL A   1      43.438  30.563  37.163  1.00  0.00     0.029 A 
ATOM     63  C   UNL A   1      42.856  30.259  35.943  1.00  0.00     0.049 A 
ATOM     64  H   UNL A   1      41.172  31.134  35.019  1.00  0.00     0.167 HD
ATOM     65  C   UNL A   1      42.625  29.041  33.796  1.00  0.00     0.074 A 
ATOM     66  C   UNL A   1      43.044  28.047  32.830  1.00  0.00     0.031 C 
ATOM     67  C   UNL A   1      43.252  29.264  34.979  1.00  0.00     0.037 A 
BRANCH  54  68
ATOM     68  C   UNL A   1      40.696  33.785  38.327  1.00  0.00     0.064 A 
ATOM     69  C   UNL A   1      39.900  33.476  39.441  1.00  0.00     0.173 A 
ATOM     70  C   UNL A   1      41.529  34.910  38.406  1.00  0.00     0.173 A 
ATOM     71  F   UNL A   1      39.068  32.423  39.406  1.00  0.00    -0.203 F 
ATOM     72  C   UNL A   1      39.911  34.283  40.574  1.00  0.00     0.198 A 
ATOM     73  C   UNL A   1      41.565  35.695  39.554  1.00  0.00     0.198 A 
ATOM     74  F   UNL A   1      42.307  35.249  37.368  1.00  0.00    -0.203 F 
ATOM     75  F   UNL A   1      39.096  34.006  41.602  1.00  0.00    -0.200 F 
ATOM     76  C   UNL A   1      40.749  35.387  40.633  1.00  0.00     0.200 A 
ATOM     77  F   UNL A   1      42.381  36.755  39.614  1.00  0.00    -0.200 F 
ATOM     78  F   UNL A   1      40.761  36.162  41.727  1.00  0.00    -0.200 F 
ENDBRANCH  54  68
BRANCH  55  79
ATOM     79  C   UNL A   1      40.129  28.567  29.837  1.00  0.00     0.064 A 
ATOM     80  C   UNL A   1      39.483  27.322  29.792  1.00  0.00     0.173 A 
ATOM     81  C   UNL A   1      40.758  29.014  28.666  1.00  0.00     0.173 A 
ATOM     82  F   UNL A   1      38.891  26.836  30.893  1.00  0.00    -0.203 F 
ATOM     83  C   UNL A   1      39.496  26.545  28.636  1.00  0.00     0.198 A 
ATOM     84  C   UNL A   1      40.743  28.249  27.502  1.00  0.00     0.198 A 
ATOM     85  F   UNL A   1      41.395  30.195  28.655  1.00  0.00    -0.203 F 
ATOM     86  F   UNL A   1      38.925  25.332  28.641  1.00  0.00    -0.200 F 
ATOM     87  C   UNL A   1      40.122  27.010  27.490  1.00  0.00     0.200 A 
ATOM     88  F   UNL A   1      41.343  28.707  26.394  1.00  0.00    -0.200 F 
ATOM     89  F   UNL A   1      40.139  26.259  26.381  1.00  0.00    -0.200 F 
ENDBRANCH  55  79
BRANCH  67  90
ATOM     90  C   UNL A   1      44.425  28.390  35.321  1.00  0.00     0.064 A 
ATOM     91  C   UNL A   1      45.738  28.742  34.977  1.00  0.00     0.173 A 
ATOM     92  C   UNL A   1      44.233  27.198  36.039  1.00  0.00     0.173 A 
ATOM     93  F   UNL A   1      45.977  29.866  34.284  1.00  0.00    -0.203 F 
ATOM     94  C   UNL A   1      46.811  27.916  35.305  1.00  0.00     0.198 A 
ATOM     95  C   UNL A   1      45.312  26.393  36.397  1.00  0.00     0.198 A 
ATOM     96  F   UNL A   1      43.000  26.820  36.406  1.00  0.00    -0.203 F 
ATOM     97  F   UNL A   1      48.050  28.245  34.914  1.00  0.00    -0.200 F 
ATOM     98  C   UNL A   1      46.598  26.747  36.020  1.00  0.00     0.200 A 
ATOM     99  F   UNL A   1      45.105  25.275  37.105  1.00  0.00    -0.200 F 
ATOM    100  F   UNL A   1      47.632  25.958  36.340  1.00  0.00    -0.200 F 
ENDBRANCH  67  90
ENDBRANCH  41  42
ENDBRANCH  34  36
ENDBRANCH  33  34
ENDBRANCH  32  33
ENDBRANCH  31  32
ENDBRANCH  30  31
ENDBRANCH  29  30
ENDBRANCH  28  29
ENDBRANCH   1  28
TORSDOF 22
ENDMDL
MODEL 3
REMARK VINA RESULT:     -10.4      1.753      2.885
REMARK SMILES C[C@H]1[C@H](C(=O)OCCOCCOCCOCCOC(=O)c2ccc(-c3c4nc(c(-c5c(F)c(F)c(F)c(F)c5F)c5ccc([nH]5)c(-c5c(F)c(F)c(F)c(F)c5F)c5nc(c(-c6c(F)c(F)c(F)c(F)c6F)c6ccc3[nH]6)C=C5)C=C4)cc2)CCN1C(=O)Nc1ccc(F)c(Cl)c1
REMARK SMILES IDX 12 1 11 2 10 3 9 4 8 5 7 6 6 7 4 8 5 9 3 10 1 11 2 12 86 13
REMARK SMILES IDX 84 14 85 15 87 16 88 17 89 18 90 20 91 21 97 22 92 23 95 24
REMARK SMILES IDX 93 25 96 26 94 27 13 28 14 29 15 30 16 31 17 32 18 33 19 34
REMARK SMILES IDX 20 35 21 36 22 37 83 38 23 39 82 40 24 41 25 42 26 43 76 44
REMARK SMILES IDX 27 45 81 46 75 47 77 48 28 49 80 50 74 51 73 52 29 54 61 55
REMARK SMILES IDX 41 56 60 57 42 58 45 59 59 60 78 61 43 62 44 63 58 65 79 66
REMARK SMILES IDX 46 67 30 68 31 69 39 70 32 71 33 72 37 73 40 74 34 75 35 76
REMARK SMILES IDX 38 77 36 78 62 79 63 80 71 81 64 82 65 83 69 84 72 85 66 86
REMARK SMILES IDX 67 87 70 88 68 89 47 90 48 91 56 92 49 93 50 94 54 95 57 96
REMARK SMILES IDX 51 97 52 98 55 99 53 100
REMARK H PARENT 89 19 77 53 45 64
REMARK Flexibility Score: inf
ROOT
ATOM      1  O   UNL A   1      35.796  33.376  29.358  1.00  0.00    -0.377 OA
ENDROOT
BRANCH   1   2
ATOM      2  C   UNL A   1      35.606  32.010  29.048  1.00  0.00     0.188 C 
BRANCH   2   3
ATOM      3  C   UNL A   1      35.156  31.728  27.599  1.00  0.00     0.188 C 
BRANCH   3   4
ATOM      4  O   UNL A   1      33.930  31.061  27.302  1.00  0.00    -0.376 OA
BRANCH   4   5
ATOM      5  C   UNL A   1      32.777  31.825  27.004  1.00  0.00     0.202 C 
BRANCH   5   6
ATOM      6  C   UNL A   1      31.535  30.973  26.687  1.00  0.00     0.261 C 
BRANCH   6   7
ATOM      7  O   UNL A   1      31.474  30.421  25.353  1.00  0.00    -0.463 OA
BRANCH   7   8
ATOM      8  C   UNL A   1      31.545  29.067  25.282  1.00  0.00     0.311 C 
ATOM      9  O   UNL A   1      31.587  28.321  26.255  1.00  0.00    -0.252 OA
BRANCH   8  10
ATOM     10  C   UNL A   1      31.750  28.537  23.877  1.00  0.00     0.123 C 
ATOM     11  C   UNL A   1      34.047  28.588  22.884  1.00  0.00     0.032 C 
ATOM     12  C   UNL A   1      32.992  27.677  23.521  1.00  0.00     0.098 C 
ATOM     13  N   UNL A   1      32.483  26.634  22.601  1.00  0.00    -0.321 N 
ATOM     14  C   UNL A   1      30.560  27.656  23.534  1.00  0.00     0.039 C 
ATOM     15  C   UNL A   1      31.060  26.828  22.376  1.00  0.00     0.122 C 
BRANCH  13  16
ATOM     16  C   UNL A   1      33.082  25.660  21.848  1.00  0.00     0.322 C 
ATOM     17  O   UNL A   1      33.103  25.737  20.614  1.00  0.00    -0.248 OA
ATOM     18  N   UNL A   1      33.841  24.677  22.379  1.00  0.00    -0.308 N 
ATOM     19  H   UNL A   1      34.645  24.491  21.841  1.00  0.00     0.171 HD
BRANCH  18  20
ATOM     20  C   UNL A   1      33.755  23.866  23.508  1.00  0.00     0.044 A 
ATOM     21  C   UNL A   1      34.201  24.405  24.725  1.00  0.00     0.029 A 
ATOM     22  C   UNL A   1      33.353  22.541  23.446  1.00  0.00     0.049 A 
ATOM     23  C   UNL A   1      34.155  23.649  25.897  1.00  0.00     0.043 A 
ATOM     24  C   UNL A   1      33.384  21.765  24.603  1.00  0.00     0.078 A 
ATOM     25  C   UNL A   1      33.741  22.324  25.830  1.00  0.00     0.141 A 
ATOM     26  Cl  UNL A   1      33.071  20.093  24.434  1.00  0.00    -0.081 Cl
ATOM     27  F   UNL A   1      33.726  21.596  26.957  1.00  0.00    -0.205 F 
ENDBRANCH  18  20
ENDBRANCH  13  16
ENDBRANCH   8  10
ENDBRANCH   7   8
ENDBRANCH   6   7
ENDBRANCH   5   6
ENDBRANCH   4   5
ENDBRANCH   3   4
ENDBRANCH   2   3
ENDBRANCH   1   2
BRANCH   1  28
ATOM     28  C   UNL A   1      34.665  34.224  29.296  1.00  0.00     0.188 C 
BRANCH  28  29
ATOM     29  C   UNL A   1      34.072  34.759  30.608  1.00  0.00     0.188 C 
BRANCH  29  30
ATOM     30  O   UNL A   1      34.367  34.065  31.798  1.00  0.00    -0.376 OA
BRANCH  30  31
ATOM     31  C   UNL A   1      35.072  34.593  32.905  1.00  0.00     0.202 C 
BRANCH  31  32
ATOM     32  C   UNL A   1      35.619  33.799  34.097  1.00  0.00     0.261 C 
BRANCH  32  33
ATOM     33  O   UNL A   1      36.037  32.466  33.832  1.00  0.00    -0.460 OA
BRANCH  33  34
ATOM     34  C   UNL A   1      37.303  32.189  34.221  1.00  0.00     0.338 C 
ATOM     35  O   UNL A   1      37.811  32.390  35.314  1.00  0.00    -0.246 OA
BRANCH  34  36
ATOM     36  C   UNL A   1      37.976  31.431  33.163  1.00  0.00     0.060 A 
ATOM     37  C   UNL A   1      39.009  30.567  33.536  1.00  0.00     0.016 A 
ATOM     38  C   UNL A   1      37.636  31.609  31.822  1.00  0.00     0.016 A 
ATOM     39  C   UNL A   1      39.740  29.904  32.556  1.00  0.00     0.010 A 
ATOM     40  C   UNL A   1      38.353  30.920  30.840  1.00  0.00     0.010 A 
ATOM     41  C   UNL A   1      39.449  30.115  31.202  1.00  0.00    -0.014 A 
BRANCH  41  42
ATOM     42  C   UNL A   1      40.471  29.725  30.198  1.00  0.00     0.031 A 
ATOM     43  C   UNL A   1      41.552  30.722  29.872  1.00  0.00     0.074 A 
ATOM     44  C   UNL A   1      40.517  28.485  29.678  1.00  0.00     0.049 A 
ATOM     45  N   UNL A   1      42.614  30.586  29.118  1.00  0.00    -0.248 NA
ATOM     46  C   UNL A   1      41.418  32.058  30.478  1.00  0.00     0.031 C 
ATOM     47  C   UNL A   1      39.548  27.421  29.931  1.00  0.00     0.029 A 
ATOM     48  N   UNL A   1      41.439  27.910  28.839  1.00  0.00    -0.354 N 
ATOM     49  C   UNL A   1      43.264  31.813  29.165  1.00  0.00     0.074 A 
ATOM     50  C   UNL A   1      42.450  32.701  29.961  1.00  0.00     0.031 C 
ATOM     51  C   UNL A   1      39.936  26.314  29.272  1.00  0.00     0.029 A 
ATOM     52  C   UNL A   1      41.172  26.596  28.542  1.00  0.00     0.049 A 
ATOM     53  H   UNL A   1      42.218  28.395  28.482  1.00  0.00     0.167 HD
ATOM     54  C   UNL A   1      44.453  32.165  28.623  1.00  0.00     0.037 A 
ATOM     55  C   UNL A   1      41.854  25.726  27.771  1.00  0.00     0.037 A 
ATOM     56  C   UNL A   1      45.276  31.285  27.842  1.00  0.00     0.049 A 
ATOM     57  C   UNL A   1      43.150  26.161  27.129  1.00  0.00     0.074 A 
ATOM     58  C   UNL A   1      46.504  31.543  27.261  1.00  0.00     0.029 A 
ATOM     59  N   UNL A   1      44.950  29.974  27.530  1.00  0.00    -0.354 N 
ATOM     60  N   UNL A   1      43.779  27.307  27.217  1.00  0.00    -0.248 NA
ATOM     61  C   UNL A   1      43.836  25.168  26.289  1.00  0.00     0.031 C 
ATOM     62  C   UNL A   1      46.896  30.404  26.551  1.00  0.00     0.029 A 
ATOM     63  C   UNL A   1      45.943  29.417  26.744  1.00  0.00     0.049 A 
ATOM     64  H   UNL A   1      44.133  29.509  27.825  1.00  0.00     0.167 HD
ATOM     65  C   UNL A   1      44.950  27.161  26.480  1.00  0.00     0.074 A 
ATOM     66  C   UNL A   1      44.950  25.808  25.964  1.00  0.00     0.031 C 
ATOM     67  C   UNL A   1      45.936  28.063  26.250  1.00  0.00     0.037 A 
BRANCH  54  68
ATOM     68  C   UNL A   1      44.916  33.575  28.850  1.00  0.00     0.064 A 
ATOM     69  C   UNL A   1      44.577  34.614  27.969  1.00  0.00     0.173 A 
ATOM     70  C   UNL A   1      45.710  33.888  29.962  1.00  0.00     0.173 A 
ATOM     71  F   UNL A   1      43.838  34.361  26.878  1.00  0.00    -0.203 F 
ATOM     72  C   UNL A   1      45.045  35.908  28.176  1.00  0.00     0.198 A 
ATOM     73  C   UNL A   1      46.147  35.190  30.185  1.00  0.00     0.198 A 
ATOM     74  F   UNL A   1      46.065  32.931  30.831  1.00  0.00    -0.203 F 
ATOM     75  F   UNL A   1      44.761  36.872  27.289  1.00  0.00    -0.200 F 
ATOM     76  C   UNL A   1      45.823  36.197  29.287  1.00  0.00     0.200 A 
ATOM     77  F   UNL A   1      46.891  35.470  31.263  1.00  0.00    -0.200 F 
ATOM     78  F   UNL A   1      46.271  37.444  29.487  1.00  0.00    -0.200 F 
ENDBRANCH  54  68
BRANCH  55  79
ATOM     79  C   UNL A   1      41.342  24.344  27.566  1.00  0.00     0.064 A 
ATOM     80  C   UNL A   1      41.973  23.239  28.158  1.00  0.00     0.173 A 
ATOM     81  C   UNL A   1      40.243  24.094  26.733  1.00  0.00     0.173 A 
ATOM     82  F   UNL A   1      43.047  23.421  28.941  1.00  0.00    -0.203 F 
ATOM     83  C   UNL A   1      41.543  21.939  27.898  1.00  0.00     0.198 A 
ATOM     84  C   UNL A   1      39.795  22.796  26.499  1.00  0.00     0.198 A 
ATOM     85  F   UNL A   1      39.606  25.114  26.138  1.00  0.00    -0.203 F 
ATOM     86  F   UNL A   1      42.204  20.900  28.426  1.00  0.00    -0.200 F 
ATOM     87  C   UNL A   1      40.451  21.718  27.072  1.00  0.00     0.200 A 
ATOM     88  F   UNL A   1      38.734  22.588  25.706  1.00  0.00    -0.200 F 
ATOM     89  F   UNL A   1      40.043  20.468  26.818  1.00  0.00    -0.200 F 
ENDBRANCH  55  79
BRANCH  67  90
ATOM     90  C   UNL A   1      47.123  27.608  25.448  1.00  0.00     0.064 A 
ATOM     91  C   UNL A   1      48.188  26.907  26.032  1.00  0.00     0.173 A 
ATOM     92  C   UNL A   1      47.175  27.845  24.065  1.00  0.00     0.173 A 
ATOM     93  F   UNL A   1      48.192  26.661  27.352  1.00  0.00    -0.203 F 
ATOM     94  C   UNL A   1      49.279  26.494  25.269  1.00  0.00     0.198 A 
ATOM     95  C   UNL A   1      48.250  27.399  23.299  1.00  0.00     0.198 A 
ATOM     96  F   UNL A   1      46.178  28.499  23.452  1.00  0.00    -0.203 F 
ATOM     97  F   UNL A   1      50.311  25.878  25.861  1.00  0.00    -0.200 F 
ATOM     98  C   UNL A   1      49.305  26.734  23.904  1.00  0.00     0.200 A 
ATOM     99  F   UNL A   1      48.264  27.614  21.978  1.00  0.00    -0.200 F 
ATOM    100  F   UNL A   1      50.352  26.330  23.172  1.00  0.00    -0.200 F 
ENDBRANCH  67  90
ENDBRANCH  41  42
ENDBRANCH  34  36
ENDBRANCH  33  34
ENDBRANCH  32  33
ENDBRANCH  31  32
ENDBRANCH  30  31
ENDBRANCH  29  30
ENDBRANCH  28  29
ENDBRANCH   1  28
TORSDOF 22
ENDMDL
