MODEL 1
REMARK VINA RESULT:     -11.2      0.000      0.000
REMARK SMILES O=C(COc1ccccc1Br)Nc1cccc(C(=O)Nc2ccc(C(=O)OCCOCCOCCOCCOC(=O)c3ccc(-c4c5nc(c(-c6c(F)c(F)c(F)c(F)c6F)c6ccc([nH]6)c(-c6c(F)c(F)c(F)c(F)c6F)c6nc(c(-c7c(F)c(F)c(F)c(F)c7F)c7ccc4[nH]7)C=C6)C=C5)cc3)cc2)c1
REMARK SMILES IDX 31 1 30 2 29 3 28 4 27 5 25 6 26 7 24 8 21 9 22 10 106 11
REMARK SMILES IDX 23 12 105 13 20 14 18 15 19 16 17 18 13 19 14 20 107 21
REMARK SMILES IDX 15 22 16 23 12 24 1 25 2 26 3 28 4 29 5 30 6 31 10 32 7 33
REMARK SMILES IDX 9 34 11 35 8 36 32 37 33 38 34 39 35 40 36 41 37 42 38 43
REMARK SMILES IDX 39 44 40 45 41 46 42 47 43 48 104 49 44 50 103 51 45 52
REMARK SMILES IDX 46 53 47 54 97 55 48 56 102 57 96 58 98 59 49 60 101 61
REMARK SMILES IDX 95 62 94 63 50 65 82 66 62 67 81 68 63 69 66 70 80 71 99 72
REMARK SMILES IDX 64 73 65 74 79 76 100 77 67 78 51 79 52 80 60 81 53 82 54 83
REMARK SMILES IDX 58 84 61 85 55 86 56 87 59 88 57 89 83 90 84 91 92 92 85 93
REMARK SMILES IDX 86 94 90 95 93 96 87 97 88 98 91 99 89 100 68 101 69 102
REMARK SMILES IDX 77 103 70 104 71 105 75 106 78 107 72 108 73 109 76 110
REMARK SMILES IDX 74 111
REMARK H PARENT 20 17 12 27 98 64 66 75
REMARK Flexibility Score: inf
ROOT
ATOM      1  C   UNL A   1      36.554  22.996  23.551  1.00  0.00     0.188 C 
ENDROOT
BRANCH   1   2
ATOM      2  O   UNL A   1      35.436  23.795  23.223  1.00  0.00    -0.376 OA
BRANCH   2   3
ATOM      3  C   UNL A   1      34.165  23.274  22.876  1.00  0.00     0.202 C 
BRANCH   3   4
ATOM      4  C   UNL A   1      33.049  23.955  22.058  1.00  0.00     0.261 C 
BRANCH   4   5
ATOM      5  O   UNL A   1      33.401  24.890  21.047  1.00  0.00    -0.460 OA
BRANCH   5   6
ATOM      6  C   UNL A   1      32.451  25.793  20.729  1.00  0.00     0.338 C 
ATOM      7  O   UNL A   1      31.699  25.721  19.772  1.00  0.00    -0.246 OA
BRANCH   6   8
ATOM      8  C   UNL A   1      32.377  26.827  21.798  1.00  0.00     0.060 A 
ATOM      9  C   UNL A   1      32.302  28.370  24.100  1.00  0.00     0.041 A 
ATOM     10  C   UNL A   1      33.537  27.981  23.577  1.00  0.00     0.027 A 
ATOM     11  C   UNL A   1      31.136  28.212  23.345  1.00  0.00     0.027 A 
ATOM     12  C   UNL A   1      33.568  27.178  22.440  1.00  0.00     0.018 A 
ATOM     13  C   UNL A   1      31.169  27.425  22.192  1.00  0.00     0.018 A 
BRANCH   9  14
ATOM     14  N   UNL A   1      32.277  28.712  25.460  1.00  0.00    -0.322 N 
ATOM     15  C   UNL A   1      31.885  27.940  26.546  1.00  0.00     0.255 C 
ATOM     16  O   UNL A   1      31.903  28.449  27.668  1.00  0.00    -0.269 OA
ATOM     17  H   UNL A   1      32.580  29.625  25.674  1.00  0.00     0.170 HD
BRANCH  15  18
ATOM     18  C   UNL A   1      31.483  26.503  26.420  1.00  0.00     0.042 A 
ATOM     19  C   UNL A   1      32.055  24.150  26.254  1.00  0.00     0.042 A 
ATOM     20  C   UNL A   1      30.774  23.880  25.772  1.00  0.00     0.026 A 
ATOM     21  C   UNL A   1      32.358  25.443  26.681  1.00  0.00     0.040 A 
ATOM     22  C   UNL A   1      29.818  24.894  25.716  1.00  0.00     0.003 A 
ATOM     23  C   UNL A   1      30.180  26.210  26.011  1.00  0.00     0.014 A 
BRANCH  19  24
ATOM     24  N   UNL A   1      32.996  23.105  26.231  1.00  0.00    -0.323 N 
ATOM     25  O   UNL A   1      32.757  22.185  28.360  1.00  0.00    -0.271 OA
ATOM     26  C   UNL A   1      33.302  22.233  27.263  1.00  0.00     0.262 C 
ATOM     27  H   UNL A   1      33.491  22.979  25.390  1.00  0.00     0.170 HD
BRANCH  26  28
ATOM     28  C   UNL A   1      34.422  21.270  26.887  1.00  0.00     0.329 C 
BRANCH  28  29
ATOM     29  O   UNL A   1      34.498  21.133  25.462  1.00  0.00    -0.483 OA
BRANCH  29  30
ATOM     30  C   UNL A   1      34.187  19.844  25.107  1.00  0.00     0.134 A 
ATOM     31  C   UNL A   1      32.848  19.451  25.195  1.00  0.00     0.047 A 
ATOM     32  C   UNL A   1      35.161  18.921  24.708  1.00  0.00     0.060 A 
ATOM     33  C   UNL A   1      32.477  18.160  24.825  1.00  0.00     0.004 A 
ATOM     34  C   UNL A   1      34.777  17.647  24.291  1.00  0.00     0.019 A 
ATOM     35  Br  UNL A   1      37.020  19.275  24.770  1.00  0.00    -0.047 Br
ATOM     36  C   UNL A   1      33.437  17.267  24.351  1.00  0.00     0.001 A 
ENDBRANCH  29  30
ENDBRANCH  28  29
ENDBRANCH  26  28
ENDBRANCH  19  24
ENDBRANCH  15  18
ENDBRANCH   9  14
ENDBRANCH   6   8
ENDBRANCH   5   6
ENDBRANCH   4   5
ENDBRANCH   3   4
ENDBRANCH   2   3
ENDBRANCH   1   2
BRANCH   1  37
ATOM     37  C   UNL A   1      37.221  23.302  24.904  1.00  0.00     0.188 C 
BRANCH  37  38
ATOM     38  O   UNL A   1      37.910  22.198  25.464  1.00  0.00    -0.377 OA
BRANCH  38  39
ATOM     39  C   UNL A   1      39.056  22.471  26.265  1.00  0.00     0.188 C 
BRANCH  39  40
ATOM     40  C   UNL A   1      40.102  21.375  26.574  1.00  0.00     0.188 C 
BRANCH  40  41
ATOM     41  O   UNL A   1      41.211  21.333  25.690  1.00  0.00    -0.376 OA
BRANCH  41  42
ATOM     42  C   UNL A   1      42.504  21.062  26.203  1.00  0.00     0.202 C 
BRANCH  42  43
ATOM     43  C   UNL A   1      43.693  21.740  25.506  1.00  0.00     0.261 C 
BRANCH  43  44
ATOM     44  O   UNL A   1      44.269  22.858  26.195  1.00  0.00    -0.460 OA
BRANCH  44  45
ATOM     45  C   UNL A   1      44.227  24.055  25.577  1.00  0.00     0.338 C 
ATOM     46  O   UNL A   1      44.569  24.313  24.435  1.00  0.00    -0.246 OA
BRANCH  45  47
ATOM     47  C   UNL A   1      43.508  24.992  26.462  1.00  0.00     0.060 A 
ATOM     48  C   UNL A   1      43.874  26.345  26.462  1.00  0.00     0.016 A 
ATOM     49  C   UNL A   1      42.476  24.537  27.285  1.00  0.00     0.016 A 
ATOM     50  C   UNL A   1      43.236  27.240  27.319  1.00  0.00     0.010 A 
ATOM     51  C   UNL A   1      41.854  25.430  28.161  1.00  0.00     0.010 A 
ATOM     52  C   UNL A   1      42.258  26.777  28.208  1.00  0.00    -0.014 A 
BRANCH  52  53
ATOM     53  C   UNL A   1      41.815  27.641  29.328  1.00  0.00     0.031 A 
ATOM     54  C   UNL A   1      42.561  27.547  30.631  1.00  0.00     0.074 A 
ATOM     55  C   UNL A   1      40.787  28.498  29.193  1.00  0.00     0.049 A 
ATOM     56  N   UNL A   1      42.326  28.142  31.772  1.00  0.00    -0.248 NA
ATOM     57  C   UNL A   1      43.734  26.654  30.651  1.00  0.00     0.031 C 
ATOM     58  C   UNL A   1      40.017  28.710  27.969  1.00  0.00     0.029 A 
ATOM     59  N   UNL A   1      40.206  29.340  30.108  1.00  0.00    -0.354 N 
ATOM     60  C   UNL A   1      43.304  27.684  32.645  1.00  0.00     0.074 A 
ATOM     61  C   UNL A   1      44.128  26.749  31.913  1.00  0.00     0.031 C 
ATOM     62  C   UNL A   1      39.050  29.613  28.216  1.00  0.00     0.029 A 
ATOM     63  C   UNL A   1      39.110  30.011  29.621  1.00  0.00     0.049 A 
ATOM     64  H   UNL A   1      40.543  29.453  31.026  1.00  0.00     0.167 HD
ATOM     65  C   UNL A   1      43.497  28.017  33.941  1.00  0.00     0.037 A 
ATOM     66  C   UNL A   1      38.242  30.827  30.252  1.00  0.00     0.037 A 
ATOM     67  C   UNL A   1      42.686  28.962  34.662  1.00  0.00     0.049 A 
ATOM     68  C   UNL A   1      38.446  31.126  31.720  1.00  0.00     0.074 A 
ATOM     69  C   UNL A   1      42.829  29.400  35.966  1.00  0.00     0.029 A 
ATOM     70  N   UNL A   1      41.575  29.606  34.140  1.00  0.00    -0.354 N 
ATOM     71  N   UNL A   1      39.400  30.726  32.526  1.00  0.00    -0.248 NA
ATOM     72  C   UNL A   1      37.450  31.994  32.364  1.00  0.00     0.031 C 
ATOM     73  C   UNL A   1      41.764  30.256  36.257  1.00  0.00     0.029 A 
ATOM     74  C   UNL A   1      41.000  30.409  35.111  1.00  0.00     0.049 A 
ATOM     75  H   UNL A   1      41.243  29.506  33.219  1.00  0.00     0.167 HD
ATOM     76  C   UNL A   1      39.143  31.326  33.753  1.00  0.00     0.074 A 
ATOM     77  C   UNL A   1      37.951  32.128  33.583  1.00  0.00     0.031 C 
ATOM     78  C   UNL A   1      39.828  31.224  34.918  1.00  0.00     0.037 A 
BRANCH  65  79
ATOM     79  C   UNL A   1      44.606  27.338  34.688  1.00  0.00     0.064 A 
ATOM     80  C   UNL A   1      44.413  26.126  35.364  1.00  0.00     0.173 A 
ATOM     81  C   UNL A   1      45.904  27.872  34.653  1.00  0.00     0.173 A 
ATOM     82  F   UNL A   1      43.188  25.582  35.440  1.00  0.00    -0.203 F 
ATOM     83  C   UNL A   1      45.477  25.476  35.984  1.00  0.00     0.198 A 
ATOM     84  C   UNL A   1      46.970  27.205  35.248  1.00  0.00     0.198 A 
ATOM     85  F   UNL A   1      46.141  29.030  34.018  1.00  0.00    -0.203 F 
ATOM     86  F   UNL A   1      45.265  24.332  36.650  1.00  0.00    -0.200 F 
ATOM     87  C   UNL A   1      46.756  26.009  35.914  1.00  0.00     0.200 A 
ATOM     88  F   UNL A   1      48.207  27.716  35.166  1.00  0.00    -0.200 F 
ATOM     89  F   UNL A   1      47.783  25.370  36.491  1.00  0.00    -0.200 F 
ENDBRANCH  65  79
BRANCH  66  90
ATOM     90  C   UNL A   1      37.074  31.401  29.528  1.00  0.00     0.064 A 
ATOM     91  C   UNL A   1      35.990  30.598  29.147  1.00  0.00     0.173 A 
ATOM     92  C   UNL A   1      37.054  32.747  29.133  1.00  0.00     0.173 A 
ATOM     93  F   UNL A   1      35.970  29.298  29.477  1.00  0.00    -0.203 F 
ATOM     94  C   UNL A   1      34.955  31.105  28.363  1.00  0.00     0.198 A 
ATOM     95  C   UNL A   1      36.000  33.263  28.381  1.00  0.00     0.198 A 
ATOM     96  F   UNL A   1      38.065  33.563  29.467  1.00  0.00    -0.203 F 
ATOM     97  F   UNL A   1      33.972  30.295  27.948  1.00  0.00    -0.200 F 
ATOM     98  C   UNL A   1      34.960  32.439  27.982  1.00  0.00     0.200 A 
ATOM     99  F   UNL A   1      36.003  34.557  28.028  1.00  0.00    -0.200 F 
ATOM    100  F   UNL A   1      33.971  32.924  27.218  1.00  0.00    -0.200 F 
ENDBRANCH  66  90
BRANCH  78 101
ATOM    101  C   UNL A   1      39.351  32.042  36.084  1.00  0.00     0.064 A 
ATOM    102  C   UNL A   1      39.819  33.343  36.320  1.00  0.00     0.173 A 
ATOM    103  C   UNL A   1      38.373  31.530  36.952  1.00  0.00     0.173 A 
ATOM    104  F   UNL A   1      40.761  33.876  35.527  1.00  0.00    -0.203 F 
ATOM    105  C   UNL A   1      39.349  34.088  37.398  1.00  0.00     0.198 A 
ATOM    106  C   UNL A   1      37.879  32.292  38.007  1.00  0.00     0.198 A 
ATOM    107  F   UNL A   1      37.883  30.295  36.766  1.00  0.00    -0.203 F 
ATOM    108  F   UNL A   1      39.851  35.308  37.637  1.00  0.00    -0.200 F 
ATOM    109  C   UNL A   1      38.374  33.566  38.235  1.00  0.00     0.200 A 
ATOM    110  F   UNL A   1      36.922  31.792  38.802  1.00  0.00    -0.200 F 
ATOM    111  F   UNL A   1      37.916  34.289  39.266  1.00  0.00    -0.200 F 
ENDBRANCH  78 101
ENDBRANCH  52  53
ENDBRANCH  45  47
ENDBRANCH  44  45
ENDBRANCH  43  44
ENDBRANCH  42  43
ENDBRANCH  41  42
ENDBRANCH  40  41
ENDBRANCH  39  40
ENDBRANCH  38  39
ENDBRANCH  37  38
ENDBRANCH   1  37
TORSDOF 26
ENDMDL
MODEL 2
REMARK VINA RESULT:     -10.1      1.493      2.033
REMARK SMILES O=C(COc1ccccc1Br)Nc1cccc(C(=O)Nc2ccc(C(=O)OCCOCCOCCOCCOC(=O)c3ccc(-c4c5nc(c(-c6c(F)c(F)c(F)c(F)c6F)c6ccc([nH]6)c(-c6c(F)c(F)c(F)c(F)c6F)c6nc(c(-c7c(F)c(F)c(F)c(F)c7F)c7ccc4[nH]7)C=C6)C=C5)cc3)cc2)c1
REMARK SMILES IDX 31 1 30 2 29 3 28 4 27 5 25 6 26 7 24 8 21 9 22 10 106 11
REMARK SMILES IDX 23 12 105 13 20 14 18 15 19 16 17 18 13 19 14 20 107 21
REMARK SMILES IDX 15 22 16 23 12 24 1 25 2 26 3 28 4 29 5 30 6 31 10 32 7 33
REMARK SMILES IDX 9 34 11 35 8 36 32 37 33 38 34 39 35 40 36 41 37 42 38 43
REMARK SMILES IDX 39 44 40 45 41 46 42 47 43 48 104 49 44 50 103 51 45 52
REMARK SMILES IDX 46 53 47 54 97 55 48 56 102 57 96 58 98 59 49 60 101 61
REMARK SMILES IDX 95 62 94 63 50 65 82 66 62 67 81 68 63 69 66 70 80 71 99 72
REMARK SMILES IDX 64 73 65 74 79 76 100 77 67 78 51 79 52 80 60 81 53 82 54 83
REMARK SMILES IDX 58 84 61 85 55 86 56 87 59 88 57 89 83 90 84 91 92 92 85 93
REMARK SMILES IDX 86 94 90 95 93 96 87 97 88 98 91 99 89 100 68 101 69 102
REMARK SMILES IDX 77 103 70 104 71 105 75 106 78 107 72 108 73 109 76 110
REMARK SMILES IDX 74 111
REMARK H PARENT 20 17 12 27 98 64 66 75
REMARK Flexibility Score: inf
ROOT
ATOM      1  C   UNL A   1      36.503  22.622  23.356  1.00  0.00     0.188 C 
ENDROOT
BRANCH   1   2
ATOM      2  O   UNL A   1      35.449  23.530  23.110  1.00  0.00    -0.376 OA
BRANCH   2   3
ATOM      3  C   UNL A   1      34.134  23.140  22.759  1.00  0.00     0.202 C 
BRANCH   3   4
ATOM      4  C   UNL A   1      33.029  23.996  22.106  1.00  0.00     0.261 C 
BRANCH   4   5
ATOM      5  O   UNL A   1      33.311  24.687  20.896  1.00  0.00    -0.460 OA
BRANCH   5   6
ATOM      6  C   UNL A   1      32.458  25.684  20.580  1.00  0.00     0.338 C 
ATOM      7  O   UNL A   1      31.735  25.711  19.598  1.00  0.00    -0.246 OA
BRANCH   6   8
ATOM      8  C   UNL A   1      32.443  26.687  21.681  1.00  0.00     0.060 A 
ATOM      9  C   UNL A   1      32.547  28.172  24.019  1.00  0.00     0.041 A 
ATOM     10  C   UNL A   1      33.730  27.896  23.330  1.00  0.00     0.027 A 
ATOM     11  C   UNL A   1      31.309  27.933  23.416  1.00  0.00     0.027 A 
ATOM     12  C   UNL A   1      33.676  27.121  22.174  1.00  0.00     0.018 A 
ATOM     13  C   UNL A   1      31.253  27.174  22.245  1.00  0.00     0.018 A 
BRANCH   9  14
ATOM     14  N   UNL A   1      32.673  28.483  25.381  1.00  0.00    -0.322 N 
ATOM     15  C   UNL A   1      32.275  27.741  26.486  1.00  0.00     0.255 C 
ATOM     16  O   UNL A   1      32.446  28.218  27.608  1.00  0.00    -0.269 OA
ATOM     17  H   UNL A   1      33.104  29.346  25.581  1.00  0.00     0.170 HD
BRANCH  15  18
ATOM     18  C   UNL A   1      31.689  26.368  26.375  1.00  0.00     0.042 A 
ATOM     19  C   UNL A   1      31.939  23.979  26.027  1.00  0.00     0.042 A 
ATOM     20  C   UNL A   1      30.574  23.883  25.757  1.00  0.00     0.026 A 
ATOM     21  C   UNL A   1      32.460  25.203  26.445  1.00  0.00     0.040 A 
ATOM     22  C   UNL A   1      29.750  24.999  25.899  1.00  0.00     0.003 A 
ATOM     23  C   UNL A   1      30.311  26.247  26.179  1.00  0.00     0.014 A 
BRANCH  19  24
ATOM     24  N   UNL A   1      32.730  22.837  25.808  1.00  0.00    -0.323 N 
ATOM     25  O   UNL A   1      33.040  22.034  27.974  1.00  0.00    -0.271 OA
ATOM     26  C   UNL A   1      33.243  21.979  26.767  1.00  0.00     0.262 C 
ATOM     27  H   UNL A   1      32.944  22.625  24.871  1.00  0.00     0.170 HD
BRANCH  26  28
ATOM     28  C   UNL A   1      34.110  20.885  26.153  1.00  0.00     0.329 C 
BRANCH  28  29
ATOM     29  O   UNL A   1      33.973  20.889  24.726  1.00  0.00    -0.483 OA
BRANCH  29  30
ATOM     30  C   UNL A   1      33.865  19.599  24.271  1.00  0.00     0.134 A 
ATOM     31  C   UNL A   1      34.752  18.650  24.791  1.00  0.00     0.047 A 
ATOM     32  C   UNL A   1      32.938  19.225  23.292  1.00  0.00     0.060 A 
ATOM     33  C   UNL A   1      34.668  17.322  24.378  1.00  0.00     0.004 A 
ATOM     34  C   UNL A   1      32.826  17.885  22.920  1.00  0.00     0.019 A 
ATOM     35  Br  UNL A   1      31.849  20.463  22.360  1.00  0.00    -0.047 Br
ATOM     36  C   UNL A   1      33.691  16.936  23.462  1.00  0.00     0.001 A 
ENDBRANCH  29  30
ENDBRANCH  28  29
ENDBRANCH  26  28
ENDBRANCH  19  24
ENDBRANCH  15  18
ENDBRANCH   9  14
ENDBRANCH   6   8
ENDBRANCH   5   6
ENDBRANCH   4   5
ENDBRANCH   3   4
ENDBRANCH   2   3
ENDBRANCH   1   2
BRANCH   1  37
ATOM     37  C   UNL A   1      37.093  22.651  24.777  1.00  0.00     0.188 C 
BRANCH  37  38
ATOM     38  O   UNL A   1      38.015  21.607  25.035  1.00  0.00    -0.377 OA
BRANCH  38  39
ATOM     39  C   UNL A   1      39.042  21.853  25.991  1.00  0.00     0.188 C 
BRANCH  39  40
ATOM     40  C   UNL A   1      40.322  20.986  26.039  1.00  0.00     0.188 C 
BRANCH  40  41
ATOM     41  O   UNL A   1      41.498  21.619  25.559  1.00  0.00    -0.376 OA
BRANCH  41  42
ATOM     42  C   UNL A   1      42.739  21.362  26.194  1.00  0.00     0.202 C 
BRANCH  42  43
ATOM     43  C   UNL A   1      43.969  22.114  25.665  1.00  0.00     0.261 C 
BRANCH  43  44
ATOM     44  O   UNL A   1      44.877  22.609  26.659  1.00  0.00    -0.460 OA
BRANCH  44  45
ATOM     45  C   UNL A   1      45.488  23.784  26.410  1.00  0.00     0.338 C 
ATOM     46  O   UNL A   1      46.400  23.993  25.626  1.00  0.00    -0.246 OA
BRANCH  45  47
ATOM     47  C   UNL A   1      44.738  24.840  27.115  1.00  0.00     0.060 A 
ATOM     48  C   UNL A   1      44.994  26.182  26.801  1.00  0.00     0.016 A 
ATOM     49  C   UNL A   1      43.784  24.507  28.079  1.00  0.00     0.016 A 
ATOM     50  C   UNL A   1      44.325  27.197  27.483  1.00  0.00     0.010 A 
ATOM     51  C   UNL A   1      43.133  25.525  28.779  1.00  0.00     0.010 A 
ATOM     52  C   UNL A   1      43.429  26.874  28.510  1.00  0.00    -0.014 A 
BRANCH  52  53
ATOM     53  C   UNL A   1      42.969  27.930  29.443  1.00  0.00     0.031 A 
ATOM     54  C   UNL A   1      43.845  28.263  30.620  1.00  0.00     0.074 A 
ATOM     55  C   UNL A   1      41.813  28.588  29.247  1.00  0.00     0.049 A 
ATOM     56  N   UNL A   1      43.633  29.093  31.609  1.00  0.00    -0.248 NA
ATOM     57  C   UNL A   1      45.138  27.559  30.695  1.00  0.00     0.031 C 
ATOM     58  C   UNL A   1      40.903  28.387  28.122  1.00  0.00     0.029 A 
ATOM     59  N   UNL A   1      41.201  29.554  30.007  1.00  0.00    -0.354 N 
ATOM     60  C   UNL A   1      44.751  28.996  32.428  1.00  0.00     0.074 A 
ATOM     61  C   UNL A   1      45.634  28.019  31.834  1.00  0.00     0.031 C 
ATOM     62  C   UNL A   1      39.837  29.194  28.275  1.00  0.00     0.029 A 
ATOM     63  C   UNL A   1      39.972  29.937  29.525  1.00  0.00     0.049 A 
ATOM     64  H   UNL A   1      41.604  29.937  30.820  1.00  0.00     0.167 HD
ATOM     65  C   UNL A   1      45.015  29.668  33.571  1.00  0.00     0.037 A 
ATOM     66  C   UNL A   1      39.054  30.770  30.056  1.00  0.00     0.037 A 
ATOM     67  C   UNL A   1      44.142  30.654  34.150  1.00  0.00     0.049 A 
ATOM     68  C   UNL A   1      39.352  31.453  31.371  1.00  0.00     0.074 A 
ATOM     69  C   UNL A   1      44.343  31.421  35.283  1.00  0.00     0.029 A 
ATOM     70  N   UNL A   1      42.899  31.000  33.644  1.00  0.00    -0.354 N 
ATOM     71  N   UNL A   1      40.431  31.394  32.115  1.00  0.00    -0.248 NA
ATOM     72  C   UNL A   1      38.301  32.324  31.919  1.00  0.00     0.031 C 
ATOM     73  C   UNL A   1      43.192  32.182  35.503  1.00  0.00     0.029 A 
ATOM     74  C   UNL A   1      42.305  31.944  34.465  1.00  0.00     0.049 A 
ATOM     75  H   UNL A   1      42.498  30.631  32.825  1.00  0.00     0.167 HD
ATOM     76  C   UNL A   1      40.204  32.247  33.188  1.00  0.00     0.074 A 
ATOM     77  C   UNL A   1      38.892  32.823  32.994  1.00  0.00     0.031 C 
ATOM     78  C   UNL A   1      41.008  32.529  34.243  1.00  0.00     0.037 A 
BRANCH  65  79
ATOM     79  C   UNL A   1      46.284  29.345  34.303  1.00  0.00     0.064 A 
ATOM     80  C   UNL A   1      46.351  28.319  35.257  1.00  0.00     0.173 A 
ATOM     81  C   UNL A   1      47.471  30.021  33.980  1.00  0.00     0.173 A 
ATOM     82  F   UNL A   1      45.241  27.653  35.612  1.00  0.00    -0.203 F 
ATOM     83  C   UNL A   1      47.559  27.987  35.865  1.00  0.00     0.198 A 
ATOM     84  C   UNL A   1      48.681  29.667  34.568  1.00  0.00     0.198 A 
ATOM     85  F   UNL A   1      47.460  31.010  33.073  1.00  0.00    -0.203 F 
ATOM     86  F   UNL A   1      47.595  27.022  36.795  1.00  0.00    -0.200 F 
ATOM     87  C   UNL A   1      48.725  28.652  35.511  1.00  0.00     0.200 A 
ATOM     88  F   UNL A   1      49.808  30.301  34.213  1.00  0.00    -0.200 F 
ATOM     89  F   UNL A   1      49.890  28.314  36.080  1.00  0.00    -0.200 F 
ENDBRANCH  65  79
BRANCH  66  90
ATOM     90  C   UNL A   1      37.746  30.991  29.379  1.00  0.00     0.064 A 
ATOM     91  C   UNL A   1      36.807  29.956  29.258  1.00  0.00     0.173 A 
ATOM     92  C   UNL A   1      37.441  32.218  28.769  1.00  0.00     0.173 A 
ATOM     93  F   UNL A   1      37.059  28.756  29.800  1.00  0.00    -0.203 F 
ATOM     94  C   UNL A   1      35.637  30.125  28.518  1.00  0.00     0.198 A 
ATOM     95  C   UNL A   1      36.253  32.397  28.062  1.00  0.00     0.198 A 
ATOM     96  F   UNL A   1      38.302  33.243  28.851  1.00  0.00    -0.203 F 
ATOM     97  F   UNL A   1      34.796  29.095  28.354  1.00  0.00    -0.200 F 
ATOM     98  C   UNL A   1      35.361  31.346  27.922  1.00  0.00     0.200 A 
ATOM     99  F   UNL A   1      35.984  33.584  27.501  1.00  0.00    -0.200 F 
ATOM    100  F   UNL A   1      34.242  31.505  27.202  1.00  0.00    -0.200 F 
ENDBRANCH  66  90
BRANCH  78 101
ATOM    101  C   UNL A   1      40.526  33.548  35.236  1.00  0.00     0.064 A 
ATOM    102  C   UNL A   1      39.786  33.188  36.371  1.00  0.00     0.173 A 
ATOM    103  C   UNL A   1      40.852  34.904  35.069  1.00  0.00     0.173 A 
ATOM    104  F   UNL A   1      39.438  31.908  36.572  1.00  0.00    -0.203 F 
ATOM    105  C   UNL A   1      39.364  34.150  37.285  1.00  0.00     0.198 A 
ATOM    106  C   UNL A   1      40.461  35.857  36.005  1.00  0.00     0.198 A 
ATOM    107  F   UNL A   1      41.569  35.303  34.007  1.00  0.00    -0.203 F 
ATOM    108  F   UNL A   1      38.610  33.790  38.333  1.00  0.00    -0.200 F 
ATOM    109  C   UNL A   1      39.709  35.482  37.106  1.00  0.00     0.200 A 
ATOM    110  F   UNL A   1      40.813  37.141  35.839  1.00  0.00    -0.200 F 
ATOM    111  F   UNL A   1      39.310  36.404  37.993  1.00  0.00    -0.200 F 
ENDBRANCH  78 101
ENDBRANCH  52  53
ENDBRANCH  45  47
ENDBRANCH  44  45
ENDBRANCH  43  44
ENDBRANCH  42  43
ENDBRANCH  41  42
ENDBRANCH  40  41
ENDBRANCH  39  40
ENDBRANCH  38  39
ENDBRANCH  37  38
ENDBRANCH   1  37
TORSDOF 26
ENDMDL
MODEL 3
REMARK VINA RESULT:      -9.5      7.302     10.613
REMARK SMILES O=C(COc1ccccc1Br)Nc1cccc(C(=O)Nc2ccc(C(=O)OCCOCCOCCOCCOC(=O)c3ccc(-c4c5nc(c(-c6c(F)c(F)c(F)c(F)c6F)c6ccc([nH]6)c(-c6c(F)c(F)c(F)c(F)c6F)c6nc(c(-c7c(F)c(F)c(F)c(F)c7F)c7ccc4[nH]7)C=C6)C=C5)cc3)cc2)c1
REMARK SMILES IDX 31 1 30 2 29 3 28 4 27 5 25 6 26 7 24 8 21 9 22 10 106 11
REMARK SMILES IDX 23 12 105 13 20 14 18 15 19 16 17 18 13 19 14 20 107 21
REMARK SMILES IDX 15 22 16 23 12 24 1 25 2 26 3 28 4 29 5 30 6 31 10 32 7 33
REMARK SMILES IDX 9 34 11 35 8 36 32 37 33 38 34 39 35 40 36 41 37 42 38 43
REMARK SMILES IDX 39 44 40 45 41 46 42 47 43 48 104 49 44 50 103 51 45 52
REMARK SMILES IDX 46 53 47 54 97 55 48 56 102 57 96 58 98 59 49 60 101 61
REMARK SMILES IDX 95 62 94 63 50 65 82 66 62 67 81 68 63 69 66 70 80 71 99 72
REMARK SMILES IDX 64 73 65 74 79 76 100 77 67 78 51 79 52 80 60 81 53 82 54 83
REMARK SMILES IDX 58 84 61 85 55 86 56 87 59 88 57 89 83 90 84 91 92 92 85 93
REMARK SMILES IDX 86 94 90 95 93 96 87 97 88 98 91 99 89 100 68 101 69 102
REMARK SMILES IDX 77 103 70 104 71 105 75 106 78 107 72 108 73 109 76 110
REMARK SMILES IDX 74 111
REMARK H PARENT 20 17 12 27 98 64 66 75
REMARK Flexibility Score: inf
ROOT
ATOM      1  C   UNL A   1      40.613  27.967  29.414  1.00  0.00     0.188 C 
ENDROOT
BRANCH   1   2
ATOM      2  O   UNL A   1      39.964  26.717  29.297  1.00  0.00    -0.376 OA
BRANCH   2   3
ATOM      3  C   UNL A   1      39.267  26.292  28.140  1.00  0.00     0.202 C 
BRANCH   3   4
ATOM      4  C   UNL A   1      38.780  24.871  27.791  1.00  0.00     0.261 C 
BRANCH   4   5
ATOM      5  O   UNL A   1      38.768  24.457  26.431  1.00  0.00    -0.460 OA
BRANCH   5   6
ATOM      6  C   UNL A   1      38.538  23.144  26.222  1.00  0.00     0.338 C 
ATOM      7  O   UNL A   1      39.315  22.240  26.481  1.00  0.00    -0.246 OA
BRANCH   6   8
ATOM      8  C   UNL A   1      37.141  22.958  25.743  1.00  0.00     0.060 A 
ATOM      9  C   UNL A   1      34.751  22.393  24.457  1.00  0.00     0.041 A 
ATOM     10  C   UNL A   1      35.387  21.389  25.190  1.00  0.00     0.027 A 
ATOM     11  C   UNL A   1      35.165  23.723  24.578  1.00  0.00     0.027 A 
ATOM     12  C   UNL A   1      36.605  21.668  25.805  1.00  0.00     0.018 A 
ATOM     13  C   UNL A   1      36.374  24.008  25.214  1.00  0.00     0.018 A 
BRANCH   9  14
ATOM     14  N   UNL A   1      33.852  21.972  23.466  1.00  0.00    -0.322 N 
ATOM     15  C   UNL A   1      32.470  22.102  23.430  1.00  0.00     0.255 C 
ATOM     16  O   UNL A   1      31.857  21.624  22.475  1.00  0.00    -0.269 OA
ATOM     17  H   UNL A   1      34.257  21.522  22.688  1.00  0.00     0.170 HD
BRANCH  15  18
ATOM     18  C   UNL A   1      31.695  22.838  24.479  1.00  0.00     0.042 A 
ATOM     19  C   UNL A   1      30.956  24.911  25.504  1.00  0.00     0.042 A 
ATOM     20  C   UNL A   1      30.605  24.208  26.656  1.00  0.00     0.026 A 
ATOM     21  C   UNL A   1      31.391  24.201  24.385  1.00  0.00     0.040 A 
ATOM     22  C   UNL A   1      30.696  22.816  26.683  1.00  0.00     0.003 A 
ATOM     23  C   UNL A   1      31.267  22.134  25.608  1.00  0.00     0.014 A 
BRANCH  19  24
ATOM     24  N   UNL A   1      30.903  26.315  25.554  1.00  0.00    -0.323 N 
ATOM     25  O   UNL A   1      33.143  26.880  25.870  1.00  0.00    -0.271 OA
ATOM     26  C   UNL A   1      31.961  27.186  25.759  1.00  0.00     0.262 C 
ATOM     27  H   UNL A   1      30.016  26.725  25.431  1.00  0.00     0.170 HD
BRANCH  26  28
ATOM     28  C   UNL A   1      31.505  28.640  25.813  1.00  0.00     0.329 C 
BRANCH  28  29
ATOM     29  O   UNL A   1      31.853  29.312  24.596  1.00  0.00    -0.483 OA
BRANCH  29  30
ATOM     30  C   UNL A   1      30.710  29.707  23.946  1.00  0.00     0.134 A 
ATOM     31  C   UNL A   1      30.031  30.822  24.445  1.00  0.00     0.047 A 
ATOM     32  C   UNL A   1      30.196  29.010  22.846  1.00  0.00     0.060 A 
ATOM     33  C   UNL A   1      28.878  31.276  23.807  1.00  0.00     0.004 A 
ATOM     34  C   UNL A   1      29.071  29.499  22.182  1.00  0.00     0.019 A 
ATOM     35  Br  UNL A   1      30.904  27.365  22.230  1.00  0.00    -0.047 Br
ATOM     36  C   UNL A   1      28.413  30.629  22.663  1.00  0.00     0.001 A 
ENDBRANCH  29  30
ENDBRANCH  28  29
ENDBRANCH  26  28
ENDBRANCH  19  24
ENDBRANCH  15  18
ENDBRANCH   9  14
ENDBRANCH   6   8
ENDBRANCH   5   6
ENDBRANCH   4   5
ENDBRANCH   3   4
ENDBRANCH   2   3
ENDBRANCH   1   2
BRANCH   1  37
ATOM     37  C   UNL A   1      41.907  28.127  28.594  1.00  0.00     0.188 C 
BRANCH  37  38
ATOM     38  O   UNL A   1      42.761  26.998  28.650  1.00  0.00    -0.377 OA
BRANCH  38  39
ATOM     39  C   UNL A   1      43.010  26.297  27.435  1.00  0.00     0.188 C 
BRANCH  39  40
ATOM     40  C   UNL A   1      42.414  24.893  27.179  1.00  0.00     0.188 C 
BRANCH  40  41
ATOM     41  O   UNL A   1      43.003  23.842  27.929  1.00  0.00    -0.376 OA
BRANCH  41  42
ATOM     42  C   UNL A   1      42.558  22.510  27.734  1.00  0.00     0.202 C 
BRANCH  42  43
ATOM     43  C   UNL A   1      43.284  21.675  26.669  1.00  0.00     0.261 C 
BRANCH  43  44
ATOM     44  O   UNL A   1      44.034  22.415  25.696  1.00  0.00    -0.460 OA
BRANCH  44  45
ATOM     45  C   UNL A   1      45.373  22.458  25.848  1.00  0.00     0.338 C 
ATOM     46  O   UNL A   1      46.161  21.533  25.737  1.00  0.00    -0.246 OA
BRANCH  45  47
ATOM     47  C   UNL A   1      45.765  23.873  25.990  1.00  0.00     0.060 A 
ATOM     48  C   UNL A   1      45.498  24.761  24.940  1.00  0.00     0.016 A 
ATOM     49  C   UNL A   1      46.390  24.321  27.156  1.00  0.00     0.016 A 
ATOM     50  C   UNL A   1      45.895  26.094  25.036  1.00  0.00     0.010 A 
ATOM     51  C   UNL A   1      46.810  25.650  27.241  1.00  0.00     0.010 A 
ATOM     52  C   UNL A   1      46.598  26.533  26.165  1.00  0.00    -0.014 A 
BRANCH  52  53
ATOM     53  C   UNL A   1      47.297  27.839  26.135  1.00  0.00     0.031 A 
ATOM     54  C   UNL A   1      48.774  27.843  25.849  1.00  0.00     0.074 A 
ATOM     55  C   UNL A   1      46.641  28.995  26.340  1.00  0.00     0.049 A 
ATOM     56  N   UNL A   1      49.619  28.842  25.837  1.00  0.00    -0.248 NA
ATOM     57  C   UNL A   1      49.385  26.538  25.539  1.00  0.00     0.031 C 
ATOM     58  C   UNL A   1      45.205  29.122  26.580  1.00  0.00     0.029 A 
ATOM     59  N   UNL A   1      47.108  30.284  26.392  1.00  0.00    -0.354 N 
ATOM     60  C   UNL A   1      50.856  28.286  25.538  1.00  0.00     0.074 A 
ATOM     61  C   UNL A   1      50.662  26.861  25.392  1.00  0.00     0.031 C 
ATOM     62  C   UNL A   1      44.911  30.421  26.773  1.00  0.00     0.029 A 
ATOM     63  C   UNL A   1      46.140  31.208  26.708  1.00  0.00     0.049 A 
ATOM     64  H   UNL A   1      48.047  30.525  26.220  1.00  0.00     0.167 HD
ATOM     65  C   UNL A   1      52.046  28.911  25.396  1.00  0.00     0.037 A 
ATOM     66  C   UNL A   1      46.249  32.531  26.946  1.00  0.00     0.037 A 
ATOM     67  C   UNL A   1      52.233  30.332  25.524  1.00  0.00     0.049 A 
ATOM     68  C   UNL A   1      47.607  33.188  26.847  1.00  0.00     0.074 A 
ATOM     69  C   UNL A   1      53.393  31.065  25.354  1.00  0.00     0.029 A 
ATOM     70  N   UNL A   1      51.235  31.230  25.863  1.00  0.00    -0.354 N 
ATOM     71  N   UNL A   1      48.763  32.664  26.517  1.00  0.00    -0.248 NA
ATOM     72  C   UNL A   1      47.671  34.625  27.150  1.00  0.00     0.031 C 
ATOM     73  C   UNL A   1      53.113  32.400  25.659  1.00  0.00     0.029 A 
ATOM     74  C   UNL A   1      51.762  32.509  25.945  1.00  0.00     0.049 A 
ATOM     75  H   UNL A   1      50.292  30.996  26.023  1.00  0.00     0.167 HD
ATOM     76  C   UNL A   1      49.677  33.711  26.532  1.00  0.00     0.074 A 
ATOM     77  C   UNL A   1      48.940  34.903  26.890  1.00  0.00     0.031 C 
ATOM     78  C   UNL A   1      51.008  33.690  26.276  1.00  0.00     0.037 A 
BRANCH  65  79
ATOM     79  C   UNL A   1      53.257  28.071  25.118  1.00  0.00     0.064 A 
ATOM     80  C   UNL A   1      53.743  27.876  23.818  1.00  0.00     0.173 A 
ATOM     81  C   UNL A   1      53.989  27.522  26.183  1.00  0.00     0.173 A 
ATOM     82  F   UNL A   1      53.072  28.367  22.765  1.00  0.00    -0.203 F 
ATOM     83  C   UNL A   1      54.914  27.156  23.593  1.00  0.00     0.198 A 
ATOM     84  C   UNL A   1      55.174  26.829  25.957  1.00  0.00     0.198 A 
ATOM     85  F   UNL A   1      53.566  27.680  27.447  1.00  0.00    -0.203 F 
ATOM     86  F   UNL A   1      55.346  26.957  22.340  1.00  0.00    -0.200 F 
ATOM     87  C   UNL A   1      55.635  26.645  24.663  1.00  0.00     0.200 A 
ATOM     88  F   UNL A   1      55.876  26.348  26.994  1.00  0.00    -0.200 F 
ATOM     89  F   UNL A   1      56.774  25.973  24.446  1.00  0.00    -0.200 F 
ENDBRANCH  65  79
BRANCH  66  90
ATOM     90  C   UNL A   1      45.058  33.333  27.339  1.00  0.00     0.064 A 
ATOM     91  C   UNL A   1      44.312  34.041  26.385  1.00  0.00     0.173 A 
ATOM     92  C   UNL A   1      44.689  33.475  28.686  1.00  0.00     0.173 A 
ATOM     93  F   UNL A   1      44.638  33.962  25.087  1.00  0.00    -0.203 F 
ATOM     94  C   UNL A   1      43.274  34.890  26.765  1.00  0.00     0.198 A 
ATOM     95  C   UNL A   1      43.626  34.295  29.061  1.00  0.00     0.198 A 
ATOM     96  F   UNL A   1      45.367  32.823  29.642  1.00  0.00    -0.203 F 
ATOM     97  F   UNL A   1      42.630  35.613  25.838  1.00  0.00    -0.200 F 
ATOM     98  C   UNL A   1      42.931  35.015  28.102  1.00  0.00     0.200 A 
ATOM     99  F   UNL A   1      43.288  34.400  30.354  1.00  0.00    -0.200 F 
ATOM    100  F   UNL A   1      41.940  35.840  28.469  1.00  0.00    -0.200 F 
ENDBRANCH  66  90
BRANCH  78 101
ATOM    101  C   UNL A   1      51.746  34.999  26.307  1.00  0.00     0.064 A 
ATOM    102  C   UNL A   1      51.906  35.790  25.160  1.00  0.00     0.173 A 
ATOM    103  C   UNL A   1      52.261  35.489  27.518  1.00  0.00     0.173 A 
ATOM    104  F   UNL A   1      51.441  35.363  23.976  1.00  0.00    -0.203 F 
ATOM    105  C   UNL A   1      52.579  37.007  25.219  1.00  0.00     0.198 A 
ATOM    106  C   UNL A   1      52.902  36.723  27.579  1.00  0.00     0.198 A 
ATOM    107  F   UNL A   1      52.127  34.778  28.648  1.00  0.00    -0.203 F 
ATOM    108  F   UNL A   1      52.768  37.720  24.099  1.00  0.00    -0.200 F 
ATOM    109  C   UNL A   1      53.069  37.477  26.428  1.00  0.00     0.200 A 
ATOM    110  F   UNL A   1      53.356  37.184  28.754  1.00  0.00    -0.200 F 
ATOM    111  F   UNL A   1      53.708  38.653  26.483  1.00  0.00    -0.200 F 
ENDBRANCH  78 101
ENDBRANCH  52  53
ENDBRANCH  45  47
ENDBRANCH  44  45
ENDBRANCH  43  44
ENDBRANCH  42  43
ENDBRANCH  41  42
ENDBRANCH  40  41
ENDBRANCH  39  40
ENDBRANCH  38  39
ENDBRANCH  37  38
ENDBRANCH   1  37
TORSDOF 26
ENDMDL
