MODEL 1
REMARK VINA RESULT:      -8.7      0.000      0.000
REMARK SMILES CCOC(=O)[C@@H](C)Oc1ccc(Br)cc1/C=C/C(=O)OCCOCCOCCOCCOC(=O)c1ccc(-c2c3nc(c(-c4c(F)c(F)c(F)c(F)c4F)c4ccc([nH]4)c(-c4c(F)c(F)c(F)c(F)c4F)c4nc(c(-c5c(F)c(F)c(F)c(F)c5F)c5ccc2[nH]5)C=C4)C=C3)cc1
REMARK SMILES IDX 24 1 23 2 22 3 21 4 20 5 18 6 19 7 17 8 16 9 15 10 9 11
REMARK SMILES IDX 10 12 11 13 14 14 12 15 13 16 8 17 6 18 7 19 4 20 5 21 3 22
REMARK SMILES IDX 2 23 1 24 25 25 26 26 27 27 28 28 29 29 30 30 31 31 32 32
REMARK SMILES IDX 33 33 34 34 35 35 36 36 97 37 37 38 96 39 38 40 39 41 40 42
REMARK SMILES IDX 90 43 41 44 95 45 89 46 91 47 42 48 94 49 88 50 87 51 43 53
REMARK SMILES IDX 75 54 55 55 74 56 56 57 59 58 73 59 92 60 57 61 58 62 72 64
REMARK SMILES IDX 93 65 60 66 44 67 45 68 53 69 46 70 47 71 51 72 54 73 48 74
REMARK SMILES IDX 49 75 52 76 50 77 76 78 77 79 85 80 78 81 79 82 83 83 86 84
REMARK SMILES IDX 80 85 81 86 84 87 82 88 61 89 62 90 70 91 63 92 64 93 68 94
REMARK SMILES IDX 71 95 65 96 66 97 69 98 67 99
REMARK H PARENT 91 52 59 63
REMARK Flexibility Score: inf
ROOT
ATOM      1  C   UNL A   1      36.640  31.621  28.779  1.00  0.00     0.188 C 
ENDROOT
BRANCH   1   2
ATOM      2  O   UNL A   1      37.184  30.451  28.195  1.00  0.00    -0.376 OA
BRANCH   2   3
ATOM      3  C   UNL A   1      36.350  29.331  27.966  1.00  0.00     0.202 C 
BRANCH   3   4
ATOM      4  C   UNL A   1      34.823  29.498  28.004  1.00  0.00     0.261 C 
BRANCH   4   5
ATOM      5  O   UNL A   1      34.213  29.991  26.809  1.00  0.00    -0.460 OA
BRANCH   5   6
ATOM      6  C   UNL A   1      33.165  30.823  26.968  1.00  0.00     0.330 C 
ATOM      7  O   UNL A   1      33.146  31.836  27.650  1.00  0.00    -0.247 OA
BRANCH   6   8
ATOM      8  C   UNL A   1      32.048  30.449  26.075  1.00  0.00     0.094 C 
ATOM      9  C   UNL A   1      32.145  29.674  24.979  1.00  0.00     0.019 C 
BRANCH   9  10
ATOM     10  C   UNL A   1      30.963  29.362  24.155  1.00  0.00     0.018 A 
ATOM     11  C   UNL A   1      30.683  28.047  23.747  1.00  0.00     0.127 A 
ATOM     12  C   UNL A   1      29.412  27.751  23.249  1.00  0.00     0.048 A 
ATOM     13  C   UNL A   1      28.501  28.764  22.951  1.00  0.00     0.019 A 
ATOM     14  C   UNL A   1      30.064  30.387  23.802  1.00  0.00     0.027 A 
ATOM     15  C   UNL A   1      28.848  30.084  23.191  1.00  0.00     0.018 A 
ATOM     16  Br  UNL A   1      27.640  31.469  22.754  1.00  0.00    -0.051 Br
BRANCH  11  17
ATOM     17  O   UNL A   1      31.623  27.069  23.943  1.00  0.00    -0.478 OA
BRANCH  17  18
ATOM     18  C   UNL A   1      31.379  26.131  25.011  1.00  0.00     0.279 C 
ATOM     19  C   UNL A   1      29.892  25.888  25.292  1.00  0.00     0.066 C 
BRANCH  18  20
ATOM     20  C   UNL A   1      32.229  26.324  26.280  1.00  0.00     0.347 C 
ATOM     21  O   UNL A   1      31.839  26.931  27.270  1.00  0.00    -0.248 OA
BRANCH  20  22
ATOM     22  O   UNL A   1      33.401  25.625  26.219  1.00  0.00    -0.463 OA
BRANCH  22  23
ATOM     23  C   UNL A   1      33.373  24.420  25.436  1.00  0.00     0.229 C 
ATOM     24  C   UNL A   1      34.525  24.390  24.459  1.00  0.00     0.049 C 
ENDBRANCH  22  23
ENDBRANCH  20  22
ENDBRANCH  18  20
ENDBRANCH  17  18
ENDBRANCH  11  17
ENDBRANCH   9  10
ENDBRANCH   6   8
ENDBRANCH   5   6
ENDBRANCH   4   5
ENDBRANCH   3   4
ENDBRANCH   2   3
ENDBRANCH   1   2
BRANCH   1  25
ATOM     25  C   UNL A   1      36.659  31.601  30.321  1.00  0.00     0.188 C 
BRANCH  25  26
ATOM     26  O   UNL A   1      35.418  31.697  31.005  1.00  0.00    -0.377 OA
BRANCH  26  27
ATOM     27  C   UNL A   1      34.476  32.701  30.627  1.00  0.00     0.188 C 
BRANCH  27  28
ATOM     28  C   UNL A   1      34.823  34.211  30.605  1.00  0.00     0.188 C 
BRANCH  28  29
ATOM     29  O   UNL A   1      34.037  35.016  31.467  1.00  0.00    -0.376 OA
BRANCH  29  30
ATOM     30  C   UNL A   1      34.530  35.263  32.770  1.00  0.00     0.202 C 
BRANCH  30  31
ATOM     31  C   UNL A   1      35.761  34.454  33.202  1.00  0.00     0.261 C 
BRANCH  31  32
ATOM     32  O   UNL A   1      37.020  34.890  32.667  1.00  0.00    -0.460 OA
BRANCH  32  33
ATOM     33  C   UNL A   1      38.131  34.582  33.368  1.00  0.00     0.338 C 
ATOM     34  O   UNL A   1      38.364  34.842  34.538  1.00  0.00    -0.246 OA
BRANCH  33  35
ATOM     35  C   UNL A   1      38.964  33.704  32.522  1.00  0.00     0.060 A 
ATOM     36  C   UNL A   1      39.657  32.639  33.113  1.00  0.00     0.016 A 
ATOM     37  C   UNL A   1      39.049  33.929  31.147  1.00  0.00     0.016 A 
ATOM     38  C   UNL A   1      40.468  31.815  32.330  1.00  0.00     0.010 A 
ATOM     39  C   UNL A   1      39.875  33.116  30.368  1.00  0.00     0.010 A 
ATOM     40  C   UNL A   1      40.614  32.077  30.961  1.00  0.00    -0.014 A 
BRANCH  40  41
ATOM     41  C   UNL A   1      41.684  31.400  30.188  1.00  0.00     0.031 A 
ATOM     42  C   UNL A   1      42.938  32.170  29.883  1.00  0.00     0.074 A 
ATOM     43  C   UNL A   1      41.554  30.129  29.771  1.00  0.00     0.049 A 
ATOM     44  N   UNL A   1      43.980  31.823  29.172  1.00  0.00    -0.248 NA
ATOM     45  C   UNL A   1      43.023  33.524  30.456  1.00  0.00     0.031 C 
ATOM     46  C   UNL A   1      40.407  29.265  30.038  1.00  0.00     0.029 A 
ATOM     47  N   UNL A   1      42.398  29.349  29.020  1.00  0.00    -0.354 N 
ATOM     48  C   UNL A   1      44.838  32.915  29.205  1.00  0.00     0.074 A 
ATOM     49  C   UNL A   1      44.180  33.949  29.974  1.00  0.00     0.031 C 
ATOM     50  C   UNL A   1      40.612  28.075  29.447  1.00  0.00     0.029 A 
ATOM     51  C   UNL A   1      41.887  28.108  28.730  1.00  0.00     0.049 A 
ATOM     52  H   UNL A   1      43.285  29.651  28.718  1.00  0.00     0.167 HD
ATOM     53  C   UNL A   1      46.067  33.041  28.653  1.00  0.00     0.037 A 
ATOM     54  C   UNL A   1      42.383  27.125  27.952  1.00  0.00     0.037 A 
ATOM     55  C   UNL A   1      46.714  32.011  27.882  1.00  0.00     0.049 A 
ATOM     56  C   UNL A   1      43.718  27.318  27.277  1.00  0.00     0.074 A 
ATOM     57  C   UNL A   1      47.965  32.033  27.293  1.00  0.00     0.029 A 
ATOM     58  N   UNL A   1      46.152  30.779  27.583  1.00  0.00    -0.354 N 
ATOM     59  N   UNL A   1      44.537  28.342  27.333  1.00  0.00    -0.248 NA
ATOM     60  C   UNL A   1      44.198  26.217  26.430  1.00  0.00     0.031 C 
ATOM     61  C   UNL A   1      48.134  30.840  26.581  1.00  0.00     0.029 A 
ATOM     62  C   UNL A   1      47.018  30.044  26.788  1.00  0.00     0.049 A 
ATOM     63  H   UNL A   1      45.268  30.471  27.889  1.00  0.00     0.167 HD
ATOM     64  C   UNL A   1      45.640  27.994  26.561  1.00  0.00     0.074 A 
ATOM     65  C   UNL A   1      45.390  26.660  26.056  1.00  0.00     0.031 C 
ATOM     66  C   UNL A   1      46.760  28.713  26.297  1.00  0.00     0.037 A 
BRANCH  53  67
ATOM     67  C   UNL A   1      46.775  34.354  28.830  1.00  0.00     0.064 A 
ATOM     68  C   UNL A   1      47.610  34.605  29.930  1.00  0.00     0.173 A 
ATOM     69  C   UNL A   1      46.626  35.373  27.877  1.00  0.00     0.173 A 
ATOM     70  F   UNL A   1      47.775  33.670  30.880  1.00  0.00    -0.203 F 
ATOM     71  C   UNL A   1      48.240  35.837  30.086  1.00  0.00     0.198 A 
ATOM     72  C   UNL A   1      47.286  36.590  28.018  1.00  0.00     0.198 A 
ATOM     73  F   UNL A   1      45.843  35.187  26.804  1.00  0.00    -0.203 F 
ATOM     74  F   UNL A   1      48.984  36.074  31.176  1.00  0.00    -0.200 F 
ATOM     75  C   UNL A   1      48.084  36.826  29.127  1.00  0.00     0.200 A 
ATOM     76  F   UNL A   1      47.145  37.539  27.082  1.00  0.00    -0.200 F 
ATOM     77  F   UNL A   1      48.694  38.009  29.276  1.00  0.00    -0.200 F 
ENDBRANCH  53  67
BRANCH  54  78
ATOM     78  C   UNL A   1      41.608  25.871  27.757  1.00  0.00     0.064 A 
ATOM     79  C   UNL A   1      40.484  25.836  26.920  1.00  0.00     0.173 A 
ATOM     80  C   UNL A   1      41.963  24.685  28.418  1.00  0.00     0.173 A 
ATOM     81  F   UNL A   1      40.085  26.949  26.287  1.00  0.00    -0.203 F 
ATOM     82  C   UNL A   1      39.736  24.670  26.765  1.00  0.00     0.198 A 
ATOM     83  C   UNL A   1      41.233  23.512  28.238  1.00  0.00     0.198 A 
ATOM     84  F   UNL A   1      43.027  24.664  29.235  1.00  0.00    -0.203 F 
ATOM     85  F   UNL A   1      38.636  24.679  25.999  1.00  0.00    -0.200 F 
ATOM     86  C   UNL A   1      40.115  23.507  27.418  1.00  0.00     0.200 A 
ATOM     87  F   UNL A   1      41.612  22.387  28.862  1.00  0.00    -0.200 F 
ATOM     88  F   UNL A   1      39.398  22.386  27.266  1.00  0.00    -0.200 F 
ENDBRANCH  54  78
BRANCH  66  89
ATOM     89  C   UNL A   1      47.826  28.060  25.461  1.00  0.00     0.064 A 
ATOM     90  C   UNL A   1      47.755  28.027  24.061  1.00  0.00     0.173 A 
ATOM     91  C   UNL A   1      48.958  27.497  26.073  1.00  0.00     0.173 A 
ATOM     92  F   UNL A   1      46.691  28.539  23.425  1.00  0.00    -0.203 F 
ATOM     93  C   UNL A   1      48.763  27.431  23.306  1.00  0.00     0.198 A 
ATOM     94  C   UNL A   1      49.980  26.935  25.313  1.00  0.00     0.198 A 
ATOM     95  F   UNL A   1      49.082  27.509  27.408  1.00  0.00    -0.203 F 
ATOM     96  F   UNL A   1      48.649  27.364  21.972  1.00  0.00    -0.200 F 
ATOM     97  C   UNL A   1      49.879  26.893  23.932  1.00  0.00     0.200 A 
ATOM     98  F   UNL A   1      51.067  26.434  25.920  1.00  0.00    -0.200 F 
ATOM     99  F   UNL A   1      50.852  26.330  23.204  1.00  0.00    -0.200 F 
ENDBRANCH  66  89
ENDBRANCH  40  41
ENDBRANCH  33  35
ENDBRANCH  32  33
ENDBRANCH  31  32
ENDBRANCH  30  31
ENDBRANCH  29  30
ENDBRANCH  28  29
ENDBRANCH  27  28
ENDBRANCH  26  27
ENDBRANCH  25  26
ENDBRANCH   1  25
TORSDOF 26
ENDMDL
MODEL 2
REMARK VINA RESULT:      -8.5      5.787     10.435
REMARK SMILES CCOC(=O)[C@@H](C)Oc1ccc(Br)cc1/C=C/C(=O)OCCOCCOCCOCCOC(=O)c1ccc(-c2c3nc(c(-c4c(F)c(F)c(F)c(F)c4F)c4ccc([nH]4)c(-c4c(F)c(F)c(F)c(F)c4F)c4nc(c(-c5c(F)c(F)c(F)c(F)c5F)c5ccc2[nH]5)C=C4)C=C3)cc1
REMARK SMILES IDX 24 1 23 2 22 3 21 4 20 5 18 6 19 7 17 8 16 9 15 10 9 11
REMARK SMILES IDX 10 12 11 13 14 14 12 15 13 16 8 17 6 18 7 19 4 20 5 21 3 22
REMARK SMILES IDX 2 23 1 24 25 25 26 26 27 27 28 28 29 29 30 30 31 31 32 32
REMARK SMILES IDX 33 33 34 34 35 35 36 36 97 37 37 38 96 39 38 40 39 41 40 42
REMARK SMILES IDX 90 43 41 44 95 45 89 46 91 47 42 48 94 49 88 50 87 51 43 53
REMARK SMILES IDX 75 54 55 55 74 56 56 57 59 58 73 59 92 60 57 61 58 62 72 64
REMARK SMILES IDX 93 65 60 66 44 67 45 68 53 69 46 70 47 71 51 72 54 73 48 74
REMARK SMILES IDX 49 75 52 76 50 77 76 78 77 79 85 80 78 81 79 82 83 83 86 84
REMARK SMILES IDX 80 85 81 86 84 87 82 88 61 89 62 90 70 91 63 92 64 93 68 94
REMARK SMILES IDX 71 95 65 96 66 97 69 98 67 99
REMARK H PARENT 91 52 59 63
REMARK Flexibility Score: inf
ROOT
ATOM      1  C   UNL A   1      35.942  33.350  31.515  1.00  0.00     0.188 C 
ENDROOT
BRANCH   1   2
ATOM      2  O   UNL A   1      36.794  32.874  32.543  1.00  0.00    -0.376 OA
BRANCH   2   3
ATOM      3  C   UNL A   1      36.301  32.764  33.864  1.00  0.00     0.202 C 
BRANCH   3   4
ATOM      4  C   UNL A   1      37.038  33.469  35.014  1.00  0.00     0.261 C 
BRANCH   4   5
ATOM      5  O   UNL A   1      37.152  32.733  36.235  1.00  0.00    -0.460 OA
BRANCH   5   6
ATOM      6  C   UNL A   1      37.863  33.313  37.221  1.00  0.00     0.330 C 
ATOM      7  O   UNL A   1      38.497  34.354  37.137  1.00  0.00    -0.247 OA
BRANCH   6   8
ATOM      8  C   UNL A   1      37.660  32.612  38.506  1.00  0.00     0.094 C 
ATOM      9  C   UNL A   1      37.873  33.134  39.729  1.00  0.00     0.019 C 
BRANCH   9  10
ATOM     10  C   UNL A   1      37.636  32.343  40.950  1.00  0.00     0.018 A 
ATOM     11  C   UNL A   1      38.695  31.731  41.641  1.00  0.00     0.127 A 
ATOM     12  C   UNL A   1      38.475  31.269  42.940  1.00  0.00     0.048 A 
ATOM     13  C   UNL A   1      37.189  31.209  43.476  1.00  0.00     0.019 A 
ATOM     14  C   UNL A   1      36.333  32.230  41.471  1.00  0.00     0.027 A 
ATOM     15  C   UNL A   1      36.115  31.652  42.720  1.00  0.00     0.018 A 
ATOM     16  Br  UNL A   1      34.364  31.539  43.417  1.00  0.00    -0.051 Br
BRANCH  11  17
ATOM     17  O   UNL A   1      39.940  31.695  41.067  1.00  0.00    -0.478 OA
BRANCH  17  18
ATOM     18  C   UNL A   1      41.017  32.315  41.799  1.00  0.00     0.279 C 
ATOM     19  C   UNL A   1      41.340  33.738  41.332  1.00  0.00     0.066 C 
BRANCH  18  20
ATOM     20  C   UNL A   1      42.260  31.439  42.034  1.00  0.00     0.347 C 
ATOM     21  O   UNL A   1      42.212  30.306  42.500  1.00  0.00    -0.248 OA
BRANCH  20  22
ATOM     22  O   UNL A   1      43.393  32.019  41.538  1.00  0.00    -0.463 OA
BRANCH  22  23
ATOM     23  C   UNL A   1      44.518  32.059  42.431  1.00  0.00     0.229 C 
ATOM     24  C   UNL A   1      44.190  32.859  43.670  1.00  0.00     0.049 C 
ENDBRANCH  22  23
ENDBRANCH  20  22
ENDBRANCH  18  20
ENDBRANCH  17  18
ENDBRANCH  11  17
ENDBRANCH   9  10
ENDBRANCH   6   8
ENDBRANCH   5   6
ENDBRANCH   4   5
ENDBRANCH   3   4
ENDBRANCH   2   3
ENDBRANCH   1   2
BRANCH   1  25
ATOM     25  C   UNL A   1      34.712  34.113  32.046  1.00  0.00     0.188 C 
BRANCH  25  26
ATOM     26  O   UNL A   1      33.578  34.224  31.197  1.00  0.00    -0.377 OA
BRANCH  26  27
ATOM     27  C   UNL A   1      33.403  35.393  30.397  1.00  0.00     0.188 C 
BRANCH  27  28
ATOM     28  C   UNL A   1      33.230  35.338  28.858  1.00  0.00     0.188 C 
BRANCH  28  29
ATOM     29  O   UNL A   1      34.428  35.132  28.129  1.00  0.00    -0.376 OA
BRANCH  29  30
ATOM     30  C   UNL A   1      34.906  33.806  28.007  1.00  0.00     0.202 C 
BRANCH  30  31
ATOM     31  C   UNL A   1      33.850  32.716  27.772  1.00  0.00     0.261 C 
BRANCH  31  32
ATOM     32  O   UNL A   1      34.041  31.489  28.492  1.00  0.00    -0.460 OA
BRANCH  32  33
ATOM     33  C   UNL A   1      34.650  30.477  27.838  1.00  0.00     0.338 C 
ATOM     34  O   UNL A   1      34.294  29.945  26.799  1.00  0.00    -0.246 OA
BRANCH  33  35
ATOM     35  C   UNL A   1      35.944  30.229  28.506  1.00  0.00     0.060 A 
ATOM     36  C   UNL A   1      37.128  30.641  27.881  1.00  0.00     0.016 A 
ATOM     37  C   UNL A   1      35.981  29.600  29.752  1.00  0.00     0.016 A 
ATOM     38  C   UNL A   1      38.360  30.392  28.489  1.00  0.00     0.010 A 
ATOM     39  C   UNL A   1      37.215  29.335  30.350  1.00  0.00     0.010 A 
ATOM     40  C   UNL A   1      38.411  29.699  29.706  1.00  0.00    -0.014 A 
BRANCH  40  41
ATOM     41  C   UNL A   1      39.706  29.179  30.208  1.00  0.00     0.031 A 
ATOM     42  C   UNL A   1      40.347  29.872  31.378  1.00  0.00     0.074 A 
ATOM     43  C   UNL A   1      40.301  28.112  29.647  1.00  0.00     0.049 A 
ATOM     44  N   UNL A   1      41.501  29.649  31.952  1.00  0.00    -0.248 NA
ATOM     45  C   UNL A   1      39.579  30.975  31.978  1.00  0.00     0.031 C 
ATOM     46  C   UNL A   1      39.762  27.331  28.537  1.00  0.00     0.029 A 
ATOM     47  N   UNL A   1      41.502  27.511  29.933  1.00  0.00    -0.354 N 
ATOM     48  C   UNL A   1      41.600  30.586  32.972  1.00  0.00     0.074 A 
ATOM     49  C   UNL A   1      40.408  31.404  32.916  1.00  0.00     0.031 C 
ATOM     50  C   UNL A   1      40.636  26.359  28.225  1.00  0.00     0.029 A 
ATOM     51  C   UNL A   1      41.812  26.474  29.089  1.00  0.00     0.049 A 
ATOM     52  H   UNL A   1      42.084  27.796  30.673  1.00  0.00     0.167 HD
ATOM     53  C   UNL A   1      42.591  30.744  33.881  1.00  0.00     0.037 A 
ATOM     54  C   UNL A   1      42.929  25.724  29.009  1.00  0.00     0.037 A 
ATOM     55  C   UNL A   1      43.779  29.933  33.927  1.00  0.00     0.049 A 
ATOM     56  C   UNL A   1      44.058  25.972  29.979  1.00  0.00     0.074 A 
ATOM     57  C   UNL A   1      44.835  30.001  34.818  1.00  0.00     0.029 A 
ATOM     58  N   UNL A   1      44.073  28.911  33.036  1.00  0.00    -0.354 N 
ATOM     59  N   UNL A   1      44.136  26.841  30.958  1.00  0.00    -0.248 NA
ATOM     60  C   UNL A   1      45.255  25.132  29.830  1.00  0.00     0.031 C 
ATOM     61  C   UNL A   1      45.799  29.066  34.426  1.00  0.00     0.029 A 
ATOM     62  C   UNL A   1      45.311  28.364  33.335  1.00  0.00     0.049 A 
ATOM     63  H   UNL A   1      43.489  28.619  32.299  1.00  0.00     0.167 HD
ATOM     64  C   UNL A   1      45.369  26.630  31.563  1.00  0.00     0.074 A 
ATOM     65  C   UNL A   1      46.002  25.542  30.846  1.00  0.00     0.031 C 
ATOM     66  C   UNL A   1      45.927  27.275  32.618  1.00  0.00     0.037 A 
BRANCH  53  67
ATOM     67  C   UNL A   1      42.449  31.864  34.872  1.00  0.00     0.064 A 
ATOM     68  C   UNL A   1      42.944  33.152  34.613  1.00  0.00     0.173 A 
ATOM     69  C   UNL A   1      41.795  31.650  36.094  1.00  0.00     0.173 A 
ATOM     70  F   UNL A   1      43.592  33.409  33.465  1.00  0.00    -0.203 F 
ATOM     71  C   UNL A   1      42.820  34.171  35.554  1.00  0.00     0.198 A 
ATOM     72  C   UNL A   1      41.641  32.680  37.018  1.00  0.00     0.198 A 
ATOM     73  F   UNL A   1      41.299  30.440  36.393  1.00  0.00    -0.203 F 
ATOM     74  F   UNL A   1      43.354  35.376  35.309  1.00  0.00    -0.200 F 
ATOM     75  C   UNL A   1      42.162  33.936  36.752  1.00  0.00     0.200 A 
ATOM     76  F   UNL A   1      40.992  32.454  38.168  1.00  0.00    -0.200 F 
ATOM     77  F   UNL A   1      42.040  34.919  37.655  1.00  0.00    -0.200 F 
ENDBRANCH  53  67
BRANCH  54  78
ATOM     78  C   UNL A   1      43.044  24.672  27.963  1.00  0.00     0.064 A 
ATOM     79  C   UNL A   1      42.652  23.350  28.217  1.00  0.00     0.173 A 
ATOM     80  C   UNL A   1      43.567  24.962  26.693  1.00  0.00     0.173 A 
ATOM     81  F   UNL A   1      42.172  23.015  29.424  1.00  0.00    -0.203 F 
ATOM     82  C   UNL A   1      42.795  22.357  27.250  1.00  0.00     0.198 A 
ATOM     83  C   UNL A   1      43.680  23.975  25.717  1.00  0.00     0.198 A 
ATOM     84  F   UNL A   1      43.963  26.210  26.399  1.00  0.00    -0.203 F 
ATOM     85  F   UNL A   1      42.459  21.091  27.538  1.00  0.00    -0.200 F 
ATOM     86  C   UNL A   1      43.301  22.671  25.998  1.00  0.00     0.200 A 
ATOM     87  F   UNL A   1      44.159  24.287  24.504  1.00  0.00    -0.200 F 
ATOM     88  F   UNL A   1      43.434  21.717  25.068  1.00  0.00    -0.200 F 
ENDBRANCH  54  78
BRANCH  66  89
ATOM     89  C   UNL A   1      47.270  26.797  33.096  1.00  0.00     0.064 A 
ATOM     90  C   UNL A   1      48.467  27.366  32.639  1.00  0.00     0.173 A 
ATOM     91  C   UNL A   1      47.355  25.782  34.063  1.00  0.00     0.173 A 
ATOM     92  F   UNL A   1      48.445  28.330  31.707  1.00  0.00    -0.203 F 
ATOM     93  C   UNL A   1      49.700  26.917  33.109  1.00  0.00     0.198 A 
ATOM     94  C   UNL A   1      48.587  25.361  34.558  1.00  0.00     0.198 A 
ATOM     95  F   UNL A   1      46.241  25.209  34.543  1.00  0.00    -0.203 F 
ATOM     96  F   UNL A   1      50.832  27.439  32.619  1.00  0.00    -0.200 F 
ATOM     97  C   UNL A   1      49.758  25.922  34.075  1.00  0.00     0.200 A 
ATOM     98  F   UNL A   1      48.639  24.413  35.505  1.00  0.00    -0.200 F 
ATOM     99  F   UNL A   1      50.944  25.500  34.533  1.00  0.00    -0.200 F 
ENDBRANCH  66  89
ENDBRANCH  40  41
ENDBRANCH  33  35
ENDBRANCH  32  33
ENDBRANCH  31  32
ENDBRANCH  30  31
ENDBRANCH  29  30
ENDBRANCH  28  29
ENDBRANCH  27  28
ENDBRANCH  26  27
ENDBRANCH  25  26
ENDBRANCH   1  25
TORSDOF 26
ENDMDL
MODEL 3
REMARK VINA RESULT:      -8.4      4.989     11.078
REMARK SMILES CCOC(=O)[C@@H](C)Oc1ccc(Br)cc1/C=C/C(=O)OCCOCCOCCOCCOC(=O)c1ccc(-c2c3nc(c(-c4c(F)c(F)c(F)c(F)c4F)c4ccc([nH]4)c(-c4c(F)c(F)c(F)c(F)c4F)c4nc(c(-c5c(F)c(F)c(F)c(F)c5F)c5ccc2[nH]5)C=C4)C=C3)cc1
REMARK SMILES IDX 24 1 23 2 22 3 21 4 20 5 18 6 19 7 17 8 16 9 15 10 9 11
REMARK SMILES IDX 10 12 11 13 14 14 12 15 13 16 8 17 6 18 7 19 4 20 5 21 3 22
REMARK SMILES IDX 2 23 1 24 25 25 26 26 27 27 28 28 29 29 30 30 31 31 32 32
REMARK SMILES IDX 33 33 34 34 35 35 36 36 97 37 37 38 96 39 38 40 39 41 40 42
REMARK SMILES IDX 90 43 41 44 95 45 89 46 91 47 42 48 94 49 88 50 87 51 43 53
REMARK SMILES IDX 75 54 55 55 74 56 56 57 59 58 73 59 92 60 57 61 58 62 72 64
REMARK SMILES IDX 93 65 60 66 44 67 45 68 53 69 46 70 47 71 51 72 54 73 48 74
REMARK SMILES IDX 49 75 52 76 50 77 76 78 77 79 85 80 78 81 79 82 83 83 86 84
REMARK SMILES IDX 80 85 81 86 84 87 82 88 61 89 62 90 70 91 63 92 64 93 68 94
REMARK SMILES IDX 71 95 65 96 66 97 69 98 67 99
REMARK H PARENT 91 52 59 63
REMARK Flexibility Score: inf
ROOT
ATOM      1  C   UNL A   1      36.965  33.444  31.296  1.00  0.00     0.188 C 
ENDROOT
BRANCH   1   2
ATOM      2  O   UNL A   1      37.816  32.565  32.011  1.00  0.00    -0.376 OA
BRANCH   2   3
ATOM      3  C   UNL A   1      37.254  31.516  32.776  1.00  0.00     0.202 C 
BRANCH   3   4
ATOM      4  C   UNL A   1      37.806  31.213  34.177  1.00  0.00     0.261 C 
BRANCH   4   5
ATOM      5  O   UNL A   1      38.711  30.110  34.274  1.00  0.00    -0.460 OA
BRANCH   5   6
ATOM      6  C   UNL A   1      40.015  30.414  34.429  1.00  0.00     0.330 C 
ATOM      7  O   UNL A   1      40.529  31.504  34.225  1.00  0.00    -0.247 OA
BRANCH   6   8
ATOM      8  C   UNL A   1      40.753  29.292  35.044  1.00  0.00     0.094 C 
ATOM      9  C   UNL A   1      41.946  28.819  34.637  1.00  0.00     0.019 C 
BRANCH   9  10
ATOM     10  C   UNL A   1      42.597  27.690  35.325  1.00  0.00     0.018 A 
ATOM     11  C   UNL A   1      43.217  27.855  36.576  1.00  0.00     0.127 A 
ATOM     12  C   UNL A   1      43.536  26.721  37.325  1.00  0.00     0.048 A 
ATOM     13  C   UNL A   1      43.450  25.444  36.772  1.00  0.00     0.019 A 
ATOM     14  C   UNL A   1      42.565  26.405  34.750  1.00  0.00     0.027 A 
ATOM     15  C   UNL A   1      43.004  25.295  35.468  1.00  0.00     0.018 A 
ATOM     16  Br  UNL A   1      42.923  23.574  34.693  1.00  0.00    -0.051 Br
BRANCH  11  17
ATOM     17  O   UNL A   1      43.398  29.119  37.073  1.00  0.00    -0.478 OA
BRANCH  17  18
ATOM     18  C   UNL A   1      44.756  29.588  37.192  1.00  0.00     0.279 C 
ATOM     19  C   UNL A   1      45.661  29.157  36.031  1.00  0.00     0.066 C 
BRANCH  18  20
ATOM     20  C   UNL A   1      45.404  29.427  38.578  1.00  0.00     0.347 C 
ATOM     21  O   UNL A   1      44.875  29.796  39.620  1.00  0.00    -0.248 OA
BRANCH  20  22
ATOM     22  O   UNL A   1      46.563  28.707  38.518  1.00  0.00    -0.463 OA
BRANCH  22  23
ATOM     23  C   UNL A   1      46.935  28.017  39.723  1.00  0.00     0.229 C 
ATOM     24  C   UNL A   1      46.244  26.676  39.807  1.00  0.00     0.049 C 
ENDBRANCH  22  23
ENDBRANCH  20  22
ENDBRANCH  18  20
ENDBRANCH  17  18
ENDBRANCH  11  17
ENDBRANCH   9  10
ENDBRANCH   6   8
ENDBRANCH   5   6
ENDBRANCH   4   5
ENDBRANCH   3   4
ENDBRANCH   2   3
ENDBRANCH   1   2
BRANCH   1  25
ATOM     25  C   UNL A   1      35.611  33.685  31.993  1.00  0.00     0.188 C 
BRANCH  25  26
ATOM     26  O   UNL A   1      34.426  33.475  31.239  1.00  0.00    -0.377 OA
BRANCH  26  27
ATOM     27  C   UNL A   1      33.890  34.538  30.450  1.00  0.00     0.188 C 
BRANCH  27  28
ATOM     28  C   UNL A   1      33.678  34.422  28.920  1.00  0.00     0.188 C 
BRANCH  28  29
ATOM     29  O   UNL A   1      34.865  34.260  28.163  1.00  0.00    -0.376 OA
BRANCH  29  30
ATOM     30  C   UNL A   1      35.370  32.948  28.001  1.00  0.00     0.202 C 
BRANCH  30  31
ATOM     31  C   UNL A   1      34.333  31.834  27.800  1.00  0.00     0.261 C 
BRANCH  31  32
ATOM     32  O   UNL A   1      34.510  30.656  28.601  1.00  0.00    -0.460 OA
BRANCH  32  33
ATOM     33  C   UNL A   1      35.108  29.596  28.020  1.00  0.00     0.338 C 
ATOM     34  O   UNL A   1      34.630  28.838  27.191  1.00  0.00    -0.246 OA
BRANCH  33  35
ATOM     35  C   UNL A   1      36.528  29.607  28.426  1.00  0.00     0.060 A 
ATOM     36  C   UNL A   1      37.509  29.943  27.482  1.00  0.00     0.016 A 
ATOM     37  C   UNL A   1      36.885  29.296  29.739  1.00  0.00     0.016 A 
ATOM     38  C   UNL A   1      38.856  29.935  27.845  1.00  0.00     0.010 A 
ATOM     39  C   UNL A   1      38.235  29.269  30.095  1.00  0.00     0.010 A 
ATOM     40  C   UNL A   1      39.228  29.555  29.142  1.00  0.00    -0.014 A 
BRANCH  40  41
ATOM     41  C   UNL A   1      40.650  29.263  29.448  1.00  0.00     0.031 A 
ATOM     42  C   UNL A   1      41.234  27.970  28.953  1.00  0.00     0.074 A 
ATOM     43  C   UNL A   1      41.411  30.125  30.144  1.00  0.00     0.049 A 
ATOM     44  N   UNL A   1      42.423  27.461  29.148  1.00  0.00    -0.248 NA
ATOM     45  C   UNL A   1      40.348  27.132  28.127  1.00  0.00     0.031 C 
ATOM     46  C   UNL A   1      40.974  31.426  30.643  1.00  0.00     0.029 A 
ATOM     47  N   UNL A   1      42.716  30.023  30.561  1.00  0.00    -0.354 N 
ATOM     48  C   UNL A   1      42.425  26.244  28.478  1.00  0.00     0.074 A 
ATOM     49  C   UNL A   1      41.109  26.073  27.902  1.00  0.00     0.031 C 
ATOM     50  C   UNL A   1      41.990  31.998  31.312  1.00  0.00     0.029 A 
ATOM     51  C   UNL A   1      43.135  31.087  31.320  1.00  0.00     0.049 A 
ATOM     52  H   UNL A   1      43.294  29.260  30.336  1.00  0.00     0.167 HD
ATOM     53  C   UNL A   1      43.437  25.354  28.346  1.00  0.00     0.037 A 
ATOM     54  C   UNL A   1      44.300  31.287  31.967  1.00  0.00     0.037 A 
ATOM     55  C   UNL A   1      44.742  25.525  28.927  1.00  0.00     0.049 A 
ATOM     56  C   UNL A   1      45.385  30.242  31.876  1.00  0.00     0.074 A 
ATOM     57  C   UNL A   1      45.842  24.690  28.838  1.00  0.00     0.029 A 
ATOM     58  N   UNL A   1      45.120  26.602  29.716  1.00  0.00    -0.354 N 
ATOM     59  N   UNL A   1      45.392  29.106  31.219  1.00  0.00    -0.248 NA
ATOM     60  C   UNL A   1      46.627  30.510  32.616  1.00  0.00     0.031 C 
ATOM     61  C   UNL A   1      46.863  25.227  29.629  1.00  0.00     0.029 A 
ATOM     62  C   UNL A   1      46.426  26.435  30.149  1.00  0.00     0.049 A 
ATOM     63  H   UNL A   1      44.546  27.370  29.936  1.00  0.00     0.167 HD
ATOM     64  C   UNL A   1      46.644  28.544  31.438  1.00  0.00     0.074 A 
ATOM     65  C   UNL A   1      47.375  29.469  32.279  1.00  0.00     0.031 C 
ATOM     66  C   UNL A   1      47.145  27.368  30.981  1.00  0.00     0.037 A 
BRANCH  53  67
ATOM     67  C   UNL A   1      43.155  24.095  27.575  1.00  0.00     0.064 A 
ATOM     68  C   UNL A   1      42.621  22.952  28.191  1.00  0.00     0.173 A 
ATOM     69  C   UNL A   1      43.409  24.036  26.197  1.00  0.00     0.173 A 
ATOM     70  F   UNL A   1      42.373  22.948  29.511  1.00  0.00    -0.203 F 
ATOM     71  C   UNL A   1      42.387  21.789  27.463  1.00  0.00     0.198 A 
ATOM     72  C   UNL A   1      43.139  22.883  25.465  1.00  0.00     0.198 A 
ATOM     73  F   UNL A   1      43.915  25.100  25.556  1.00  0.00    -0.203 F 
ATOM     74  F   UNL A   1      41.934  20.690  28.084  1.00  0.00    -0.200 F 
ATOM     75  C   UNL A   1      42.638  21.757  26.099  1.00  0.00     0.200 A 
ATOM     76  F   UNL A   1      43.370  22.861  24.145  1.00  0.00    -0.200 F 
ATOM     77  F   UNL A   1      42.408  20.638  25.399  1.00  0.00    -0.200 F 
ENDBRANCH  53  67
BRANCH  54  78
ATOM     78  C   UNL A   1      44.501  32.521  32.772  1.00  0.00     0.064 A 
ATOM     79  C   UNL A   1      45.072  33.670  32.207  1.00  0.00     0.173 A 
ATOM     80  C   UNL A   1      44.144  32.572  34.129  1.00  0.00     0.173 A 
ATOM     81  F   UNL A   1      45.456  33.665  30.923  1.00  0.00    -0.203 F 
ATOM     82  C   UNL A   1      45.294  34.814  32.971  1.00  0.00     0.198 A 
ATOM     83  C   UNL A   1      44.338  33.727  34.883  1.00  0.00     0.198 A 
ATOM     84  F   UNL A   1      43.599  31.499  34.720  1.00  0.00    -0.203 F 
ATOM     85  F   UNL A   1      45.889  35.882  32.418  1.00  0.00    -0.200 F 
ATOM     86  C   UNL A   1      44.920  34.845  34.306  1.00  0.00     0.200 A 
ATOM     87  F   UNL A   1      43.964  33.755  36.170  1.00  0.00    -0.200 F 
ATOM     88  F   UNL A   1      45.131  35.947  35.038  1.00  0.00    -0.200 F 
ENDBRANCH  54  78
BRANCH  66  89
ATOM     89  C   UNL A   1      48.566  27.032  31.339  1.00  0.00     0.064 A 
ATOM     90  C   UNL A   1      49.651  27.473  30.567  1.00  0.00     0.173 A 
ATOM     91  C   UNL A   1      48.848  26.294  32.500  1.00  0.00     0.173 A 
ATOM     92  F   UNL A   1      49.440  28.172  29.441  1.00  0.00    -0.203 F 
ATOM     93  C   UNL A   1      50.961  27.163  30.927  1.00  0.00     0.198 A 
ATOM     94  C   UNL A   1      50.159  26.017  32.876  1.00  0.00     0.198 A 
ATOM     95  F   UNL A   1      47.850  25.855  33.281  1.00  0.00    -0.203 F 
ATOM     96  F   UNL A   1      51.978  27.550  30.145  1.00  0.00    -0.200 F 
ATOM     97  C   UNL A   1      51.214  26.444  32.086  1.00  0.00     0.200 A 
ATOM     98  F   UNL A   1      50.401  25.338  34.008  1.00  0.00    -0.200 F 
ATOM     99  F   UNL A   1      52.475  26.156  32.436  1.00  0.00    -0.200 F 
ENDBRANCH  66  89
ENDBRANCH  40  41
ENDBRANCH  33  35
ENDBRANCH  32  33
ENDBRANCH  31  32
ENDBRANCH  30  31
ENDBRANCH  29  30
ENDBRANCH  28  29
ENDBRANCH  27  28
ENDBRANCH  26  27
ENDBRANCH  25  26
ENDBRANCH   1  25
TORSDOF 26
ENDMDL
