MODEL 1
REMARK VINA RESULT:      -9.7      0.000      0.000
REMARK SMILES COc1cc([C@H]2CC(OCCOCCOCCOCCOC(=O)c3ccc(-c4c5nc(c(-c6c(F)c(F)c(F)c(F)c6F)c6ccc([nH]6)c(-c6c(F)c(F)c(F)c(F)c6F)c6nc(c(-c7c(F)c(F)c(F)c(F)c7F)c7ccc4[nH]7)C=C6)C=C5)cc3)=Nc3c(C(=O)[O-])cn(-c4cccc(Cl)c4)c32)ccc1O
REMARK SMILES IDX 16 1 15 2 14 3 13 4 12 5 11 6 10 7 9 8 8 9 6 10 7 11 102 12
REMARK SMILES IDX 88 13 94 14 87 15 89 16 93 17 5 18 3 19 4 20 105 21 104 22
REMARK SMILES IDX 103 23 2 24 1 25 106 26 95 28 96 29 101 30 97 31 99 32 98 33
REMARK SMILES IDX 100 34 90 35 91 36 92 37 17 38 18 39 19 40 20 41 21 42 22 43
REMARK SMILES IDX 23 44 24 45 25 46 86 47 26 48 85 49 27 50 28 51 29 52 79 53
REMARK SMILES IDX 30 54 84 55 78 56 80 57 31 58 83 59 77 60 76 61 32 63 64 64
REMARK SMILES IDX 44 65 63 66 45 67 48 68 62 69 81 70 46 71 47 72 61 74 82 75
REMARK SMILES IDX 49 76 33 77 34 78 42 79 35 80 36 81 40 82 43 83 37 84 38 85
REMARK SMILES IDX 41 86 39 87 65 88 66 89 74 90 67 91 68 92 72 93 75 94 69 95
REMARK SMILES IDX 70 96 73 97 71 98 50 99 51 100 59 101 52 102 53 103 57 104
REMARK SMILES IDX 60 105 54 106 55 107 58 108 56 109
REMARK H PARENT 106 27 80 62 48 73
REMARK Flexibility Score: inf
ROOT
ATOM      1  C   UNL A   1      47.034  31.540  26.620  1.00  0.00     0.188 C 
ENDROOT
BRANCH   1   2
ATOM      2  O   UNL A   1      47.626  30.261  26.550  1.00  0.00    -0.377 OA
BRANCH   2   3
ATOM      3  C   UNL A   1      48.877  30.176  27.220  1.00  0.00     0.188 C 
BRANCH   3   4
ATOM      4  C   UNL A   1      49.162  28.849  27.931  1.00  0.00     0.188 C 
BRANCH   4   5
ATOM      5  O   UNL A   1      50.465  28.328  28.034  1.00  0.00    -0.376 OA
BRANCH   5   6
ATOM      6  C   UNL A   1      50.908  27.229  28.797  1.00  0.00     0.201 C 
BRANCH   6   7
ATOM      7  C   UNL A   1      51.479  25.900  28.275  1.00  0.00     0.259 C 
BRANCH   7   8
ATOM      8  O   UNL A   1      50.986  25.357  27.053  1.00  0.00    -0.478 OA
BRANCH   8   9
ATOM      9  C   UNL A   1      49.703  25.443  26.663  1.00  0.00     0.189 C 
ATOM     10  C   UNL A   1      47.308  25.660  27.558  1.00  0.00     0.078 C 
ATOM     11  C   UNL A   1      48.635  24.864  27.559  1.00  0.00     0.111 C 
ATOM     12  C   UNL A   1      47.181  26.375  26.247  1.00  0.00     0.057 A 
ATOM     13  C   UNL A   1      48.198  26.491  25.327  1.00  0.00     0.098 A 
ATOM     14  N   UNL A   1      46.098  27.059  25.731  1.00  0.00    -0.317 N 
ATOM     15  N   UNL A   1      49.509  26.094  25.561  1.00  0.00    -0.215 NA
ATOM     16  C   UNL A   1      47.755  27.205  24.194  1.00  0.00     0.041 A 
ATOM     17  C   UNL A   1      46.420  27.479  24.456  1.00  0.00     0.104 A 
BRANCH  10  18
ATOM     18  C   UNL A   1      46.265  24.619  27.927  1.00  0.00    -0.034 A 
ATOM     19  C   UNL A   1      44.693  22.921  27.151  1.00  0.00     0.160 A 
ATOM     20  C   UNL A   1      45.813  23.723  26.930  1.00  0.00     0.054 A 
ATOM     21  C   UNL A   1      44.086  22.945  28.406  1.00  0.00     0.157 A 
ATOM     22  C   UNL A   1      44.517  23.819  29.397  1.00  0.00     0.050 A 
ATOM     23  C   UNL A   1      45.590  24.666  29.152  1.00  0.00     0.008 A 
BRANCH  19  24
ATOM     24  O   UNL A   1      44.304  22.081  26.142  1.00  0.00    -0.493 OA
ATOM     25  C   UNL A   1      43.743  22.755  25.010  1.00  0.00     0.278 C 
ENDBRANCH  19  24
BRANCH  21  26
ATOM     26  O   UNL A   1      43.088  22.079  28.744  1.00  0.00    -0.504 OA
ATOM     27  H   UNL A   1      43.175  21.166  28.554  1.00  0.00     0.293 HD
ENDBRANCH  21  26
ENDBRANCH  10  18
BRANCH  14  28
ATOM     28  C   UNL A   1      44.822  27.214  26.312  1.00  0.00     0.047 A 
ATOM     29  C   UNL A   1      44.638  28.007  27.448  1.00  0.00     0.027 A 
ATOM     30  C   UNL A   1      43.760  26.501  25.747  1.00  0.00     0.047 A 
ATOM     31  C   UNL A   1      43.370  28.073  28.029  1.00  0.00     0.004 A 
ATOM     32  C   UNL A   1      42.521  26.524  26.377  1.00  0.00     0.043 A 
ATOM     33  C   UNL A   1      42.317  27.313  27.509  1.00  0.00     0.020 A 
ATOM     34  Cl  UNL A   1      41.249  25.533  25.778  1.00  0.00    -0.084 Cl
ENDBRANCH  14  28
BRANCH  16  35
ATOM     35  C   UNL A   1      48.465  27.615  23.001  1.00  0.00     0.075 C 
ATOM     36  O   UNL A   1      47.933  27.868  21.921  1.00  0.00    -0.545 OA
ATOM     37  O   UNL A   1      49.800  27.744  23.127  1.00  0.00    -0.545 OA
ENDBRANCH  16  35
ENDBRANCH   8   9
ENDBRANCH   7   8
ENDBRANCH   6   7
ENDBRANCH   5   6
ENDBRANCH   4   5
ENDBRANCH   3   4
ENDBRANCH   2   3
ENDBRANCH   1   2
BRANCH   1  38
ATOM     38  C   UNL A   1      45.506  31.566  26.416  1.00  0.00     0.188 C 
BRANCH  38  39
ATOM     39  O   UNL A   1      44.850  32.271  25.366  1.00  0.00    -0.376 OA
BRANCH  39  40
ATOM     40  C   UNL A   1      44.264  33.555  25.493  1.00  0.00     0.202 C 
BRANCH  40  41
ATOM     41  C   UNL A   1      45.069  34.813  25.743  1.00  0.00     0.261 C 
BRANCH  41  42
ATOM     42  O   UNL A   1      45.500  34.932  27.078  1.00  0.00    -0.460 OA
BRANCH  42  43
ATOM     43  C   UNL A   1      45.230  36.134  27.609  1.00  0.00     0.338 C 
ATOM     44  O   UNL A   1      45.641  37.223  27.243  1.00  0.00    -0.246 OA
BRANCH  43  45
ATOM     45  C   UNL A   1      44.502  35.919  28.856  1.00  0.00     0.060 A 
ATOM     46  C   UNL A   1      44.589  34.628  29.360  1.00  0.00     0.016 A 
ATOM     47  C   UNL A   1      43.510  36.827  29.264  1.00  0.00     0.016 A 
ATOM     48  C   UNL A   1      43.508  34.153  30.053  1.00  0.00     0.010 A 
ATOM     49  C   UNL A   1      42.431  36.351  29.968  1.00  0.00     0.010 A 
ATOM     50  C   UNL A   1      42.402  34.996  30.267  1.00  0.00    -0.014 A 
BRANCH  50  51
ATOM     51  C   UNL A   1      41.303  34.431  31.015  1.00  0.00     0.031 A 
ATOM     52  C   UNL A   1      41.708  34.197  32.412  1.00  0.00     0.074 A 
ATOM     53  C   UNL A   1      40.094  34.128  30.511  1.00  0.00     0.049 A 
ATOM     54  N   UNL A   1      41.996  33.048  32.923  1.00  0.00    -0.248 NA
ATOM     55  C   UNL A   1      42.088  35.347  33.246  1.00  0.00     0.031 C 
ATOM     56  C   UNL A   1      39.521  34.486  29.215  1.00  0.00     0.029 A 
ATOM     57  N   UNL A   1      39.077  33.451  31.115  1.00  0.00    -0.354 N 
ATOM     58  C   UNL A   1      42.375  33.311  34.227  1.00  0.00     0.074 A 
ATOM     59  C   UNL A   1      42.602  34.730  34.312  1.00  0.00     0.031 C 
ATOM     60  C   UNL A   1      38.191  34.226  29.229  1.00  0.00     0.029 A 
ATOM     61  C   UNL A   1      37.848  33.557  30.474  1.00  0.00     0.049 A 
ATOM     62  H   UNL A   1      39.203  32.927  31.939  1.00  0.00     0.167 HD
ATOM     63  C   UNL A   1      42.137  32.370  35.176  1.00  0.00     0.037 A 
ATOM     64  C   UNL A   1      36.645  33.167  30.974  1.00  0.00     0.037 A 
ATOM     65  C   UNL A   1      42.022  31.056  34.581  1.00  0.00     0.049 A 
ATOM     66  C   UNL A   1      36.912  32.145  32.021  1.00  0.00     0.074 A 
ATOM     67  C   UNL A   1      42.841  30.290  33.769  1.00  0.00     0.029 A 
ATOM     68  N   UNL A   1      40.765  30.519  34.446  1.00  0.00    -0.354 N 
ATOM     69  N   UNL A   1      37.360  30.950  31.760  1.00  0.00    -0.248 NA
ATOM     70  C   UNL A   1      37.147  32.620  33.377  1.00  0.00     0.031 C 
ATOM     71  C   UNL A   1      41.962  29.662  32.837  1.00  0.00     0.029 A 
ATOM     72  C   UNL A   1      40.656  30.003  33.183  1.00  0.00     0.049 A 
ATOM     73  H   UNL A   1      40.065  30.506  35.140  1.00  0.00     0.167 HD
ATOM     74  C   UNL A   1      38.329  30.728  32.725  1.00  0.00     0.074 A 
ATOM     75  C   UNL A   1      38.102  31.759  33.739  1.00  0.00     0.031 C 
ATOM     76  C   UNL A   1      39.405  29.929  32.468  1.00  0.00     0.037 A 
BRANCH  63  77
ATOM     77  C   UNL A   1      41.514  32.721  36.503  1.00  0.00     0.064 A 
ATOM     78  C   UNL A   1      40.344  33.501  36.508  1.00  0.00     0.173 A 
ATOM     79  C   UNL A   1      42.184  32.619  37.745  1.00  0.00     0.173 A 
ATOM     80  F   UNL A   1      39.648  33.691  35.376  1.00  0.00    -0.203 F 
ATOM     81  C   UNL A   1      39.934  34.201  37.644  1.00  0.00     0.198 A 
ATOM     82  C   UNL A   1      41.740  33.273  38.889  1.00  0.00     0.198 A 
ATOM     83  F   UNL A   1      43.356  31.992  37.888  1.00  0.00    -0.203 F 
ATOM     84  F   UNL A   1      38.899  35.049  37.561  1.00  0.00    -0.200 F 
ATOM     85  C   UNL A   1      40.635  34.092  38.830  1.00  0.00     0.200 A 
ATOM     86  F   UNL A   1      42.453  33.174  40.020  1.00  0.00    -0.200 F 
ATOM     87  F   UNL A   1      40.282  34.814  39.901  1.00  0.00    -0.200 F 
ENDBRANCH  63  77
BRANCH  64  88
ATOM     88  C   UNL A   1      35.323  33.837  30.862  1.00  0.00     0.064 A 
ATOM     89  C   UNL A   1      34.961  34.874  31.744  1.00  0.00     0.173 A 
ATOM     90  C   UNL A   1      34.519  33.693  29.716  1.00  0.00     0.173 A 
ATOM     91  F   UNL A   1      35.695  35.118  32.839  1.00  0.00    -0.203 F 
ATOM     92  C   UNL A   1      33.888  35.733  31.475  1.00  0.00     0.198 A 
ATOM     93  C   UNL A   1      33.445  34.547  29.451  1.00  0.00     0.198 A 
ATOM     94  F   UNL A   1      34.815  32.785  28.775  1.00  0.00    -0.203 F 
ATOM     95  F   UNL A   1      33.622  36.753  32.304  1.00  0.00    -0.200 F 
ATOM     96  C   UNL A   1      33.139  35.576  30.322  1.00  0.00     0.200 A 
ATOM     97  F   UNL A   1      32.751  34.406  28.313  1.00  0.00    -0.200 F 
ATOM     98  F   UNL A   1      32.155  36.437  30.028  1.00  0.00    -0.200 F 
ENDBRANCH  64  88
BRANCH  76  99
ATOM     99  C   UNL A   1      39.365  29.050  31.250  1.00  0.00     0.064 A 
ATOM    100  C   UNL A   1      38.948  27.707  31.239  1.00  0.00     0.173 A 
ATOM    101  C   UNL A   1      39.646  29.648  30.013  1.00  0.00     0.173 A 
ATOM    102  F   UNL A   1      38.568  27.089  32.366  1.00  0.00    -0.203 F 
ATOM    103  C   UNL A   1      38.861  26.991  30.044  1.00  0.00     0.198 A 
ATOM    104  C   UNL A   1      39.518  28.943  28.821  1.00  0.00     0.198 A 
ATOM    105  F   UNL A   1      40.006  30.939  29.958  1.00  0.00    -0.203 F 
ATOM    106  F   UNL A   1      38.478  25.705  30.056  1.00  0.00    -0.200 F 
ATOM    107  C   UNL A   1      39.138  27.613  28.836  1.00  0.00     0.200 A 
ATOM    108  F   UNL A   1      39.741  29.565  27.654  1.00  0.00    -0.200 F 
ATOM    109  F   UNL A   1      39.016  26.937  27.686  1.00  0.00    -0.200 F 
ENDBRANCH  76  99
ENDBRANCH  50  51
ENDBRANCH  43  45
ENDBRANCH  42  43
ENDBRANCH  41  42
ENDBRANCH  40  41
ENDBRANCH  39  40
ENDBRANCH  38  39
ENDBRANCH   1  38
TORSDOF 24
ENDMDL
MODEL 2
REMARK VINA RESULT:      -9.4      4.778     10.878
REMARK SMILES COc1cc([C@H]2CC(OCCOCCOCCOCCOC(=O)c3ccc(-c4c5nc(c(-c6c(F)c(F)c(F)c(F)c6F)c6ccc([nH]6)c(-c6c(F)c(F)c(F)c(F)c6F)c6nc(c(-c7c(F)c(F)c(F)c(F)c7F)c7ccc4[nH]7)C=C6)C=C5)cc3)=Nc3c(C(=O)[O-])cn(-c4cccc(Cl)c4)c32)ccc1O
REMARK SMILES IDX 16 1 15 2 14 3 13 4 12 5 11 6 10 7 9 8 8 9 6 10 7 11 102 12
REMARK SMILES IDX 88 13 94 14 87 15 89 16 93 17 5 18 3 19 4 20 105 21 104 22
REMARK SMILES IDX 103 23 2 24 1 25 106 26 95 28 96 29 101 30 97 31 99 32 98 33
REMARK SMILES IDX 100 34 90 35 91 36 92 37 17 38 18 39 19 40 20 41 21 42 22 43
REMARK SMILES IDX 23 44 24 45 25 46 86 47 26 48 85 49 27 50 28 51 29 52 79 53
REMARK SMILES IDX 30 54 84 55 78 56 80 57 31 58 83 59 77 60 76 61 32 63 64 64
REMARK SMILES IDX 44 65 63 66 45 67 48 68 62 69 81 70 46 71 47 72 61 74 82 75
REMARK SMILES IDX 49 76 33 77 34 78 42 79 35 80 36 81 40 82 43 83 37 84 38 85
REMARK SMILES IDX 41 86 39 87 65 88 66 89 74 90 67 91 68 92 72 93 75 94 69 95
REMARK SMILES IDX 70 96 73 97 71 98 50 99 51 100 59 101 52 102 53 103 57 104
REMARK SMILES IDX 60 105 54 106 55 107 58 108 56 109
REMARK H PARENT 106 27 80 62 48 73
REMARK Flexibility Score: inf
ROOT
ATOM      1  C   UNL A   1      43.139  37.369  33.919  1.00  0.00     0.188 C 
ENDROOT
BRANCH   1   2
ATOM      2  O   UNL A   1      44.261  37.956  34.542  1.00  0.00    -0.377 OA
BRANCH   2   3
ATOM      3  C   UNL A   1      44.196  37.942  35.963  1.00  0.00     0.188 C 
BRANCH   3   4
ATOM      4  C   UNL A   1      43.831  36.597  36.598  1.00  0.00     0.188 C 
BRANCH   4   5
ATOM      5  O   UNL A   1      42.505  36.280  36.951  1.00  0.00    -0.376 OA
BRANCH   5   6
ATOM      6  C   UNL A   1      41.746  35.155  36.570  1.00  0.00     0.201 C 
BRANCH   6   7
ATOM      7  C   UNL A   1      41.852  34.358  35.259  1.00  0.00     0.259 C 
BRANCH   7   8
ATOM      8  O   UNL A   1      40.932  34.621  34.202  1.00  0.00    -0.478 OA
BRANCH   8   9
ATOM      9  C   UNL A   1      40.101  33.696  33.689  1.00  0.00     0.189 C 
ATOM     10  C   UNL A   1      38.871  33.026  31.540  1.00  0.00     0.078 C 
ATOM     11  C   UNL A   1      39.134  34.114  32.609  1.00  0.00     0.111 C 
ATOM     12  C   UNL A   1      39.099  31.682  32.162  1.00  0.00     0.057 A 
ATOM     13  C   UNL A   1      39.685  31.486  33.391  1.00  0.00     0.098 A 
ATOM     14  N   UNL A   1      38.822  30.429  31.649  1.00  0.00    -0.317 N 
ATOM     15  N   UNL A   1      40.274  32.497  34.142  1.00  0.00    -0.215 NA
ATOM     16  C   UNL A   1      39.738  30.110  33.695  1.00  0.00     0.041 A 
ATOM     17  C   UNL A   1      39.126  29.491  32.615  1.00  0.00     0.104 A 
BRANCH  10  18
ATOM     18  C   UNL A   1      37.486  33.364  31.017  1.00  0.00    -0.034 A 
ATOM     19  C   UNL A   1      35.072  33.166  31.317  1.00  0.00     0.160 A 
ATOM     20  C   UNL A   1      36.364  33.104  31.839  1.00  0.00     0.054 A 
ATOM     21  C   UNL A   1      34.898  33.586  29.998  1.00  0.00     0.157 A 
ATOM     22  C   UNL A   1      35.989  33.847  29.177  1.00  0.00     0.050 A 
ATOM     23  C   UNL A   1      37.278  33.718  29.679  1.00  0.00     0.008 A 
BRANCH  19  24
ATOM     24  O   UNL A   1      34.031  32.895  32.163  1.00  0.00    -0.493 OA
ATOM     25  C   UNL A   1      34.151  33.514  33.448  1.00  0.00     0.278 C 
ENDBRANCH  19  24
BRANCH  21  26
ATOM     26  O   UNL A   1      33.664  33.820  29.469  1.00  0.00    -0.504 OA
ATOM     27  H   UNL A   1      32.895  33.624  29.967  1.00  0.00     0.293 HD
ENDBRANCH  21  26
ENDBRANCH  10  18
BRANCH  14  28
ATOM     28  C   UNL A   1      38.213  30.119  30.415  1.00  0.00     0.047 A 
ATOM     29  C   UNL A   1      36.842  29.857  30.334  1.00  0.00     0.027 A 
ATOM     30  C   UNL A   1      39.036  30.025  29.289  1.00  0.00     0.047 A 
ATOM     31  C   UNL A   1      36.297  29.485  29.103  1.00  0.00     0.004 A 
ATOM     32  C   UNL A   1      38.490  29.588  28.088  1.00  0.00     0.043 A 
ATOM     33  C   UNL A   1      37.124  29.327  27.986  1.00  0.00     0.020 A 
ATOM     34  Cl  UNL A   1      39.521  29.325  26.736  1.00  0.00    -0.084 Cl
ENDBRANCH  14  28
BRANCH  16  35
ATOM     35  C   UNL A   1      40.299  29.418  34.837  1.00  0.00     0.075 C 
ATOM     36  O   UNL A   1      40.908  28.351  34.780  1.00  0.00    -0.545 OA
ATOM     37  O   UNL A   1      40.147  30.030  36.028  1.00  0.00    -0.545 OA
ENDBRANCH  16  35
ENDBRANCH   8   9
ENDBRANCH   7   8
ENDBRANCH   6   7
ENDBRANCH   5   6
ENDBRANCH   4   5
ENDBRANCH   3   4
ENDBRANCH   2   3
ENDBRANCH   1   2
BRANCH   1  38
ATOM     38  C   UNL A   1      43.393  36.817  32.502  1.00  0.00     0.188 C 
BRANCH  38  39
ATOM     39  O   UNL A   1      44.683  36.682  31.913  1.00  0.00    -0.376 OA
BRANCH  39  40
ATOM     40  C   UNL A   1      45.038  37.142  30.621  1.00  0.00     0.202 C 
BRANCH  40  41
ATOM     41  C   UNL A   1      44.347  36.677  29.356  1.00  0.00     0.261 C 
BRANCH  41  42
ATOM     42  O   UNL A   1      44.530  35.305  29.104  1.00  0.00    -0.460 OA
BRANCH  42  43
ATOM     43  C   UNL A   1      43.375  34.650  28.916  1.00  0.00     0.338 C 
ATOM     44  O   UNL A   1      42.357  35.065  28.386  1.00  0.00    -0.246 OA
BRANCH  43  45
ATOM     45  C   UNL A   1      43.454  33.386  29.642  1.00  0.00     0.060 A 
ATOM     46  C   UNL A   1      44.710  32.794  29.635  1.00  0.00     0.016 A 
ATOM     47  C   UNL A   1      42.282  32.676  29.961  1.00  0.00     0.016 A 
ATOM     48  C   UNL A   1      44.756  31.425  29.663  1.00  0.00     0.010 A 
ATOM     49  C   UNL A   1      42.333  31.304  29.998  1.00  0.00     0.010 A 
ATOM     50  C   UNL A   1      43.556  30.696  29.751  1.00  0.00    -0.014 A 
BRANCH  50  51
ATOM     51  C   UNL A   1      43.682  29.258  29.786  1.00  0.00     0.031 A 
ATOM     52  C   UNL A   1      44.125  28.821  31.123  1.00  0.00     0.074 A 
ATOM     53  C   UNL A   1      43.464  28.432  28.748  1.00  0.00     0.049 A 
ATOM     54  N   UNL A   1      45.318  28.437  31.424  1.00  0.00    -0.248 NA
ATOM     55  C   UNL A   1      43.257  29.082  32.280  1.00  0.00     0.031 C 
ATOM     56  C   UNL A   1      42.847  28.723  27.455  1.00  0.00     0.029 A 
ATOM     57  N   UNL A   1      43.719  27.096  28.668  1.00  0.00    -0.354 N 
ATOM     58  C   UNL A   1      45.289  28.183  32.784  1.00  0.00     0.074 A 
ATOM     59  C   UNL A   1      44.078  28.775  33.288  1.00  0.00     0.031 C 
ATOM     60  C   UNL A   1      42.568  27.557  26.824  1.00  0.00     0.029 A 
ATOM     61  C   UNL A   1      43.110  26.451  27.598  1.00  0.00     0.049 A 
ATOM     62  H   UNL A   1      44.291  26.625  29.318  1.00  0.00     0.167 HD
ATOM     63  C   UNL A   1      46.108  27.223  33.284  1.00  0.00     0.037 A 
ATOM     64  C   UNL A   1      43.024  25.107  27.414  1.00  0.00     0.037 A 
ATOM     65  C   UNL A   1      47.241  27.007  32.411  1.00  0.00     0.049 A 
ATOM     66  C   UNL A   1      44.118  24.481  28.202  1.00  0.00     0.074 A 
ATOM     67  C   UNL A   1      48.225  27.827  31.888  1.00  0.00     0.029 A 
ATOM     68  N   UNL A   1      47.238  25.885  31.619  1.00  0.00    -0.354 N 
ATOM     69  N   UNL A   1      45.380  24.593  27.893  1.00  0.00    -0.248 NA
ATOM     70  C   UNL A   1      43.840  24.151  29.593  1.00  0.00     0.031 C 
ATOM     71  C   UNL A   1      48.414  27.377  30.547  1.00  0.00     0.029 A 
ATOM     72  C   UNL A   1      47.607  26.257  30.354  1.00  0.00     0.049 A 
ATOM     73  H   UNL A   1      47.010  24.972  31.910  1.00  0.00     0.167 HD
ATOM     74  C   UNL A   1      46.009  24.830  29.105  1.00  0.00     0.074 A 
ATOM     75  C   UNL A   1      45.023  24.473  30.125  1.00  0.00     0.031 C 
ATOM     76  C   UNL A   1      47.151  25.574  29.167  1.00  0.00     0.037 A 
BRANCH  63  77
ATOM     77  C   UNL A   1      45.607  26.175  34.245  1.00  0.00     0.064 A 
ATOM     78  C   UNL A   1      46.420  25.824  35.338  1.00  0.00     0.173 A 
ATOM     79  C   UNL A   1      44.549  25.280  33.961  1.00  0.00     0.173 A 
ATOM     80  F   UNL A   1      47.472  26.587  35.675  1.00  0.00    -0.203 F 
ATOM     81  C   UNL A   1      46.244  24.624  36.028  1.00  0.00     0.198 A 
ATOM     82  C   UNL A   1      44.343  24.112  34.688  1.00  0.00     0.198 A 
ATOM     83  F   UNL A   1      43.744  25.421  32.903  1.00  0.00    -0.203 F 
ATOM     84  F   UNL A   1      47.133  24.262  36.963  1.00  0.00    -0.200 F 
ATOM     85  C   UNL A   1      45.211  23.766  35.698  1.00  0.00     0.200 A 
ATOM     86  F   UNL A   1      43.352  23.283  34.331  1.00  0.00    -0.200 F 
ATOM     87  F   UNL A   1      45.082  22.584  36.314  1.00  0.00    -0.200 F 
ENDBRANCH  63  77
BRANCH  64  88
ATOM     88  C   UNL A   1      41.885  24.305  26.893  1.00  0.00     0.064 A 
ATOM     89  C   UNL A   1      42.090  23.011  26.375  1.00  0.00     0.173 A 
ATOM     90  C   UNL A   1      40.550  24.656  27.166  1.00  0.00     0.173 A 
ATOM     91  F   UNL A   1      43.332  22.570  26.127  1.00  0.00    -0.203 F 
ATOM     92  C   UNL A   1      41.030  22.117  26.181  1.00  0.00     0.198 A 
ATOM     93  C   UNL A   1      39.493  23.765  26.967  1.00  0.00     0.198 A 
ATOM     94  F   UNL A   1      40.249  25.836  27.727  1.00  0.00    -0.203 F 
ATOM     95  F   UNL A   1      41.276  20.869  25.754  1.00  0.00    -0.200 F 
ATOM     96  C   UNL A   1      39.734  22.490  26.489  1.00  0.00     0.200 A 
ATOM     97  F   UNL A   1      38.248  24.128  27.305  1.00  0.00    -0.200 F 
ATOM     98  F   UNL A   1      38.727  21.615  26.369  1.00  0.00    -0.200 F 
ENDBRANCH  64  88
BRANCH  76  99
ATOM     99  C   UNL A   1      47.884  25.865  27.888  1.00  0.00     0.064 A 
ATOM    100  C   UNL A   1      47.504  26.835  26.944  1.00  0.00     0.173 A 
ATOM    101  C   UNL A   1      49.106  25.208  27.680  1.00  0.00     0.173 A 
ATOM    102  F   UNL A   1      46.400  27.576  27.116  1.00  0.00    -0.203 F 
ATOM    103  C   UNL A   1      48.294  27.097  25.824  1.00  0.00     0.198 A 
ATOM    104  C   UNL A   1      49.911  25.502  26.585  1.00  0.00     0.198 A 
ATOM    105  F   UNL A   1      49.542  24.304  28.572  1.00  0.00    -0.203 F 
ATOM    106  F   UNL A   1      47.905  28.014  24.925  1.00  0.00    -0.200 F 
ATOM    107  C   UNL A   1      49.501  26.437  25.652  1.00  0.00     0.200 A 
ATOM    108  F   UNL A   1      51.098  24.894  26.451  1.00  0.00    -0.200 F 
ATOM    109  F   UNL A   1      50.278  26.718  24.597  1.00  0.00    -0.200 F 
ENDBRANCH  76  99
ENDBRANCH  50  51
ENDBRANCH  43  45
ENDBRANCH  42  43
ENDBRANCH  41  42
ENDBRANCH  40  41
ENDBRANCH  39  40
ENDBRANCH  38  39
ENDBRANCH   1  38
TORSDOF 24
ENDMDL
MODEL 3
REMARK VINA RESULT:      -9.0      4.702     11.645
REMARK SMILES COc1cc([C@H]2CC(OCCOCCOCCOCCOC(=O)c3ccc(-c4c5nc(c(-c6c(F)c(F)c(F)c(F)c6F)c6ccc([nH]6)c(-c6c(F)c(F)c(F)c(F)c6F)c6nc(c(-c7c(F)c(F)c(F)c(F)c7F)c7ccc4[nH]7)C=C6)C=C5)cc3)=Nc3c(C(=O)[O-])cn(-c4cccc(Cl)c4)c32)ccc1O
REMARK SMILES IDX 16 1 15 2 14 3 13 4 12 5 11 6 10 7 9 8 8 9 6 10 7 11 102 12
REMARK SMILES IDX 88 13 94 14 87 15 89 16 93 17 5 18 3 19 4 20 105 21 104 22
REMARK SMILES IDX 103 23 2 24 1 25 106 26 95 28 96 29 101 30 97 31 99 32 98 33
REMARK SMILES IDX 100 34 90 35 91 36 92 37 17 38 18 39 19 40 20 41 21 42 22 43
REMARK SMILES IDX 23 44 24 45 25 46 86 47 26 48 85 49 27 50 28 51 29 52 79 53
REMARK SMILES IDX 30 54 84 55 78 56 80 57 31 58 83 59 77 60 76 61 32 63 64 64
REMARK SMILES IDX 44 65 63 66 45 67 48 68 62 69 81 70 46 71 47 72 61 74 82 75
REMARK SMILES IDX 49 76 33 77 34 78 42 79 35 80 36 81 40 82 43 83 37 84 38 85
REMARK SMILES IDX 41 86 39 87 65 88 66 89 74 90 67 91 68 92 72 93 75 94 69 95
REMARK SMILES IDX 70 96 73 97 71 98 50 99 51 100 59 101 52 102 53 103 57 104
REMARK SMILES IDX 60 105 54 106 55 107 58 108 56 109
REMARK H PARENT 106 27 80 62 48 73
REMARK Flexibility Score: inf
ROOT
ATOM      1  C   UNL A   1      42.446  36.609  34.680  1.00  0.00     0.188 C 
ENDROOT
BRANCH   1   2
ATOM      2  O   UNL A   1      43.083  37.692  35.324  1.00  0.00    -0.377 OA
BRANCH   2   3
ATOM      3  C   UNL A   1      43.293  37.483  36.715  1.00  0.00     0.188 C 
BRANCH   3   4
ATOM      4  C   UNL A   1      43.934  36.145  37.097  1.00  0.00     0.188 C 
BRANCH   4   5
ATOM      5  O   UNL A   1      43.203  35.133  37.747  1.00  0.00    -0.376 OA
BRANCH   5   6
ATOM      6  C   UNL A   1      42.598  33.992  37.181  1.00  0.00     0.201 C 
BRANCH   6   7
ATOM      7  C   UNL A   1      43.286  32.866  36.390  1.00  0.00     0.259 C 
BRANCH   7   8
ATOM      8  O   UNL A   1      43.156  32.826  34.971  1.00  0.00    -0.478 OA
BRANCH   8   9
ATOM      9  C   UNL A   1      42.149  32.205  34.332  1.00  0.00     0.189 C 
ATOM     10  C   UNL A   1      40.951  32.061  32.068  1.00  0.00     0.078 C 
ATOM     11  C   UNL A   1      41.415  32.952  33.246  1.00  0.00     0.111 C 
ATOM     12  C   UNL A   1      40.762  30.663  32.573  1.00  0.00     0.057 A 
ATOM     13  C   UNL A   1      41.179  30.223  33.808  1.00  0.00     0.098 A 
ATOM     14  N   UNL A   1      40.198  29.577  31.932  1.00  0.00    -0.317 N 
ATOM     15  N   UNL A   1      41.959  30.974  34.680  1.00  0.00    -0.215 NA
ATOM     16  C   UNL A   1      40.837  28.866  33.986  1.00  0.00     0.041 A 
ATOM     17  C   UNL A   1      40.165  28.521  32.822  1.00  0.00     0.104 A 
BRANCH  10  18
ATOM     18  C   UNL A   1      39.751  32.804  31.507  1.00  0.00    -0.034 A 
ATOM     19  C   UNL A   1      37.393  33.382  31.754  1.00  0.00     0.160 A 
ATOM     20  C   UNL A   1      38.591  32.930  32.307  1.00  0.00     0.054 A 
ATOM     21  C   UNL A   1      37.381  33.803  30.425  1.00  0.00     0.157 A 
ATOM     22  C   UNL A   1      38.512  33.687  29.625  1.00  0.00     0.050 A 
ATOM     23  C   UNL A   1      39.687  33.172  30.158  1.00  0.00     0.008 A 
BRANCH  19  24
ATOM     24  O   UNL A   1      36.305  33.473  32.581  1.00  0.00    -0.493 OA
ATOM     25  C   UNL A   1      36.235  34.700  33.315  1.00  0.00     0.278 C 
ENDBRANCH  19  24
BRANCH  21  26
ATOM     26  O   UNL A   1      36.292  34.399  29.863  1.00  0.00    -0.504 OA
ATOM     27  H   UNL A   1      35.504  33.909  29.731  1.00  0.00     0.293 HD
ENDBRANCH  21  26
ENDBRANCH  10  18
BRANCH  14  28
ATOM     28  C   UNL A   1      39.624  29.539  30.646  1.00  0.00     0.047 A 
ATOM     29  C   UNL A   1      40.420  29.398  29.505  1.00  0.00     0.027 A 
ATOM     30  C   UNL A   1      38.239  29.707  30.546  1.00  0.00     0.047 A 
ATOM     31  C   UNL A   1      39.812  29.437  28.247  1.00  0.00     0.004 A 
ATOM     32  C   UNL A   1      37.661  29.812  29.287  1.00  0.00     0.043 A 
ATOM     33  C   UNL A   1      38.437  29.669  28.137  1.00  0.00     0.020 A 
ATOM     34  Cl  UNL A   1      35.983  30.169  29.154  1.00  0.00    -0.084 Cl
ENDBRANCH  14  28
BRANCH  16  35
ATOM     35  C   UNL A   1      41.104  27.963  35.086  1.00  0.00     0.075 C 
ATOM     36  O   UNL A   1      41.155  28.296  36.269  1.00  0.00    -0.545 OA
ATOM     37  O   UNL A   1      41.277  26.669  34.755  1.00  0.00    -0.545 OA
ENDBRANCH  16  35
ENDBRANCH   8   9
ENDBRANCH   7   8
ENDBRANCH   6   7
ENDBRANCH   5   6
ENDBRANCH   4   5
ENDBRANCH   3   4
ENDBRANCH   2   3
ENDBRANCH   1   2
BRANCH   1  38
ATOM     38  C   UNL A   1      43.047  36.214  33.316  1.00  0.00     0.188 C 
BRANCH  38  39
ATOM     39  O   UNL A   1      44.413  36.404  32.958  1.00  0.00    -0.376 OA
BRANCH  39  40
ATOM     40  C   UNL A   1      44.863  37.148  31.839  1.00  0.00     0.202 C 
BRANCH  40  41
ATOM     41  C   UNL A   1      44.605  36.730  30.406  1.00  0.00     0.261 C 
BRANCH  41  42
ATOM     42  O   UNL A   1      44.940  35.386  30.158  1.00  0.00    -0.460 OA
BRANCH  42  43
ATOM     43  C   UNL A   1      44.099  34.787  29.301  1.00  0.00     0.338 C 
ATOM     44  O   UNL A   1      43.439  35.305  28.415  1.00  0.00    -0.246 OA
BRANCH  43  45
ATOM     45  C   UNL A   1      43.936  33.401  29.730  1.00  0.00     0.060 A 
ATOM     46  C   UNL A   1      44.977  32.911  30.507  1.00  0.00     0.016 A 
ATOM     47  C   UNL A   1      43.013  32.562  29.081  1.00  0.00     0.016 A 
ATOM     48  C   UNL A   1      45.266  31.577  30.396  1.00  0.00     0.010 A 
ATOM     49  C   UNL A   1      43.300  31.223  28.979  1.00  0.00     0.010 A 
ATOM     50  C   UNL A   1      44.478  30.768  29.557  1.00  0.00    -0.014 A 
BRANCH  50  51
ATOM     51  C   UNL A   1      44.834  29.370  29.497  1.00  0.00     0.031 A 
ATOM     52  C   UNL A   1      45.715  29.121  28.342  1.00  0.00     0.074 A 
ATOM     53  C   UNL A   1      44.403  28.421  30.346  1.00  0.00     0.049 A 
ATOM     54  N   UNL A   1      45.354  28.566  27.235  1.00  0.00    -0.248 NA
ATOM     55  C   UNL A   1      47.030  29.776  28.296  1.00  0.00     0.031 C 
ATOM     56  C   UNL A   1      43.699  28.574  31.617  1.00  0.00     0.029 A 
ATOM     57  N   UNL A   1      44.569  27.071  30.252  1.00  0.00    -0.354 N 
ATOM     58  C   UNL A   1      46.477  28.594  26.428  1.00  0.00     0.074 A 
ATOM     59  C   UNL A   1      47.403  29.510  27.041  1.00  0.00     0.031 C 
ATOM     60  C   UNL A   1      43.709  27.390  32.277  1.00  0.00     0.029 A 
ATOM     61  C   UNL A   1      44.291  26.370  31.420  1.00  0.00     0.049 A 
ATOM     62  H   UNL A   1      44.860  26.628  29.422  1.00  0.00     0.167 HD
ATOM     63  C   UNL A   1      46.648  27.602  25.517  1.00  0.00     0.037 A 
ATOM     64  C   UNL A   1      44.579  25.062  31.658  1.00  0.00     0.037 A 
ATOM     65  C   UNL A   1      45.381  26.991  25.177  1.00  0.00     0.049 A 
ATOM     66  C   UNL A   1      44.714  24.391  30.338  1.00  0.00     0.074 A 
ATOM     67  C   UNL A   1      44.177  27.473  24.694  1.00  0.00     0.029 A 
ATOM     68  N   UNL A   1      45.095  25.762  25.718  1.00  0.00    -0.354 N 
ATOM     69  N   UNL A   1      43.709  24.178  29.535  1.00  0.00    -0.248 NA
ATOM     70  C   UNL A   1      46.027  24.403  29.710  1.00  0.00     0.031 C 
ATOM     71  C   UNL A   1      43.173  26.741  25.395  1.00  0.00     0.029 A 
ATOM     72  C   UNL A   1      43.812  25.796  26.195  1.00  0.00     0.049 A 
ATOM     73  H   UNL A   1      45.706  24.990  25.755  1.00  0.00     0.167 HD
ATOM     74  C   UNL A   1      44.197  24.512  28.282  1.00  0.00     0.074 A 
ATOM     75  C   UNL A   1      45.650  24.572  28.440  1.00  0.00     0.031 C 
ATOM     76  C   UNL A   1      43.367  25.003  27.316  1.00  0.00     0.037 A 
BRANCH  63  77
ATOM     77  C   UNL A   1      47.967  26.888  25.360  1.00  0.00     0.064 A 
ATOM     78  C   UNL A   1      48.599  26.390  26.513  1.00  0.00     0.173 A 
ATOM     79  C   UNL A   1      48.779  26.968  24.205  1.00  0.00     0.173 A 
ATOM     80  F   UNL A   1      47.930  26.302  27.673  1.00  0.00    -0.203 F 
ATOM     81  C   UNL A   1      49.962  26.089  26.529  1.00  0.00     0.198 A 
ATOM     82  C   UNL A   1      50.123  26.613  24.211  1.00  0.00     0.198 A 
ATOM     83  F   UNL A   1      48.355  27.503  23.055  1.00  0.00    -0.203 F 
ATOM     84  F   UNL A   1      50.553  25.761  27.686  1.00  0.00    -0.200 F 
ATOM     85  C   UNL A   1      50.724  26.207  25.382  1.00  0.00     0.200 A 
ATOM     86  F   UNL A   1      50.848  26.764  23.093  1.00  0.00    -0.200 F 
ATOM     87  F   UNL A   1      52.043  25.984  25.412  1.00  0.00    -0.200 F 
ENDBRANCH  63  77
BRANCH  64  88
ATOM     88  C   UNL A   1      45.073  24.426  32.908  1.00  0.00     0.064 A 
ATOM     89  C   UNL A   1      44.453  23.271  33.425  1.00  0.00     0.173 A 
ATOM     90  C   UNL A   1      46.332  24.746  33.449  1.00  0.00     0.173 A 
ATOM     91  F   UNL A   1      43.273  22.861  32.938  1.00  0.00    -0.203 F 
ATOM     92  C   UNL A   1      45.072  22.471  34.393  1.00  0.00     0.198 A 
ATOM     93  C   UNL A   1      46.946  23.949  34.419  1.00  0.00     0.198 A 
ATOM     94  F   UNL A   1      47.041  25.782  32.980  1.00  0.00    -0.203 F 
ATOM     95  F   UNL A   1      44.480  21.341  34.806  1.00  0.00    -0.200 F 
ATOM     96  C   UNL A   1      46.324  22.804  34.880  1.00  0.00     0.200 A 
ATOM     97  F   UNL A   1      48.174  24.264  34.855  1.00  0.00    -0.200 F 
ATOM     98  F   UNL A   1      46.948  22.004  35.755  1.00  0.00    -0.200 F 
ENDBRANCH  64  88
BRANCH  76  99
ATOM     99  C   UNL A   1      41.884  24.881  27.520  1.00  0.00     0.064 A 
ATOM    100  C   UNL A   1      41.105  25.746  28.308  1.00  0.00     0.173 A 
ATOM    101  C   UNL A   1      41.206  23.908  26.769  1.00  0.00     0.173 A 
ATOM    102  F   UNL A   1      41.662  26.763  28.981  1.00  0.00    -0.203 F 
ATOM    103  C   UNL A   1      39.717  25.609  28.372  1.00  0.00     0.198 A 
ATOM    104  C   UNL A   1      39.820  23.802  26.802  1.00  0.00     0.198 A 
ATOM    105  F   UNL A   1      41.893  23.083  25.964  1.00  0.00    -0.203 F 
ATOM    106  F   UNL A   1      38.994  26.433  29.144  1.00  0.00    -0.200 F 
ATOM    107  C   UNL A   1      39.077  24.643  27.611  1.00  0.00     0.200 A 
ATOM    108  F   UNL A   1      39.205  22.897  26.028  1.00  0.00    -0.200 F 
ATOM    109  F   UNL A   1      37.741  24.537  27.641  1.00  0.00    -0.200 F 
ENDBRANCH  76  99
ENDBRANCH  50  51
ENDBRANCH  43  45
ENDBRANCH  42  43
ENDBRANCH  41  42
ENDBRANCH  40  41
ENDBRANCH  39  40
ENDBRANCH  38  39
ENDBRANCH   1  38
TORSDOF 24
ENDMDL
