MODEL 1
REMARK VINA RESULT:      -9.8      0.000      0.000
REMARK SMILES CCCN1CCC[C@@]2(CCN(c3ccc(C(=O)OCCOCCOCCOCCOC(=O)c4ccc(-c5c6nc(c(-c7c(F)c(F)c(F)c(F)c7F)c7ccc([nH]7)c(-c7c(F)c(F)c(F)c(F)c7F)c7nc(c(-c8c(F)c(F)c(F)c(F)c8F)c8ccc5[nH]8)C=C7)C=C6)cc4)cn3)C2)C1=O
REMARK SMILES IDX 23 1 22 2 21 3 20 4 19 5 18 6 16 7 17 8 15 9 12 10 13 11
REMARK SMILES IDX 97 12 14 13 96 14 11 15 4 16 5 17 99 18 6 19 8 20 100 21
REMARK SMILES IDX 7 22 9 23 98 24 10 25 3 26 2 27 1 28 24 29 25 30 26 31 27 32
REMARK SMILES IDX 28 33 29 34 30 35 31 36 32 37 33 38 34 39 95 40 35 41 94 42
REMARK SMILES IDX 36 43 37 44 38 45 88 46 39 47 93 48 87 49 89 50 40 51 92 52
REMARK SMILES IDX 86 53 85 54 41 56 73 57 53 58 72 59 54 60 57 61 71 62 90 63
REMARK SMILES IDX 55 64 56 65 70 67 91 68 58 69 42 70 43 71 51 72 44 73 45 74
REMARK SMILES IDX 49 75 52 76 46 77 47 78 50 79 48 80 74 81 75 82 83 83 76 84
REMARK SMILES IDX 77 85 81 86 84 87 78 88 79 89 82 90 80 91 59 92 60 93 68 94
REMARK SMILES IDX 61 95 62 96 66 97 69 98 63 99 64 100 67 101 65 102
REMARK H PARENT 89 55 57 66
REMARK Flexibility Score: inf
ROOT
ATOM      1  C   UNL A   1      39.600  24.946  27.212  1.00  0.00     0.188 C 
ENDROOT
BRANCH   1   2
ATOM      2  C   UNL A   1      40.513  24.183  28.191  1.00  0.00     0.188 C 
BRANCH   2   3
ATOM      3  O   UNL A   1      41.123  23.046  27.603  1.00  0.00    -0.376 OA
BRANCH   3   4
ATOM      4  C   UNL A   1      40.419  21.821  27.542  1.00  0.00     0.202 C 
BRANCH   4   5
ATOM      5  C   UNL A   1      39.931  21.246  26.201  1.00  0.00     0.261 C 
BRANCH   5   6
ATOM      6  O   UNL A   1      38.687  21.734  25.693  1.00  0.00    -0.460 OA
BRANCH   6   7
ATOM      7  C   UNL A   1      37.908  20.884  24.991  1.00  0.00     0.339 C 
ATOM      8  O   UNL A   1      38.081  19.690  24.837  1.00  0.00    -0.246 OA
BRANCH   7   9
ATOM      9  C   UNL A   1      36.698  21.626  24.590  1.00  0.00     0.078 A 
ATOM     10  C   UNL A   1      34.348  22.946  23.970  1.00  0.00     0.128 A 
ATOM     11  C   UNL A   1      35.579  23.483  23.579  1.00  0.00     0.048 A 
ATOM     12  N   UNL A   1      34.284  21.819  24.709  1.00  0.00    -0.238 NA
ATOM     13  C   UNL A   1      36.764  22.831  23.900  1.00  0.00     0.021 A 
ATOM     14  C   UNL A   1      35.448  21.170  24.981  1.00  0.00     0.129 A 
BRANCH  10  15
ATOM     15  N   UNL A   1      33.194  23.531  23.491  1.00  0.00    -0.356 N 
ATOM     16  N   UNL A   1      32.050  27.056  25.449  1.00  0.00    -0.342 N 
ATOM     17  C   UNL A   1      30.730  26.970  26.056  1.00  0.00     0.119 C 
ATOM     18  C   UNL A   1      32.269  26.594  24.159  1.00  0.00     0.230 C 
ATOM     19  C   UNL A   1      30.034  25.649  25.773  1.00  0.00     0.023 C 
ATOM     20  C   UNL A   1      31.570  25.268  23.819  1.00  0.00     0.069 C 
ATOM     21  O   UNL A   1      33.050  27.151  23.390  1.00  0.00    -0.274 OA
ATOM     22  C   UNL A   1      30.108  25.318  24.280  1.00  0.00     0.021 C 
ATOM     23  C   UNL A   1      31.749  24.932  22.329  1.00  0.00     0.040 C 
ATOM     24  C   UNL A   1      32.314  24.103  24.511  1.00  0.00     0.135 C 
ATOM     25  C   UNL A   1      33.162  24.327  22.276  1.00  0.00     0.119 C 
BRANCH  16  26
ATOM     26  C   UNL A   1      33.065  27.893  26.090  1.00  0.00     0.119 C 
BRANCH  26  27
ATOM     27  C   UNL A   1      32.776  29.375  25.819  1.00  0.00     0.018 C 
ATOM     28  C   UNL A   1      32.090  30.083  26.983  1.00  0.00     0.006 C 
ENDBRANCH  26  27
ENDBRANCH  16  26
ENDBRANCH  10  15
ENDBRANCH   7   9
ENDBRANCH   6   7
ENDBRANCH   5   6
ENDBRANCH   4   5
ENDBRANCH   3   4
ENDBRANCH   2   3
ENDBRANCH   1   2
BRANCH   1  29
ATOM     29  O   UNL A   1      40.181  25.285  25.961  1.00  0.00    -0.377 OA
BRANCH  29  30
ATOM     30  C   UNL A   1      41.497  25.840  25.925  1.00  0.00     0.188 C 
BRANCH  30  31
ATOM     31  C   UNL A   1      42.676  25.192  25.155  1.00  0.00     0.188 C 
BRANCH  31  32
ATOM     32  O   UNL A   1      42.907  23.825  25.450  1.00  0.00    -0.376 OA
BRANCH  32  33
ATOM     33  C   UNL A   1      43.740  23.082  24.581  1.00  0.00     0.202 C 
BRANCH  33  34
ATOM     34  C   UNL A   1      45.204  22.932  25.013  1.00  0.00     0.261 C 
BRANCH  34  35
ATOM     35  O   UNL A   1      45.447  23.013  26.426  1.00  0.00    -0.460 OA
BRANCH  35  36
ATOM     36  C   UNL A   1      46.230  24.022  26.859  1.00  0.00     0.338 C 
ATOM     37  O   UNL A   1      47.388  24.249  26.549  1.00  0.00    -0.246 OA
BRANCH  36  38
ATOM     38  C   UNL A   1      45.381  24.933  27.651  1.00  0.00     0.060 A 
ATOM     39  C   UNL A   1      45.555  26.317  27.518  1.00  0.00     0.016 A 
ATOM     40  C   UNL A   1      44.409  24.418  28.512  1.00  0.00     0.016 A 
ATOM     41  C   UNL A   1      44.775  27.191  28.275  1.00  0.00     0.010 A 
ATOM     42  C   UNL A   1      43.644  25.294  29.283  1.00  0.00     0.010 A 
ATOM     43  C   UNL A   1      43.847  26.683  29.193  1.00  0.00    -0.014 A 
BRANCH  43  44
ATOM     44  C   UNL A   1      43.231  27.584  30.196  1.00  0.00     0.031 A 
ATOM     45  C   UNL A   1      43.869  27.682  31.553  1.00  0.00     0.074 A 
ATOM     46  C   UNL A   1      42.132  28.302  29.913  1.00  0.00     0.049 A 
ATOM     47  N   UNL A   1      43.485  28.349  32.611  1.00  0.00    -0.248 NA
ATOM     48  C   UNL A   1      45.107  26.911  31.742  1.00  0.00     0.031 C 
ATOM     49  C   UNL A   1      41.440  28.312  28.628  1.00  0.00     0.029 A 
ATOM     50  N   UNL A   1      41.395  29.148  30.704  1.00  0.00    -0.354 N 
ATOM     51  C   UNL A   1      44.426  28.069  33.593  1.00  0.00     0.074 A 
ATOM     52  C   UNL A   1      45.377  27.144  33.017  1.00  0.00     0.031 C 
ATOM     53  C   UNL A   1      40.360  29.107  28.724  1.00  0.00     0.029 A 
ATOM     54  C   UNL A   1      40.270  29.633  30.087  1.00  0.00     0.049 A 
ATOM     55  H   UNL A   1      41.651  29.385  31.625  1.00  0.00     0.167 HD
ATOM     56  C   UNL A   1      44.494  28.546  34.859  1.00  0.00     0.037 A 
ATOM     57  C   UNL A   1      39.266  30.386  30.577  1.00  0.00     0.037 A 
ATOM     58  C   UNL A   1      43.536  29.458  35.428  1.00  0.00     0.049 A 
ATOM     59  C   UNL A   1      39.325  30.859  32.008  1.00  0.00     0.074 A 
ATOM     60  C   UNL A   1      43.531  30.028  36.689  1.00  0.00     0.029 A 
ATOM     61  N   UNL A   1      42.400  29.917  34.777  1.00  0.00    -0.354 N 
ATOM     62  N   UNL A   1      40.239  30.628  32.920  1.00  0.00    -0.248 NA
ATOM     63  C   UNL A   1      38.217  31.704  32.474  1.00  0.00     0.031 C 
ATOM     64  C   UNL A   1      42.356  30.774  36.825  1.00  0.00     0.029 A 
ATOM     65  C   UNL A   1      41.665  30.733  35.624  1.00  0.00     0.049 A 
ATOM     66  H   UNL A   1      42.152  29.697  33.850  1.00  0.00     0.167 HD
ATOM     67  C   UNL A   1      39.829  31.314  34.058  1.00  0.00     0.074 A 
ATOM     68  C   UNL A   1      38.591  31.982  33.715  1.00  0.00     0.031 C 
ATOM     69  C   UNL A   1      40.427  31.386  35.274  1.00  0.00     0.037 A 
BRANCH  56  70
ATOM     70  C   UNL A   1      45.617  28.044  35.722  1.00  0.00     0.064 A 
ATOM     71  C   UNL A   1      46.843  28.720  35.818  1.00  0.00     0.173 A 
ATOM     72  C   UNL A   1      45.467  26.857  36.456  1.00  0.00     0.173 A 
ATOM     73  F   UNL A   1      47.047  29.852  35.127  1.00  0.00    -0.203 F 
ATOM     74  C   UNL A   1      47.891  28.203  36.576  1.00  0.00     0.198 A 
ATOM     75  C   UNL A   1      46.503  26.363  37.243  1.00  0.00     0.198 A 
ATOM     76  F   UNL A   1      44.315  26.171  36.406  1.00  0.00    -0.203 F 
ATOM     77  F   UNL A   1      49.076  28.827  36.593  1.00  0.00    -0.200 F 
ATOM     78  C   UNL A   1      47.718  27.028  37.292  1.00  0.00     0.200 A 
ATOM     79  F   UNL A   1      46.328  25.235  37.946  1.00  0.00    -0.200 F 
ATOM     80  F   UNL A   1      48.728  26.529  38.018  1.00  0.00    -0.200 F 
ENDBRANCH  56  70
BRANCH  57  81
ATOM     81  C   UNL A   1      38.110  30.718  29.705  1.00  0.00     0.064 A 
ATOM     82  C   UNL A   1      37.119  29.772  29.412  1.00  0.00     0.173 A 
ATOM     83  C   UNL A   1      37.966  32.004  29.159  1.00  0.00     0.173 A 
ATOM     84  F   UNL A   1      37.226  28.523  29.888  1.00  0.00    -0.203 F 
ATOM     85  C   UNL A   1      36.031  30.097  28.603  1.00  0.00     0.198 A 
ATOM     86  C   UNL A   1      36.863  32.336  28.377  1.00  0.00     0.198 A 
ATOM     87  F   UNL A   1      38.888  32.946  29.407  1.00  0.00    -0.203 F 
ATOM     88  F   UNL A   1      35.116  29.163  28.310  1.00  0.00    -0.200 F 
ATOM     89  C   UNL A   1      35.898  31.381  28.094  1.00  0.00     0.200 A 
ATOM     90  F   UNL A   1      36.732  33.581  27.900  1.00  0.00    -0.200 F 
ATOM     91  F   UNL A   1      34.844  31.696  27.331  1.00  0.00    -0.200 F 
ENDBRANCH  57  81
BRANCH  69  92
ATOM     92  C   UNL A   1      39.770  32.241  36.321  1.00  0.00     0.064 A 
ATOM     93  C   UNL A   1      40.193  33.554  36.580  1.00  0.00     0.173 A 
ATOM     94  C   UNL A   1      38.668  31.756  37.045  1.00  0.00     0.173 A 
ATOM     95  F   UNL A   1      41.248  34.064  35.927  1.00  0.00    -0.203 F 
ATOM     96  C   UNL A   1      39.557  34.337  37.542  1.00  0.00     0.198 A 
ATOM     97  C   UNL A   1      38.013  32.554  37.979  1.00  0.00     0.198 A 
ATOM     98  F   UNL A   1      38.214  30.511  36.832  1.00  0.00    -0.203 F 
ATOM     99  F   UNL A   1      40.012  35.570  37.807  1.00  0.00    -0.200 F 
ATOM    100  C   UNL A   1      38.462  33.839  38.233  1.00  0.00     0.200 A 
ATOM    101  F   UNL A   1      36.944  32.077  38.632  1.00  0.00    -0.200 F 
ATOM    102  F   UNL A   1      37.845  34.598  39.150  1.00  0.00    -0.200 F 
ENDBRANCH  69  92
ENDBRANCH  43  44
ENDBRANCH  36  38
ENDBRANCH  35  36
ENDBRANCH  34  35
ENDBRANCH  33  34
ENDBRANCH  32  33
ENDBRANCH  31  32
ENDBRANCH  30  31
ENDBRANCH  29  30
ENDBRANCH   1  29
TORSDOF 23
ENDMDL
MODEL 2
REMARK VINA RESULT:      -9.5      4.859     10.639
REMARK SMILES CCCN1CCC[C@@]2(CCN(c3ccc(C(=O)OCCOCCOCCOCCOC(=O)c4ccc(-c5c6nc(c(-c7c(F)c(F)c(F)c(F)c7F)c7ccc([nH]7)c(-c7c(F)c(F)c(F)c(F)c7F)c7nc(c(-c8c(F)c(F)c(F)c(F)c8F)c8ccc5[nH]8)C=C7)C=C6)cc4)cn3)C2)C1=O
REMARK SMILES IDX 23 1 22 2 21 3 20 4 19 5 18 6 16 7 17 8 15 9 12 10 13 11
REMARK SMILES IDX 97 12 14 13 96 14 11 15 4 16 5 17 99 18 6 19 8 20 100 21
REMARK SMILES IDX 7 22 9 23 98 24 10 25 3 26 2 27 1 28 24 29 25 30 26 31 27 32
REMARK SMILES IDX 28 33 29 34 30 35 31 36 32 37 33 38 34 39 95 40 35 41 94 42
REMARK SMILES IDX 36 43 37 44 38 45 88 46 39 47 93 48 87 49 89 50 40 51 92 52
REMARK SMILES IDX 86 53 85 54 41 56 73 57 53 58 72 59 54 60 57 61 71 62 90 63
REMARK SMILES IDX 55 64 56 65 70 67 91 68 58 69 42 70 43 71 51 72 44 73 45 74
REMARK SMILES IDX 49 75 52 76 46 77 47 78 50 79 48 80 74 81 75 82 83 83 76 84
REMARK SMILES IDX 77 85 81 86 84 87 78 88 79 89 82 90 80 91 59 92 60 93 68 94
REMARK SMILES IDX 61 95 62 96 66 97 69 98 63 99 64 100 67 101 65 102
REMARK H PARENT 89 55 57 66
REMARK Flexibility Score: inf
ROOT
ATOM      1  C   UNL A   1      35.648  33.974  29.245  1.00  0.00     0.188 C 
ENDROOT
BRANCH   1   2
ATOM      2  C   UNL A   1      34.313  33.342  28.805  1.00  0.00     0.188 C 
BRANCH   2   3
ATOM      3  O   UNL A   1      34.303  31.930  28.935  1.00  0.00    -0.376 OA
BRANCH   3   4
ATOM      4  C   UNL A   1      34.658  31.117  27.833  1.00  0.00     0.202 C 
BRANCH   4   5
ATOM      5  C   UNL A   1      35.776  30.067  27.943  1.00  0.00     0.261 C 
BRANCH   5   6
ATOM      6  O   UNL A   1      36.928  30.413  28.717  1.00  0.00    -0.460 OA
BRANCH   6   7
ATOM      7  C   UNL A   1      37.217  29.660  29.799  1.00  0.00     0.339 C 
ATOM      8  O   UNL A   1      36.456  29.338  30.692  1.00  0.00    -0.246 OA
BRANCH   7   9
ATOM      9  C   UNL A   1      38.585  29.139  29.618  1.00  0.00     0.078 A 
ATOM     10  C   UNL A   1      41.205  28.324  29.276  1.00  0.00     0.128 A 
ATOM     11  C   UNL A   1      40.281  27.475  29.892  1.00  0.00     0.048 A 
ATOM     12  N   UNL A   1      40.859  29.573  28.900  1.00  0.00    -0.238 NA
ATOM     13  C   UNL A   1      38.966  27.884  30.080  1.00  0.00     0.021 A 
ATOM     14  C   UNL A   1      39.560  29.946  29.051  1.00  0.00     0.129 A 
BRANCH  10  15
ATOM     15  N   UNL A   1      42.450  27.821  28.958  1.00  0.00    -0.356 N 
ATOM     16  N   UNL A   1      42.511  23.757  27.934  1.00  0.00    -0.342 N 
ATOM     17  C   UNL A   1      43.361  22.961  28.806  1.00  0.00     0.119 C 
ATOM     18  C   UNL A   1      42.951  24.974  27.433  1.00  0.00     0.230 C 
ATOM     19  C   UNL A   1      44.096  23.798  29.840  1.00  0.00     0.023 C 
ATOM     20  C   UNL A   1      43.716  25.849  28.437  1.00  0.00     0.069 C 
ATOM     21  O   UNL A   1      42.654  25.361  26.305  1.00  0.00    -0.274 OA
ATOM     22  C   UNL A   1      44.763  25.003  29.173  1.00  0.00     0.021 C 
ATOM     23  C   UNL A   1      44.291  27.093  27.740  1.00  0.00     0.040 C 
ATOM     24  C   UNL A   1      42.720  26.468  29.445  1.00  0.00     0.135 C 
ATOM     25  C   UNL A   1      43.082  28.042  27.668  1.00  0.00     0.119 C 
BRANCH  16  26
ATOM     26  C   UNL A   1      41.319  23.136  27.356  1.00  0.00     0.119 C 
BRANCH  26  27
ATOM     27  C   UNL A   1      41.271  21.646  27.719  1.00  0.00     0.018 C 
ATOM     28  C   UNL A   1      41.822  20.736  26.626  1.00  0.00     0.006 C 
ENDBRANCH  26  27
ENDBRANCH  16  26
ENDBRANCH  10  15
ENDBRANCH   7   9
ENDBRANCH   6   7
ENDBRANCH   5   6
ENDBRANCH   4   5
ENDBRANCH   3   4
ENDBRANCH   2   3
ENDBRANCH   1   2
BRANCH   1  29
ATOM     29  O   UNL A   1      36.121  33.589  30.528  1.00  0.00    -0.377 OA
BRANCH  29  30
ATOM     30  C   UNL A   1      35.302  33.819  31.675  1.00  0.00     0.188 C 
BRANCH  30  31
ATOM     31  C   UNL A   1      35.248  35.172  32.428  1.00  0.00     0.188 C 
BRANCH  31  32
ATOM     32  O   UNL A   1      36.021  35.232  33.614  1.00  0.00    -0.376 OA
BRANCH  32  33
ATOM     33  C   UNL A   1      37.036  34.265  33.804  1.00  0.00     0.202 C 
BRANCH  33  34
ATOM     34  C   UNL A   1      37.121  33.641  35.202  1.00  0.00     0.261 C 
BRANCH  34  35
ATOM     35  O   UNL A   1      37.011  32.210  35.253  1.00  0.00    -0.460 OA
BRANCH  35  36
ATOM     36  C   UNL A   1      37.958  31.544  35.945  1.00  0.00     0.338 C 
ATOM     37  O   UNL A   1      37.877  31.105  37.080  1.00  0.00    -0.246 OA
BRANCH  36  38
ATOM     38  C   UNL A   1      39.073  31.269  35.018  1.00  0.00     0.060 A 
ATOM     39  C   UNL A   1      38.847  30.457  33.899  1.00  0.00     0.016 A 
ATOM     40  C   UNL A   1      40.333  31.824  35.252  1.00  0.00     0.016 A 
ATOM     41  C   UNL A   1      39.896  30.170  33.026  1.00  0.00     0.010 A 
ATOM     42  C   UNL A   1      41.387  31.520  34.387  1.00  0.00     0.010 A 
ATOM     43  C   UNL A   1      41.180  30.664  33.289  1.00  0.00    -0.014 A 
BRANCH  43  44
ATOM     44  C   UNL A   1      42.344  30.134  32.540  1.00  0.00     0.031 A 
ATOM     45  C   UNL A   1      43.019  28.894  33.055  1.00  0.00     0.074 A 
ATOM     46  C   UNL A   1      42.793  30.734  31.426  1.00  0.00     0.049 A 
ATOM     47  N   UNL A   1      44.085  28.278  32.613  1.00  0.00    -0.248 NA
ATOM     48  C   UNL A   1      42.410  28.273  34.241  1.00  0.00     0.031 C 
ATOM     49  C   UNL A   1      42.207  31.923  30.814  1.00  0.00     0.029 A 
ATOM     50  N   UNL A   1      43.864  30.430  30.623  1.00  0.00    -0.354 N 
ATOM     51  C   UNL A   1      44.280  27.205  33.472  1.00  0.00     0.074 A 
ATOM     52  C   UNL A   1      43.246  27.275  34.481  1.00  0.00     0.031 C 
ATOM     53  C   UNL A   1      42.943  32.266  29.742  1.00  0.00     0.029 A 
ATOM     54  C   UNL A   1      44.068  31.338  29.616  1.00  0.00     0.049 A 
ATOM     55  H   UNL A   1      44.432  29.636  30.758  1.00  0.00     0.167 HD
ATOM     56  C   UNL A   1      45.233  26.243  33.419  1.00  0.00     0.037 A 
ATOM     57  C   UNL A   1      45.068  31.430  28.717  1.00  0.00     0.037 A 
ATOM     58  C   UNL A   1      46.266  26.186  32.418  1.00  0.00     0.049 A 
ATOM     59  C   UNL A   1      46.156  30.385  28.710  1.00  0.00     0.074 A 
ATOM     60  C   UNL A   1      47.258  25.236  32.255  1.00  0.00     0.029 A 
ATOM     61  N   UNL A   1      46.449  27.133  31.420  1.00  0.00    -0.354 N 
ATOM     62  N   UNL A   1      46.313  29.348  29.496  1.00  0.00    -0.248 NA
ATOM     63  C   UNL A   1      47.200  30.522  27.685  1.00  0.00     0.031 C 
ATOM     64  C   UNL A   1      48.084  25.646  31.202  1.00  0.00     0.029 A 
ATOM     65  C   UNL A   1      47.564  26.811  30.660  1.00  0.00     0.049 A 
ATOM     66  H   UNL A   1      45.873  27.917  31.272  1.00  0.00     0.167 HD
ATOM     67  C   UNL A   1      47.457  28.696  29.050  1.00  0.00     0.074 A 
ATOM     68  C   UNL A   1      47.946  29.449  27.913  1.00  0.00     0.031 C 
ATOM     69  C   UNL A   1      48.047  27.574  29.535  1.00  0.00     0.037 A 
BRANCH  56  70
ATOM     70  C   UNL A   1      45.224  25.209  34.509  1.00  0.00     0.064 A 
ATOM     71  C   UNL A   1      45.804  25.445  35.766  1.00  0.00     0.173 A 
ATOM     72  C   UNL A   1      44.636  23.954  34.288  1.00  0.00     0.173 A 
ATOM     73  F   UNL A   1      46.393  26.621  36.028  1.00  0.00    -0.203 F 
ATOM     74  C   UNL A   1      45.838  24.449  36.739  1.00  0.00     0.198 A 
ATOM     75  C   UNL A   1      44.638  22.974  35.277  1.00  0.00     0.198 A 
ATOM     76  F   UNL A   1      44.062  23.674  33.108  1.00  0.00    -0.203 F 
ATOM     77  F   UNL A   1      46.463  24.674  37.904  1.00  0.00    -0.200 F 
ATOM     78  C   UNL A   1      45.250  23.217  36.496  1.00  0.00     0.200 A 
ATOM     79  F   UNL A   1      44.055  21.789  35.045  1.00  0.00    -0.200 F 
ATOM     80  F   UNL A   1      45.287  22.259  37.432  1.00  0.00    -0.200 F 
ENDBRANCH  56  70
BRANCH  57  81
ATOM     81  C   UNL A   1      45.091  32.570  27.764  1.00  0.00     0.064 A 
ATOM     82  C   UNL A   1      45.770  33.758  28.062  1.00  0.00     0.173 A 
ATOM     83  C   UNL A   1      44.443  32.482  26.521  1.00  0.00     0.173 A 
ATOM     84  F   UNL A   1      46.381  33.901  29.247  1.00  0.00    -0.203 F 
ATOM     85  C   UNL A   1      45.797  34.818  27.156  1.00  0.00     0.198 A 
ATOM     86  C   UNL A   1      44.497  33.529  25.605  1.00  0.00     0.198 A 
ATOM     87  F   UNL A   1      43.777  31.367  26.188  1.00  0.00    -0.203 F 
ATOM     88  F   UNL A   1      46.424  35.957  27.480  1.00  0.00    -0.200 F 
ATOM     89  C   UNL A   1      45.170  34.699  25.924  1.00  0.00     0.200 A 
ATOM     90  F   UNL A   1      43.902  33.404  24.411  1.00  0.00    -0.200 F 
ATOM     91  F   UNL A   1      45.210  35.711  25.048  1.00  0.00    -0.200 F 
ENDBRANCH  57  81
BRANCH  69  92
ATOM     92  C   UNL A   1      49.271  27.069  28.824  1.00  0.00     0.064 A 
ATOM     93  C   UNL A   1      50.566  27.397  29.254  1.00  0.00     0.173 A 
ATOM     94  C   UNL A   1      49.147  26.206  27.723  1.00  0.00     0.173 A 
ATOM     95  F   UNL A   1      50.744  28.227  30.292  1.00  0.00    -0.203 F 
ATOM     96  C   UNL A   1      51.688  26.901  28.592  1.00  0.00     0.198 A 
ATOM     97  C   UNL A   1      50.271  25.685  27.087  1.00  0.00     0.198 A 
ATOM     98  F   UNL A   1      47.933  25.852  27.274  1.00  0.00    -0.203 F 
ATOM     99  F   UNL A   1      52.915  27.269  28.989  1.00  0.00    -0.200 F 
ATOM    100  C   UNL A   1      51.539  26.039  27.515  1.00  0.00     0.200 A 
ATOM    101  F   UNL A   1      50.123  24.838  26.059  1.00  0.00    -0.200 F 
ATOM    102  F   UNL A   1      52.620  25.556  26.887  1.00  0.00    -0.200 F 
ENDBRANCH  69  92
ENDBRANCH  43  44
ENDBRANCH  36  38
ENDBRANCH  35  36
ENDBRANCH  34  35
ENDBRANCH  33  34
ENDBRANCH  32  33
ENDBRANCH  31  32
ENDBRANCH  30  31
ENDBRANCH  29  30
ENDBRANCH   1  29
TORSDOF 23
ENDMDL
MODEL 3
REMARK VINA RESULT:      -9.5      4.809      9.173
REMARK SMILES CCCN1CCC[C@@]2(CCN(c3ccc(C(=O)OCCOCCOCCOCCOC(=O)c4ccc(-c5c6nc(c(-c7c(F)c(F)c(F)c(F)c7F)c7ccc([nH]7)c(-c7c(F)c(F)c(F)c(F)c7F)c7nc(c(-c8c(F)c(F)c(F)c(F)c8F)c8ccc5[nH]8)C=C7)C=C6)cc4)cn3)C2)C1=O
REMARK SMILES IDX 23 1 22 2 21 3 20 4 19 5 18 6 16 7 17 8 15 9 12 10 13 11
REMARK SMILES IDX 97 12 14 13 96 14 11 15 4 16 5 17 99 18 6 19 8 20 100 21
REMARK SMILES IDX 7 22 9 23 98 24 10 25 3 26 2 27 1 28 24 29 25 30 26 31 27 32
REMARK SMILES IDX 28 33 29 34 30 35 31 36 32 37 33 38 34 39 95 40 35 41 94 42
REMARK SMILES IDX 36 43 37 44 38 45 88 46 39 47 93 48 87 49 89 50 40 51 92 52
REMARK SMILES IDX 86 53 85 54 41 56 73 57 53 58 72 59 54 60 57 61 71 62 90 63
REMARK SMILES IDX 55 64 56 65 70 67 91 68 58 69 42 70 43 71 51 72 44 73 45 74
REMARK SMILES IDX 49 75 52 76 46 77 47 78 50 79 48 80 74 81 75 82 83 83 76 84
REMARK SMILES IDX 77 85 81 86 84 87 78 88 79 89 82 90 80 91 59 92 60 93 68 94
REMARK SMILES IDX 61 95 62 96 66 97 69 98 63 99 64 100 67 101 65 102
REMARK H PARENT 89 55 57 66
REMARK Flexibility Score: inf
ROOT
ATOM      1  C   UNL A   1      33.585  23.706  22.206  1.00  0.00     0.188 C 
ENDROOT
BRANCH   1   2
ATOM      2  C   UNL A   1      32.492  22.757  22.735  1.00  0.00     0.188 C 
BRANCH   2   3
ATOM      3  O   UNL A   1      32.824  21.389  22.567  1.00  0.00    -0.376 OA
BRANCH   3   4
ATOM      4  C   UNL A   1      32.192  20.406  23.364  1.00  0.00     0.202 C 
BRANCH   4   5
ATOM      5  C   UNL A   1      32.921  19.744  24.545  1.00  0.00     0.261 C 
BRANCH   5   6
ATOM      6  O   UNL A   1      33.918  20.517  25.217  1.00  0.00    -0.460 OA
BRANCH   6   7
ATOM      7  C   UNL A   1      33.592  21.090  26.395  1.00  0.00     0.339 C 
ATOM      8  O   UNL A   1      33.349  20.522  27.443  1.00  0.00    -0.246 OA
BRANCH   7   9
ATOM      9  C   UNL A   1      33.761  22.547  26.236  1.00  0.00     0.078 A 
ATOM     10  C   UNL A   1      33.912  25.296  25.979  1.00  0.00     0.128 A 
ATOM     11  C   UNL A   1      35.059  24.556  26.278  1.00  0.00     0.048 A 
ATOM     12  N   UNL A   1      32.706  24.700  25.878  1.00  0.00    -0.238 NA
ATOM     13  C   UNL A   1      34.987  23.174  26.422  1.00  0.00     0.021 A 
ATOM     14  C   UNL A   1      32.656  23.345  25.980  1.00  0.00     0.129 A 
BRANCH  10  15
ATOM     15  N   UNL A   1      34.054  26.636  25.681  1.00  0.00    -0.356 N 
ATOM     16  N   UNL A   1      30.781  28.369  23.716  1.00  0.00    -0.342 N 
ATOM     17  C   UNL A   1      31.125  28.925  22.416  1.00  0.00     0.119 C 
ATOM     18  C   UNL A   1      31.587  28.601  24.822  1.00  0.00     0.230 C 
ATOM     19  C   UNL A   1      32.609  28.822  22.102  1.00  0.00     0.023 C 
ATOM     20  C   UNL A   1      33.097  28.526  24.550  1.00  0.00     0.069 C 
ATOM     21  O   UNL A   1      31.120  28.748  25.949  1.00  0.00    -0.274 OA
ATOM     22  C   UNL A   1      33.439  29.324  23.286  1.00  0.00     0.021 C 
ATOM     23  C   UNL A   1      33.890  28.952  25.796  1.00  0.00     0.040 C 
ATOM     24  C   UNL A   1      33.516  27.047  24.383  1.00  0.00     0.135 C 
ATOM     25  C   UNL A   1      33.873  27.685  26.670  1.00  0.00     0.119 C 
BRANCH  16  26
ATOM     26  C   UNL A   1      29.440  27.816  23.912  1.00  0.00     0.119 C 
BRANCH  26  27
ATOM     27  C   UNL A   1      29.524  26.306  24.164  1.00  0.00     0.018 C 
ATOM     28  C   UNL A   1      30.444  25.577  23.192  1.00  0.00     0.006 C 
ENDBRANCH  26  27
ENDBRANCH  16  26
ENDBRANCH  10  15
ENDBRANCH   7   9
ENDBRANCH   6   7
ENDBRANCH   5   6
ENDBRANCH   4   5
ENDBRANCH   3   4
ENDBRANCH   2   3
ENDBRANCH   1   2
BRANCH   1  29
ATOM     29  O   UNL A   1      34.750  23.817  23.010  1.00  0.00    -0.377 OA
BRANCH  29  30
ATOM     30  C   UNL A   1      35.806  22.869  22.850  1.00  0.00     0.188 C 
BRANCH  30  31
ATOM     31  C   UNL A   1      37.025  22.781  23.803  1.00  0.00     0.188 C 
BRANCH  31  32
ATOM     32  O   UNL A   1      37.291  21.488  24.320  1.00  0.00    -0.376 OA
BRANCH  32  33
ATOM     33  C   UNL A   1      38.229  21.365  25.373  1.00  0.00     0.202 C 
BRANCH  33  34
ATOM     34  C   UNL A   1      38.979  20.030  25.456  1.00  0.00     0.261 C 
BRANCH  34  35
ATOM     35  O   UNL A   1      39.884  19.894  26.562  1.00  0.00    -0.460 OA
BRANCH  35  36
ATOM     36  C   UNL A   1      41.175  19.636  26.272  1.00  0.00     0.338 C 
ATOM     37  O   UNL A   1      41.634  18.628  25.759  1.00  0.00    -0.246 OA
BRANCH  36  38
ATOM     38  C   UNL A   1      41.942  20.872  26.520  1.00  0.00     0.060 A 
ATOM     39  C   UNL A   1      42.279  21.216  27.835  1.00  0.00     0.016 A 
ATOM     40  C   UNL A   1      42.336  21.681  25.450  1.00  0.00     0.016 A 
ATOM     41  C   UNL A   1      42.984  22.392  28.088  1.00  0.00     0.010 A 
ATOM     42  C   UNL A   1      43.025  22.868  25.707  1.00  0.00     0.010 A 
ATOM     43  C   UNL A   1      43.323  23.245  27.029  1.00  0.00    -0.014 A 
BRANCH  43  44
ATOM     44  C   UNL A   1      43.807  24.617  27.312  1.00  0.00     0.031 A 
ATOM     45  C   UNL A   1      42.819  25.635  27.807  1.00  0.00     0.074 A 
ATOM     46  C   UNL A   1      45.095  24.956  27.136  1.00  0.00     0.049 A 
ATOM     47  N   UNL A   1      42.987  26.907  28.064  1.00  0.00    -0.248 NA
ATOM     48  C   UNL A   1      41.450  25.149  28.033  1.00  0.00     0.031 C 
ATOM     49  C   UNL A   1      46.150  24.052  26.687  1.00  0.00     0.029 A 
ATOM     50  N   UNL A   1      45.726  26.164  27.298  1.00  0.00    -0.354 N 
ATOM     51  C   UNL A   1      41.744  27.373  28.470  1.00  0.00     0.074 A 
ATOM     52  C   UNL A   1      40.825  26.259  28.390  1.00  0.00     0.031 C 
ATOM     53  C   UNL A   1      47.298  24.745  26.584  1.00  0.00     0.029 A 
ATOM     54  C   UNL A   1      47.046  26.145  26.927  1.00  0.00     0.049 A 
ATOM     55  H   UNL A   1      45.274  26.966  27.646  1.00  0.00     0.167 HD
ATOM     56  C   UNL A   1      41.402  28.619  28.879  1.00  0.00     0.037 A 
ATOM     57  C   UNL A   1      47.940  27.151  26.843  1.00  0.00     0.037 A 
ATOM     58  C   UNL A   1      42.320  29.726  28.944  1.00  0.00     0.049 A 
ATOM     59  C   UNL A   1      47.527  28.545  27.244  1.00  0.00     0.074 A 
ATOM     60  C   UNL A   1      42.084  31.018  29.377  1.00  0.00     0.029 A 
ATOM     61  N   UNL A   1      43.649  29.673  28.548  1.00  0.00    -0.354 N 
ATOM     62  N   UNL A   1      46.363  28.974  27.669  1.00  0.00    -0.248 NA
ATOM     63  C   UNL A   1      48.555  29.591  27.160  1.00  0.00     0.031 C 
ATOM     64  C   UNL A   1      43.250  31.765  29.174  1.00  0.00     0.029 A 
ATOM     65  C   UNL A   1      44.236  30.921  28.688  1.00  0.00     0.049 A 
ATOM     66  H   UNL A   1      44.108  28.868  28.217  1.00  0.00     0.167 HD
ATOM     67  C   UNL A   1      46.522  30.331  27.924  1.00  0.00     0.074 A 
ATOM     68  C   UNL A   1      47.902  30.650  27.619  1.00  0.00     0.031 C 
ATOM     69  C   UNL A   1      45.610  31.230  28.372  1.00  0.00     0.037 A 
BRANCH  56  70
ATOM     70  C   UNL A   1      39.961  28.852  29.235  1.00  0.00     0.064 A 
ATOM     71  C   UNL A   1      39.481  28.692  30.544  1.00  0.00     0.173 A 
ATOM     72  C   UNL A   1      39.041  29.231  28.245  1.00  0.00     0.173 A 
ATOM     73  F   UNL A   1      40.313  28.318  31.528  1.00  0.00    -0.203 F 
ATOM     74  C   UNL A   1      38.129  28.854  30.838  1.00  0.00     0.198 A 
ATOM     75  C   UNL A   1      37.697  29.429  28.549  1.00  0.00     0.198 A 
ATOM     76  F   UNL A   1      39.444  29.404  26.977  1.00  0.00    -0.203 F 
ATOM     77  F   UNL A   1      37.683  28.623  32.080  1.00  0.00    -0.200 F 
ATOM     78  C   UNL A   1      37.240  29.228  29.842  1.00  0.00     0.200 A 
ATOM     79  F   UNL A   1      36.842  29.805  27.588  1.00  0.00    -0.200 F 
ATOM     80  F   UNL A   1      35.939  29.380  30.125  1.00  0.00    -0.200 F 
ENDBRANCH  56  70
BRANCH  57  81
ATOM     81  C   UNL A   1      49.309  26.871  26.336  1.00  0.00     0.064 A 
ATOM     82  C   UNL A   1      50.335  26.457  27.195  1.00  0.00     0.173 A 
ATOM     83  C   UNL A   1      49.611  26.997  24.970  1.00  0.00     0.173 A 
ATOM     84  F   UNL A   1      50.103  26.347  28.511  1.00  0.00    -0.203 F 
ATOM     85  C   UNL A   1      51.613  26.183  26.709  1.00  0.00     0.198 A 
ATOM     86  C   UNL A   1      50.879  26.695  24.482  1.00  0.00     0.198 A 
ATOM     87  F   UNL A   1      48.664  27.393  24.107  1.00  0.00    -0.203 F 
ATOM     88  F   UNL A   1      52.586  25.823  27.556  1.00  0.00    -0.200 F 
ATOM     89  C   UNL A   1      51.882  26.293  25.352  1.00  0.00     0.200 A 
ATOM     90  F   UNL A   1      51.129  26.788  23.169  1.00  0.00    -0.200 F 
ATOM     91  F   UNL A   1      53.105  26.015  24.884  1.00  0.00    -0.200 F 
ENDBRANCH  57  81
BRANCH  69  92
ATOM     92  C   UNL A   1      46.076  32.642  28.593  1.00  0.00     0.064 A 
ATOM     93  C   UNL A   1      45.971  33.622  27.595  1.00  0.00     0.173 A 
ATOM     94  C   UNL A   1      46.592  33.032  29.840  1.00  0.00     0.173 A 
ATOM     95  F   UNL A   1      45.496  33.303  26.381  1.00  0.00    -0.203 F 
ATOM     96  C   UNL A   1      46.391  34.931  27.827  1.00  0.00     0.198 A 
ATOM     97  C   UNL A   1      46.977  34.348  30.079  1.00  0.00     0.198 A 
ATOM     98  F   UNL A   1      46.707  32.139  30.834  1.00  0.00    -0.203 F 
ATOM     99  F   UNL A   1      46.328  35.837  26.842  1.00  0.00    -0.200 F 
ATOM    100  C   UNL A   1      46.885  35.294  29.071  1.00  0.00     0.200 A 
ATOM    101  F   UNL A   1      47.436  34.701  31.288  1.00  0.00    -0.200 F 
ATOM    102  F   UNL A   1      47.278  36.556  29.296  1.00  0.00    -0.200 F 
ENDBRANCH  69  92
ENDBRANCH  43  44
ENDBRANCH  36  38
ENDBRANCH  35  36
ENDBRANCH  34  35
ENDBRANCH  33  34
ENDBRANCH  32  33
ENDBRANCH  31  32
ENDBRANCH  30  31
ENDBRANCH  29  30
ENDBRANCH   1  29
TORSDOF 23
ENDMDL
