MODEL 1
REMARK VINA RESULT:     -10.0      0.000      0.000
REMARK SMILES [NH3+][C@@H](CCC1=c2ccccc2=[NH+]C1)C(=O)OCCOCCOCCOCCOC(=O)c1ccc(-c2c3nc(c(-c4c(F)c(F)c(F)c(F)c4F)c4ccc([nH]4)c(-c4c(F)c(F)c(F)c(F)c4F)c4nc(c(-c5c(F)c(F)c(F)c(F)c5F)c5ccc2[nH]5)C=C4)C=C3)cc1
REMARK SMILES IDX 21 1 20 2 19 3 18 4 17 5 16 6 14 7 15 8 2 9 1 10 3 14 4 15
REMARK SMILES IDX 5 16 6 17 13 18 7 19 11 20 12 21 8 22 10 23 9 25 22 26 23 27
REMARK SMILES IDX 24 28 25 29 26 30 27 31 28 32 29 33 30 34 31 35 32 36 93 37
REMARK SMILES IDX 33 38 92 39 34 40 35 41 36 42 86 43 37 44 91 45 85 46 87 47
REMARK SMILES IDX 38 48 90 49 84 50 83 51 39 53 71 54 51 55 70 56 52 57 55 58
REMARK SMILES IDX 69 59 88 60 53 61 54 62 68 64 89 65 56 66 40 67 41 68 49 69
REMARK SMILES IDX 42 70 43 71 47 72 50 73 44 74 45 75 48 76 46 77 72 78 73 79
REMARK SMILES IDX 81 80 74 81 75 82 79 83 82 84 76 85 77 86 80 87 78 88 57 89
REMARK SMILES IDX 58 90 66 91 59 92 60 93 64 94 67 95 61 96 62 97 65 98 63 99
REMARK H PARENT 1 11 1 12 1 13 12 24 87 52 55 63
REMARK Flexibility Score: inf
ROOT
ATOM      1  C   UNL A   1      32.442  30.732  26.897  1.00  0.00     0.188 C 
ENDROOT
BRANCH   1   2
ATOM      2  C   UNL A   1      32.459  29.946  25.575  1.00  0.00     0.188 C 
BRANCH   2   3
ATOM      3  O   UNL A   1      33.534  29.050  25.311  1.00  0.00    -0.376 OA
BRANCH   3   4
ATOM      4  C   UNL A   1      33.370  28.049  24.307  1.00  0.00     0.202 C 
BRANCH   4   5
ATOM      5  C   UNL A   1      33.336  26.575  24.717  1.00  0.00     0.261 C 
BRANCH   5   6
ATOM      6  O   UNL A   1      34.162  25.724  23.902  1.00  0.00    -0.459 OA
BRANCH   6   7
ATOM      7  C   UNL A   1      33.556  25.151  22.827  1.00  0.00     0.364 C 
ATOM      8  O   UNL A   1      33.715  25.515  21.666  1.00  0.00    -0.245 OA
BRANCH   7   9
ATOM      9  C   UNL A   1      32.585  24.015  23.194  1.00  0.00     0.292 C 
BRANCH   9  10
ATOM     10  N   UNL A   1      31.225  24.159  22.649  1.00  0.00    -0.346 N 
ATOM     11  H   UNL A   1      31.122  23.560  21.830  1.00  0.00     0.345 HD
ATOM     12  H   UNL A   1      31.066  25.130  22.382  1.00  0.00     0.345 HD
ATOM     13  H   UNL A   1      30.544  23.886  23.358  1.00  0.00     0.345 HD
ENDBRANCH   9  10
BRANCH   9  14
ATOM     14  C   UNL A   1      33.218  22.642  22.922  1.00  0.00     0.082 C 
BRANCH  14  15
ATOM     15  C   UNL A   1      32.286  21.422  22.905  1.00  0.00     0.045 C 
BRANCH  15  16
ATOM     16  C   UNL A   1      32.485  20.435  24.006  1.00  0.00     0.008 C 
ATOM     17  C   UNL A   1      32.678  19.125  23.892  1.00  0.00     0.051 A 
ATOM     18  C   UNL A   1      32.531  20.845  25.448  1.00  0.00     0.381 C 
ATOM     19  C   UNL A   1      32.813  18.227  22.796  1.00  0.00     0.015 A 
ATOM     20  C   UNL A   1      32.892  18.697  25.282  1.00  0.00     0.206 A 
ATOM     21  N   UNL A   1      32.786  19.597  26.211  1.00  0.00    -0.237 N 
ATOM     22  C   UNL A   1      33.242  16.983  23.048  1.00  0.00     0.001 A 
ATOM     23  C   UNL A   1      33.257  17.280  25.488  1.00  0.00     0.079 A 
ATOM     24  H   UNL A   1      32.856  19.479  27.186  1.00  0.00     0.446 HD
ATOM     25  C   UNL A   1      33.453  16.508  24.407  1.00  0.00     0.007 A 
ENDBRANCH  15  16
ENDBRANCH  14  15
ENDBRANCH   9  14
ENDBRANCH   7   9
ENDBRANCH   6   7
ENDBRANCH   5   6
ENDBRANCH   4   5
ENDBRANCH   3   4
ENDBRANCH   2   3
ENDBRANCH   1   2
BRANCH   1  26
ATOM     26  O   UNL A   1      33.614  30.570  27.680  1.00  0.00    -0.377 OA
BRANCH  26  27
ATOM     27  C   UNL A   1      34.478  31.702  27.747  1.00  0.00     0.188 C 
BRANCH  27  28
ATOM     28  C   UNL A   1      34.392  32.613  28.987  1.00  0.00     0.188 C 
BRANCH  28  29
ATOM     29  O   UNL A   1      33.362  33.590  28.901  1.00  0.00    -0.376 OA
BRANCH  29  30
ATOM     30  C   UNL A   1      33.753  34.956  28.949  1.00  0.00     0.202 C 
BRANCH  30  31
ATOM     31  C   UNL A   1      32.801  35.899  29.701  1.00  0.00     0.261 C 
BRANCH  31  32
ATOM     32  O   UNL A   1      33.162  36.247  31.052  1.00  0.00    -0.460 OA
BRANCH  32  33
ATOM     33  C   UNL A   1      32.840  35.401  32.053  1.00  0.00     0.338 C 
ATOM     34  O   UNL A   1      31.726  35.059  32.404  1.00  0.00    -0.246 OA
BRANCH  33  35
ATOM     35  C   UNL A   1      34.098  34.807  32.560  1.00  0.00     0.060 A 
ATOM     36  C   UNL A   1      34.073  33.629  33.312  1.00  0.00     0.016 A 
ATOM     37  C   UNL A   1      35.318  35.433  32.276  1.00  0.00     0.016 A 
ATOM     38  C   UNL A   1      35.273  33.060  33.749  1.00  0.00     0.010 A 
ATOM     39  C   UNL A   1      36.517  34.868  32.725  1.00  0.00     0.010 A 
ATOM     40  C   UNL A   1      36.506  33.662  33.444  1.00  0.00    -0.014 A 
BRANCH  40  41
ATOM     41  C   UNL A   1      37.777  32.953  33.757  1.00  0.00     0.031 A 
ATOM     42  C   UNL A   1      38.542  33.191  35.025  1.00  0.00     0.074 A 
ATOM     43  C   UNL A   1      38.237  32.056  32.869  1.00  0.00     0.049 A 
ATOM     44  N   UNL A   1      39.659  32.669  35.463  1.00  0.00    -0.248 NA
ATOM     45  C   UNL A   1      37.956  34.169  35.932  1.00  0.00     0.031 C 
ATOM     46  C   UNL A   1      37.588  31.717  31.605  1.00  0.00     0.029 A 
ATOM     47  N   UNL A   1      39.349  31.259  32.908  1.00  0.00    -0.354 N 
ATOM     48  C   UNL A   1      39.895  33.258  36.704  1.00  0.00     0.074 A 
ATOM     49  C   UNL A   1      38.831  34.211  36.926  1.00  0.00     0.031 C 
ATOM     50  C   UNL A   1      38.304  30.761  30.995  1.00  0.00     0.029 A 
ATOM     51  C   UNL A   1      39.471  30.444  31.813  1.00  0.00     0.049 A 
ATOM     52  H   UNL A   1      39.997  31.270  33.649  1.00  0.00     0.167 HD
ATOM     53  C   UNL A   1      40.891  33.005  37.586  1.00  0.00     0.037 A 
ATOM     54  C   UNL A   1      40.421  29.542  31.512  1.00  0.00     0.037 A 
ATOM     55  C   UNL A   1      41.938  32.043  37.358  1.00  0.00     0.049 A 
ATOM     56  C   UNL A   1      41.544  29.304  32.486  1.00  0.00     0.074 A 
ATOM     57  C   UNL A   1      43.003  31.708  38.177  1.00  0.00     0.029 A 
ATOM     58  N   UNL A   1      42.039  31.250  36.225  1.00  0.00    -0.354 N 
ATOM     59  N   UNL A   1      41.754  29.847  33.661  1.00  0.00    -0.248 NA
ATOM     60  C   UNL A   1      42.554  28.315  32.092  1.00  0.00     0.031 C 
ATOM     61  C   UNL A   1      43.766  30.734  37.524  1.00  0.00     0.029 A 
ATOM     62  C   UNL A   1      43.149  30.428  36.323  1.00  0.00     0.049 A 
ATOM     63  H   UNL A   1      41.415  31.269  35.465  1.00  0.00     0.167 HD
ATOM     64  C   UNL A   1      42.898  29.238  34.161  1.00  0.00     0.074 A 
ATOM     65  C   UNL A   1      43.325  28.274  33.168  1.00  0.00     0.031 C 
ATOM     66  C   UNL A   1      43.541  29.459  35.334  1.00  0.00     0.037 A 
BRANCH  53  67
ATOM     67  C   UNL A   1      40.896  33.742  38.897  1.00  0.00     0.064 A 
ATOM     68  C   UNL A   1      41.699  34.875  39.089  1.00  0.00     0.173 A 
ATOM     69  C   UNL A   1      40.004  33.392  39.923  1.00  0.00     0.173 A 
ATOM     70  F   UNL A   1      42.574  35.250  38.143  1.00  0.00    -0.203 F 
ATOM     71  C   UNL A   1      41.611  35.631  40.256  1.00  0.00     0.198 A 
ATOM     72  C   UNL A   1      39.899  34.164  41.079  1.00  0.00     0.198 A 
ATOM     73  F   UNL A   1      39.204  32.323  39.789  1.00  0.00    -0.203 F 
ATOM     74  F   UNL A   1      42.397  36.703  40.420  1.00  0.00    -0.200 F 
ATOM     75  C   UNL A   1      40.700  35.283  41.243  1.00  0.00     0.200 A 
ATOM     76  F   UNL A   1      39.003  33.840  42.022  1.00  0.00    -0.200 F 
ATOM     77  F   UNL A   1      40.590  36.033  42.349  1.00  0.00    -0.200 F 
ENDBRANCH  53  67
BRANCH  54  78
ATOM     78  C   UNL A   1      40.321  28.768  30.251  1.00  0.00     0.064 A 
ATOM     79  C   UNL A   1      39.624  27.552  30.212  1.00  0.00     0.173 A 
ATOM     80  C   UNL A   1      40.907  29.227  29.063  1.00  0.00     0.173 A 
ATOM     81  F   UNL A   1      39.057  27.069  31.327  1.00  0.00    -0.203 F 
ATOM     82  C   UNL A   1      39.539  26.812  29.035  1.00  0.00     0.198 A 
ATOM     83  C   UNL A   1      40.793  28.501  27.880  1.00  0.00     0.198 A 
ATOM     84  F   UNL A   1      41.574  30.390  29.048  1.00  0.00    -0.203 F 
ATOM     85  F   UNL A   1      38.908  25.631  29.037  1.00  0.00    -0.200 F 
ATOM     86  C   UNL A   1      40.118  27.290  27.870  1.00  0.00     0.200 A 
ATOM     87  F   UNL A   1      41.337  28.976  26.751  1.00  0.00    -0.200 F 
ATOM     88  F   UNL A   1      40.030  26.579  26.738  1.00  0.00    -0.200 F 
ENDBRANCH  54  78
BRANCH  66  89
ATOM     89  C   UNL A   1      44.745  28.616  35.631  1.00  0.00     0.064 A 
ATOM     90  C   UNL A   1      46.035  29.020  35.260  1.00  0.00     0.173 A 
ATOM     91  C   UNL A   1      44.610  27.411  36.338  1.00  0.00     0.173 A 
ATOM     92  F   UNL A   1      46.215  30.159  34.575  1.00  0.00    -0.203 F 
ATOM     93  C   UNL A   1      47.144  28.234  35.558  1.00  0.00     0.198 A 
ATOM     94  C   UNL A   1      45.725  26.642  36.661  1.00  0.00     0.198 A 
ATOM     95  F   UNL A   1      43.399  26.985  36.726  1.00  0.00    -0.203 F 
ATOM     96  F   UNL A   1      48.362  28.615  35.149  1.00  0.00    -0.200 F 
ATOM     97  C   UNL A   1      46.989  27.050  36.265  1.00  0.00     0.200 A 
ATOM     98  F   UNL A   1      45.574  25.508  37.359  1.00  0.00    -0.200 F 
ATOM     99  F   UNL A   1      48.059  26.297  36.557  1.00  0.00    -0.200 F 
ENDBRANCH  66  89
ENDBRANCH  40  41
ENDBRANCH  33  35
ENDBRANCH  32  33
ENDBRANCH  31  32
ENDBRANCH  30  31
ENDBRANCH  29  30
ENDBRANCH  28  29
ENDBRANCH  27  28
ENDBRANCH  26  27
ENDBRANCH   1  26
TORSDOF 24
ENDMDL
MODEL 2
REMARK VINA RESULT:     -10.0      1.922      3.107
REMARK SMILES [NH3+][C@@H](CCC1=c2ccccc2=[NH+]C1)C(=O)OCCOCCOCCOCCOC(=O)c1ccc(-c2c3nc(c(-c4c(F)c(F)c(F)c(F)c4F)c4ccc([nH]4)c(-c4c(F)c(F)c(F)c(F)c4F)c4nc(c(-c5c(F)c(F)c(F)c(F)c5F)c5ccc2[nH]5)C=C4)C=C3)cc1
REMARK SMILES IDX 21 1 20 2 19 3 18 4 17 5 16 6 14 7 15 8 2 9 1 10 3 14 4 15
REMARK SMILES IDX 5 16 6 17 13 18 7 19 11 20 12 21 8 22 10 23 9 25 22 26 23 27
REMARK SMILES IDX 24 28 25 29 26 30 27 31 28 32 29 33 30 34 31 35 32 36 93 37
REMARK SMILES IDX 33 38 92 39 34 40 35 41 36 42 86 43 37 44 91 45 85 46 87 47
REMARK SMILES IDX 38 48 90 49 84 50 83 51 39 53 71 54 51 55 70 56 52 57 55 58
REMARK SMILES IDX 69 59 88 60 53 61 54 62 68 64 89 65 56 66 40 67 41 68 49 69
REMARK SMILES IDX 42 70 43 71 47 72 50 73 44 74 45 75 48 76 46 77 72 78 73 79
REMARK SMILES IDX 81 80 74 81 75 82 79 83 82 84 76 85 77 86 80 87 78 88 57 89
REMARK SMILES IDX 58 90 66 91 59 92 60 93 64 94 67 95 61 96 62 97 65 98 63 99
REMARK H PARENT 1 11 1 12 1 13 12 24 87 52 55 63
REMARK Flexibility Score: inf
ROOT
ATOM      1  C   UNL A   1      33.959  28.189  23.373  1.00  0.00     0.188 C 
ENDROOT
BRANCH   1   2
ATOM      2  C   UNL A   1      33.492  26.881  24.035  1.00  0.00     0.188 C 
BRANCH   2   3
ATOM      3  O   UNL A   1      32.680  25.977  23.294  1.00  0.00    -0.376 OA
BRANCH   3   4
ATOM      4  C   UNL A   1      31.268  25.983  23.503  1.00  0.00     0.202 C 
BRANCH   4   5
ATOM      5  C   UNL A   1      30.651  24.968  24.469  1.00  0.00     0.261 C 
BRANCH   5   6
ATOM      6  O   UNL A   1      31.336  24.873  25.731  1.00  0.00    -0.459 OA
BRANCH   6   7
ATOM      7  C   UNL A   1      31.004  23.811  26.515  1.00  0.00     0.364 C 
ATOM      8  O   UNL A   1      30.027  23.775  27.256  1.00  0.00    -0.245 OA
BRANCH   7   9
ATOM      9  C   UNL A   1      32.007  22.647  26.439  1.00  0.00     0.292 C 
BRANCH   9  10
ATOM     10  N   UNL A   1      32.619  22.268  27.724  1.00  0.00    -0.346 N 
ATOM     11  H   UNL A   1      33.564  22.647  27.775  1.00  0.00     0.345 HD
ATOM     12  H   UNL A   1      32.655  21.252  27.797  1.00  0.00     0.345 HD
ATOM     13  H   UNL A   1      32.060  22.643  28.490  1.00  0.00     0.345 HD
ENDBRANCH   9  10
BRANCH   9  14
ATOM     14  C   UNL A   1      31.415  21.461  25.663  1.00  0.00     0.082 C 
BRANCH  14  15
ATOM     15  C   UNL A   1      32.237  20.895  24.496  1.00  0.00     0.045 C 
BRANCH  15  16
ATOM     16  C   UNL A   1      33.322  21.777  23.974  1.00  0.00     0.008 C 
ATOM     17  C   UNL A   1      34.590  21.818  24.370  1.00  0.00     0.051 A 
ATOM     18  C   UNL A   1      33.094  22.743  22.850  1.00  0.00     0.381 C 
ATOM     19  C   UNL A   1      35.367  21.087  25.312  1.00  0.00     0.015 A 
ATOM     20  C   UNL A   1      35.192  22.798  23.455  1.00  0.00     0.206 A 
ATOM     21  N   UNL A   1      34.410  23.387  22.604  1.00  0.00    -0.237 N 
ATOM     22  C   UNL A   1      36.697  21.237  25.286  1.00  0.00     0.001 A 
ATOM     23  C   UNL A   1      36.654  22.988  23.562  1.00  0.00     0.079 A 
ATOM     24  H   UNL A   1      34.634  24.091  21.953  1.00  0.00     0.446 HD
ATOM     25  C   UNL A   1      37.340  22.206  24.410  1.00  0.00     0.007 A 
ENDBRANCH  15  16
ENDBRANCH  14  15
ENDBRANCH   9  14
ENDBRANCH   7   9
ENDBRANCH   6   7
ENDBRANCH   5   6
ENDBRANCH   4   5
ENDBRANCH   3   4
ENDBRANCH   2   3
ENDBRANCH   1   2
BRANCH   1  26
ATOM     26  O   UNL A   1      33.269  29.343  23.824  1.00  0.00    -0.377 OA
BRANCH  26  27
ATOM     27  C   UNL A   1      33.065  29.433  25.232  1.00  0.00     0.188 C 
BRANCH  27  28
ATOM     28  C   UNL A   1      31.666  29.830  25.744  1.00  0.00     0.188 C 
BRANCH  28  29
ATOM     29  O   UNL A   1      31.702  30.677  26.886  1.00  0.00    -0.376 OA
BRANCH  29  30
ATOM     30  C   UNL A   1      32.939  31.307  27.192  1.00  0.00     0.202 C 
BRANCH  30  31
ATOM     31  C   UNL A   1      32.962  32.838  27.058  1.00  0.00     0.261 C 
BRANCH  31  32
ATOM     32  O   UNL A   1      32.378  33.594  28.135  1.00  0.00    -0.460 OA
BRANCH  32  33
ATOM     33  C   UNL A   1      33.059  34.643  28.643  1.00  0.00     0.338 C 
ATOM     34  O   UNL A   1      32.718  35.812  28.653  1.00  0.00    -0.246 OA
BRANCH  33  35
ATOM     35  C   UNL A   1      34.240  34.108  29.358  1.00  0.00     0.060 A 
ATOM     36  C   UNL A   1      34.078  33.270  30.465  1.00  0.00     0.016 A 
ATOM     37  C   UNL A   1      35.524  34.446  28.914  1.00  0.00     0.016 A 
ATOM     38  C   UNL A   1      35.204  32.741  31.104  1.00  0.00     0.010 A 
ATOM     39  C   UNL A   1      36.649  33.925  29.564  1.00  0.00     0.010 A 
ATOM     40  C   UNL A   1      36.498  33.047  30.649  1.00  0.00    -0.014 A 
BRANCH  40  41
ATOM     41  C   UNL A   1      37.675  32.337  31.221  1.00  0.00     0.031 A 
ATOM     42  C   UNL A   1      38.198  32.624  32.597  1.00  0.00     0.074 A 
ATOM     43  C   UNL A   1      38.271  31.394  30.473  1.00  0.00     0.049 A 
ATOM     44  N   UNL A   1      39.204  32.108  33.256  1.00  0.00    -0.248 NA
ATOM     45  C   UNL A   1      37.476  33.650  33.338  1.00  0.00     0.031 C 
ATOM     46  C   UNL A   1      37.859  31.006  29.127  1.00  0.00     0.029 A 
ATOM     47  N   UNL A   1      39.340  30.586  30.751  1.00  0.00    -0.354 N 
ATOM     48  C   UNL A   1      39.220  32.751  34.492  1.00  0.00     0.074 A 
ATOM     49  C   UNL A   1      38.154  33.726  34.473  1.00  0.00     0.031 C 
ATOM     50  C   UNL A   1      38.654  30.013  28.701  1.00  0.00     0.029 A 
ATOM     51  C   UNL A   1      39.643  29.720  29.733  1.00  0.00     0.049 A 
ATOM     52  H   UNL A   1      39.840  30.623  31.598  1.00  0.00     0.167 HD
ATOM     53  C   UNL A   1      40.031  32.525  35.554  1.00  0.00     0.037 A 
ATOM     54  C   UNL A   1      40.614  28.793  29.652  1.00  0.00     0.037 A 
ATOM     55  C   UNL A   1      41.082  31.541  35.564  1.00  0.00     0.049 A 
ATOM     56  C   UNL A   1      41.533  28.586  30.825  1.00  0.00     0.074 A 
ATOM     57  C   UNL A   1      41.972  31.231  36.579  1.00  0.00     0.029 A 
ATOM     58  N   UNL A   1      41.373  30.695  34.505  1.00  0.00    -0.354 N 
ATOM     59  N   UNL A   1      41.535  29.179  31.994  1.00  0.00    -0.248 NA
ATOM     60  C   UNL A   1      42.578  27.566  30.668  1.00  0.00     0.031 C 
ATOM     61  C   UNL A   1      42.820  30.218  36.121  1.00  0.00     0.029 A 
ATOM     62  C   UNL A   1      42.428  29.865  34.841  1.00  0.00     0.049 A 
ATOM     63  H   UNL A   1      40.900  30.687  33.642  1.00  0.00     0.167 HD
ATOM     64  C   UNL A   1      42.554  28.580  32.723  1.00  0.00     0.074 A 
ATOM     65  C   UNL A   1      43.137  27.566  31.869  1.00  0.00     0.031 C 
ATOM     66  C   UNL A   1      42.975  28.847  33.984  1.00  0.00     0.037 A 
BRANCH  53  67
ATOM     67  C   UNL A   1      39.811  33.322  36.810  1.00  0.00     0.064 A 
ATOM     68  C   UNL A   1      40.510  34.516  37.045  1.00  0.00     0.173 A 
ATOM     69  C   UNL A   1      38.809  32.961  37.725  1.00  0.00     0.173 A 
ATOM     70  F   UNL A   1      41.481  34.904  36.206  1.00  0.00    -0.203 F 
ATOM     71  C   UNL A   1      40.215  35.317  38.145  1.00  0.00     0.198 A 
ATOM     72  C   UNL A   1      38.499  33.778  38.811  1.00  0.00     0.198 A 
ATOM     73  F   UNL A   1      38.101  31.835  37.544  1.00  0.00    -0.203 F 
ATOM     74  F   UNL A   1      40.904  36.447  38.353  1.00  0.00    -0.200 F 
ATOM     75  C   UNL A   1      39.200  34.955  39.019  1.00  0.00     0.200 A 
ATOM     76  F   UNL A   1      37.503  33.438  39.642  1.00  0.00    -0.200 F 
ATOM     77  F   UNL A   1      38.893  35.747  40.056  1.00  0.00    -0.200 F 
ENDBRANCH  53  67
BRANCH  54  78
ATOM     78  C   UNL A   1      40.731  27.963  28.428  1.00  0.00     0.064 A 
ATOM     79  C   UNL A   1      40.103  26.712  28.350  1.00  0.00     0.173 A 
ATOM     80  C   UNL A   1      41.461  28.401  27.315  1.00  0.00     0.173 A 
ATOM     81  F   UNL A   1      39.404  26.247  29.396  1.00  0.00    -0.203 F 
ATOM     82  C   UNL A   1      40.221  25.920  27.211  1.00  0.00     0.198 A 
ATOM     83  C   UNL A   1      41.551  27.622  26.164  1.00  0.00     0.198 A 
ATOM     84  F   UNL A   1      42.069  29.595  27.337  1.00  0.00    -0.203 F 
ATOM     85  F   UNL A   1      39.650  24.709  27.181  1.00  0.00    -0.200 F 
ATOM     86  C   UNL A   1      40.939  26.378  26.117  1.00  0.00     0.200 A 
ATOM     87  F   UNL A   1      42.229  28.076  25.102  1.00  0.00    -0.200 F 
ATOM     88  F   UNL A   1      41.048  25.617  25.020  1.00  0.00    -0.200 F 
ENDBRANCH  54  78
BRANCH  66  89
ATOM     89  C   UNL A   1      44.087  28.002  34.535  1.00  0.00     0.064 A 
ATOM     90  C   UNL A   1      45.420  28.433  34.505  1.00  0.00     0.173 A 
ATOM     91  C   UNL A   1      43.806  26.768  35.141  1.00  0.00     0.173 A 
ATOM     92  F   UNL A   1      45.740  29.600  33.927  1.00  0.00    -0.203 F 
ATOM     93  C   UNL A   1      46.437  27.645  35.035  1.00  0.00     0.198 A 
ATOM     94  C   UNL A   1      44.822  25.997  35.698  1.00  0.00     0.198 A 
ATOM     95  F   UNL A   1      42.544  26.317  35.206  1.00  0.00    -0.203 F 
ATOM     96  F   UNL A   1      47.711  28.052  34.950  1.00  0.00    -0.200 F 
ATOM     97  C   UNL A   1      46.136  26.431  35.638  1.00  0.00     0.200 A 
ATOM     98  F   UNL A   1      44.527  24.834  36.296  1.00  0.00    -0.200 F 
ATOM     99  F   UNL A   1      47.117  25.677  36.153  1.00  0.00    -0.200 F 
ENDBRANCH  66  89
ENDBRANCH  40  41
ENDBRANCH  33  35
ENDBRANCH  32  33
ENDBRANCH  31  32
ENDBRANCH  30  31
ENDBRANCH  29  30
ENDBRANCH  28  29
ENDBRANCH  27  28
ENDBRANCH  26  27
ENDBRANCH   1  26
TORSDOF 24
ENDMDL
MODEL 3
REMARK VINA RESULT:      -9.8      5.233     10.239
REMARK SMILES [NH3+][C@@H](CCC1=c2ccccc2=[NH+]C1)C(=O)OCCOCCOCCOCCOC(=O)c1ccc(-c2c3nc(c(-c4c(F)c(F)c(F)c(F)c4F)c4ccc([nH]4)c(-c4c(F)c(F)c(F)c(F)c4F)c4nc(c(-c5c(F)c(F)c(F)c(F)c5F)c5ccc2[nH]5)C=C4)C=C3)cc1
REMARK SMILES IDX 21 1 20 2 19 3 18 4 17 5 16 6 14 7 15 8 2 9 1 10 3 14 4 15
REMARK SMILES IDX 5 16 6 17 13 18 7 19 11 20 12 21 8 22 10 23 9 25 22 26 23 27
REMARK SMILES IDX 24 28 25 29 26 30 27 31 28 32 29 33 30 34 31 35 32 36 93 37
REMARK SMILES IDX 33 38 92 39 34 40 35 41 36 42 86 43 37 44 91 45 85 46 87 47
REMARK SMILES IDX 38 48 90 49 84 50 83 51 39 53 71 54 51 55 70 56 52 57 55 58
REMARK SMILES IDX 69 59 88 60 53 61 54 62 68 64 89 65 56 66 40 67 41 68 49 69
REMARK SMILES IDX 42 70 43 71 47 72 50 73 44 74 45 75 48 76 46 77 72 78 73 79
REMARK SMILES IDX 81 80 74 81 75 82 79 83 82 84 76 85 77 86 80 87 78 88 57 89
REMARK SMILES IDX 58 90 66 91 59 92 60 93 64 94 67 95 61 96 62 97 65 98 63 99
REMARK H PARENT 1 11 1 12 1 13 12 24 87 52 55 63
REMARK Flexibility Score: inf
ROOT
ATOM      1  C   UNL A   1      33.106  17.058  25.500  1.00  0.00     0.188 C 
ENDROOT
BRANCH   1   2
ATOM      2  C   UNL A   1      32.351  17.978  24.525  1.00  0.00     0.188 C 
BRANCH   2   3
ATOM      3  O   UNL A   1      32.147  19.344  24.872  1.00  0.00    -0.376 OA
BRANCH   3   4
ATOM      4  C   UNL A   1      32.477  20.356  23.922  1.00  0.00     0.202 C 
BRANCH   4   5
ATOM      5  C   UNL A   1      32.852  21.755  24.419  1.00  0.00     0.261 C 
BRANCH   5   6
ATOM      6  O   UNL A   1      33.374  22.618  23.392  1.00  0.00    -0.459 OA
BRANCH   6   7
ATOM      7  C   UNL A   1      32.536  23.590  22.941  1.00  0.00     0.364 C 
ATOM      8  O   UNL A   1      31.322  23.596  23.119  1.00  0.00    -0.245 OA
BRANCH   7   9
ATOM      9  C   UNL A   1      33.239  24.686  22.121  1.00  0.00     0.292 C 
BRANCH   9  10
ATOM     10  N   UNL A   1      32.528  25.104  20.902  1.00  0.00    -0.346 N 
ATOM     11  H   UNL A   1      33.111  24.914  20.087  1.00  0.00     0.345 HD
ATOM     12  H   UNL A   1      32.327  26.103  20.951  1.00  0.00     0.345 HD
ATOM     13  H   UNL A   1      31.653  24.585  20.824  1.00  0.00     0.345 HD
ENDBRANCH   9  10
BRANCH   9  14
ATOM     14  C   UNL A   1      33.666  25.856  23.020  1.00  0.00     0.082 C 
BRANCH  14  15
ATOM     15  C   UNL A   1      33.950  25.550  24.498  1.00  0.00     0.045 C 
BRANCH  15  16
ATOM     16  C   UNL A   1      33.025  26.180  25.484  1.00  0.00     0.008 C 
ATOM     17  C   UNL A   1      33.127  27.387  26.031  1.00  0.00     0.051 A 
ATOM     18  C   UNL A   1      31.782  25.493  25.965  1.00  0.00     0.381 C 
ATOM     19  C   UNL A   1      34.029  28.478  25.881  1.00  0.00     0.015 A 
ATOM     20  C   UNL A   1      31.906  27.489  26.843  1.00  0.00     0.206 A 
ATOM     21  N   UNL A   1      31.125  26.454  26.888  1.00  0.00    -0.237 N 
ATOM     22  C   UNL A   1      33.691  29.655  26.424  1.00  0.00     0.001 A 
ATOM     23  C   UNL A   1      31.659  28.789  27.502  1.00  0.00     0.079 A 
ATOM     24  H   UNL A   1      30.298  26.335  27.408  1.00  0.00     0.446 HD
ATOM     25  C   UNL A   1      32.502  29.803  27.250  1.00  0.00     0.007 A 
ENDBRANCH  15  16
ENDBRANCH  14  15
ENDBRANCH   9  14
ENDBRANCH   7   9
ENDBRANCH   6   7
ENDBRANCH   5   6
ENDBRANCH   4   5
ENDBRANCH   3   4
ENDBRANCH   2   3
ENDBRANCH   1   2
BRANCH   1  26
ATOM     26  O   UNL A   1      34.417  16.721  25.077  1.00  0.00    -0.377 OA
BRANCH  26  27
ATOM     27  C   UNL A   1      35.073  17.686  24.258  1.00  0.00     0.188 C 
BRANCH  27  28
ATOM     28  C   UNL A   1      36.176  18.555  24.893  1.00  0.00     0.188 C 
BRANCH  28  29
ATOM     29  O   UNL A   1      35.767  19.893  25.145  1.00  0.00    -0.376 OA
BRANCH  29  30
ATOM     30  C   UNL A   1      36.591  20.934  24.636  1.00  0.00     0.202 C 
BRANCH  30  31
ATOM     31  C   UNL A   1      36.822  22.126  25.578  1.00  0.00     0.261 C 
BRANCH  31  32
ATOM     32  O   UNL A   1      38.046  22.865  25.403  1.00  0.00    -0.460 OA
BRANCH  32  33
ATOM     33  C   UNL A   1      39.029  22.730  26.318  1.00  0.00     0.338 C 
ATOM     34  O   UNL A   1      39.664  21.725  26.578  1.00  0.00    -0.246 OA
BRANCH  33  35
ATOM     35  C   UNL A   1      39.337  24.077  26.848  1.00  0.00     0.060 A 
ATOM     36  C   UNL A   1      38.939  24.439  28.138  1.00  0.00     0.016 A 
ATOM     37  C   UNL A   1      40.035  24.989  26.047  1.00  0.00     0.016 A 
ATOM     38  C   UNL A   1      39.272  25.701  28.639  1.00  0.00     0.010 A 
ATOM     39  C   UNL A   1      40.357  26.257  26.546  1.00  0.00     0.010 A 
ATOM     40  C   UNL A   1      40.000  26.614  27.856  1.00  0.00    -0.014 A 
BRANCH  40  41
ATOM     41  C   UNL A   1      40.503  27.878  28.462  1.00  0.00     0.031 A 
ATOM     42  C   UNL A   1      41.956  28.109  28.755  1.00  0.00     0.074 A 
ATOM     43  C   UNL A   1      39.614  28.846  28.737  1.00  0.00     0.049 A 
ATOM     44  N   UNL A   1      42.571  29.138  29.277  1.00  0.00    -0.248 NA
ATOM     45  C   UNL A   1      42.845  27.008  28.406  1.00  0.00     0.031 C 
ATOM     46  C   UNL A   1      38.176  28.760  28.493  1.00  0.00     0.029 A 
ATOM     47  N   UNL A   1      39.797  30.093  29.269  1.00  0.00    -0.354 N 
ATOM     48  C   UNL A   1      43.923  28.800  29.306  1.00  0.00     0.074 A 
ATOM     49  C   UNL A   1      44.031  27.453  28.794  1.00  0.00     0.031 C 
ATOM     50  C   UNL A   1      37.606  29.919  28.854  1.00  0.00     0.029 A 
ATOM     51  C   UNL A   1      38.635  30.812  29.378  1.00  0.00     0.049 A 
ATOM     52  H   UNL A   1      40.676  30.440  29.546  1.00  0.00     0.167 HD
ATOM     53  C   UNL A   1      44.977  29.556  29.698  1.00  0.00     0.037 A 
ATOM     54  C   UNL A   1      38.433  32.056  29.848  1.00  0.00     0.037 A 
ATOM     55  C   UNL A   1      44.857  30.902  30.194  1.00  0.00     0.049 A 
ATOM     56  C   UNL A   1      39.611  32.865  30.318  1.00  0.00     0.074 A 
ATOM     57  C   UNL A   1      45.854  31.760  30.627  1.00  0.00     0.029 A 
ATOM     58  N   UNL A   1      43.659  31.590  30.309  1.00  0.00    -0.354 N 
ATOM     59  N   UNL A   1      40.883  32.551  30.328  1.00  0.00    -0.248 NA
ATOM     60  C   UNL A   1      39.320  34.210  30.830  1.00  0.00     0.031 C 
ATOM     61  C   UNL A   1      45.254  32.956  31.033  1.00  0.00     0.029 A 
ATOM     62  C   UNL A   1      43.891  32.861  30.807  1.00  0.00     0.049 A 
ATOM     63  H   UNL A   1      42.775  31.229  30.072  1.00  0.00     0.167 HD
ATOM     64  C   UNL A   1      41.547  33.672  30.811  1.00  0.00     0.074 A 
ATOM     65  C   UNL A   1      40.537  34.677  31.066  1.00  0.00     0.031 C 
ATOM     66  C   UNL A   1      42.873  33.853  31.030  1.00  0.00     0.037 A 
BRANCH  53  67
ATOM     67  C   UNL A   1      46.360  28.977  29.582  1.00  0.00     0.064 A 
ATOM     68  C   UNL A   1      46.882  28.138  30.578  1.00  0.00     0.173 A 
ATOM     69  C   UNL A   1      47.120  29.156  28.415  1.00  0.00     0.173 A 
ATOM     70  F   UNL A   1      46.199  27.938  31.715  1.00  0.00    -0.203 F 
ATOM     71  C   UNL A   1      48.110  27.502  30.413  1.00  0.00     0.198 A 
ATOM     72  C   UNL A   1      48.337  28.499  28.241  1.00  0.00     0.198 A 
ATOM     73  F   UNL A   1      46.665  29.939  27.425  1.00  0.00    -0.203 F 
ATOM     74  F   UNL A   1      48.591  26.714  31.384  1.00  0.00    -0.200 F 
ATOM     75  C   UNL A   1      48.829  27.671  29.239  1.00  0.00     0.200 A 
ATOM     76  F   UNL A   1      49.020  28.645  27.098  1.00  0.00    -0.200 F 
ATOM     77  F   UNL A   1      49.993  27.028  29.066  1.00  0.00    -0.200 F 
ENDBRANCH  53  67
BRANCH  54  78
ATOM     78  C   UNL A   1      37.061  32.621  29.852  1.00  0.00     0.064 A 
ATOM     79  C   UNL A   1      36.231  32.478  30.972  1.00  0.00     0.173 A 
ATOM     80  C   UNL A   1      36.557  33.321  28.746  1.00  0.00     0.173 A 
ATOM     81  F   UNL A   1      36.668  31.806  32.047  1.00  0.00    -0.203 F 
ATOM     82  C   UNL A   1      34.938  32.993  30.977  1.00  0.00     0.198 A 
ATOM     83  C   UNL A   1      35.274  33.863  28.766  1.00  0.00     0.198 A 
ATOM     84  F   UNL A   1      37.317  33.495  27.656  1.00  0.00    -0.203 F 
ATOM     85  F   UNL A   1      34.149  32.800  32.042  1.00  0.00    -0.200 F 
ATOM     86  C   UNL A   1      34.462  33.689  29.877  1.00  0.00     0.200 A 
ATOM     87  F   UNL A   1      34.826  34.553  27.708  1.00  0.00    -0.200 F 
ATOM     88  F   UNL A   1      33.219  34.189  29.885  1.00  0.00    -0.200 F 
ENDBRANCH  54  78
BRANCH  66  89
ATOM     89  C   UNL A   1      43.314  35.198  31.525  1.00  0.00     0.064 A 
ATOM     90  C   UNL A   1      43.730  36.206  30.644  1.00  0.00     0.173 A 
ATOM     91  C   UNL A   1      43.275  35.497  32.896  1.00  0.00     0.173 A 
ATOM     92  F   UNL A   1      43.795  35.966  29.326  1.00  0.00    -0.203 F 
ATOM     93  C   UNL A   1      44.121  37.454  31.119  1.00  0.00     0.198 A 
ATOM     94  C   UNL A   1      43.636  36.757  33.365  1.00  0.00     0.198 A 
ATOM     95  F   UNL A   1      42.872  34.571  33.780  1.00  0.00    -0.203 F 
ATOM     96  F   UNL A   1      44.564  38.386  30.264  1.00  0.00    -0.200 F 
ATOM     97  C   UNL A   1      44.066  37.731  32.478  1.00  0.00     0.200 A 
ATOM     98  F   UNL A   1      43.565  37.028  34.676  1.00  0.00    -0.200 F 
ATOM     99  F   UNL A   1      44.435  38.936  32.933  1.00  0.00    -0.200 F 
ENDBRANCH  66  89
ENDBRANCH  40  41
ENDBRANCH  33  35
ENDBRANCH  32  33
ENDBRANCH  31  32
ENDBRANCH  30  31
ENDBRANCH  29  30
ENDBRANCH  28  29
ENDBRANCH  27  28
ENDBRANCH  26  27
ENDBRANCH   1  26
TORSDOF 24
ENDMDL
