MODEL 1
REMARK VINA RESULT:     -11.0      0.000      0.000
REMARK SMILES Cc1cc(Cl)cc2c1O[C@H](C(F)(F)F)C(C(=O)OCCOCCOCCOCCOC(=O)c1ccc(-c3c4nc(c(-c5c(F)c(F)c(F)c(F)c5F)c5ccc([nH]5)c(-c5c(F)c(F)c(F)c(F)c5F)c5nc(c(-c6c(F)c(F)c(F)c(F)c6F)c6ccc3[nH]6)C=C5)C=C4)cc1)=C2
REMARK SMILES IDX 25 1 24 2 23 3 22 4 21 5 20 6 19 7 18 8 16 9 17 10 15 11
REMARK SMILES IDX 1 12 2 13 3 14 8 15 4 16 7 17 9 18 5 19 6 20 96 21 10 22
REMARK SMILES IDX 11 23 12 24 13 25 14 26 26 27 27 28 28 29 29 30 30 31 31 32
REMARK SMILES IDX 32 33 33 34 34 35 95 36 35 37 94 38 36 39 37 40 38 41 88 42
REMARK SMILES IDX 39 43 93 44 87 45 89 46 40 47 92 48 86 49 85 50 41 52 73 53
REMARK SMILES IDX 53 54 72 55 54 56 57 57 71 58 90 59 55 60 56 61 70 63 91 64
REMARK SMILES IDX 58 65 42 66 43 67 51 68 44 69 45 70 49 71 52 72 46 73 47 74
REMARK SMILES IDX 50 75 48 76 74 77 75 78 83 79 76 80 77 81 81 82 84 83 78 84
REMARK SMILES IDX 79 85 82 86 80 87 59 88 60 89 68 90 61 91 62 92 66 93 69 94
REMARK SMILES IDX 63 95 64 96 67 97 65 98
REMARK H PARENT 89 51 57 62
REMARK Flexibility Score: inf
ROOT
ATOM      1  C   UNL A   1      35.327  21.237  25.471  1.00  0.00     0.188 C 
ENDROOT
BRANCH   1   2
ATOM      2  O   UNL A   1      34.347  20.313  24.992  1.00  0.00    -0.377 OA
BRANCH   2   3
ATOM      3  C   UNL A   1      32.996  20.506  25.385  1.00  0.00     0.188 C 
BRANCH   3   4
ATOM      4  C   UNL A   1      32.217  21.458  24.458  1.00  0.00     0.188 C 
BRANCH   4   5
ATOM      5  O   UNL A   1      32.664  21.400  23.112  1.00  0.00    -0.376 OA
BRANCH   5   6
ATOM      6  C   UNL A   1      32.706  22.580  22.327  1.00  0.00     0.202 C 
BRANCH   6   7
ATOM      7  C   UNL A   1      32.264  23.943  22.887  1.00  0.00     0.261 C 
BRANCH   7   8
ATOM      8  O   UNL A   1      33.300  24.880  23.196  1.00  0.00    -0.460 OA
BRANCH   8   9
ATOM      9  C   UNL A   1      33.379  25.997  22.450  1.00  0.00     0.338 C 
ATOM     10  O   UNL A   1      33.462  26.059  21.237  1.00  0.00    -0.246 OA
BRANCH   9  11
ATOM     11  C   UNL A   1      33.173  27.152  23.352  1.00  0.00     0.087 C 
ATOM     12  C   UNL A   1      31.235  31.122  25.913  1.00  0.00     0.048 C 
ATOM     13  C   UNL A   1      32.448  30.247  26.063  1.00  0.00    -0.007 A 
ATOM     14  C   UNL A   1      33.269  30.368  27.192  1.00  0.00     0.027 A 
ATOM     15  C   UNL A   1      32.747  29.267  25.101  1.00  0.00     0.131 A 
ATOM     16  C   UNL A   1      34.371  29.531  27.350  1.00  0.00     0.042 A 
ATOM     17  C   UNL A   1      33.818  28.388  25.297  1.00  0.00     0.019 A 
ATOM     18  O   UNL A   1      31.931  29.217  24.007  1.00  0.00    -0.475 OA
ATOM     19  Cl  UNL A   1      35.371  29.689  28.742  1.00  0.00    -0.084 Cl
ATOM     20  C   UNL A   1      34.650  28.543  26.410  1.00  0.00     0.032 A 
ATOM     21  C   UNL A   1      34.009  27.268  24.392  1.00  0.00     0.027 C 
ATOM     22  C   UNL A   1      32.109  28.166  23.019  1.00  0.00     0.316 C 
BRANCH  22  23
ATOM     23  C   UNL A   1      30.736  27.524  22.780  1.00  0.00     0.430 C 
ATOM     24  F   UNL A   1      30.351  26.778  23.843  1.00  0.00    -0.167 F 
ATOM     25  F   UNL A   1      29.766  28.446  22.585  1.00  0.00    -0.167 F 
ATOM     26  F   UNL A   1      30.746  26.713  21.697  1.00  0.00    -0.167 F 
ENDBRANCH  22  23
ENDBRANCH   9  11
ENDBRANCH   8   9
ENDBRANCH   7   8
ENDBRANCH   6   7
ENDBRANCH   5   6
ENDBRANCH   4   5
ENDBRANCH   3   4
ENDBRANCH   2   3
ENDBRANCH   1   2
BRANCH   1  27
ATOM     27  C   UNL A   1      36.423  21.842  24.556  1.00  0.00     0.188 C 
BRANCH  27  28
ATOM     28  O   UNL A   1      37.733  21.349  24.807  1.00  0.00    -0.376 OA
BRANCH  28  29
ATOM     29  C   UNL A   1      37.896  19.951  24.977  1.00  0.00     0.202 C 
BRANCH  29  30
ATOM     30  C   UNL A   1      39.190  19.519  25.678  1.00  0.00     0.261 C 
BRANCH  30  31
ATOM     31  O   UNL A   1      40.155  20.560  25.897  1.00  0.00    -0.460 OA
BRANCH  31  32
ATOM     32  C   UNL A   1      40.821  20.555  27.070  1.00  0.00     0.338 C 
ATOM     33  O   UNL A   1      41.289  19.592  27.653  1.00  0.00    -0.246 OA
BRANCH  32  34
ATOM     34  C   UNL A   1      41.059  21.963  27.446  1.00  0.00     0.060 A 
ATOM     35  C   UNL A   1      40.358  22.976  26.780  1.00  0.00     0.016 A 
ATOM     36  C   UNL A   1      41.958  22.276  28.469  1.00  0.00     0.016 A 
ATOM     37  C   UNL A   1      40.576  24.311  27.118  1.00  0.00     0.010 A 
ATOM     38  C   UNL A   1      42.195  23.614  28.789  1.00  0.00     0.010 A 
ATOM     39  C   UNL A   1      41.529  24.638  28.092  1.00  0.00    -0.014 A 
BRANCH  39  40
ATOM     40  C   UNL A   1      41.990  26.041  28.224  1.00  0.00     0.031 A 
ATOM     41  C   UNL A   1      43.322  26.403  27.629  1.00  0.00     0.074 A 
ATOM     42  C   UNL A   1      41.235  26.980  28.820  1.00  0.00     0.049 A 
ATOM     43  N   UNL A   1      43.955  27.548  27.637  1.00  0.00    -0.248 NA
ATOM     44  C   UNL A   1      44.037  25.325  26.924  1.00  0.00     0.031 C 
ATOM     45  C   UNL A   1      39.905  26.763  29.382  1.00  0.00     0.029 A 
ATOM     46  N   UNL A   1      41.487  28.310  29.048  1.00  0.00    -0.354 N 
ATOM     47  C   UNL A   1      45.131  27.329  26.933  1.00  0.00     0.074 A 
ATOM     48  C   UNL A   1      45.150  25.936  26.549  1.00  0.00     0.031 C 
ATOM     49  C   UNL A   1      39.455  27.924  29.891  1.00  0.00     0.029 A 
ATOM     50  C   UNL A   1      40.479  28.956  29.721  1.00  0.00     0.049 A 
ATOM     51  H   UNL A   1      42.314  28.759  28.757  1.00  0.00     0.167 HD
ATOM     52  C   UNL A   1      46.102  28.218  26.620  1.00  0.00     0.037 A 
ATOM     53  C   UNL A   1      40.403  30.229  30.157  1.00  0.00     0.037 A 
ATOM     54  C   UNL A   1      46.088  29.601  27.011  1.00  0.00     0.049 A 
ATOM     55  C   UNL A   1      41.553  31.171  29.895  1.00  0.00     0.074 A 
ATOM     56  C   UNL A   1      47.032  30.578  26.752  1.00  0.00     0.029 A 
ATOM     57  N   UNL A   1      45.079  30.201  27.748  1.00  0.00    -0.354 N 
ATOM     58  N   UNL A   1      42.659  30.963  29.221  1.00  0.00    -0.248 NA
ATOM     59  C   UNL A   1      41.445  32.527  30.456  1.00  0.00     0.031 C 
ATOM     60  C   UNL A   1      46.620  31.757  27.377  1.00  0.00     0.029 A 
ATOM     61  C   UNL A   1      45.391  31.531  27.976  1.00  0.00     0.049 A 
ATOM     62  H   UNL A   1      44.263  29.749  28.064  1.00  0.00     0.167 HD
ATOM     63  C   UNL A   1      43.359  32.162  29.251  1.00  0.00     0.074 A 
ATOM     64  C   UNL A   1      42.550  33.100  29.999  1.00  0.00     0.031 C 
ATOM     65  C   UNL A   1      44.567  32.458  28.709  1.00  0.00     0.037 A 
BRANCH  52  66
ATOM     66  C   UNL A   1      47.269  27.722  25.818  1.00  0.00     0.064 A 
ATOM     67  C   UNL A   1      47.260  27.759  24.415  1.00  0.00     0.173 A 
ATOM     68  C   UNL A   1      48.431  27.265  26.456  1.00  0.00     0.173 A 
ATOM     69  F   UNL A   1      46.165  28.170  23.757  1.00  0.00    -0.203 F 
ATOM     70  C   UNL A   1      48.368  27.346  23.682  1.00  0.00     0.198 A 
ATOM     71  C   UNL A   1      49.548  26.881  25.721  1.00  0.00     0.198 A 
ATOM     72  F   UNL A   1      48.490  27.211  27.796  1.00  0.00    -0.203 F 
ATOM     73  F   UNL A   1      48.326  27.358  22.343  1.00  0.00    -0.200 F 
ATOM     74  C   UNL A   1      49.515  26.919  24.335  1.00  0.00     0.200 A 
ATOM     75  F   UNL A   1      50.660  26.481  26.353  1.00  0.00    -0.200 F 
ATOM     76  F   UNL A   1      50.589  26.541  23.628  1.00  0.00    -0.200 F 
ENDBRANCH  52  66
BRANCH  53  77
ATOM     77  C   UNL A   1      39.193  30.696  30.886  1.00  0.00     0.064 A 
ATOM     78  C   UNL A   1      39.039  30.449  32.258  1.00  0.00     0.173 A 
ATOM     79  C   UNL A   1      38.162  31.384  30.230  1.00  0.00     0.173 A 
ATOM     80  F   UNL A   1      39.982  29.769  32.925  1.00  0.00    -0.203 F 
ATOM     81  C   UNL A   1      37.897  30.862  32.941  1.00  0.00     0.198 A 
ATOM     82  C   UNL A   1      37.033  31.823  30.920  1.00  0.00     0.198 A 
ATOM     83  F   UNL A   1      38.254  31.639  28.916  1.00  0.00    -0.203 F 
ATOM     84  F   UNL A   1      37.756  30.574  34.242  1.00  0.00    -0.200 F 
ATOM     85  C   UNL A   1      36.898  31.555  32.274  1.00  0.00     0.200 A 
ATOM     86  F   UNL A   1      36.075  32.500  30.273  1.00  0.00    -0.200 F 
ATOM     87  F   UNL A   1      35.804  31.959  32.933  1.00  0.00    -0.200 F 
ENDBRANCH  53  77
BRANCH  65  88
ATOM     88  C   UNL A   1      45.089  33.858  28.873  1.00  0.00     0.064 A 
ATOM     89  C   UNL A   1      45.970  34.196  29.909  1.00  0.00     0.173 A 
ATOM     90  C   UNL A   1      44.783  34.845  27.922  1.00  0.00     0.173 A 
ATOM     91  F   UNL A   1      46.287  33.291  30.849  1.00  0.00    -0.203 F 
ATOM     92  C   UNL A   1      46.515  35.475  29.996  1.00  0.00     0.198 A 
ATOM     93  C   UNL A   1      45.355  36.111  27.993  1.00  0.00     0.198 A 
ATOM     94  F   UNL A   1      43.955  34.569  26.903  1.00  0.00    -0.203 F 
ATOM     95  F   UNL A   1      47.331  35.785  31.013  1.00  0.00    -0.200 F 
ATOM     96  C   UNL A   1      46.218  36.426  29.032  1.00  0.00     0.200 A 
ATOM     97  F   UNL A   1      45.083  37.022  27.049  1.00  0.00    -0.200 F 
ATOM     98  F   UNL A   1      46.764  37.648  29.104  1.00  0.00    -0.200 F 
ENDBRANCH  65  88
ENDBRANCH  39  40
ENDBRANCH  32  34
ENDBRANCH  31  32
ENDBRANCH  30  31
ENDBRANCH  29  30
ENDBRANCH  28  29
ENDBRANCH  27  28
ENDBRANCH   1  27
TORSDOF 21
ENDMDL
MODEL 2
REMARK VINA RESULT:     -10.6      1.576      2.567
REMARK SMILES Cc1cc(Cl)cc2c1O[C@H](C(F)(F)F)C(C(=O)OCCOCCOCCOCCOC(=O)c1ccc(-c3c4nc(c(-c5c(F)c(F)c(F)c(F)c5F)c5ccc([nH]5)c(-c5c(F)c(F)c(F)c(F)c5F)c5nc(c(-c6c(F)c(F)c(F)c(F)c6F)c6ccc3[nH]6)C=C5)C=C4)cc1)=C2
REMARK SMILES IDX 25 1 24 2 23 3 22 4 21 5 20 6 19 7 18 8 16 9 17 10 15 11
REMARK SMILES IDX 1 12 2 13 3 14 8 15 4 16 7 17 9 18 5 19 6 20 96 21 10 22
REMARK SMILES IDX 11 23 12 24 13 25 14 26 26 27 27 28 28 29 29 30 30 31 31 32
REMARK SMILES IDX 32 33 33 34 34 35 95 36 35 37 94 38 36 39 37 40 38 41 88 42
REMARK SMILES IDX 39 43 93 44 87 45 89 46 40 47 92 48 86 49 85 50 41 52 73 53
REMARK SMILES IDX 53 54 72 55 54 56 57 57 71 58 90 59 55 60 56 61 70 63 91 64
REMARK SMILES IDX 58 65 42 66 43 67 51 68 44 69 45 70 49 71 52 72 46 73 47 74
REMARK SMILES IDX 50 75 48 76 74 77 75 78 83 79 76 80 77 81 81 82 84 83 78 84
REMARK SMILES IDX 79 85 82 86 80 87 59 88 60 89 68 90 61 91 62 92 66 93 69 94
REMARK SMILES IDX 63 95 64 96 67 97 65 98
REMARK H PARENT 89 51 57 62
REMARK Flexibility Score: inf
ROOT
ATOM      1  C   UNL A   1      35.408  21.146  25.468  1.00  0.00     0.188 C 
ENDROOT
BRANCH   1   2
ATOM      2  O   UNL A   1      34.382  20.277  24.981  1.00  0.00    -0.377 OA
BRANCH   2   3
ATOM      3  C   UNL A   1      33.067  20.444  25.488  1.00  0.00     0.188 C 
BRANCH   3   4
ATOM      4  C   UNL A   1      32.177  21.338  24.605  1.00  0.00     0.188 C 
BRANCH   4   5
ATOM      5  O   UNL A   1      32.751  21.597  23.332  1.00  0.00    -0.376 OA
BRANCH   5   6
ATOM      6  C   UNL A   1      32.506  22.832  22.682  1.00  0.00     0.202 C 
BRANCH   6   7
ATOM      7  C   UNL A   1      31.884  24.030  23.422  1.00  0.00     0.261 C 
BRANCH   7   8
ATOM      8  O   UNL A   1      32.753  25.126  23.721  1.00  0.00    -0.460 OA
BRANCH   8   9
ATOM      9  C   UNL A   1      32.908  26.078  22.784  1.00  0.00     0.338 C 
ATOM     10  O   UNL A   1      33.467  25.960  21.710  1.00  0.00    -0.246 OA
BRANCH   9  11
ATOM     11  C   UNL A   1      32.125  27.259  23.214  1.00  0.00     0.087 C 
ATOM     12  C   UNL A   1      30.460  31.491  25.536  1.00  0.00     0.048 C 
ATOM     13  C   UNL A   1      30.092  30.748  24.282  1.00  0.00    -0.007 A 
ATOM     14  C   UNL A   1      29.163  31.296  23.387  1.00  0.00     0.027 A 
ATOM     15  C   UNL A   1      30.707  29.525  23.967  1.00  0.00     0.131 A 
ATOM     16  C   UNL A   1      28.850  30.626  22.206  1.00  0.00     0.042 A 
ATOM     17  C   UNL A   1      30.436  28.889  22.751  1.00  0.00     0.019 A 
ATOM     18  O   UNL A   1      31.580  29.025  24.892  1.00  0.00    -0.475 OA
ATOM     19  Cl  UNL A   1      27.707  31.308  21.114  1.00  0.00    -0.084 Cl
ATOM     20  C   UNL A   1      29.480  29.427  21.883  1.00  0.00     0.032 A 
ATOM     21  C   UNL A   1      31.208  27.724  22.355  1.00  0.00     0.027 C 
ATOM     22  C   UNL A   1      32.335  27.819  24.596  1.00  0.00     0.316 C 
BRANCH  22  23
ATOM     23  C   UNL A   1      33.810  28.117  24.895  1.00  0.00     0.430 C 
ATOM     24  F   UNL A   1      33.944  29.246  25.633  1.00  0.00    -0.167 F 
ATOM     25  F   UNL A   1      34.402  27.125  25.598  1.00  0.00    -0.167 F 
ATOM     26  F   UNL A   1      34.525  28.290  23.759  1.00  0.00    -0.167 F 
ENDBRANCH  22  23
ENDBRANCH   9  11
ENDBRANCH   8   9
ENDBRANCH   7   8
ENDBRANCH   6   7
ENDBRANCH   5   6
ENDBRANCH   4   5
ENDBRANCH   3   4
ENDBRANCH   2   3
ENDBRANCH   1   2
BRANCH   1  27
ATOM     27  C   UNL A   1      36.472  21.785  24.538  1.00  0.00     0.188 C 
BRANCH  27  28
ATOM     28  O   UNL A   1      37.783  21.260  24.701  1.00  0.00    -0.376 OA
BRANCH  28  29
ATOM     29  C   UNL A   1      37.918  19.866  24.920  1.00  0.00     0.202 C 
BRANCH  29  30
ATOM     30  C   UNL A   1      39.170  19.439  25.695  1.00  0.00     0.261 C 
BRANCH  30  31
ATOM     31  O   UNL A   1      40.199  20.435  25.808  1.00  0.00    -0.460 OA
BRANCH  31  32
ATOM     32  C   UNL A   1      40.907  20.471  26.956  1.00  0.00     0.338 C 
ATOM     33  O   UNL A   1      41.451  19.539  27.522  1.00  0.00    -0.246 OA
BRANCH  32  34
ATOM     34  C   UNL A   1      41.078  21.892  27.322  1.00  0.00     0.060 A 
ATOM     35  C   UNL A   1      40.458  22.877  26.542  1.00  0.00     0.016 A 
ATOM     36  C   UNL A   1      41.830  22.244  28.445  1.00  0.00     0.016 A 
ATOM     37  C   UNL A   1      40.615  24.224  26.870  1.00  0.00     0.010 A 
ATOM     38  C   UNL A   1      42.007  23.593  28.758  1.00  0.00     0.010 A 
ATOM     39  C   UNL A   1      41.427  24.589  27.952  1.00  0.00    -0.014 A 
BRANCH  39  40
ATOM     40  C   UNL A   1      41.850  26.001  28.106  1.00  0.00     0.031 A 
ATOM     41  C   UNL A   1      43.198  26.394  27.571  1.00  0.00     0.074 A 
ATOM     42  C   UNL A   1      41.048  26.922  28.669  1.00  0.00     0.049 A 
ATOM     43  N   UNL A   1      43.805  27.553  27.608  1.00  0.00    -0.248 NA
ATOM     44  C   UNL A   1      43.968  25.334  26.897  1.00  0.00     0.031 C 
ATOM     45  C   UNL A   1      39.700  26.675  29.172  1.00  0.00     0.029 A 
ATOM     46  N   UNL A   1      41.260  28.257  28.910  1.00  0.00    -0.354 N 
ATOM     47  C   UNL A   1      45.015  27.363  26.957  1.00  0.00     0.074 A 
ATOM     48  C   UNL A   1      45.082  25.971  26.572  1.00  0.00     0.031 C 
ATOM     49  C   UNL A   1      39.201  27.824  29.661  1.00  0.00     0.029 A 
ATOM     50  C   UNL A   1      40.209  28.879  29.537  1.00  0.00     0.049 A 
ATOM     51  H   UNL A   1      42.088  28.726  28.656  1.00  0.00     0.167 HD
ATOM     52  C   UNL A   1      45.979  28.273  26.687  1.00  0.00     0.037 A 
ATOM     53  C   UNL A   1      40.085  30.149  29.971  1.00  0.00     0.037 A 
ATOM     54  C   UNL A   1      45.916  29.655  27.080  1.00  0.00     0.049 A 
ATOM     55  C   UNL A   1      41.223  31.117  29.761  1.00  0.00     0.074 A 
ATOM     56  C   UNL A   1      46.849  30.653  26.863  1.00  0.00     0.029 A 
ATOM     57  N   UNL A   1      44.862  30.231  27.772  1.00  0.00    -0.354 N 
ATOM     58  N   UNL A   1      42.363  30.935  29.137  1.00  0.00    -0.248 NA
ATOM     59  C   UNL A   1      41.060  32.469  30.318  1.00  0.00     0.031 C 
ATOM     60  C   UNL A   1      46.383  31.822  27.471  1.00  0.00     0.029 A 
ATOM     61  C   UNL A   1      45.134  31.567  28.014  1.00  0.00     0.049 A 
ATOM     62  H   UNL A   1      44.043  29.760  28.050  1.00  0.00     0.167 HD
ATOM     63  C   UNL A   1      43.034  32.150  29.199  1.00  0.00     0.074 A 
ATOM     64  C   UNL A   1      42.171  33.068  29.912  1.00  0.00     0.031 C 
ATOM     65  C   UNL A   1      44.257  32.474  28.712  1.00  0.00     0.037 A 
BRANCH  52  66
ATOM     66  C   UNL A   1      47.191  27.805  25.937  1.00  0.00     0.064 A 
ATOM     67  C   UNL A   1      48.329  27.335  26.609  1.00  0.00     0.173 A 
ATOM     68  C   UNL A   1      47.191  27.768  24.536  1.00  0.00     0.173 A 
ATOM     69  F   UNL A   1      48.384  27.368  27.950  1.00  0.00    -0.203 F 
ATOM     70  C   UNL A   1      49.428  26.853  25.904  1.00  0.00     0.198 A 
ATOM     71  C   UNL A   1      48.280  27.258  23.834  1.00  0.00     0.198 A 
ATOM     72  F   UNL A   1      46.127  28.206  23.846  1.00  0.00    -0.203 F 
ATOM     73  F   UNL A   1      50.518  26.440  26.564  1.00  0.00    -0.200 F 
ATOM     74  C   UNL A   1      49.397  26.804  24.518  1.00  0.00     0.200 A 
ATOM     75  F   UNL A   1      48.244  27.199  22.496  1.00  0.00    -0.200 F 
ATOM     76  F   UNL A   1      50.448  26.321  23.840  1.00  0.00    -0.200 F 
ENDBRANCH  52  66
BRANCH  53  77
ATOM     77  C   UNL A   1      38.834  30.588  30.646  1.00  0.00     0.064 A 
ATOM     78  C   UNL A   1      37.752  31.086  29.905  1.00  0.00     0.173 A 
ATOM     79  C   UNL A   1      38.696  30.533  32.041  1.00  0.00     0.173 A 
ATOM     80  F   UNL A   1      37.845  31.187  28.572  1.00  0.00    -0.203 F 
ATOM     81  C   UNL A   1      36.587  31.522  30.534  1.00  0.00     0.198 A 
ATOM     82  C   UNL A   1      37.519  30.941  32.667  1.00  0.00     0.198 A 
ATOM     83  F   UNL A   1      39.703  30.074  32.799  1.00  0.00    -0.203 F 
ATOM     84  F   UNL A   1      35.587  32.034  29.804  1.00  0.00    -0.200 F 
ATOM     85  C   UNL A   1      36.468  31.442  31.913  1.00  0.00     0.200 A 
ATOM     86  F   UNL A   1      37.405  30.855  33.999  1.00  0.00    -0.200 F 
ATOM     87  F   UNL A   1      35.345  31.854  32.516  1.00  0.00    -0.200 F 
ENDBRANCH  53  77
BRANCH  65  88
ATOM     88  C   UNL A   1      44.741  33.884  28.900  1.00  0.00     0.064 A 
ATOM     89  C   UNL A   1      45.487  34.261  30.024  1.00  0.00     0.173 A 
ATOM     90  C   UNL A   1      44.539  34.843  27.893  1.00  0.00     0.173 A 
ATOM     91  F   UNL A   1      45.700  33.384  31.018  1.00  0.00    -0.203 F 
ATOM     92  C   UNL A   1      46.004  35.549  30.142  1.00  0.00     0.198 A 
ATOM     93  C   UNL A   1      45.084  36.119  28.000  1.00  0.00     0.198 A 
ATOM     94  F   UNL A   1      43.842  34.531  26.791  1.00  0.00    -0.203 F 
ATOM     95  F   UNL A   1      46.688  35.896  31.241  1.00  0.00    -0.200 F 
ATOM     96  C   UNL A   1      45.813  36.472  29.124  1.00  0.00     0.200 A 
ATOM     97  F   UNL A   1      44.915  37.003  27.006  1.00  0.00    -0.200 F 
ATOM     98  F   UNL A   1      46.332  37.703  29.229  1.00  0.00    -0.200 F 
ENDBRANCH  65  88
ENDBRANCH  39  40
ENDBRANCH  32  34
ENDBRANCH  31  32
ENDBRANCH  30  31
ENDBRANCH  29  30
ENDBRANCH  28  29
ENDBRANCH  27  28
ENDBRANCH   1  27
TORSDOF 21
ENDMDL
MODEL 3
REMARK VINA RESULT:     -10.4      5.314     11.084
REMARK SMILES Cc1cc(Cl)cc2c1O[C@H](C(F)(F)F)C(C(=O)OCCOCCOCCOCCOC(=O)c1ccc(-c3c4nc(c(-c5c(F)c(F)c(F)c(F)c5F)c5ccc([nH]5)c(-c5c(F)c(F)c(F)c(F)c5F)c5nc(c(-c6c(F)c(F)c(F)c(F)c6F)c6ccc3[nH]6)C=C5)C=C4)cc1)=C2
REMARK SMILES IDX 25 1 24 2 23 3 22 4 21 5 20 6 19 7 18 8 16 9 17 10 15 11
REMARK SMILES IDX 1 12 2 13 3 14 8 15 4 16 7 17 9 18 5 19 6 20 96 21 10 22
REMARK SMILES IDX 11 23 12 24 13 25 14 26 26 27 27 28 28 29 29 30 30 31 31 32
REMARK SMILES IDX 32 33 33 34 34 35 95 36 35 37 94 38 36 39 37 40 38 41 88 42
REMARK SMILES IDX 39 43 93 44 87 45 89 46 40 47 92 48 86 49 85 50 41 52 73 53
REMARK SMILES IDX 53 54 72 55 54 56 57 57 71 58 90 59 55 60 56 61 70 63 91 64
REMARK SMILES IDX 58 65 42 66 43 67 51 68 44 69 45 70 49 71 52 72 46 73 47 74
REMARK SMILES IDX 50 75 48 76 74 77 75 78 83 79 76 80 77 81 81 82 84 83 78 84
REMARK SMILES IDX 79 85 82 86 80 87 59 88 60 89 68 90 61 91 62 92 66 93 69 94
REMARK SMILES IDX 63 95 64 96 67 97 65 98
REMARK H PARENT 89 51 57 62
REMARK Flexibility Score: inf
ROOT
ATOM      1  C   UNL A   1      34.406  31.937  28.435  1.00  0.00     0.188 C 
ENDROOT
BRANCH   1   2
ATOM      2  O   UNL A   1      34.506  30.861  27.498  1.00  0.00    -0.377 OA
BRANCH   2   3
ATOM      3  C   UNL A   1      33.347  30.080  27.251  1.00  0.00     0.188 C 
BRANCH   3   4
ATOM      4  C   UNL A   1      33.660  28.625  26.852  1.00  0.00     0.188 C 
BRANCH   4   5
ATOM      5  O   UNL A   1      33.863  28.471  25.455  1.00  0.00    -0.376 OA
BRANCH   5   6
ATOM      6  C   UNL A   1      33.087  29.223  24.538  1.00  0.00     0.202 C 
BRANCH   6   7
ATOM      7  C   UNL A   1      32.454  28.578  23.292  1.00  0.00     0.261 C 
BRANCH   7   8
ATOM      8  O   UNL A   1      33.168  27.493  22.693  1.00  0.00    -0.460 OA
BRANCH   8   9
ATOM      9  C   UNL A   1      32.518  26.327  22.531  1.00  0.00     0.338 C 
ATOM     10  O   UNL A   1      31.776  26.027  21.613  1.00  0.00    -0.246 OA
BRANCH   9  11
ATOM     11  C   UNL A   1      32.996  25.399  23.580  1.00  0.00     0.087 C 
ATOM     12  C   UNL A   1      33.388  22.334  27.646  1.00  0.00     0.048 C 
ATOM     13  C   UNL A   1      34.210  22.576  26.410  1.00  0.00    -0.007 A 
ATOM     14  C   UNL A   1      35.312  21.758  26.127  1.00  0.00     0.027 A 
ATOM     15  C   UNL A   1      33.857  23.589  25.503  1.00  0.00     0.131 A 
ATOM     16  C   UNL A   1      36.051  21.958  24.962  1.00  0.00     0.042 A 
ATOM     17  C   UNL A   1      34.565  23.744  24.306  1.00  0.00     0.019 A 
ATOM     18  O   UNL A   1      32.795  24.375  25.848  1.00  0.00    -0.475 OA
ATOM     19  Cl  UNL A   1      37.402  20.947  24.625  1.00  0.00    -0.084 Cl
ATOM     20  C   UNL A   1      35.685  22.945  24.052  1.00  0.00     0.032 A 
ATOM     21  C   UNL A   1      34.084  24.670  23.295  1.00  0.00     0.027 C 
ATOM     22  C   UNL A   1      32.303  25.376  24.917  1.00  0.00     0.316 C 
BRANCH  22  23
ATOM     23  C   UNL A   1      30.786  25.180  24.791  1.00  0.00     0.430 C 
ATOM     24  F   UNL A   1      30.246  24.764  25.963  1.00  0.00    -0.167 F 
ATOM     25  F   UNL A   1      30.146  26.324  24.456  1.00  0.00    -0.167 F 
ATOM     26  F   UNL A   1      30.478  24.255  23.853  1.00  0.00    -0.167 F 
ENDBRANCH  22  23
ENDBRANCH   9  11
ENDBRANCH   8   9
ENDBRANCH   7   8
ENDBRANCH   6   7
ENDBRANCH   5   6
ENDBRANCH   4   5
ENDBRANCH   3   4
ENDBRANCH   2   3
ENDBRANCH   1   2
BRANCH   1  27
ATOM     27  C   UNL A   1      34.225  33.413  27.997  1.00  0.00     0.188 C 
BRANCH  27  28
ATOM     28  O   UNL A   1      34.630  34.367  28.970  1.00  0.00    -0.376 OA
BRANCH  28  29
ATOM     29  C   UNL A   1      34.112  35.683  28.866  1.00  0.00     0.202 C 
BRANCH  29  30
ATOM     30  C   UNL A   1      32.863  35.967  29.710  1.00  0.00     0.261 C 
BRANCH  30  31
ATOM     31  O   UNL A   1      33.109  36.410  31.053  1.00  0.00    -0.460 OA
BRANCH  31  32
ATOM     32  C   UNL A   1      32.707  35.604  32.058  1.00  0.00     0.338 C 
ATOM     33  O   UNL A   1      31.563  35.328  32.374  1.00  0.00    -0.246 OA
BRANCH  32  34
ATOM     34  C   UNL A   1      33.912  34.948  32.604  1.00  0.00     0.060 A 
ATOM     35  C   UNL A   1      35.152  35.589  32.484  1.00  0.00     0.016 A 
ATOM     36  C   UNL A   1      33.810  33.715  33.251  1.00  0.00     0.016 A 
ATOM     37  C   UNL A   1      36.301  34.980  32.987  1.00  0.00     0.010 A 
ATOM     38  C   UNL A   1      34.965  33.094  33.732  1.00  0.00     0.010 A 
ATOM     39  C   UNL A   1      36.218  33.710  33.573  1.00  0.00    -0.014 A 
BRANCH  39  40
ATOM     40  C   UNL A   1      37.458  32.932  33.813  1.00  0.00     0.031 A 
ATOM     41  C   UNL A   1      38.220  33.199  35.081  1.00  0.00     0.074 A 
ATOM     42  C   UNL A   1      37.879  31.988  32.954  1.00  0.00     0.049 A 
ATOM     43  N   UNL A   1      39.341  32.674  35.506  1.00  0.00    -0.248 NA
ATOM     44  C   UNL A   1      37.635  34.192  35.999  1.00  0.00     0.031 C 
ATOM     45  C   UNL A   1      37.196  31.601  31.723  1.00  0.00     0.029 A 
ATOM     46  N   UNL A   1      38.989  31.182  32.993  1.00  0.00    -0.354 N 
ATOM     47  C   UNL A   1      39.586  33.263  36.738  1.00  0.00     0.074 A 
ATOM     48  C   UNL A   1      38.526  34.216  36.977  1.00  0.00     0.031 C 
ATOM     49  C   UNL A   1      37.902  30.627  31.122  1.00  0.00     0.029 A 
ATOM     50  C   UNL A   1      39.105  30.348  31.908  1.00  0.00     0.049 A 
ATOM     51  H   UNL A   1      39.643  31.200  33.729  1.00  0.00     0.167 HD
ATOM     52  C   UNL A   1      40.597  33.018  37.603  1.00  0.00     0.037 A 
ATOM     53  C   UNL A   1      40.078  29.471  31.586  1.00  0.00     0.037 A 
ATOM     54  C   UNL A   1      41.657  32.077  37.360  1.00  0.00     0.049 A 
ATOM     55  C   UNL A   1      41.256  29.300  32.514  1.00  0.00     0.074 A 
ATOM     56  C   UNL A   1      42.733  31.766  38.170  1.00  0.00     0.029 A 
ATOM     57  N   UNL A   1      41.773  31.298  36.219  1.00  0.00    -0.354 N 
ATOM     58  N   UNL A   1      41.479  29.853  33.683  1.00  0.00    -0.248 NA
ATOM     59  C   UNL A   1      42.320  28.384  32.077  1.00  0.00     0.031 C 
ATOM     60  C   UNL A   1      43.530  30.837  37.496  1.00  0.00     0.029 A 
ATOM     61  C   UNL A   1      42.919  30.525  36.293  1.00  0.00     0.049 A 
ATOM     62  H   UNL A   1      41.135  31.295  35.468  1.00  0.00     0.167 HD
ATOM     63  C   UNL A   1      42.686  29.331  34.131  1.00  0.00     0.074 A 
ATOM     64  C   UNL A   1      43.144  28.407  33.115  1.00  0.00     0.031 C 
ATOM     65  C   UNL A   1      43.355  29.596  35.280  1.00  0.00     0.037 A 
BRANCH  52  66
ATOM     66  C   UNL A   1      40.613  33.783  38.894  1.00  0.00     0.064 A 
ATOM     67  C   UNL A   1      39.861  33.364  40.000  1.00  0.00     0.173 A 
ATOM     68  C   UNL A   1      41.436  34.908  39.045  1.00  0.00     0.173 A 
ATOM     69  F   UNL A   1      39.043  32.304  39.900  1.00  0.00    -0.203 F 
ATOM     70  C   UNL A   1      39.924  34.050  41.209  1.00  0.00     0.198 A 
ATOM     71  C   UNL A   1      41.520  35.574  40.264  1.00  0.00     0.198 A 
ATOM     72  F   UNL A   1      42.176  35.349  38.016  1.00  0.00    -0.203 F 
ATOM     73  F   UNL A   1      39.171  33.653  42.244  1.00  0.00    -0.200 F 
ATOM     74  C   UNL A   1      40.762  35.147  41.343  1.00  0.00     0.200 A 
ATOM     75  F   UNL A   1      42.340  36.626  40.396  1.00  0.00    -0.200 F 
ATOM     76  F   UNL A   1      40.837  35.795  42.515  1.00  0.00    -0.200 F 
ENDBRANCH  52  66
BRANCH  53  77
ATOM     77  C   UNL A   1      39.983  28.681  30.330  1.00  0.00     0.064 A 
ATOM     78  C   UNL A   1      40.503  29.177  29.126  1.00  0.00     0.173 A 
ATOM     79  C   UNL A   1      39.359  27.425  30.300  1.00  0.00     0.173 A 
ATOM     80  F   UNL A   1      41.081  30.386  29.095  1.00  0.00    -0.203 F 
ATOM     81  C   UNL A   1      40.395  28.452  27.941  1.00  0.00     0.198 A 
ATOM     82  C   UNL A   1      39.278  26.687  29.120  1.00  0.00     0.198 A 
ATOM     83  F   UNL A   1      38.836  26.906  31.421  1.00  0.00    -0.203 F 
ATOM     84  F   UNL A   1      40.863  28.970  26.797  1.00  0.00    -0.200 F 
ATOM     85  C   UNL A   1      39.790  27.204  27.939  1.00  0.00     0.200 A 
ATOM     86  F   UNL A   1      38.700  25.478  29.125  1.00  0.00    -0.200 F 
ATOM     87  F   UNL A   1      39.693  26.505  26.801  1.00  0.00    -0.200 F 
ENDBRANCH  53  77
BRANCH  65  88
ATOM     88  C   UNL A   1      44.644  28.866  35.530  1.00  0.00     0.064 A 
ATOM     89  C   UNL A   1      44.670  27.622  36.175  1.00  0.00     0.173 A 
ATOM     90  C   UNL A   1      45.855  29.372  35.030  1.00  0.00     0.173 A 
ATOM     91  F   UNL A   1      43.541  27.099  36.679  1.00  0.00    -0.203 F 
ATOM     92  C   UNL A   1      45.861  26.916  36.321  1.00  0.00     0.198 A 
ATOM     93  C   UNL A   1      47.038  28.649  35.149  1.00  0.00     0.198 A 
ATOM     94  F   UNL A   1      45.884  30.552  34.394  1.00  0.00    -0.203 F 
ATOM     95  F   UNL A   1      45.867  25.742  36.968  1.00  0.00    -0.200 F 
ATOM     96  C   UNL A   1      47.041  27.423  35.796  1.00  0.00     0.200 A 
ATOM     97  F   UNL A   1      48.173  29.131  34.623  1.00  0.00    -0.200 F 
ATOM     98  F   UNL A   1      48.182  26.730  35.916  1.00  0.00    -0.200 F 
ENDBRANCH  65  88
ENDBRANCH  39  40
ENDBRANCH  32  34
ENDBRANCH  31  32
ENDBRANCH  30  31
ENDBRANCH  29  30
ENDBRANCH  28  29
ENDBRANCH  27  28
ENDBRANCH   1  27
TORSDOF 21
ENDMDL
