MODEL 1
REMARK VINA RESULT:     -11.1      0.000      0.000
REMARK SMILES O=C(OCCOCCOCCOCCOC(=O)c1cccc(Nc2ccc([N+](=O)[O-])cc2)c1)c1ccc(-c2c3nc(c(-c4c(F)c(F)c(F)c(F)c4F)c4ccc([nH]4)c(-c4c(F)c(F)c(F)c(F)c4F)c4nc(c(-c5c(F)c(F)c(F)c(F)c5F)c5ccc2[nH]5)C=C4)C=C3)cc1
REMARK SMILES IDX 10 1 9 2 8 3 7 4 6 5 5 6 4 7 3 8 2 9 1 10 34 11 35 12 96 13
REMARK SMILES IDX 36 14 95 15 37 16 38 17 39 18 89 19 40 20 94 21 88 22 90 23
REMARK SMILES IDX 41 24 93 25 87 26 86 27 42 29 74 30 54 31 73 32 55 33 58 34
REMARK SMILES IDX 72 35 91 36 56 37 57 38 71 40 92 41 59 42 43 43 44 44 52 45
REMARK SMILES IDX 45 46 46 47 50 48 53 49 47 50 48 51 51 52 49 53 75 54 76 55
REMARK SMILES IDX 84 56 77 57 78 58 82 59 85 60 79 61 80 62 83 63 81 64 60 65
REMARK SMILES IDX 61 66 69 67 62 68 63 69 67 70 70 71 64 72 65 73 68 74 66 75
REMARK SMILES IDX 11 76 12 77 13 78 14 79 15 80 16 81 17 82 18 83 19 84 33 85
REMARK SMILES IDX 20 86 22 87 21 88 23 89 24 91 25 92 32 93 26 94 31 95 27 96
REMARK SMILES IDX 28 97 29 98 30 99
REMARK H PARENT 90 28 58 39 23 90
REMARK Flexibility Score: inf
ROOT
ATOM      1  C   UNL A   1      32.376  30.603  26.940  1.00  0.00     0.188 C 
ENDROOT
BRANCH   1   2
ATOM      2  O   UNL A   1      33.764  30.910  26.867  1.00  0.00    -0.377 OA
BRANCH   2   3
ATOM      3  C   UNL A   1      34.404  31.278  28.085  1.00  0.00     0.188 C 
BRANCH   3   4
ATOM      4  C   UNL A   1      34.437  32.777  28.374  1.00  0.00     0.188 C 
BRANCH   4   5
ATOM      5  O   UNL A   1      33.799  33.068  29.618  1.00  0.00    -0.376 OA
BRANCH   5   6
ATOM      6  C   UNL A   1      34.385  34.120  30.381  1.00  0.00     0.202 C 
BRANCH   6   7
ATOM      7  C   UNL A   1      34.574  33.820  31.872  1.00  0.00     0.261 C 
BRANCH   7   8
ATOM      8  O   UNL A   1      34.889  32.447  32.155  1.00  0.00    -0.460 OA
BRANCH   8   9
ATOM      9  C   UNL A   1      36.020  31.928  32.693  1.00  0.00     0.338 C 
ATOM     10  O   UNL A   1      36.239  32.107  33.890  1.00  0.00    -0.246 OA
BRANCH   9  11
ATOM     11  C   UNL A   1      37.013  31.120  31.923  1.00  0.00     0.060 A 
ATOM     12  C   UNL A   1      37.945  30.250  32.485  1.00  0.00     0.016 A 
ATOM     13  C   UNL A   1      36.959  31.201  30.522  1.00  0.00     0.016 A 
ATOM     14  C   UNL A   1      38.890  29.593  31.710  1.00  0.00     0.010 A 
ATOM     15  C   UNL A   1      37.874  30.505  29.725  1.00  0.00     0.010 A 
ATOM     16  C   UNL A   1      38.888  29.751  30.330  1.00  0.00    -0.014 A 
BRANCH  16  17
ATOM     17  C   UNL A   1      40.099  29.338  29.592  1.00  0.00     0.031 A 
ATOM     18  C   UNL A   1      41.246  30.306  29.559  1.00  0.00     0.074 A 
ATOM     19  C   UNL A   1      40.229  28.081  29.134  1.00  0.00     0.049 A 
ATOM     20  N   UNL A   1      42.393  30.222  28.940  1.00  0.00    -0.248 NA
ATOM     21  C   UNL A   1      41.081  31.544  30.343  1.00  0.00     0.031 C 
ATOM     22  C   UNL A   1      39.223  27.026  29.263  1.00  0.00     0.029 A 
ATOM     23  N   UNL A   1      41.280  27.466  28.509  1.00  0.00    -0.354 N 
ATOM     24  C   UNL A   1      43.050  31.415  29.210  1.00  0.00     0.074 A 
ATOM     25  C   UNL A   1      42.185  32.208  30.050  1.00  0.00     0.031 C 
ATOM     26  C   UNL A   1      39.724  25.881  28.770  1.00  0.00     0.029 A 
ATOM     27  C   UNL A   1      41.051  26.142  28.221  1.00  0.00     0.049 A 
ATOM     28  H   UNL A   1      42.122  27.927  28.286  1.00  0.00     0.167 HD
ATOM     29  C   UNL A   1      44.270  31.811  28.781  1.00  0.00     0.037 A 
ATOM     30  C   UNL A   1      41.824  25.261  27.561  1.00  0.00     0.037 A 
ATOM     31  C   UNL A   1      45.125  30.981  27.980  1.00  0.00     0.049 A 
ATOM     32  C   UNL A   1      43.155  25.744  27.042  1.00  0.00     0.074 A 
ATOM     33  C   UNL A   1      46.351  31.280  27.419  1.00  0.00     0.029 A 
ATOM     34  N   UNL A   1      44.833  29.665  27.644  1.00  0.00    -0.354 N 
ATOM     35  N   UNL A   1      43.730  26.913  27.199  1.00  0.00    -0.248 NA
ATOM     36  C   UNL A   1      43.933  24.796  26.236  1.00  0.00     0.031 C 
ATOM     37  C   UNL A   1      46.786  30.152  26.713  1.00  0.00     0.029 A 
ATOM     38  C   UNL A   1      45.854  29.136  26.877  1.00  0.00     0.049 A 
ATOM     39  H   UNL A   1      44.019  29.181  27.912  1.00  0.00     0.167 HD
ATOM     40  C   UNL A   1      44.944  26.838  26.531  1.00  0.00     0.074 A 
ATOM     41  C   UNL A   1      45.028  25.497  25.984  1.00  0.00     0.031 C 
ATOM     42  C   UNL A   1      45.900  27.786  26.374  1.00  0.00     0.037 A 
BRANCH  29  43
ATOM     43  C   UNL A   1      44.682  33.217  29.105  1.00  0.00     0.064 A 
ATOM     44  C   UNL A   1      45.435  33.534  30.246  1.00  0.00     0.173 A 
ATOM     45  C   UNL A   1      44.258  34.275  28.287  1.00  0.00     0.173 A 
ATOM     46  F   UNL A   1      45.834  32.564  31.084  1.00  0.00    -0.203 F 
ATOM     47  C   UNL A   1      45.714  34.859  30.575  1.00  0.00     0.198 A 
ATOM     48  C   UNL A   1      44.563  35.595  28.602  1.00  0.00     0.198 A 
ATOM     49  F   UNL A   1      43.527  34.028  27.189  1.00  0.00    -0.203 F 
ATOM     50  F   UNL A   1      46.371  35.143  31.709  1.00  0.00    -0.200 F 
ATOM     51  C   UNL A   1      45.282  35.888  29.752  1.00  0.00     0.200 A 
ATOM     52  F   UNL A   1      44.144  36.588  27.805  1.00  0.00    -0.200 F 
ATOM     53  F   UNL A   1      45.538  37.163  30.077  1.00  0.00    -0.200 F 
ENDBRANCH  29  43
BRANCH  30  54
ATOM     54  C   UNL A   1      41.354  23.869  27.324  1.00  0.00     0.064 A 
ATOM     55  C   UNL A   1      40.244  23.602  26.511  1.00  0.00     0.173 A 
ATOM     56  C   UNL A   1      41.999  22.771  27.917  1.00  0.00     0.173 A 
ATOM     57  F   UNL A   1      39.575  24.614  25.939  1.00  0.00    -0.203 F 
ATOM     58  C   UNL A   1      39.789  22.298  26.313  1.00  0.00     0.198 A 
ATOM     59  C   UNL A   1      41.564  21.466  27.693  1.00  0.00     0.198 A 
ATOM     60  F   UNL A   1      43.063  22.964  28.710  1.00  0.00    -0.203 F 
ATOM     61  F   UNL A   1      38.696  22.077  25.569  1.00  0.00    -0.200 F 
ATOM     62  C   UNL A   1      40.453  21.231  26.898  1.00  0.00     0.200 A 
ATOM     63  F   UNL A   1      42.220  20.438  28.249  1.00  0.00    -0.200 F 
ATOM     64  F   UNL A   1      40.020  19.979  26.703  1.00  0.00    -0.200 F 
ENDBRANCH  30  54
BRANCH  42  65
ATOM     65  C   UNL A   1      47.132  27.383  25.622  1.00  0.00     0.064 A 
ATOM     66  C   UNL A   1      47.266  27.622  24.248  1.00  0.00     0.173 A 
ATOM     67  C   UNL A   1      48.207  26.792  26.302  1.00  0.00     0.173 A 
ATOM     68  F   UNL A   1      46.257  28.174  23.557  1.00  0.00    -0.203 F 
ATOM     69  C   UNL A   1      48.426  27.259  23.574  1.00  0.00     0.198 A 
ATOM     70  C   UNL A   1      49.377  26.457  25.630  1.00  0.00     0.198 A 
ATOM     71  F   UNL A   1      48.126  26.554  27.620  1.00  0.00    -0.203 F 
ATOM     72  F   UNL A   1      48.518  27.452  22.250  1.00  0.00    -0.200 F 
ATOM     73  C   UNL A   1      49.483  26.683  24.266  1.00  0.00     0.200 A 
ATOM     74  F   UNL A   1      50.402  25.915  26.302  1.00  0.00    -0.200 F 
ATOM     75  F   UNL A   1      50.602  26.340  23.615  1.00  0.00    -0.200 F 
ENDBRANCH  42  65
ENDBRANCH  16  17
ENDBRANCH   9  11
ENDBRANCH   8   9
ENDBRANCH   7   8
ENDBRANCH   6   7
ENDBRANCH   5   6
ENDBRANCH   4   5
ENDBRANCH   3   4
ENDBRANCH   2   3
ENDBRANCH   1   2
BRANCH   1  76
ATOM     76  C   UNL A   1      31.620  30.273  25.635  1.00  0.00     0.188 C 
BRANCH  76  77
ATOM     77  O   UNL A   1      32.013  29.067  24.995  1.00  0.00    -0.376 OA
BRANCH  77  78
ATOM     78  C   UNL A   1      31.771  27.876  25.739  1.00  0.00     0.202 C 
BRANCH  78  79
ATOM     79  C   UNL A   1      32.620  26.667  25.320  1.00  0.00     0.261 C 
BRANCH  79  80
ATOM     80  O   UNL A   1      32.193  26.016  24.111  1.00  0.00    -0.460 OA
BRANCH  80  81
ATOM     81  C   UNL A   1      33.123  25.774  23.159  1.00  0.00     0.338 C 
ATOM     82  O   UNL A   1      33.657  26.590  22.429  1.00  0.00    -0.246 OA
BRANCH  81  83
ATOM     83  C   UNL A   1      33.576  24.377  23.343  1.00  0.00     0.062 A 
ATOM     84  C   UNL A   1      34.894  24.164  23.766  1.00  0.00     0.016 A 
ATOM     85  C   UNL A   1      32.678  23.305  23.244  1.00  0.00     0.041 A 
ATOM     86  C   UNL A   1      35.291  22.891  24.162  1.00  0.00     0.003 A 
ATOM     87  C   UNL A   1      33.100  22.006  23.552  1.00  0.00     0.039 A 
ATOM     88  C   UNL A   1      34.398  21.826  24.057  1.00  0.00     0.026 A 
BRANCH  87  89
ATOM     89  N   UNL A   1      32.222  20.914  23.369  1.00  0.00    -0.355 N 
ATOM     90  H   UNL A   1      31.382  21.074  22.879  1.00  0.00     0.167 HD
BRANCH  89  91
ATOM     91  C   UNL A   1      32.469  19.613  23.844  1.00  0.00     0.039 A 
ATOM     92  C   UNL A   1      32.591  18.553  22.934  1.00  0.00     0.033 A 
ATOM     93  C   UNL A   1      32.677  19.376  25.208  1.00  0.00     0.033 A 
ATOM     94  C   UNL A   1      32.953  17.279  23.370  1.00  0.00     0.088 A 
ATOM     95  C   UNL A   1      33.035  18.102  25.659  1.00  0.00     0.088 A 
ATOM     96  C   UNL A   1      33.185  17.060  24.733  1.00  0.00     0.269 A 
BRANCH  96  97
ATOM     97  N   UNL A   1      33.614  15.732  25.192  1.00  0.00     0.062 N 
ATOM     98  O   UNL A   1      32.864  14.772  24.961  1.00  0.00    -0.258 OA
ATOM     99  O   UNL A   1      34.704  15.649  25.774  1.00  0.00    -0.258 OA
ENDBRANCH  96  97
ENDBRANCH  89  91
ENDBRANCH  87  89
ENDBRANCH  81  83
ENDBRANCH  80  81
ENDBRANCH  79  80
ENDBRANCH  78  79
ENDBRANCH  77  78
ENDBRANCH  76  77
ENDBRANCH   1  76
TORSDOF 23
ENDMDL
MODEL 2
REMARK VINA RESULT:     -10.0      1.190      7.315
REMARK SMILES O=C(OCCOCCOCCOCCOC(=O)c1cccc(Nc2ccc([N+](=O)[O-])cc2)c1)c1ccc(-c2c3nc(c(-c4c(F)c(F)c(F)c(F)c4F)c4ccc([nH]4)c(-c4c(F)c(F)c(F)c(F)c4F)c4nc(c(-c5c(F)c(F)c(F)c(F)c5F)c5ccc2[nH]5)C=C4)C=C3)cc1
REMARK SMILES IDX 10 1 9 2 8 3 7 4 6 5 5 6 4 7 3 8 2 9 1 10 34 11 35 12 96 13
REMARK SMILES IDX 36 14 95 15 37 16 38 17 39 18 89 19 40 20 94 21 88 22 90 23
REMARK SMILES IDX 41 24 93 25 87 26 86 27 42 29 74 30 54 31 73 32 55 33 58 34
REMARK SMILES IDX 72 35 91 36 56 37 57 38 71 40 92 41 59 42 43 43 44 44 52 45
REMARK SMILES IDX 45 46 46 47 50 48 53 49 47 50 48 51 51 52 49 53 75 54 76 55
REMARK SMILES IDX 84 56 77 57 78 58 82 59 85 60 79 61 80 62 83 63 81 64 60 65
REMARK SMILES IDX 61 66 69 67 62 68 63 69 67 70 70 71 64 72 65 73 68 74 66 75
REMARK SMILES IDX 11 76 12 77 13 78 14 79 15 80 16 81 17 82 18 83 19 84 33 85
REMARK SMILES IDX 20 86 22 87 21 88 23 89 24 91 25 92 32 93 26 94 31 95 27 96
REMARK SMILES IDX 28 97 29 98 30 99
REMARK H PARENT 90 28 58 39 23 90
REMARK Flexibility Score: inf
ROOT
ATOM      1  C   UNL A   1      32.049  29.845  26.303  1.00  0.00     0.188 C 
ENDROOT
BRANCH   1   2
ATOM      2  O   UNL A   1      33.451  30.086  26.371  1.00  0.00    -0.377 OA
BRANCH   2   3
ATOM      3  C   UNL A   1      33.965  30.526  27.624  1.00  0.00     0.188 C 
BRANCH   3   4
ATOM      4  C   UNL A   1      34.570  31.929  27.620  1.00  0.00     0.188 C 
BRANCH   4   5
ATOM      5  O   UNL A   1      33.960  32.746  28.620  1.00  0.00    -0.376 OA
BRANCH   5   6
ATOM      6  C   UNL A   1      34.846  33.580  29.361  1.00  0.00     0.202 C 
BRANCH   6   7
ATOM      7  C   UNL A   1      34.862  33.338  30.874  1.00  0.00     0.261 C 
BRANCH   7   8
ATOM      8  O   UNL A   1      35.113  31.972  31.242  1.00  0.00    -0.460 OA
BRANCH   8   9
ATOM      9  C   UNL A   1      36.109  31.469  32.013  1.00  0.00     0.338 C 
ATOM     10  O   UNL A   1      36.033  31.601  33.234  1.00  0.00    -0.246 OA
BRANCH   9  11
ATOM     11  C   UNL A   1      37.290  30.733  31.470  1.00  0.00     0.060 A 
ATOM     12  C   UNL A   1      38.354  30.254  32.232  1.00  0.00     0.016 A 
ATOM     13  C   UNL A   1      37.294  30.450  30.094  1.00  0.00     0.016 A 
ATOM     14  C   UNL A   1      39.457  29.650  31.647  1.00  0.00     0.010 A 
ATOM     15  C   UNL A   1      38.378  29.797  29.497  1.00  0.00     0.010 A 
ATOM     16  C   UNL A   1      39.495  29.457  30.271  1.00  0.00    -0.014 A 
BRANCH  16  17
ATOM     17  C   UNL A   1      40.803  29.149  29.659  1.00  0.00     0.031 A 
ATOM     18  C   UNL A   1      40.966  27.794  29.032  1.00  0.00     0.074 A 
ATOM     19  C   UNL A   1      41.735  30.106  29.510  1.00  0.00     0.049 A 
ATOM     20  N   UNL A   1      42.018  27.248  28.484  1.00  0.00    -0.248 NA
ATOM     21  C   UNL A   1      39.769  26.933  29.015  1.00  0.00     0.031 C 
ATOM     22  C   UNL A   1      41.597  31.495  29.950  1.00  0.00     0.029 A 
ATOM     23  N   UNL A   1      42.963  30.066  28.906  1.00  0.00    -0.354 N 
ATOM     24  C   UNL A   1      41.623  25.968  28.117  1.00  0.00     0.074 A 
ATOM     25  C   UNL A   1      40.240  25.813  28.496  1.00  0.00     0.031 C 
ATOM     26  C   UNL A   1      42.682  32.186  29.563  1.00  0.00     0.029 A 
ATOM     27  C   UNL A   1      43.621  31.272  28.920  1.00  0.00     0.049 A 
ATOM     28  H   UNL A   1      43.340  29.252  28.500  1.00  0.00     0.167 HD
ATOM     29  C   UNL A   1      42.364  25.005  27.522  1.00  0.00     0.037 A 
ATOM     30  C   UNL A   1      44.856  31.581  28.484  1.00  0.00     0.037 A 
ATOM     31  C   UNL A   1      43.727  25.205  27.118  1.00  0.00     0.049 A 
ATOM     32  C   UNL A   1      45.684  30.476  27.878  1.00  0.00     0.074 A 
ATOM     33  C   UNL A   1      44.614  24.300  26.570  1.00  0.00     0.029 A 
ATOM     34  N   UNL A   1      44.391  26.422  27.210  1.00  0.00    -0.354 N 
ATOM     35  N   UNL A   1      45.351  29.231  27.633  1.00  0.00    -0.248 NA
ATOM     36  C   UNL A   1      47.064  30.812  27.506  1.00  0.00     0.031 C 
ATOM     37  C   UNL A   1      45.830  24.963  26.362  1.00  0.00     0.029 A 
ATOM     38  C   UNL A   1      45.682  26.292  26.733  1.00  0.00     0.049 A 
ATOM     39  H   UNL A   1      44.001  27.254  27.563  1.00  0.00     0.167 HD
ATOM     40  C   UNL A   1      46.468  28.638  27.063  1.00  0.00     0.074 A 
ATOM     41  C   UNL A   1      47.483  29.671  26.981  1.00  0.00     0.031 C 
ATOM     42  C   UNL A   1      46.649  27.358  26.652  1.00  0.00     0.037 A 
BRANCH  29  43
ATOM     43  C   UNL A   1      41.728  23.656  27.365  1.00  0.00     0.064 A 
ATOM     44  C   UNL A   1      42.186  22.524  28.059  1.00  0.00     0.173 A 
ATOM     45  C   UNL A   1      40.678  23.481  26.452  1.00  0.00     0.173 A 
ATOM     46  F   UNL A   1      43.213  22.628  28.916  1.00  0.00    -0.203 F 
ATOM     47  C   UNL A   1      41.642  21.265  27.814  1.00  0.00     0.198 A 
ATOM     48  C   UNL A   1      40.116  22.227  26.231  1.00  0.00     0.198 A 
ATOM     49  F   UNL A   1      40.208  24.527  25.754  1.00  0.00    -0.203 F 
ATOM     50  F   UNL A   1      42.145  20.188  28.433  1.00  0.00    -0.200 F 
ATOM     51  C   UNL A   1      40.606  21.118  26.904  1.00  0.00     0.200 A 
ATOM     52  F   UNL A   1      39.114  22.087  25.351  1.00  0.00    -0.200 F 
ATOM     53  F   UNL A   1      40.093  19.903  26.659  1.00  0.00    -0.200 F 
ENDBRANCH  29  43
BRANCH  30  54
ATOM     54  C   UNL A   1      45.392  32.961  28.638  1.00  0.00     0.064 A 
ATOM     55  C   UNL A   1      46.152  33.328  29.757  1.00  0.00     0.173 A 
ATOM     56  C   UNL A   1      45.144  33.950  27.673  1.00  0.00     0.173 A 
ATOM     57  F   UNL A   1      46.399  32.431  30.723  1.00  0.00    -0.203 F 
ATOM     58  C   UNL A   1      46.629  34.630  29.912  1.00  0.00     0.198 A 
ATOM     59  C   UNL A   1      45.648  35.242  27.811  1.00  0.00     0.198 A 
ATOM     60  F   UNL A   1      44.417  33.660  26.583  1.00  0.00    -0.203 F 
ATOM     61  F   UNL A   1      47.312  34.965  31.015  1.00  0.00    -0.200 F 
ATOM     62  C   UNL A   1      46.383  35.584  28.936  1.00  0.00     0.200 A 
ATOM     63  F   UNL A   1      45.419  36.155  26.857  1.00  0.00    -0.200 F 
ATOM     64  F   UNL A   1      46.845  36.833  29.082  1.00  0.00    -0.200 F 
ENDBRANCH  30  54
BRANCH  42  65
ATOM     65  C   UNL A   1      47.973  27.029  26.035  1.00  0.00     0.064 A 
ATOM     66  C   UNL A   1      48.996  26.415  26.772  1.00  0.00     0.173 A 
ATOM     67  C   UNL A   1      48.200  27.293  24.676  1.00  0.00     0.173 A 
ATOM     68  F   UNL A   1      48.826  26.157  28.077  1.00  0.00    -0.203 F 
ATOM     69  C   UNL A   1      50.211  26.099  26.174  1.00  0.00     0.198 A 
ATOM     70  C   UNL A   1      49.405  26.948  24.075  1.00  0.00     0.198 A 
ATOM     71  F   UNL A   1      47.245  27.870  23.931  1.00  0.00    -0.203 F 
ATOM     72  F   UNL A   1      51.194  25.555  26.905  1.00  0.00    -0.200 F 
ATOM     73  C   UNL A   1      50.412  26.360  24.825  1.00  0.00     0.200 A 
ATOM     74  F   UNL A   1      49.593  27.187  22.769  1.00  0.00    -0.200 F 
ATOM     75  F   UNL A   1      51.582  26.049  24.250  1.00  0.00    -0.200 F 
ENDBRANCH  42  65
ENDBRANCH  16  17
ENDBRANCH   9  11
ENDBRANCH   8   9
ENDBRANCH   7   8
ENDBRANCH   6   7
ENDBRANCH   5   6
ENDBRANCH   4   5
ENDBRANCH   3   4
ENDBRANCH   2   3
ENDBRANCH   1   2
BRANCH   1  76
ATOM     76  C   UNL A   1      31.448  29.336  24.975  1.00  0.00     0.188 C 
BRANCH  76  77
ATOM     77  O   UNL A   1      31.561  27.937  24.757  1.00  0.00    -0.376 OA
BRANCH  77  78
ATOM     78  C   UNL A   1      31.373  27.123  25.911  1.00  0.00     0.202 C 
BRANCH  78  79
ATOM     79  C   UNL A   1      32.353  25.947  26.041  1.00  0.00     0.261 C 
BRANCH  79  80
ATOM     80  O   UNL A   1      31.954  24.923  26.968  1.00  0.00    -0.460 OA
BRANCH  80  81
ATOM     81  C   UNL A   1      30.947  24.097  26.605  1.00  0.00     0.338 C 
ATOM     82  O   UNL A   1      29.830  24.044  27.089  1.00  0.00    -0.246 OA
BRANCH  81  83
ATOM     83  C   UNL A   1      31.353  23.451  25.337  1.00  0.00     0.062 A 
ATOM     84  C   UNL A   1      30.733  23.876  24.155  1.00  0.00     0.016 A 
ATOM     85  C   UNL A   1      32.429  22.552  25.294  1.00  0.00     0.041 A 
ATOM     86  C   UNL A   1      31.236  23.459  22.927  1.00  0.00     0.003 A 
ATOM     87  C   UNL A   1      32.878  22.056  24.064  1.00  0.00     0.039 A 
ATOM     88  C   UNL A   1      32.301  22.560  22.887  1.00  0.00     0.026 A 
BRANCH  87  89
ATOM     89  N   UNL A   1      33.903  21.084  24.025  1.00  0.00    -0.355 N 
ATOM     90  H   UNL A   1      34.776  21.348  23.652  1.00  0.00     0.167 HD
BRANCH  89  91
ATOM     91  C   UNL A   1      33.756  19.762  24.485  1.00  0.00     0.039 A 
ATOM     92  C   UNL A   1      32.487  19.166  24.486  1.00  0.00     0.033 A 
ATOM     93  C   UNL A   1      34.872  19.007  24.864  1.00  0.00     0.033 A 
ATOM     94  C   UNL A   1      32.334  17.820  24.824  1.00  0.00     0.088 A 
ATOM     95  C   UNL A   1      34.731  17.659  25.209  1.00  0.00     0.088 A 
ATOM     96  C   UNL A   1      33.461  17.068  25.175  1.00  0.00     0.269 A 
BRANCH  96  97
ATOM     97  N   UNL A   1      33.312  15.640  25.484  1.00  0.00     0.062 N 
ATOM     98  O   UNL A   1      34.215  14.873  25.121  1.00  0.00    -0.258 OA
ATOM     99  O   UNL A   1      32.295  15.288  26.098  1.00  0.00    -0.258 OA
ENDBRANCH  96  97
ENDBRANCH  89  91
ENDBRANCH  87  89
ENDBRANCH  81  83
ENDBRANCH  80  81
ENDBRANCH  79  80
ENDBRANCH  78  79
ENDBRANCH  77  78
ENDBRANCH  76  77
ENDBRANCH   1  76
TORSDOF 23
ENDMDL
MODEL 3
REMARK VINA RESULT:      -9.9      2.254      7.740
REMARK SMILES O=C(OCCOCCOCCOCCOC(=O)c1cccc(Nc2ccc([N+](=O)[O-])cc2)c1)c1ccc(-c2c3nc(c(-c4c(F)c(F)c(F)c(F)c4F)c4ccc([nH]4)c(-c4c(F)c(F)c(F)c(F)c4F)c4nc(c(-c5c(F)c(F)c(F)c(F)c5F)c5ccc2[nH]5)C=C4)C=C3)cc1
REMARK SMILES IDX 10 1 9 2 8 3 7 4 6 5 5 6 4 7 3 8 2 9 1 10 34 11 35 12 96 13
REMARK SMILES IDX 36 14 95 15 37 16 38 17 39 18 89 19 40 20 94 21 88 22 90 23
REMARK SMILES IDX 41 24 93 25 87 26 86 27 42 29 74 30 54 31 73 32 55 33 58 34
REMARK SMILES IDX 72 35 91 36 56 37 57 38 71 40 92 41 59 42 43 43 44 44 52 45
REMARK SMILES IDX 45 46 46 47 50 48 53 49 47 50 48 51 51 52 49 53 75 54 76 55
REMARK SMILES IDX 84 56 77 57 78 58 82 59 85 60 79 61 80 62 83 63 81 64 60 65
REMARK SMILES IDX 61 66 69 67 62 68 63 69 67 70 70 71 64 72 65 73 68 74 66 75
REMARK SMILES IDX 11 76 12 77 13 78 14 79 15 80 16 81 17 82 18 83 19 84 33 85
REMARK SMILES IDX 20 86 22 87 21 88 23 89 24 91 25 92 32 93 26 94 31 95 27 96
REMARK SMILES IDX 28 97 29 98 30 99
REMARK H PARENT 90 28 58 39 23 90
REMARK Flexibility Score: inf
ROOT
ATOM      1  C   UNL A   1      31.549  27.531  25.018  1.00  0.00     0.188 C 
ENDROOT
BRANCH   1   2
ATOM      2  O   UNL A   1      30.787  28.731  24.944  1.00  0.00    -0.377 OA
BRANCH   2   3
ATOM      3  C   UNL A   1      31.515  29.955  24.959  1.00  0.00     0.188 C 
BRANCH   3   4
ATOM      4  C   UNL A   1      31.528  30.686  26.300  1.00  0.00     0.188 C 
BRANCH   4   5
ATOM      5  O   UNL A   1      32.535  30.150  27.160  1.00  0.00    -0.376 OA
BRANCH   5   6
ATOM      6  C   UNL A   1      33.722  29.697  26.512  1.00  0.00     0.202 C 
BRANCH   6   7
ATOM      7  C   UNL A   1      34.887  29.354  27.446  1.00  0.00     0.261 C 
BRANCH   7   8
ATOM      8  O   UNL A   1      35.096  30.315  28.494  1.00  0.00    -0.460 OA
BRANCH   8   9
ATOM      9  C   UNL A   1      36.040  30.318  29.467  1.00  0.00     0.338 C 
ATOM     10  O   UNL A   1      35.765  30.827  30.553  1.00  0.00    -0.246 OA
BRANCH   9  11
ATOM     11  C   UNL A   1      37.396  29.712  29.313  1.00  0.00     0.060 A 
ATOM     12  C   UNL A   1      38.038  28.930  30.270  1.00  0.00     0.016 A 
ATOM     13  C   UNL A   1      38.046  29.897  28.081  1.00  0.00     0.016 A 
ATOM     14  C   UNL A   1      39.333  28.467  30.088  1.00  0.00     0.010 A 
ATOM     15  C   UNL A   1      39.333  29.394  27.863  1.00  0.00     0.010 A 
ATOM     16  C   UNL A   1      40.005  28.734  28.901  1.00  0.00    -0.014 A 
BRANCH  16  17
ATOM     17  C   UNL A   1      41.469  28.544  28.886  1.00  0.00     0.031 A 
ATOM     18  C   UNL A   1      41.990  27.272  28.282  1.00  0.00     0.074 A 
ATOM     19  C   UNL A   1      42.296  29.547  29.229  1.00  0.00     0.049 A 
ATOM     20  N   UNL A   1      43.215  26.828  28.195  1.00  0.00    -0.248 NA
ATOM     21  C   UNL A   1      40.986  26.372  27.684  1.00  0.00     0.031 C 
ATOM     22  C   UNL A   1      41.874  30.874  29.678  1.00  0.00     0.029 A 
ATOM     23  N   UNL A   1      43.663  29.619  29.208  1.00  0.00    -0.354 N 
ATOM     24  C   UNL A   1      43.117  25.581  27.592  1.00  0.00     0.074 A 
ATOM     25  C   UNL A   1      41.720  25.333  27.328  1.00  0.00     0.031 C 
ATOM     26  C   UNL A   1      42.961  31.644  29.850  1.00  0.00     0.029 A 
ATOM     27  C   UNL A   1      44.154  30.841  29.600  1.00  0.00     0.049 A 
ATOM     28  H   UNL A   1      44.240  28.868  28.938  1.00  0.00     0.167 HD
ATOM     29  C   UNL A   1      44.115  24.717  27.296  1.00  0.00     0.037 A 
ATOM     30  C   UNL A   1      45.428  31.242  29.762  1.00  0.00     0.037 A 
ATOM     31  C   UNL A   1      45.500  25.011  27.533  1.00  0.00     0.049 A 
ATOM     32  C   UNL A   1      46.521  30.241  29.482  1.00  0.00     0.074 A 
ATOM     33  C   UNL A   1      46.605  24.204  27.347  1.00  0.00     0.029 A 
ATOM     34  N   UNL A   1      45.963  26.236  27.999  1.00  0.00    -0.354 N 
ATOM     35  N   UNL A   1      46.424  29.017  29.018  1.00  0.00    -0.248 NA
ATOM     36  C   UNL A   1      47.896  30.667  29.765  1.00  0.00     0.031 C 
ATOM     37  C   UNL A   1      47.737  24.932  27.734  1.00  0.00     0.029 A 
ATOM     38  C   UNL A   1      47.340  26.207  28.113  1.00  0.00     0.049 A 
ATOM     39  H   UNL A   1      45.394  27.009  28.216  1.00  0.00     0.167 HD
ATOM     40  C   UNL A   1      47.721  28.532  28.936  1.00  0.00     0.074 A 
ATOM     41  C   UNL A   1      48.589  29.606  29.380  1.00  0.00     0.031 C 
ATOM     42  C   UNL A   1      48.161  27.312  28.540  1.00  0.00     0.037 A 
BRANCH  29  43
ATOM     43  C   UNL A   1      43.715  23.369  26.774  1.00  0.00     0.064 A 
ATOM     44  C   UNL A   1      43.035  22.429  27.563  1.00  0.00     0.173 A 
ATOM     45  C   UNL A   1      44.080  22.988  25.474  1.00  0.00     0.173 A 
ATOM     46  F   UNL A   1      42.696  22.727  28.827  1.00  0.00    -0.203 F 
ATOM     47  C   UNL A   1      42.770  21.148  27.083  1.00  0.00     0.198 A 
ATOM     48  C   UNL A   1      43.788  21.718  24.986  1.00  0.00     0.198 A 
ATOM     49  F   UNL A   1      44.742  23.845  24.680  1.00  0.00    -0.203 F 
ATOM     50  F   UNL A   1      42.185  20.243  27.880  1.00  0.00    -0.200 F 
ATOM     51  C   UNL A   1      43.143  20.794  25.795  1.00  0.00     0.200 A 
ATOM     52  F   UNL A   1      44.150  21.378  23.741  1.00  0.00    -0.200 F 
ATOM     53  F   UNL A   1      42.900  19.557  25.340  1.00  0.00    -0.200 F 
ENDBRANCH  29  43
BRANCH  30  54
ATOM     54  C   UNL A   1      45.736  32.617  30.241  1.00  0.00     0.064 A 
ATOM     55  C   UNL A   1      45.872  32.900  31.607  1.00  0.00     0.173 A 
ATOM     56  C   UNL A   1      45.888  33.685  29.342  1.00  0.00     0.173 A 
ATOM     57  F   UNL A   1      45.712  31.923  32.513  1.00  0.00    -0.203 F 
ATOM     58  C   UNL A   1      46.133  34.196  32.055  1.00  0.00     0.198 A 
ATOM     59  C   UNL A   1      46.181  34.973  29.787  1.00  0.00     0.198 A 
ATOM     60  F   UNL A   1      45.763  33.476  28.023  1.00  0.00    -0.203 F 
ATOM     61  F   UNL A   1      46.210  34.445  33.369  1.00  0.00    -0.200 F 
ATOM     62  C   UNL A   1      46.294  35.229  31.145  1.00  0.00     0.200 A 
ATOM     63  F   UNL A   1      46.350  35.964  28.902  1.00  0.00    -0.200 F 
ATOM     64  F   UNL A   1      46.549  36.472  31.574  1.00  0.00    -0.200 F 
ENDBRANCH  30  54
BRANCH  42  65
ATOM     65  C   UNL A   1      49.644  27.102  28.525  1.00  0.00     0.064 A 
ATOM     66  C   UNL A   1      50.331  26.633  29.653  1.00  0.00     0.173 A 
ATOM     67  C   UNL A   1      50.374  27.332  27.350  1.00  0.00     0.173 A 
ATOM     68  F   UNL A   1      49.674  26.412  30.801  1.00  0.00    -0.203 F 
ATOM     69  C   UNL A   1      51.706  26.425  29.612  1.00  0.00     0.198 A 
ATOM     70  C   UNL A   1      51.743  27.095  27.304  1.00  0.00     0.198 A 
ATOM     71  F   UNL A   1      49.755  27.772  26.244  1.00  0.00    -0.203 F 
ATOM     72  F   UNL A   1      52.353  26.021  30.714  1.00  0.00    -0.200 F 
ATOM     73  C   UNL A   1      52.409  26.650  28.436  1.00  0.00     0.200 A 
ATOM     74  F   UNL A   1      52.419  27.298  26.165  1.00  0.00    -0.200 F 
ATOM     75  F   UNL A   1      53.732  26.443  28.398  1.00  0.00    -0.200 F 
ENDBRANCH  42  65
ENDBRANCH  16  17
ENDBRANCH   9  11
ENDBRANCH   8   9
ENDBRANCH   7   8
ENDBRANCH   6   7
ENDBRANCH   5   6
ENDBRANCH   4   5
ENDBRANCH   3   4
ENDBRANCH   2   3
ENDBRANCH   1   2
BRANCH   1  76
ATOM     76  C   UNL A   1      32.381  27.105  23.789  1.00  0.00     0.188 C 
BRANCH  76  77
ATOM     77  O   UNL A   1      31.627  26.641  22.678  1.00  0.00    -0.376 OA
BRANCH  77  78
ATOM     78  C   UNL A   1      31.566  25.225  22.531  1.00  0.00     0.202 C 
BRANCH  78  79
ATOM     79  C   UNL A   1      30.401  24.548  23.266  1.00  0.00     0.261 C 
BRANCH  79  80
ATOM     80  O   UNL A   1      30.780  23.494  24.167  1.00  0.00    -0.460 OA
BRANCH  80  81
ATOM     81  C   UNL A   1      31.165  23.837  25.417  1.00  0.00     0.338 C 
ATOM     82  O   UNL A   1      30.489  24.382  26.271  1.00  0.00    -0.246 OA
BRANCH  81  83
ATOM     83  C   UNL A   1      32.476  23.191  25.658  1.00  0.00     0.062 A 
ATOM     84  C   UNL A   1      33.268  23.683  26.703  1.00  0.00     0.016 A 
ATOM     85  C   UNL A   1      32.850  22.032  24.964  1.00  0.00     0.041 A 
ATOM     86  C   UNL A   1      34.394  22.972  27.104  1.00  0.00     0.003 A 
ATOM     87  C   UNL A   1      34.034  21.365  25.302  1.00  0.00     0.039 A 
ATOM     88  C   UNL A   1      34.768  21.822  26.409  1.00  0.00     0.026 A 
BRANCH  87  89
ATOM     89  N   UNL A   1      34.457  20.247  24.548  1.00  0.00    -0.355 N 
ATOM     90  H   UNL A   1      35.119  20.397  23.833  1.00  0.00     0.167 HD
BRANCH  89  91
ATOM     91  C   UNL A   1      33.993  18.934  24.752  1.00  0.00     0.039 A 
ATOM     92  C   UNL A   1      34.757  17.850  24.298  1.00  0.00     0.033 A 
ATOM     93  C   UNL A   1      32.817  18.695  25.473  1.00  0.00     0.033 A 
ATOM     94  C   UNL A   1      34.377  16.540  24.593  1.00  0.00     0.088 A 
ATOM     95  C   UNL A   1      32.423  17.387  25.770  1.00  0.00     0.088 A 
ATOM     96  C   UNL A   1      33.214  16.313  25.339  1.00  0.00     0.269 A 
BRANCH  96  97
ATOM     97  N   UNL A   1      32.836  14.939  25.692  1.00  0.00     0.062 N 
ATOM     98  O   UNL A   1      33.646  14.035  25.441  1.00  0.00    -0.258 OA
ATOM     99  O   UNL A   1      31.732  14.766  26.228  1.00  0.00    -0.258 OA
ENDBRANCH  96  97
ENDBRANCH  89  91
ENDBRANCH  87  89
ENDBRANCH  81  83
ENDBRANCH  80  81
ENDBRANCH  79  80
ENDBRANCH  78  79
ENDBRANCH  77  78
ENDBRANCH  76  77
ENDBRANCH   1  76
TORSDOF 23
ENDMDL
