MODEL 1
REMARK VINA RESULT:      -9.4      0.000      0.000
REMARK SMILES Cc1c(/C=C/C(=O)OCCOCCOCCOCCOC(=O)c2ccc(-c3c4nc(c(-c5c(F)c(F)c(F)c(F)c5F)c5ccc([nH]5)c(-c5c(F)c(F)c(F)c(F)c5F)c5nc(c(-c6c(F)c(F)c(F)c(F)c6F)c6ccc3[nH]6)C=C5)C=C4)cc2)cccc1C(=O)N1C[C@@H](C)[C@@H](C)C1
REMARK SMILES IDX 13 1 12 2 11 3 10 4 9 5 8 6 6 7 7 8 5 9 4 10 3 11 1 12 2 13
REMARK SMILES IDX 89 14 86 15 88 16 87 17 90 18 91 19 92 20 93 21 98 22 94 23
REMARK SMILES IDX 96 24 95 25 97 26 14 27 15 28 16 29 17 30 18 31 19 32 20 33
REMARK SMILES IDX 21 34 22 35 23 36 24 37 85 38 25 39 84 40 26 41 27 42 28 43
REMARK SMILES IDX 78 44 29 45 83 46 77 47 79 48 30 49 82 50 76 51 75 52 31 54
REMARK SMILES IDX 63 55 43 56 62 57 44 58 47 59 61 60 80 61 45 62 46 63 60 65
REMARK SMILES IDX 81 66 48 67 32 68 33 69 41 70 34 71 35 72 39 73 42 74 36 75
REMARK SMILES IDX 37 76 40 77 38 78 64 79 65 80 73 81 66 82 67 83 71 84 74 85
REMARK SMILES IDX 68 86 69 87 72 88 70 89 49 90 50 91 58 92 51 93 52 94 56 95
REMARK SMILES IDX 59 96 53 97 54 98 57 99 55 100
REMARK H PARENT 79 53 47 64
REMARK Flexibility Score: inf
ROOT
ATOM      1  C   UNL A   1      45.419  43.833  30.983  1.00  0.00     0.188 C 
ENDROOT
BRANCH   1   2
ATOM      2  C   UNL A   1      45.444  42.755  29.893  1.00  0.00     0.188 C 
BRANCH   2   3
ATOM      3  O   UNL A   1      44.816  43.044  28.649  1.00  0.00    -0.376 OA
BRANCH   3   4
ATOM      4  C   UNL A   1      45.075  42.111  27.602  1.00  0.00     0.202 C 
BRANCH   4   5
ATOM      5  C   UNL A   1      44.291  42.354  26.316  1.00  0.00     0.261 C 
BRANCH   5   6
ATOM      6  O   UNL A   1      43.454  41.223  26.052  1.00  0.00    -0.460 OA
BRANCH   6   7
ATOM      7  C   UNL A   1      42.408  41.440  25.234  1.00  0.00     0.330 C 
ATOM      8  O   UNL A   1      41.231  41.322  25.505  1.00  0.00    -0.247 OA
BRANCH   7   9
ATOM      9  C   UNL A   1      42.859  42.054  23.966  1.00  0.00     0.094 C 
ATOM     10  C   UNL A   1      42.314  43.129  23.362  1.00  0.00     0.016 C 
BRANCH  10  11
ATOM     11  C   UNL A   1      42.603  43.419  21.939  1.00  0.00    -0.022 A 
ATOM     12  C   UNL A   1      44.814  44.544  22.425  1.00  0.00     0.046 C 
ATOM     13  C   UNL A   1      43.831  43.944  21.449  1.00  0.00    -0.031 A 
ATOM     14  C   UNL A   1      44.046  43.935  20.044  1.00  0.00     0.043 A 
ATOM     15  C   UNL A   1      41.536  43.213  21.041  1.00  0.00     0.008 A 
ATOM     16  C   UNL A   1      42.981  43.562  19.189  1.00  0.00     0.014 A 
ATOM     17  C   UNL A   1      41.720  43.268  19.676  1.00  0.00     0.001 A 
BRANCH  14  18
ATOM     18  C   UNL A   1      45.241  44.437  19.282  1.00  0.00     0.254 C 
ATOM     19  O   UNL A   1      46.237  43.710  19.217  1.00  0.00    -0.269 OA
BRANCH  18  20
ATOM     20  N   UNL A   1      45.218  45.638  18.595  1.00  0.00    -0.338 N 
ATOM     21  C   UNL A   1      45.042  46.850  19.372  1.00  0.00     0.123 C 
ATOM     22  C   UNL A   1      44.629  45.781  17.268  1.00  0.00     0.123 C 
ATOM     23  C   UNL A   1      44.009  47.678  18.622  1.00  0.00     0.010 C 
ATOM     24  C   UNL A   1      44.222  47.264  17.154  1.00  0.00     0.010 C 
ATOM     25  C   UNL A   1      44.148  49.155  18.957  1.00  0.00     0.010 C 
ATOM     26  C   UNL A   1      45.267  48.091  16.405  1.00  0.00     0.010 C 
ENDBRANCH  18  20
ENDBRANCH  14  18
ENDBRANCH  10  11
ENDBRANCH   7   9
ENDBRANCH   6   7
ENDBRANCH   5   6
ENDBRANCH   4   5
ENDBRANCH   3   4
ENDBRANCH   2   3
ENDBRANCH   1   2
BRANCH   1  27
ATOM     27  O   UNL A   1      45.720  43.385  32.314  1.00  0.00    -0.377 OA
BRANCH  27  28
ATOM     28  C   UNL A   1      44.720  42.465  32.750  1.00  0.00     0.188 C 
BRANCH  28  29
ATOM     29  C   UNL A   1      43.520  43.139  33.408  1.00  0.00     0.188 C 
BRANCH  29  30
ATOM     30  O   UNL A   1      42.273  42.928  32.763  1.00  0.00    -0.376 OA
BRANCH  30  31
ATOM     31  C   UNL A   1      42.294  42.444  31.422  1.00  0.00     0.202 C 
BRANCH  31  32
ATOM     32  C   UNL A   1      42.027  40.939  31.241  1.00  0.00     0.261 C 
BRANCH  32  33
ATOM     33  O   UNL A   1      42.735  40.452  30.081  1.00  0.00    -0.460 OA
BRANCH  33  34
ATOM     34  C   UNL A   1      41.977  40.153  28.989  1.00  0.00     0.338 C 
ATOM     35  O   UNL A   1      40.870  40.609  28.750  1.00  0.00    -0.246 OA
BRANCH  34  36
ATOM     36  C   UNL A   1      42.531  38.929  28.322  1.00  0.00     0.060 A 
ATOM     37  C   UNL A   1      41.720  38.181  27.448  1.00  0.00     0.016 A 
ATOM     38  C   UNL A   1      43.633  38.319  28.908  1.00  0.00     0.016 A 
ATOM     39  C   UNL A   1      41.893  36.783  27.333  1.00  0.00     0.010 A 
ATOM     40  C   UNL A   1      43.729  36.938  28.861  1.00  0.00     0.010 A 
ATOM     41  C   UNL A   1      42.840  36.135  28.124  1.00  0.00    -0.014 A 
BRANCH  41  42
ATOM     42  C   UNL A   1      42.931  34.670  28.367  1.00  0.00     0.031 A 
ATOM     43  C   UNL A   1      43.942  33.863  27.598  1.00  0.00     0.074 A 
ATOM     44  C   UNL A   1      42.436  34.134  29.517  1.00  0.00     0.049 A 
ATOM     45  N   UNL A   1      44.210  32.614  27.791  1.00  0.00    -0.248 NA
ATOM     46  C   UNL A   1      44.804  34.433  26.571  1.00  0.00     0.031 C 
ATOM     47  C   UNL A   1      42.937  32.943  30.210  1.00  0.00     0.029 A 
ATOM     48  N   UNL A   1      41.459  34.590  30.426  1.00  0.00    -0.354 N 
ATOM     49  C   UNL A   1      45.469  32.343  27.288  1.00  0.00     0.074 A 
ATOM     50  C   UNL A   1      45.740  33.487  26.449  1.00  0.00     0.031 C 
ATOM     51  C   UNL A   1      42.210  32.663  31.300  1.00  0.00     0.029 A 
ATOM     52  C   UNL A   1      41.016  33.438  31.148  1.00  0.00     0.049 A 
ATOM     53  H   UNL A   1      41.145  35.517  30.541  1.00  0.00     0.167 HD
ATOM     54  C   UNL A   1      46.162  31.256  27.774  1.00  0.00     0.037 A 
ATOM     55  C   UNL A   1      39.790  32.867  30.937  1.00  0.00     0.037 A 
ATOM     56  C   UNL A   1      45.332  30.462  28.728  1.00  0.00     0.049 A 
ATOM     57  C   UNL A   1      39.890  31.463  30.343  1.00  0.00     0.074 A 
ATOM     58  C   UNL A   1      45.470  30.013  30.035  1.00  0.00     0.029 A 
ATOM     59  N   UNL A   1      44.007  30.167  28.400  1.00  0.00    -0.354 N 
ATOM     60  N   UNL A   1      41.027  30.969  29.921  1.00  0.00    -0.248 NA
ATOM     61  C   UNL A   1      38.816  30.491  30.176  1.00  0.00     0.031 C 
ATOM     62  C   UNL A   1      44.236  29.432  30.463  1.00  0.00     0.029 A 
ATOM     63  C   UNL A   1      43.340  29.506  29.412  1.00  0.00     0.049 A 
ATOM     64  H   UNL A   1      43.592  30.406  27.540  1.00  0.00     0.167 HD
ATOM     65  C   UNL A   1      40.909  29.678  29.522  1.00  0.00     0.074 A 
ATOM     66  C   UNL A   1      39.474  29.448  29.622  1.00  0.00     0.031 C 
ATOM     67  C   UNL A   1      42.013  28.944  29.161  1.00  0.00     0.037 A 
BRANCH  54  68
ATOM     68  C   UNL A   1      47.669  30.971  27.563  1.00  0.00     0.064 A 
ATOM     69  C   UNL A   1      48.657  31.948  27.852  1.00  0.00     0.173 A 
ATOM     70  C   UNL A   1      48.227  29.772  27.064  1.00  0.00     0.173 A 
ATOM     71  F   UNL A   1      48.351  33.104  28.450  1.00  0.00    -0.203 F 
ATOM     72  C   UNL A   1      50.027  31.775  27.582  1.00  0.00     0.198 A 
ATOM     73  C   UNL A   1      49.594  29.595  26.793  1.00  0.00     0.198 A 
ATOM     74  F   UNL A   1      47.500  28.677  26.861  1.00  0.00    -0.203 F 
ATOM     75  F   UNL A   1      50.892  32.758  27.869  1.00  0.00    -0.200 F 
ATOM     76  C   UNL A   1      50.495  30.601  27.040  1.00  0.00     0.200 A 
ATOM     77  F   UNL A   1      50.022  28.420  26.306  1.00  0.00    -0.200 F 
ATOM     78  F   UNL A   1      51.800  30.424  26.794  1.00  0.00    -0.200 F 
ENDBRANCH  54  68
BRANCH  55  79
ATOM     79  C   UNL A   1      38.754  33.935  30.823  1.00  0.00     0.064 A 
ATOM     80  C   UNL A   1      37.961  33.852  29.650  1.00  0.00     0.173 A 
ATOM     81  C   UNL A   1      38.134  34.422  31.981  1.00  0.00     0.173 A 
ATOM     82  F   UNL A   1      38.511  33.423  28.502  1.00  0.00    -0.203 F 
ATOM     83  C   UNL A   1      36.572  33.966  29.713  1.00  0.00     0.198 A 
ATOM     84  C   UNL A   1      36.743  34.579  32.023  1.00  0.00     0.198 A 
ATOM     85  F   UNL A   1      38.836  34.556  33.115  1.00  0.00    -0.203 F 
ATOM     86  F   UNL A   1      35.826  33.636  28.648  1.00  0.00    -0.200 F 
ATOM     87  C   UNL A   1      35.962  34.275  30.915  1.00  0.00     0.200 A 
ATOM     88  F   UNL A   1      36.142  34.898  33.179  1.00  0.00    -0.200 F 
ATOM     89  F   UNL A   1      34.627  34.215  31.024  1.00  0.00    -0.200 F 
ENDBRANCH  55  79
BRANCH  67  90
ATOM     90  C   UNL A   1      41.972  27.601  28.481  1.00  0.00     0.064 A 
ATOM     91  C   UNL A   1      42.367  26.409  29.087  1.00  0.00     0.173 A 
ATOM     92  C   UNL A   1      41.509  27.485  27.144  1.00  0.00     0.173 A 
ATOM     93  F   UNL A   1      43.023  26.411  30.255  1.00  0.00    -0.203 F 
ATOM     94  C   UNL A   1      42.126  25.174  28.481  1.00  0.00     0.198 A 
ATOM     95  C   UNL A   1      41.324  26.260  26.521  1.00  0.00     0.198 A 
ATOM     96  F   UNL A   1      41.191  28.547  26.394  1.00  0.00    -0.203 F 
ATOM     97  F   UNL A   1      42.413  24.047  29.147  1.00  0.00    -0.200 F 
ATOM     98  C   UNL A   1      41.585  25.099  27.210  1.00  0.00     0.200 A 
ATOM     99  F   UNL A   1      40.864  26.219  25.262  1.00  0.00    -0.200 F 
ATOM    100  F   UNL A   1      41.322  23.913  26.647  1.00  0.00    -0.200 F 
ENDBRANCH  67  90
ENDBRANCH  41  42
ENDBRANCH  34  36
ENDBRANCH  33  34
ENDBRANCH  32  33
ENDBRANCH  31  32
ENDBRANCH  30  31
ENDBRANCH  29  30
ENDBRANCH  28  29
ENDBRANCH  27  28
ENDBRANCH   1  27
TORSDOF 23
ENDMDL
MODEL 2
REMARK VINA RESULT:      -9.1      8.601     13.174
REMARK SMILES Cc1c(/C=C/C(=O)OCCOCCOCCOCCOC(=O)c2ccc(-c3c4nc(c(-c5c(F)c(F)c(F)c(F)c5F)c5ccc([nH]5)c(-c5c(F)c(F)c(F)c(F)c5F)c5nc(c(-c6c(F)c(F)c(F)c(F)c6F)c6ccc3[nH]6)C=C5)C=C4)cc2)cccc1C(=O)N1C[C@@H](C)[C@@H](C)C1
REMARK SMILES IDX 13 1 12 2 11 3 10 4 9 5 8 6 6 7 7 8 5 9 4 10 3 11 1 12 2 13
REMARK SMILES IDX 89 14 86 15 88 16 87 17 90 18 91 19 92 20 93 21 98 22 94 23
REMARK SMILES IDX 96 24 95 25 97 26 14 27 15 28 16 29 17 30 18 31 19 32 20 33
REMARK SMILES IDX 21 34 22 35 23 36 24 37 85 38 25 39 84 40 26 41 27 42 28 43
REMARK SMILES IDX 78 44 29 45 83 46 77 47 79 48 30 49 82 50 76 51 75 52 31 54
REMARK SMILES IDX 63 55 43 56 62 57 44 58 47 59 61 60 80 61 45 62 46 63 60 65
REMARK SMILES IDX 81 66 48 67 32 68 33 69 41 70 34 71 35 72 39 73 42 74 36 75
REMARK SMILES IDX 37 76 40 77 38 78 64 79 65 80 73 81 66 82 67 83 71 84 74 85
REMARK SMILES IDX 68 86 69 87 72 88 70 89 49 90 50 91 58 92 51 93 52 94 56 95
REMARK SMILES IDX 59 96 53 97 54 98 57 99 55 100
REMARK H PARENT 79 53 47 64
REMARK Flexibility Score: inf
ROOT
ATOM      1  C   UNL A   1      41.535  32.113  32.768  1.00  0.00     0.188 C 
ENDROOT
BRANCH   1   2
ATOM      2  C   UNL A   1      40.179  31.729  32.165  1.00  0.00     0.188 C 
BRANCH   2   3
ATOM      3  O   UNL A   1      39.797  32.329  30.932  1.00  0.00    -0.376 OA
BRANCH   3   4
ATOM      4  C   UNL A   1      38.432  32.153  30.563  1.00  0.00     0.202 C 
BRANCH   4   5
ATOM      5  C   UNL A   1      37.430  32.342  31.700  1.00  0.00     0.261 C 
BRANCH   5   6
ATOM      6  O   UNL A   1      36.117  32.016  31.231  1.00  0.00    -0.460 OA
BRANCH   6   7
ATOM      7  C   UNL A   1      35.472  32.986  30.556  1.00  0.00     0.330 C 
ATOM      8  O   UNL A   1      35.767  34.161  30.508  1.00  0.00    -0.247 OA
BRANCH   7   9
ATOM      9  C   UNL A   1      34.431  32.404  29.681  1.00  0.00     0.094 C 
ATOM     10  C   UNL A   1      34.631  31.827  28.478  1.00  0.00     0.016 C 
BRANCH  10  11
ATOM     11  C   UNL A   1      33.501  31.625  27.544  1.00  0.00    -0.022 A 
ATOM     12  C   UNL A   1      34.394  29.441  26.640  1.00  0.00     0.046 C 
ATOM     13  C   UNL A   1      33.279  30.447  26.778  1.00  0.00    -0.031 A 
ATOM     14  C   UNL A   1      32.026  30.307  26.121  1.00  0.00     0.043 A 
ATOM     15  C   UNL A   1      32.638  32.728  27.376  1.00  0.00     0.008 A 
ATOM     16  C   UNL A   1      31.125  31.398  26.119  1.00  0.00     0.014 A 
ATOM     17  C   UNL A   1      31.452  32.618  26.682  1.00  0.00     0.001 A 
BRANCH  14  18
ATOM     18  C   UNL A   1      31.553  29.175  25.251  1.00  0.00     0.254 C 
ATOM     19  O   UNL A   1      30.648  29.401  24.443  1.00  0.00    -0.269 OA
BRANCH  18  20
ATOM     20  N   UNL A   1      32.159  27.931  25.278  1.00  0.00    -0.338 N 
ATOM     21  C   UNL A   1      32.305  27.230  24.016  1.00  0.00     0.123 C 
ATOM     22  C   UNL A   1      31.989  26.989  26.379  1.00  0.00     0.123 C 
ATOM     23  C   UNL A   1      31.879  25.795  24.287  1.00  0.00     0.010 C 
ATOM     24  C   UNL A   1      32.236  25.594  25.772  1.00  0.00     0.010 C 
ATOM     25  C   UNL A   1      32.509  24.842  23.283  1.00  0.00     0.010 C 
ATOM     26  C   UNL A   1      33.661  25.102  26.022  1.00  0.00     0.010 C 
ENDBRANCH  18  20
ENDBRANCH  14  18
ENDBRANCH  10  11
ENDBRANCH   7   9
ENDBRANCH   6   7
ENDBRANCH   5   6
ENDBRANCH   4   5
ENDBRANCH   3   4
ENDBRANCH   2   3
ENDBRANCH   1   2
BRANCH   1  27
ATOM     27  O   UNL A   1      41.551  33.308  33.563  1.00  0.00    -0.377 OA
BRANCH  27  28
ATOM     28  C   UNL A   1      42.191  33.046  34.813  1.00  0.00     0.188 C 
BRANCH  28  29
ATOM     29  C   UNL A   1      43.600  33.622  34.905  1.00  0.00     0.188 C 
BRANCH  29  30
ATOM     30  O   UNL A   1      44.651  32.709  34.631  1.00  0.00    -0.376 OA
BRANCH  30  31
ATOM     31  C   UNL A   1      45.900  33.246  34.199  1.00  0.00     0.202 C 
BRANCH  31  32
ATOM     32  C   UNL A   1      46.235  33.065  32.706  1.00  0.00     0.261 C 
BRANCH  32  33
ATOM     33  O   UNL A   1      47.597  32.613  32.562  1.00  0.00    -0.460 OA
BRANCH  33  34
ATOM     34  C   UNL A   1      48.320  33.177  31.553  1.00  0.00     0.338 C 
ATOM     35  O   UNL A   1      48.702  34.336  31.519  1.00  0.00    -0.246 OA
BRANCH  34  36
ATOM     36  C   UNL A   1      48.265  32.287  30.347  1.00  0.00     0.060 A 
ATOM     37  C   UNL A   1      47.509  32.675  29.225  1.00  0.00     0.016 A 
ATOM     38  C   UNL A   1      48.568  30.942  30.524  1.00  0.00     0.016 A 
ATOM     39  C   UNL A   1      46.889  31.701  28.410  1.00  0.00     0.010 A 
ATOM     40  C   UNL A   1      47.877  30.003  29.777  1.00  0.00     0.010 A 
ATOM     41  C   UNL A   1      46.987  30.352  28.746  1.00  0.00    -0.014 A 
BRANCH  41  42
ATOM     42  C   UNL A   1      46.150  29.247  28.206  1.00  0.00     0.031 A 
ATOM     43  C   UNL A   1      44.858  28.903  28.897  1.00  0.00     0.074 A 
ATOM     44  C   UNL A   1      46.307  28.835  26.917  1.00  0.00     0.049 A 
ATOM     45  N   UNL A   1      43.982  28.054  28.472  1.00  0.00    -0.248 NA
ATOM     46  C   UNL A   1      44.407  29.558  30.117  1.00  0.00     0.031 C 
ATOM     47  C   UNL A   1      45.269  28.275  26.048  1.00  0.00     0.029 A 
ATOM     48  N   UNL A   1      47.390  28.941  26.018  1.00  0.00    -0.354 N 
ATOM     49  C   UNL A   1      42.760  28.344  29.051  1.00  0.00     0.074 A 
ATOM     50  C   UNL A   1      43.114  29.221  30.143  1.00  0.00     0.031 C 
ATOM     51  C   UNL A   1      45.756  27.943  24.846  1.00  0.00     0.029 A 
ATOM     52  C   UNL A   1      47.177  27.941  25.019  1.00  0.00     0.049 A 
ATOM     53  H   UNL A   1      48.140  29.576  26.070  1.00  0.00     0.167 HD
ATOM     54  C   UNL A   1      41.609  27.915  28.427  1.00  0.00     0.037 A 
ATOM     55  C   UNL A   1      47.925  26.797  24.954  1.00  0.00     0.037 A 
ATOM     56  C   UNL A   1      41.915  27.073  27.234  1.00  0.00     0.049 A 
ATOM     57  C   UNL A   1      47.102  25.541  25.239  1.00  0.00     0.074 A 
ATOM     58  C   UNL A   1      41.579  27.093  25.887  1.00  0.00     0.029 A 
ATOM     59  N   UNL A   1      42.890  26.078  27.331  1.00  0.00    -0.354 N 
ATOM     60  N   UNL A   1      45.870  25.605  25.677  1.00  0.00    -0.248 NA
ATOM     61  C   UNL A   1      47.512  24.153  25.066  1.00  0.00     0.031 C 
ATOM     62  C   UNL A   1      42.336  26.093  25.200  1.00  0.00     0.029 A 
ATOM     63  C   UNL A   1      43.127  25.442  26.129  1.00  0.00     0.049 A 
ATOM     64  H   UNL A   1      43.359  25.854  28.167  1.00  0.00     0.167 HD
ATOM     65  C   UNL A   1      45.294  24.380  25.772  1.00  0.00     0.074 A 
ATOM     66  C   UNL A   1      46.401  23.487  25.456  1.00  0.00     0.031 C 
ATOM     67  C   UNL A   1      43.966  24.244  26.094  1.00  0.00     0.037 A 
BRANCH  54  68
ATOM     68  C   UNL A   1      40.171  28.392  28.749  1.00  0.00     0.064 A 
ATOM     69  C   UNL A   1      39.573  28.150  30.013  1.00  0.00     0.173 A 
ATOM     70  C   UNL A   1      39.305  29.077  27.866  1.00  0.00     0.173 A 
ATOM     71  F   UNL A   1      40.265  27.628  31.032  1.00  0.00    -0.203 F 
ATOM     72  C   UNL A   1      38.238  28.471  30.319  1.00  0.00     0.198 A 
ATOM     73  C   UNL A   1      37.972  29.400  28.167  1.00  0.00     0.198 A 
ATOM     74  F   UNL A   1      39.706  29.531  26.682  1.00  0.00    -0.203 F 
ATOM     75  F   UNL A   1      37.747  28.190  31.534  1.00  0.00    -0.200 F 
ATOM     76  C   UNL A   1      37.432  29.087  29.390  1.00  0.00     0.200 A 
ATOM     77  F   UNL A   1      37.227  30.040  27.253  1.00  0.00    -0.200 F 
ATOM     78  F   UNL A   1      36.165  29.409  29.679  1.00  0.00    -0.200 F 
ENDBRANCH  54  68
BRANCH  55  79
ATOM     79  C   UNL A   1      49.363  27.127  25.173  1.00  0.00     0.064 A 
ATOM     80  C   UNL A   1      49.897  26.625  26.388  1.00  0.00     0.173 A 
ATOM     81  C   UNL A   1      50.231  27.195  24.074  1.00  0.00     0.173 A 
ATOM     82  F   UNL A   1      49.120  26.567  27.483  1.00  0.00    -0.203 F 
ATOM     83  C   UNL A   1      51.124  25.964  26.415  1.00  0.00     0.198 A 
ATOM     84  C   UNL A   1      51.481  26.568  24.123  1.00  0.00     0.198 A 
ATOM     85  F   UNL A   1      49.798  27.689  22.906  1.00  0.00    -0.203 F 
ATOM     86  F   UNL A   1      51.491  25.281  27.510  1.00  0.00    -0.200 F 
ATOM     87  C   UNL A   1      51.889  25.888  25.265  1.00  0.00     0.200 A 
ATOM     88  F   UNL A   1      52.241  26.506  23.020  1.00  0.00    -0.200 F 
ATOM     89  F   UNL A   1      52.980  25.109  25.236  1.00  0.00    -0.200 F 
ENDBRANCH  55  79
BRANCH  67  90
ATOM     90  C   UNL A   1      43.295  22.946  26.459  1.00  0.00     0.064 A 
ATOM     91  C   UNL A   1      42.511  22.769  27.599  1.00  0.00     0.173 A 
ATOM     92  C   UNL A   1      43.433  21.805  25.625  1.00  0.00     0.173 A 
ATOM     93  F   UNL A   1      42.484  23.691  28.570  1.00  0.00    -0.203 F 
ATOM     94  C   UNL A   1      41.758  21.608  27.787  1.00  0.00     0.198 A 
ATOM     95  C   UNL A   1      42.728  20.630  25.845  1.00  0.00     0.198 A 
ATOM     96  F   UNL A   1      44.232  21.785  24.552  1.00  0.00    -0.203 F 
ATOM     97  F   UNL A   1      40.928  21.524  28.835  1.00  0.00    -0.200 F 
ATOM     98  C   UNL A   1      41.849  20.550  26.899  1.00  0.00     0.200 A 
ATOM     99  F   UNL A   1      42.888  19.595  25.007  1.00  0.00    -0.200 F 
ATOM    100  F   UNL A   1      41.098  19.454  27.062  1.00  0.00    -0.200 F 
ENDBRANCH  67  90
ENDBRANCH  41  42
ENDBRANCH  34  36
ENDBRANCH  33  34
ENDBRANCH  32  33
ENDBRANCH  31  32
ENDBRANCH  30  31
ENDBRANCH  29  30
ENDBRANCH  28  29
ENDBRANCH  27  28
ENDBRANCH   1  27
TORSDOF 23
ENDMDL
MODEL 3
REMARK VINA RESULT:      -8.6     10.526     17.128
REMARK SMILES Cc1c(/C=C/C(=O)OCCOCCOCCOCCOC(=O)c2ccc(-c3c4nc(c(-c5c(F)c(F)c(F)c(F)c5F)c5ccc([nH]5)c(-c5c(F)c(F)c(F)c(F)c5F)c5nc(c(-c6c(F)c(F)c(F)c(F)c6F)c6ccc3[nH]6)C=C5)C=C4)cc2)cccc1C(=O)N1C[C@@H](C)[C@@H](C)C1
REMARK SMILES IDX 13 1 12 2 11 3 10 4 9 5 8 6 6 7 7 8 5 9 4 10 3 11 1 12 2 13
REMARK SMILES IDX 89 14 86 15 88 16 87 17 90 18 91 19 92 20 93 21 98 22 94 23
REMARK SMILES IDX 96 24 95 25 97 26 14 27 15 28 16 29 17 30 18 31 19 32 20 33
REMARK SMILES IDX 21 34 22 35 23 36 24 37 85 38 25 39 84 40 26 41 27 42 28 43
REMARK SMILES IDX 78 44 29 45 83 46 77 47 79 48 30 49 82 50 76 51 75 52 31 54
REMARK SMILES IDX 63 55 43 56 62 57 44 58 47 59 61 60 80 61 45 62 46 63 60 65
REMARK SMILES IDX 81 66 48 67 32 68 33 69 41 70 34 71 35 72 39 73 42 74 36 75
REMARK SMILES IDX 37 76 40 77 38 78 64 79 65 80 73 81 66 82 67 83 71 84 74 85
REMARK SMILES IDX 68 86 69 87 72 88 70 89 49 90 50 91 58 92 51 93 52 94 56 95
REMARK SMILES IDX 59 96 53 97 54 98 57 99 55 100
REMARK H PARENT 79 53 47 64
REMARK Flexibility Score: inf
ROOT
ATOM      1  C   UNL A   1      53.201  21.712  33.221  1.00  0.00     0.188 C 
ENDROOT
BRANCH   1   2
ATOM      2  C   UNL A   1      53.327  23.197  33.582  1.00  0.00     0.188 C 
BRANCH   2   3
ATOM      3  O   UNL A   1      52.909  24.160  32.620  1.00  0.00    -0.376 OA
BRANCH   3   4
ATOM      4  C   UNL A   1      52.204  25.281  33.146  1.00  0.00     0.202 C 
BRANCH   4   5
ATOM      5  C   UNL A   1      50.683  25.165  33.095  1.00  0.00     0.261 C 
BRANCH   5   6
ATOM      6  O   UNL A   1      50.102  26.211  33.882  1.00  0.00    -0.460 OA
BRANCH   6   7
ATOM      7  C   UNL A   1      48.780  26.405  33.725  1.00  0.00     0.330 C 
ATOM      8  O   UNL A   1      48.166  26.443  32.679  1.00  0.00    -0.247 OA
BRANCH   7   9
ATOM      9  C   UNL A   1      48.091  26.371  35.034  1.00  0.00     0.094 C 
ATOM     10  C   UNL A   1      48.547  25.785  36.160  1.00  0.00     0.016 C 
BRANCH  10  11
ATOM     11  C   UNL A   1      47.625  25.494  37.281  1.00  0.00    -0.022 A 
ATOM     12  C   UNL A   1      47.648  27.864  38.159  1.00  0.00     0.046 C 
ATOM     13  C   UNL A   1      47.062  26.474  38.147  1.00  0.00    -0.031 A 
ATOM     14  C   UNL A   1      46.009  26.071  39.013  1.00  0.00     0.043 A 
ATOM     15  C   UNL A   1      47.361  24.131  37.522  1.00  0.00     0.008 A 
ATOM     16  C   UNL A   1      45.676  24.699  39.097  1.00  0.00     0.014 A 
ATOM     17  C   UNL A   1      46.386  23.729  38.410  1.00  0.00     0.001 A 
BRANCH  14  18
ATOM     18  C   UNL A   1      45.263  26.903  40.020  1.00  0.00     0.254 C 
ATOM     19  O   UNL A   1      44.031  26.833  40.033  1.00  0.00    -0.269 OA
BRANCH  18  20
ATOM     20  N   UNL A   1      45.922  27.664  40.968  1.00  0.00    -0.338 N 
ATOM     21  C   UNL A   1      45.745  29.103  40.912  1.00  0.00     0.123 C 
ATOM     22  C   UNL A   1      47.245  27.323  41.482  1.00  0.00     0.123 C 
ATOM     23  C   UNL A   1      47.134  29.699  41.086  1.00  0.00     0.010 C 
ATOM     24  C   UNL A   1      47.862  28.655  41.953  1.00  0.00     0.010 C 
ATOM     25  C   UNL A   1      47.054  31.119  41.625  1.00  0.00     0.010 C 
ATOM     26  C   UNL A   1      47.706  28.860  43.459  1.00  0.00     0.010 C 
ENDBRANCH  18  20
ENDBRANCH  14  18
ENDBRANCH  10  11
ENDBRANCH   7   9
ENDBRANCH   6   7
ENDBRANCH   5   6
ENDBRANCH   4   5
ENDBRANCH   3   4
ENDBRANCH   2   3
ENDBRANCH   1   2
BRANCH   1  27
ATOM     27  O   UNL A   1      53.413  20.785  34.297  1.00  0.00    -0.377 OA
BRANCH  27  28
ATOM     28  C   UNL A   1      52.424  19.757  34.248  1.00  0.00     0.188 C 
BRANCH  28  29
ATOM     29  C   UNL A   1      51.817  19.434  35.610  1.00  0.00     0.188 C 
BRANCH  29  30
ATOM     30  O   UNL A   1      50.413  19.614  35.709  1.00  0.00    -0.376 OA
BRANCH  30  31
ATOM     31  C   UNL A   1      49.930  20.538  36.681  1.00  0.00     0.202 C 
BRANCH  31  32
ATOM     32  C   UNL A   1      48.620  20.149  37.393  1.00  0.00     0.261 C 
BRANCH  32  33
ATOM     33  O   UNL A   1      47.598  19.864  36.416  1.00  0.00    -0.460 OA
BRANCH  33  34
ATOM     34  C   UNL A   1      46.442  20.578  36.520  1.00  0.00     0.338 C 
ATOM     35  O   UNL A   1      45.604  20.442  37.397  1.00  0.00    -0.246 OA
BRANCH  34  36
ATOM     36  C   UNL A   1      46.179  21.286  35.224  1.00  0.00     0.060 A 
ATOM     37  C   UNL A   1      47.090  22.251  34.757  1.00  0.00     0.016 A 
ATOM     38  C   UNL A   1      44.870  21.313  34.759  1.00  0.00     0.016 A 
ATOM     39  C   UNL A   1      46.637  23.353  33.997  1.00  0.00     0.010 A 
ATOM     40  C   UNL A   1      44.425  22.446  34.098  1.00  0.00     0.010 A 
ATOM     41  C   UNL A   1      45.275  23.510  33.750  1.00  0.00    -0.014 A 
BRANCH  41  42
ATOM     42  C   UNL A   1      44.605  24.747  33.263  1.00  0.00     0.031 A 
ATOM     43  C   UNL A   1      43.984  25.684  34.264  1.00  0.00     0.074 A 
ATOM     44  C   UNL A   1      44.892  25.242  32.028  1.00  0.00     0.049 A 
ATOM     45  N   UNL A   1      43.478  26.842  33.996  1.00  0.00    -0.248 NA
ATOM     46  C   UNL A   1      43.946  25.412  35.695  1.00  0.00     0.031 C 
ATOM     47  C   UNL A   1      44.863  26.650  31.624  1.00  0.00     0.029 A 
ATOM     48  N   UNL A   1      45.416  24.634  30.867  1.00  0.00    -0.354 N 
ATOM     49  C   UNL A   1      43.460  27.601  35.151  1.00  0.00     0.074 A 
ATOM     50  C   UNL A   1      43.664  26.620  36.192  1.00  0.00     0.031 C 
ATOM     51  C   UNL A   1      45.170  26.801  30.329  1.00  0.00     0.029 A 
ATOM     52  C   UNL A   1      45.057  25.485  29.775  1.00  0.00     0.049 A 
ATOM     53  H   UNL A   1      45.925  23.793  30.819  1.00  0.00     0.167 HD
ATOM     54  C   UNL A   1      43.423  28.974  35.046  1.00  0.00     0.037 A 
ATOM     55  C   UNL A   1      44.086  25.149  28.871  1.00  0.00     0.037 A 
ATOM     56  C   UNL A   1      43.288  29.410  33.625  1.00  0.00     0.049 A 
ATOM     57  C   UNL A   1      42.871  26.073  28.942  1.00  0.00     0.074 A 
ATOM     58  C   UNL A   1      43.987  30.250  32.769  1.00  0.00     0.029 A 
ATOM     59  N   UNL A   1      42.361  28.770  32.798  1.00  0.00    -0.354 N 
ATOM     60  N   UNL A   1      42.729  26.957  29.898  1.00  0.00    -0.248 NA
ATOM     61  C   UNL A   1      41.751  26.140  28.012  1.00  0.00     0.031 C 
ATOM     62  C   UNL A   1      43.453  30.124  31.448  1.00  0.00     0.029 A 
ATOM     63  C   UNL A   1      42.410  29.216  31.493  1.00  0.00     0.049 A 
ATOM     64  H   UNL A   1      41.740  28.074  33.113  1.00  0.00     0.167 HD
ATOM     65  C   UNL A   1      41.633  27.736  29.717  1.00  0.00     0.074 A 
ATOM     66  C   UNL A   1      41.000  27.124  28.557  1.00  0.00     0.031 C 
ATOM     67  C   UNL A   1      41.377  28.803  30.544  1.00  0.00     0.037 A 
BRANCH  54  68
ATOM     68  C   UNL A   1      43.699  29.981  36.190  1.00  0.00     0.064 A 
ATOM     69  C   UNL A   1      45.011  30.205  36.681  1.00  0.00     0.173 A 
ATOM     70  C   UNL A   1      42.729  30.752  36.871  1.00  0.00     0.173 A 
ATOM     71  F   UNL A   1      46.086  29.670  36.091  1.00  0.00    -0.203 F 
ATOM     72  C   UNL A   1      45.301  31.030  37.784  1.00  0.00     0.198 A 
ATOM     73  C   UNL A   1      43.014  31.576  37.972  1.00  0.00     0.198 A 
ATOM     74  F   UNL A   1      41.458  30.806  36.483  1.00  0.00    -0.203 F 
ATOM     75  F   UNL A   1      46.569  31.172  38.194  1.00  0.00    -0.200 F 
ATOM     76  C   UNL A   1      44.298  31.707  38.438  1.00  0.00     0.200 A 
ATOM     77  F   UNL A   1      42.018  32.258  38.559  1.00  0.00    -0.200 F 
ATOM     78  F   UNL A   1      44.569  32.506  39.479  1.00  0.00    -0.200 F 
ENDBRANCH  54  68
BRANCH  55  79
ATOM     79  C   UNL A   1      44.236  23.715  28.487  1.00  0.00     0.064 A 
ATOM     80  C   UNL A   1      43.128  22.901  28.834  1.00  0.00     0.173 A 
ATOM     81  C   UNL A   1      44.930  23.383  27.316  1.00  0.00     0.173 A 
ATOM     82  F   UNL A   1      42.444  23.152  29.963  1.00  0.00    -0.203 F 
ATOM     83  C   UNL A   1      42.578  22.006  27.917  1.00  0.00     0.198 A 
ATOM     84  C   UNL A   1      44.396  22.449  26.420  1.00  0.00     0.198 A 
ATOM     85  F   UNL A   1      46.006  24.092  26.948  1.00  0.00    -0.203 F 
ATOM     86  F   UNL A   1      41.390  21.436  28.169  1.00  0.00    -0.200 F 
ATOM     87  C   UNL A   1      43.184  21.824  26.687  1.00  0.00     0.200 A 
ATOM     88  F   UNL A   1      44.987  22.249  25.232  1.00  0.00    -0.200 F 
ATOM     89  F   UNL A   1      42.570  21.103  25.737  1.00  0.00    -0.200 F 
ENDBRANCH  55  79
BRANCH  67  90
ATOM     90  C   UNL A   1      40.083  29.572  30.585  1.00  0.00     0.064 A 
ATOM     91  C   UNL A   1      38.893  29.067  31.108  1.00  0.00     0.173 A 
ATOM     92  C   UNL A   1      40.018  30.897  30.078  1.00  0.00     0.173 A 
ATOM     93  F   UNL A   1      38.767  27.769  31.411  1.00  0.00    -0.203 F 
ATOM     94  C   UNL A   1      37.779  29.888  31.297  1.00  0.00     0.198 A 
ATOM     95  C   UNL A   1      38.890  31.694  30.215  1.00  0.00     0.198 A 
ATOM     96  F   UNL A   1      41.045  31.485  29.454  1.00  0.00    -0.203 F 
ATOM     97  F   UNL A   1      36.694  29.395  31.909  1.00  0.00    -0.200 F 
ATOM     98  C   UNL A   1      37.786  31.205  30.872  1.00  0.00     0.200 A 
ATOM     99  F   UNL A   1      38.901  32.945  29.731  1.00  0.00    -0.200 F 
ATOM    100  F   UNL A   1      36.730  31.999  31.088  1.00  0.00    -0.200 F 
ENDBRANCH  67  90
ENDBRANCH  41  42
ENDBRANCH  34  36
ENDBRANCH  33  34
ENDBRANCH  32  33
ENDBRANCH  31  32
ENDBRANCH  30  31
ENDBRANCH  29  30
ENDBRANCH  28  29
ENDBRANCH  27  28
ENDBRANCH   1  27
TORSDOF 23
ENDMDL
