MODEL 1
REMARK VINA RESULT:     -10.7      0.000      0.000
REMARK SMILES COc1cc(C)cc2c1O[C@H](C(F)(F)F)C(C(=O)OCCOCCOCCOCCOC(=O)c1ccc(-c3c4nc(c(-c5c(F)c(F)c(F)c(F)c5F)c5ccc([nH]5)c(-c5c(F)c(F)c(F)c(F)c5F)c5nc(c(-c6c(F)c(F)c(F)c(F)c6F)c6ccc3[nH]6)C=C5)C=C4)cc1)=C2
REMARK SMILES IDX 26 1 25 2 24 3 23 4 22 5 21 6 20 7 19 8 17 9 18 10 16 11
REMARK SMILES IDX 3 12 4 13 9 14 5 15 8 16 10 17 6 18 7 19 97 20 11 21 2 22
REMARK SMILES IDX 1 23 12 24 13 25 14 26 15 27 27 28 28 29 29 30 30 31 31 32
REMARK SMILES IDX 32 33 33 34 34 35 35 36 96 37 36 38 95 39 37 40 38 41 39 42
REMARK SMILES IDX 89 43 40 44 94 45 88 46 90 47 41 48 93 49 87 50 86 51 42 53
REMARK SMILES IDX 74 54 54 55 73 56 55 57 58 58 72 59 91 60 56 61 57 62 71 64
REMARK SMILES IDX 92 65 59 66 43 67 44 68 52 69 45 70 46 71 50 72 53 73 47 74
REMARK SMILES IDX 48 75 51 76 49 77 75 78 76 79 84 80 77 81 78 82 82 83 85 84
REMARK SMILES IDX 79 85 80 86 83 87 81 88 60 89 61 90 69 91 62 92 63 93 67 94
REMARK SMILES IDX 70 95 64 96 65 97 68 98 66 99
REMARK H PARENT 90 52 58 63
REMARK Flexibility Score: inf
ROOT
ATOM      1  C   UNL A   1      33.438  28.857  25.811  1.00  0.00     0.188 C 
ENDROOT
BRANCH   1   2
ATOM      2  O   UNL A   1      33.157  29.493  24.563  1.00  0.00    -0.377 OA
BRANCH   2   3
ATOM      3  C   UNL A   1      32.299  28.817  23.656  1.00  0.00     0.188 C 
BRANCH   3   4
ATOM      4  C   UNL A   1      30.817  28.893  24.064  1.00  0.00     0.188 C 
BRANCH   4   5
ATOM      5  O   UNL A   1      29.972  28.093  23.238  1.00  0.00    -0.376 OA
BRANCH   5   6
ATOM      6  C   UNL A   1      29.401  26.931  23.824  1.00  0.00     0.202 C 
BRANCH   6   7
ATOM      7  C   UNL A   1      30.357  25.964  24.539  1.00  0.00     0.261 C 
BRANCH   7   8
ATOM      8  O   UNL A   1      30.630  24.742  23.837  1.00  0.00    -0.460 OA
BRANCH   8   9
ATOM      9  C   UNL A   1      31.702  24.717  23.020  1.00  0.00     0.338 C 
ATOM     10  O   UNL A   1      31.980  25.533  22.160  1.00  0.00    -0.246 OA
BRANCH   9  11
ATOM     11  C   UNL A   1      32.581  23.611  23.456  1.00  0.00     0.087 C 
ATOM     12  C   UNL A   1      35.022  20.470  24.758  1.00  0.00     0.161 A 
ATOM     13  C   UNL A   1      34.478  19.187  24.875  1.00  0.00     0.054 A 
ATOM     14  C   UNL A   1      34.223  21.520  24.273  1.00  0.00     0.169 A 
ATOM     15  C   UNL A   1      33.153  18.936  24.494  1.00  0.00    -0.047 A 
ATOM     16  C   UNL A   1      32.895  21.283  23.910  1.00  0.00     0.021 A 
ATOM     17  O   UNL A   1      34.810  22.753  24.180  1.00  0.00    -0.471 OA
ATOM     18  C   UNL A   1      32.556  17.565  24.626  1.00  0.00     0.044 C 
ATOM     19  C   UNL A   1      32.373  19.987  23.993  1.00  0.00     0.015 A 
ATOM     20  C   UNL A   1      32.042  22.386  23.499  1.00  0.00     0.027 C 
ATOM     21  C   UNL A   1      34.032  23.896  23.748  1.00  0.00     0.316 C 
BRANCH  12  22
ATOM     22  O   UNL A   1      36.293  20.811  25.146  1.00  0.00    -0.493 OA
ATOM     23  C   UNL A   1      37.317  19.853  24.921  1.00  0.00     0.278 C 
ENDBRANCH  12  22
BRANCH  21  24
ATOM     24  C   UNL A   1      34.209  25.011  24.788  1.00  0.00     0.430 C 
ATOM     25  F   UNL A   1      35.399  24.910  25.429  1.00  0.00    -0.167 F 
ATOM     26  F   UNL A   1      34.183  26.242  24.222  1.00  0.00    -0.167 F 
ATOM     27  F   UNL A   1      33.237  24.984  25.727  1.00  0.00    -0.167 F 
ENDBRANCH  21  24
ENDBRANCH   9  11
ENDBRANCH   8   9
ENDBRANCH   7   8
ENDBRANCH   6   7
ENDBRANCH   5   6
ENDBRANCH   4   5
ENDBRANCH   3   4
ENDBRANCH   2   3
ENDBRANCH   1   2
BRANCH   1  28
ATOM     28  C   UNL A   1      33.027  29.483  27.165  1.00  0.00     0.188 C 
BRANCH  28  29
ATOM     29  O   UNL A   1      32.403  30.758  27.049  1.00  0.00    -0.376 OA
BRANCH  29  30
ATOM     30  C   UNL A   1      33.171  31.888  27.441  1.00  0.00     0.202 C 
BRANCH  30  31
ATOM     31  C   UNL A   1      32.349  33.174  27.575  1.00  0.00     0.261 C 
BRANCH  31  32
ATOM     32  O   UNL A   1      33.112  34.391  27.519  1.00  0.00    -0.460 OA
BRANCH  32  33
ATOM     33  C   UNL A   1      33.216  35.120  28.651  1.00  0.00     0.338 C 
ATOM     34  O   UNL A   1      32.456  35.985  29.049  1.00  0.00    -0.246 OA
BRANCH  33  35
ATOM     35  C   UNL A   1      34.327  34.548  29.441  1.00  0.00     0.060 A 
ATOM     36  C   UNL A   1      34.100  34.078  30.737  1.00  0.00     0.016 A 
ATOM     37  C   UNL A   1      35.615  34.518  28.889  1.00  0.00     0.016 A 
ATOM     38  C   UNL A   1      35.158  33.543  31.471  1.00  0.00     0.010 A 
ATOM     39  C   UNL A   1      36.675  33.987  29.628  1.00  0.00     0.010 A 
ATOM     40  C   UNL A   1      36.446  33.470  30.912  1.00  0.00    -0.014 A 
BRANCH  40  41
ATOM     41  C   UNL A   1      37.486  32.668  31.597  1.00  0.00     0.031 A 
ATOM     42  C   UNL A   1      38.147  31.491  30.953  1.00  0.00     0.074 A 
ATOM     43  C   UNL A   1      37.841  33.051  32.839  1.00  0.00     0.049 A 
ATOM     44  N   UNL A   1      39.145  30.768  31.397  1.00  0.00    -0.248 NA
ATOM     45  C   UNL A   1      37.623  31.061  29.650  1.00  0.00     0.031 C 
ATOM     46  C   UNL A   1      37.242  34.169  33.570  1.00  0.00     0.029 A 
ATOM     47  N   UNL A   1      38.791  32.560  33.697  1.00  0.00    -0.354 N 
ATOM     48  C   UNL A   1      39.391  29.815  30.420  1.00  0.00     0.074 A 
ATOM     49  C   UNL A   1      38.403  30.020  29.378  1.00  0.00     0.031 C 
ATOM     50  C   UNL A   1      37.857  34.298  34.753  1.00  0.00     0.029 A 
ATOM     51  C   UNL A   1      38.879  33.263  34.873  1.00  0.00     0.049 A 
ATOM     52  H   UNL A   1      39.355  31.780  33.489  1.00  0.00     0.167 HD
ATOM     53  C   UNL A   1      40.365  28.874  30.393  1.00  0.00     0.037 A 
ATOM     54  C   UNL A   1      39.698  33.099  35.928  1.00  0.00     0.037 A 
ATOM     55  C   UNL A   1      41.333  28.671  31.445  1.00  0.00     0.049 A 
ATOM     56  C   UNL A   1      40.739  32.017  35.887  1.00  0.00     0.074 A 
ATOM     57  C   UNL A   1      42.380  27.765  31.488  1.00  0.00     0.029 A 
ATOM     58  N   UNL A   1      41.367  29.372  32.642  1.00  0.00    -0.354 N 
ATOM     59  N   UNL A   1      41.015  31.174  34.924  1.00  0.00    -0.248 NA
ATOM     60  C   UNL A   1      41.589  31.870  37.076  1.00  0.00     0.031 C 
ATOM     61  C   UNL A   1      43.014  27.883  32.728  1.00  0.00     0.029 A 
ATOM     62  C   UNL A   1      42.398  28.899  33.440  1.00  0.00     0.049 A 
ATOM     63  H   UNL A   1      40.750  30.100  32.888  1.00  0.00     0.167 HD
ATOM     64  C   UNL A   1      42.082  30.412  35.377  1.00  0.00     0.074 A 
ATOM     65  C   UNL A   1      42.415  30.905  36.698  1.00  0.00     0.031 C 
ATOM     66  C   UNL A   1      42.723  29.395  34.754  1.00  0.00     0.037 A 
BRANCH  53  67
ATOM     67  C   UNL A   1      40.466  27.993  29.183  1.00  0.00     0.064 A 
ATOM     68  C   UNL A   1      39.693  26.829  29.067  1.00  0.00     0.173 A 
ATOM     69  C   UNL A   1      41.247  28.374  28.081  1.00  0.00     0.173 A 
ATOM     70  F   UNL A   1      38.928  26.423  30.092  1.00  0.00    -0.203 F 
ATOM     71  C   UNL A   1      39.701  26.076  27.895  1.00  0.00     0.198 A 
ATOM     72  C   UNL A   1      41.235  27.632  26.902  1.00  0.00     0.198 A 
ATOM     73  F   UNL A   1      41.995  29.486  28.134  1.00  0.00    -0.203 F 
ATOM     74  F   UNL A   1      38.963  24.960  27.813  1.00  0.00    -0.200 F 
ATOM     75  C   UNL A   1      40.463  26.484  26.811  1.00  0.00     0.200 A 
ATOM     76  F   UNL A   1      41.957  28.038  25.848  1.00  0.00    -0.200 F 
ATOM     77  F   UNL A   1      40.448  25.773  25.675  1.00  0.00    -0.200 F 
ENDBRANCH  53  67
BRANCH  54  78
ATOM     78  C   UNL A   1      39.588  34.019  37.088  1.00  0.00     0.064 A 
ATOM     79  C   UNL A   1      38.814  33.675  38.204  1.00  0.00     0.173 A 
ATOM     80  C   UNL A   1      40.277  35.240  37.118  1.00  0.00     0.173 A 
ATOM     81  F   UNL A   1      38.126  32.524  38.213  1.00  0.00    -0.203 F 
ATOM     82  C   UNL A   1      38.723  34.526  39.302  1.00  0.00     0.198 A 
ATOM     83  C   UNL A   1      40.207  36.076  38.229  1.00  0.00     0.198 A 
ATOM     84  F   UNL A   1      41.039  35.607  36.078  1.00  0.00    -0.203 F 
ATOM     85  F   UNL A   1      37.948  34.190  40.343  1.00  0.00    -0.200 F 
ATOM     86  C   UNL A   1      39.426  35.721  39.318  1.00  0.00     0.200 A 
ATOM     87  F   UNL A   1      40.902  37.222  38.248  1.00  0.00    -0.200 F 
ATOM     88  F   UNL A   1      39.347  36.533  40.381  1.00  0.00    -0.200 F 
ENDBRANCH  54  78
BRANCH  66  89
ATOM     89  C   UNL A   1      43.864  28.747  35.481  1.00  0.00     0.064 A 
ATOM     90  C   UNL A   1      45.184  29.192  35.319  1.00  0.00     0.173 A 
ATOM     91  C   UNL A   1      43.629  27.712  36.400  1.00  0.00     0.173 A 
ATOM     92  F   UNL A   1      45.464  30.168  34.441  1.00  0.00    -0.203 F 
ATOM     93  C   UNL A   1      46.228  28.616  36.038  1.00  0.00     0.198 A 
ATOM     94  C   UNL A   1      44.670  27.158  37.138  1.00  0.00     0.198 A 
ATOM     95  F   UNL A   1      42.384  27.253  36.596  1.00  0.00    -0.203 F 
ATOM     96  F   UNL A   1      47.486  29.033  35.840  1.00  0.00    -0.200 F 
ATOM     97  C   UNL A   1      45.969  27.608  36.954  1.00  0.00     0.200 A 
ATOM     98  F   UNL A   1      44.417  26.192  38.032  1.00  0.00    -0.200 F 
ATOM     99  F   UNL A   1      46.973  27.065  37.656  1.00  0.00    -0.200 F 
ENDBRANCH  66  89
ENDBRANCH  40  41
ENDBRANCH  33  35
ENDBRANCH  32  33
ENDBRANCH  31  32
ENDBRANCH  30  31
ENDBRANCH  29  30
ENDBRANCH  28  29
ENDBRANCH   1  28
TORSDOF 22
ENDMDL
MODEL 2
REMARK VINA RESULT:     -10.7      3.249      9.234
REMARK SMILES COc1cc(C)cc2c1O[C@H](C(F)(F)F)C(C(=O)OCCOCCOCCOCCOC(=O)c1ccc(-c3c4nc(c(-c5c(F)c(F)c(F)c(F)c5F)c5ccc([nH]5)c(-c5c(F)c(F)c(F)c(F)c5F)c5nc(c(-c6c(F)c(F)c(F)c(F)c6F)c6ccc3[nH]6)C=C5)C=C4)cc1)=C2
REMARK SMILES IDX 26 1 25 2 24 3 23 4 22 5 21 6 20 7 19 8 17 9 18 10 16 11
REMARK SMILES IDX 3 12 4 13 9 14 5 15 8 16 10 17 6 18 7 19 97 20 11 21 2 22
REMARK SMILES IDX 1 23 12 24 13 25 14 26 15 27 27 28 28 29 29 30 30 31 31 32
REMARK SMILES IDX 32 33 33 34 34 35 35 36 96 37 36 38 95 39 37 40 38 41 39 42
REMARK SMILES IDX 89 43 40 44 94 45 88 46 90 47 41 48 93 49 87 50 86 51 42 53
REMARK SMILES IDX 74 54 54 55 73 56 55 57 58 58 72 59 91 60 56 61 57 62 71 64
REMARK SMILES IDX 92 65 59 66 43 67 44 68 52 69 45 70 46 71 50 72 53 73 47 74
REMARK SMILES IDX 48 75 51 76 49 77 75 78 76 79 84 80 77 81 78 82 82 83 85 84
REMARK SMILES IDX 79 85 80 86 83 87 81 88 60 89 61 90 69 91 62 92 63 93 67 94
REMARK SMILES IDX 70 95 64 96 65 97 68 98 66 99
REMARK H PARENT 90 52 58 63
REMARK Flexibility Score: inf
ROOT
ATOM      1  C   UNL A   1      41.839  20.119  27.364  1.00  0.00     0.188 C 
ENDROOT
BRANCH   1   2
ATOM      2  O   UNL A   1      40.487  20.575  27.411  1.00  0.00    -0.377 OA
BRANCH   2   3
ATOM      3  C   UNL A   1      40.252  21.964  27.240  1.00  0.00     0.188 C 
BRANCH   3   4
ATOM      4  C   UNL A   1      39.253  22.268  26.108  1.00  0.00     0.188 C 
BRANCH   4   5
ATOM      5  O   UNL A   1      38.723  21.090  25.504  1.00  0.00    -0.376 OA
BRANCH   5   6
ATOM      6  C   UNL A   1      37.515  21.226  24.765  1.00  0.00     0.202 C 
BRANCH   6   7
ATOM      7  C   UNL A   1      36.208  20.864  25.486  1.00  0.00     0.261 C 
BRANCH   7   8
ATOM      8  O   UNL A   1      35.703  21.869  26.379  1.00  0.00    -0.460 OA
BRANCH   8   9
ATOM      9  C   UNL A   1      34.380  22.125  26.347  1.00  0.00     0.338 C 
ATOM     10  O   UNL A   1      33.560  21.826  27.196  1.00  0.00    -0.246 OA
BRANCH   9  11
ATOM     11  C   UNL A   1      34.110  22.984  25.173  1.00  0.00     0.087 C 
ATOM     12  C   UNL A   1      33.274  25.438  21.888  1.00  0.00     0.161 A 
ATOM     13  C   UNL A   1      33.216  26.824  22.069  1.00  0.00     0.054 A 
ATOM     14  C   UNL A   1      33.604  24.611  22.975  1.00  0.00     0.169 A 
ATOM     15  C   UNL A   1      33.506  27.393  23.317  1.00  0.00    -0.047 A 
ATOM     16  C   UNL A   1      33.874  25.168  24.227  1.00  0.00     0.021 A 
ATOM     17  O   UNL A   1      33.645  23.263  22.737  1.00  0.00    -0.471 OA
ATOM     18  C   UNL A   1      33.437  28.878  23.525  1.00  0.00     0.044 C 
ATOM     19  C   UNL A   1      33.854  26.559  24.387  1.00  0.00     0.015 A 
ATOM     20  C   UNL A   1      34.122  24.307  25.372  1.00  0.00     0.027 C 
ATOM     21  C   UNL A   1      33.917  22.343  23.823  1.00  0.00     0.316 C 
BRANCH  12  22
ATOM     22  O   UNL A   1      32.965  24.797  20.715  1.00  0.00    -0.493 OA
ATOM     23  C   UNL A   1      32.561  25.608  19.621  1.00  0.00     0.278 C 
ENDBRANCH  12  22
BRANCH  21  24
ATOM     24  C   UNL A   1      32.808  21.281  23.834  1.00  0.00     0.430 C 
ATOM     25  F   UNL A   1      31.900  21.520  24.811  1.00  0.00    -0.167 F 
ATOM     26  F   UNL A   1      32.117  21.256  22.669  1.00  0.00    -0.167 F 
ATOM     27  F   UNL A   1      33.302  20.038  24.032  1.00  0.00    -0.167 F 
ENDBRANCH  21  24
ENDBRANCH   9  11
ENDBRANCH   8   9
ENDBRANCH   7   8
ENDBRANCH   6   7
ENDBRANCH   5   6
ENDBRANCH   4   5
ENDBRANCH   3   4
ENDBRANCH   2   3
ENDBRANCH   1   2
BRANCH   1  28
ATOM     28  C   UNL A   1      42.631  20.027  26.038  1.00  0.00     0.188 C 
BRANCH  28  29
ATOM     29  O   UNL A   1      43.713  20.950  25.944  1.00  0.00    -0.376 OA
BRANCH  29  30
ATOM     30  C   UNL A   1      44.303  21.119  24.662  1.00  0.00     0.202 C 
BRANCH  30  31
ATOM     31  C   UNL A   1      44.503  22.586  24.266  1.00  0.00     0.261 C 
BRANCH  31  32
ATOM     32  O   UNL A   1      43.940  23.543  25.177  1.00  0.00    -0.460 OA
BRANCH  32  33
ATOM     33  C   UNL A   1      44.573  24.728  25.314  1.00  0.00     0.338 C 
ATOM     34  O   UNL A   1      45.457  25.183  24.610  1.00  0.00    -0.246 OA
BRANCH  33  35
ATOM     35  C   UNL A   1      43.868  25.482  26.372  1.00  0.00     0.060 A 
ATOM     36  C   UNL A   1      42.890  24.856  27.149  1.00  0.00     0.016 A 
ATOM     37  C   UNL A   1      44.164  26.839  26.558  1.00  0.00     0.016 A 
ATOM     38  C   UNL A   1      42.232  25.581  28.142  1.00  0.00     0.010 A 
ATOM     39  C   UNL A   1      43.499  27.565  27.549  1.00  0.00     0.010 A 
ATOM     40  C   UNL A   1      42.549  26.932  28.366  1.00  0.00    -0.014 A 
BRANCH  40  41
ATOM     41  C   UNL A   1      42.036  27.603  29.583  1.00  0.00     0.031 A 
ATOM     42  C   UNL A   1      42.725  27.503  30.907  1.00  0.00     0.074 A 
ATOM     43  C   UNL A   1      40.913  28.337  29.454  1.00  0.00     0.049 A 
ATOM     44  N   UNL A   1      42.443  28.126  32.024  1.00  0.00    -0.248 NA
ATOM     45  C   UNL A   1      43.871  26.589  30.997  1.00  0.00     0.031 C 
ATOM     46  C   UNL A   1      40.148  28.479  28.215  1.00  0.00     0.029 A 
ATOM     47  N   UNL A   1      40.232  29.107  30.360  1.00  0.00    -0.354 N 
ATOM     48  C   UNL A   1      43.390  27.703  32.945  1.00  0.00     0.074 A 
ATOM     49  C   UNL A   1      44.228  26.731  32.269  1.00  0.00     0.031 C 
ATOM     50  C   UNL A   1      39.119  29.311  28.429  1.00  0.00     0.029 A 
ATOM     51  C   UNL A   1      39.141  29.744  29.822  1.00  0.00     0.049 A 
ATOM     52  H   UNL A   1      40.499  29.196  31.304  1.00  0.00     0.167 HD
ATOM     53  C   UNL A   1      43.552  28.109  34.228  1.00  0.00     0.037 A 
ATOM     54  C   UNL A   1      38.260  30.592  30.386  1.00  0.00     0.037 A 
ATOM     55  C   UNL A   1      42.702  29.066  34.895  1.00  0.00     0.049 A 
ATOM     56  C   UNL A   1      38.440  30.988  31.823  1.00  0.00     0.074 A 
ATOM     57  C   UNL A   1      42.811  29.566  36.182  1.00  0.00     0.029 A 
ATOM     58  N   UNL A   1      41.579  29.660  34.334  1.00  0.00    -0.354 N 
ATOM     59  N   UNL A   1      39.386  30.644  32.661  1.00  0.00    -0.248 NA
ATOM     60  C   UNL A   1      37.435  31.896  32.391  1.00  0.00     0.031 C 
ATOM     61  C   UNL A   1      41.729  30.419  36.417  1.00  0.00     0.029 A 
ATOM     62  C   UNL A   1      40.973  30.496  35.259  1.00  0.00     0.049 A 
ATOM     63  H   UNL A   1      41.261  29.510  33.414  1.00  0.00     0.167 HD
ATOM     64  C   UNL A   1      39.106  31.310  33.846  1.00  0.00     0.074 A 
ATOM     65  C   UNL A   1      37.910  32.092  33.613  1.00  0.00     0.031 C 
ATOM     66  C   UNL A   1      39.782  31.272  35.020  1.00  0.00     0.037 A 
BRANCH  53  67
ATOM     67  C   UNL A   1      44.703  27.547  35.010  1.00  0.00     0.064 A 
ATOM     68  C   UNL A   1      44.573  26.352  35.732  1.00  0.00     0.173 A 
ATOM     69  C   UNL A   1      45.974  28.137  34.941  1.00  0.00     0.173 A 
ATOM     70  F   UNL A   1      43.379  25.747  35.827  1.00  0.00    -0.203 F 
ATOM     71  C   UNL A   1      45.673  25.771  36.360  1.00  0.00     0.198 A 
ATOM     72  C   UNL A   1      47.076  27.541  35.550  1.00  0.00     0.198 A 
ATOM     73  F   UNL A   1      46.155  29.273  34.251  1.00  0.00    -0.203 F 
ATOM     74  F   UNL A   1      45.522  24.635  37.056  1.00  0.00    -0.200 F 
ATOM     75  C   UNL A   1      46.924  26.360  36.259  1.00  0.00     0.200 A 
ATOM     76  F   UNL A   1      48.288  28.101  35.435  1.00  0.00    -0.200 F 
ATOM     77  F   UNL A   1      47.985  25.785  36.842  1.00  0.00    -0.200 F 
ENDBRANCH  53  67
BRANCH  54  78
ATOM     78  C   UNL A   1      37.159  31.154  29.564  1.00  0.00     0.064 A 
ATOM     79  C   UNL A   1      37.213  32.476  29.103  1.00  0.00     0.173 A 
ATOM     80  C   UNL A   1      36.052  30.376  29.197  1.00  0.00     0.173 A 
ATOM     81  F   UNL A   1      38.245  33.262  29.442  1.00  0.00    -0.203 F 
ATOM     82  C   UNL A   1      36.192  33.003  28.316  1.00  0.00     0.198 A 
ATOM     83  C   UNL A   1      35.046  30.895  28.386  1.00  0.00     0.198 A 
ATOM     84  F   UNL A   1      35.961  29.102  29.606  1.00  0.00    -0.203 F 
ATOM     85  F   UNL A   1      36.251  34.281  27.916  1.00  0.00    -0.200 F 
ATOM     86  C   UNL A   1      35.114  32.210  27.951  1.00  0.00     0.200 A 
ATOM     87  F   UNL A   1      34.015  30.121  28.022  1.00  0.00    -0.200 F 
ATOM     88  F   UNL A   1      34.139  32.714  27.184  1.00  0.00    -0.200 F 
ENDBRANCH  54  78
BRANCH  66  89
ATOM     89  C   UNL A   1      39.255  32.109  36.148  1.00  0.00     0.064 A 
ATOM     90  C   UNL A   1      38.296  31.613  37.043  1.00  0.00     0.173 A 
ATOM     91  C   UNL A   1      39.761  33.398  36.377  1.00  0.00     0.173 A 
ATOM     92  F   UNL A   1      37.770  30.392  36.860  1.00  0.00    -0.203 F 
ATOM     93  C   UNL A   1      37.853  32.381  38.116  1.00  0.00     0.198 A 
ATOM     94  C   UNL A   1      39.337  34.153  37.466  1.00  0.00     0.198 A 
ATOM     95  F   UNL A   1      40.683  33.918  35.552  1.00  0.00    -0.203 F 
ATOM     96  F   UNL A   1      36.910  31.900  38.938  1.00  0.00    -0.200 F 
ATOM     97  C   UNL A   1      38.380  33.645  38.333  1.00  0.00     0.200 A 
ATOM     98  F   UNL A   1      39.856  35.369  37.682  1.00  0.00    -0.200 F 
ATOM     99  F   UNL A   1      37.963  34.377  39.375  1.00  0.00    -0.200 F 
ENDBRANCH  66  89
ENDBRANCH  40  41
ENDBRANCH  33  35
ENDBRANCH  32  33
ENDBRANCH  31  32
ENDBRANCH  30  31
ENDBRANCH  29  30
ENDBRANCH  28  29
ENDBRANCH   1  28
TORSDOF 22
ENDMDL
MODEL 3
REMARK VINA RESULT:     -10.6      1.316      7.241
REMARK SMILES COc1cc(C)cc2c1O[C@H](C(F)(F)F)C(C(=O)OCCOCCOCCOCCOC(=O)c1ccc(-c3c4nc(c(-c5c(F)c(F)c(F)c(F)c5F)c5ccc([nH]5)c(-c5c(F)c(F)c(F)c(F)c5F)c5nc(c(-c6c(F)c(F)c(F)c(F)c6F)c6ccc3[nH]6)C=C5)C=C4)cc1)=C2
REMARK SMILES IDX 26 1 25 2 24 3 23 4 22 5 21 6 20 7 19 8 17 9 18 10 16 11
REMARK SMILES IDX 3 12 4 13 9 14 5 15 8 16 10 17 6 18 7 19 97 20 11 21 2 22
REMARK SMILES IDX 1 23 12 24 13 25 14 26 15 27 27 28 28 29 29 30 30 31 31 32
REMARK SMILES IDX 32 33 33 34 34 35 35 36 96 37 36 38 95 39 37 40 38 41 39 42
REMARK SMILES IDX 89 43 40 44 94 45 88 46 90 47 41 48 93 49 87 50 86 51 42 53
REMARK SMILES IDX 74 54 54 55 73 56 55 57 58 58 72 59 91 60 56 61 57 62 71 64
REMARK SMILES IDX 92 65 59 66 43 67 44 68 52 69 45 70 46 71 50 72 53 73 47 74
REMARK SMILES IDX 48 75 51 76 49 77 75 78 76 79 84 80 77 81 78 82 82 83 85 84
REMARK SMILES IDX 79 85 80 86 83 87 81 88 60 89 61 90 69 91 62 92 63 93 67 94
REMARK SMILES IDX 70 95 64 96 65 97 68 98 66 99
REMARK H PARENT 90 52 58 63
REMARK Flexibility Score: inf
ROOT
ATOM      1  C   UNL A   1      32.602  28.684  25.530  1.00  0.00     0.188 C 
ENDROOT
BRANCH   1   2
ATOM      2  O   UNL A   1      33.012  29.336  24.328  1.00  0.00    -0.377 OA
BRANCH   2   3
ATOM      3  C   UNL A   1      32.618  28.755  23.094  1.00  0.00     0.188 C 
BRANCH   3   4
ATOM      4  C   UNL A   1      31.196  28.167  23.135  1.00  0.00     0.188 C 
BRANCH   4   5
ATOM      5  O   UNL A   1      31.127  26.842  22.610  1.00  0.00    -0.376 OA
BRANCH   5   6
ATOM      6  C   UNL A   1      31.674  25.798  23.406  1.00  0.00     0.202 C 
BRANCH   6   7
ATOM      7  C   UNL A   1      30.698  25.005  24.288  1.00  0.00     0.261 C 
BRANCH   7   8
ATOM      8  O   UNL A   1      30.790  23.577  24.172  1.00  0.00    -0.460 OA
BRANCH   8   9
ATOM      9  C   UNL A   1      30.964  22.868  25.305  1.00  0.00     0.338 C 
ATOM     10  O   UNL A   1      30.190  22.793  26.243  1.00  0.00    -0.246 OA
BRANCH   9  11
ATOM     11  C   UNL A   1      32.191  22.057  25.151  1.00  0.00     0.087 C 
ATOM     12  C   UNL A   1      35.642  19.718  24.786  1.00  0.00     0.161 A 
ATOM     13  C   UNL A   1      35.514  18.340  24.579  1.00  0.00     0.054 A 
ATOM     14  C   UNL A   1      34.489  20.517  24.859  1.00  0.00     0.169 A 
ATOM     15  C   UNL A   1      34.249  17.757  24.421  1.00  0.00    -0.047 A 
ATOM     16  C   UNL A   1      33.224  19.941  24.724  1.00  0.00     0.021 A 
ATOM     17  O   UNL A   1      34.677  21.858  25.064  1.00  0.00    -0.471 OA
ATOM     18  C   UNL A   1      34.100  16.279  24.208  1.00  0.00     0.044 C 
ATOM     19  C   UNL A   1      33.109  18.569  24.476  1.00  0.00     0.015 A 
ATOM     20  C   UNL A   1      32.030  20.753  24.894  1.00  0.00     0.027 C 
ATOM     21  C   UNL A   1      33.535  22.736  25.212  1.00  0.00     0.316 C 
BRANCH  12  22
ATOM     22  O   UNL A   1      36.836  20.362  24.992  1.00  0.00    -0.493 OA
ATOM     23  C   UNL A   1      38.012  19.566  24.973  1.00  0.00     0.278 C 
ENDBRANCH  12  22
BRANCH  21  24
ATOM     24  C   UNL A   1      33.722  23.544  26.504  1.00  0.00     0.430 C 
ATOM     25  F   UNL A   1      35.021  23.578  26.886  1.00  0.00    -0.167 F 
ATOM     26  F   UNL A   1      33.333  24.834  26.357  1.00  0.00    -0.167 F 
ATOM     27  F   UNL A   1      33.008  23.028  27.530  1.00  0.00    -0.167 F 
ENDBRANCH  21  24
ENDBRANCH   9  11
ENDBRANCH   8   9
ENDBRANCH   7   8
ENDBRANCH   6   7
ENDBRANCH   5   6
ENDBRANCH   4   5
ENDBRANCH   3   4
ENDBRANCH   2   3
ENDBRANCH   1   2
BRANCH   1  28
ATOM     28  C   UNL A   1      32.096  29.471  26.763  1.00  0.00     0.188 C 
BRANCH  28  29
ATOM     29  O   UNL A   1      31.897  30.861  26.522  1.00  0.00    -0.376 OA
BRANCH  29  30
ATOM     30  C   UNL A   1      32.766  31.761  27.196  1.00  0.00     0.202 C 
BRANCH  30  31
ATOM     31  C   UNL A   1      32.172  33.160  27.390  1.00  0.00     0.261 C 
BRANCH  31  32
ATOM     32  O   UNL A   1      33.130  34.193  27.670  1.00  0.00    -0.460 OA
BRANCH  32  33
ATOM     33  C   UNL A   1      33.349  34.514  28.963  1.00  0.00     0.338 C 
ATOM     34  O   UNL A   1      32.627  35.163  29.699  1.00  0.00    -0.246 OA
BRANCH  33  35
ATOM     35  C   UNL A   1      34.547  33.769  29.402  1.00  0.00     0.060 A 
ATOM     36  C   UNL A   1      35.817  34.161  28.972  1.00  0.00     0.016 A 
ATOM     37  C   UNL A   1      34.391  32.643  30.223  1.00  0.00     0.016 A 
ATOM     38  C   UNL A   1      36.939  33.447  29.393  1.00  0.00     0.010 A 
ATOM     39  C   UNL A   1      35.515  31.926  30.639  1.00  0.00     0.010 A 
ATOM     40  C   UNL A   1      36.798  32.341  30.249  1.00  0.00    -0.014 A 
BRANCH  40  41
ATOM     41  C   UNL A   1      38.003  31.765  30.890  1.00  0.00     0.031 A 
ATOM     42  C   UNL A   1      38.432  32.137  32.274  1.00  0.00     0.074 A 
ATOM     43  C   UNL A   1      38.706  30.862  30.179  1.00  0.00     0.049 A 
ATOM     44  N   UNL A   1      39.403  31.629  32.993  1.00  0.00    -0.248 NA
ATOM     45  C   UNL A   1      37.688  33.215  32.938  1.00  0.00     0.031 C 
ATOM     46  C   UNL A   1      38.389  30.449  28.811  1.00  0.00     0.029 A 
ATOM     47  N   UNL A   1      39.813  30.123  30.505  1.00  0.00    -0.354 N 
ATOM     48  C   UNL A   1      39.372  32.303  34.205  1.00  0.00     0.074 A 
ATOM     49  C   UNL A   1      38.316  33.292  34.106  1.00  0.00     0.031 C 
ATOM     50  C   UNL A   1      39.263  29.508  28.425  1.00  0.00     0.029 A 
ATOM     51  C   UNL A   1      40.211  29.267  29.508  1.00  0.00     0.049 A 
ATOM     52  H   UNL A   1      40.278  30.199  31.370  1.00  0.00     0.167 HD
ATOM     53  C   UNL A   1      40.143  32.095  35.299  1.00  0.00     0.037 A 
ATOM     54  C   UNL A   1      41.221  28.379  29.472  1.00  0.00     0.037 A 
ATOM     55  C   UNL A   1      41.202  31.117  35.378  1.00  0.00     0.049 A 
ATOM     56  C   UNL A   1      42.087  28.204  30.686  1.00  0.00     0.074 A 
ATOM     57  C   UNL A   1      42.012  30.810  36.459  1.00  0.00     0.029 A 
ATOM     58  N   UNL A   1      41.606  30.296  34.335  1.00  0.00    -0.354 N 
ATOM     59  N   UNL A   1      41.998  28.789  31.855  1.00  0.00    -0.248 NA
ATOM     60  C   UNL A   1      43.188  27.237  30.581  1.00  0.00     0.031 C 
ATOM     61  C   UNL A   1      42.938  29.844  36.056  1.00  0.00     0.029 A 
ATOM     62  C   UNL A   1      42.672  29.506  34.739  1.00  0.00     0.049 A 
ATOM     63  H   UNL A   1      41.196  30.277  33.440  1.00  0.00     0.167 HD
ATOM     64  C   UNL A   1      43.013  28.249  32.631  1.00  0.00     0.074 A 
ATOM     65  C   UNL A   1      43.696  27.274  31.805  1.00  0.00     0.031 C 
ATOM     66  C   UNL A   1      43.347  28.538  33.911  1.00  0.00     0.037 A 
BRANCH  53  67
ATOM     67  C   UNL A   1      39.871  32.919  36.524  1.00  0.00     0.064 A 
ATOM     68  C   UNL A   1      40.545  34.127  36.749  1.00  0.00     0.173 A 
ATOM     69  C   UNL A   1      38.849  32.562  37.417  1.00  0.00     0.173 A 
ATOM     70  F   UNL A   1      41.530  34.514  35.924  1.00  0.00    -0.203 F 
ATOM     71  C   UNL A   1      40.209  34.946  37.824  1.00  0.00     0.198 A 
ATOM     72  C   UNL A   1      38.499  33.394  38.477  1.00  0.00     0.198 A 
ATOM     73  F   UNL A   1      38.163  31.422  37.238  1.00  0.00    -0.203 F 
ATOM     74  F   UNL A   1      40.876  36.092  38.027  1.00  0.00    -0.200 F 
ATOM     75  C   UNL A   1      39.179  34.585  38.680  1.00  0.00     0.200 A 
ATOM     76  F   UNL A   1      37.491  33.053  39.291  1.00  0.00    -0.200 F 
ATOM     77  F   UNL A   1      38.839  35.387  39.698  1.00  0.00    -0.200 F 
ENDBRANCH  53  67
BRANCH  54  78
ATOM     78  C   UNL A   1      41.429  27.558  28.253  1.00  0.00     0.064 A 
ATOM     79  C   UNL A   1      42.315  27.975  27.251  1.00  0.00     0.173 A 
ATOM     80  C   UNL A   1      40.773  26.331  28.079  1.00  0.00     0.173 A 
ATOM     81  F   UNL A   1      42.953  29.149  27.367  1.00  0.00    -0.203 F 
ATOM     82  C   UNL A   1      42.528  27.200  26.114  1.00  0.00     0.198 A 
ATOM     83  C   UNL A   1      41.008  25.544  26.955  1.00  0.00     0.198 A 
ATOM     84  F   UNL A   1      39.923  25.885  29.015  1.00  0.00    -0.203 F 
ATOM     85  F   UNL A   1      43.356  27.637  25.155  1.00  0.00    -0.200 F 
ATOM     86  C   UNL A   1      41.881  25.981  25.971  1.00  0.00     0.200 A 
ATOM     87  F   UNL A   1      40.395  24.359  26.829  1.00  0.00    -0.200 F 
ATOM     88  F   UNL A   1      42.097  25.231  24.882  1.00  0.00    -0.200 F 
ENDBRANCH  54  78
BRANCH  66  89
ATOM     89  C   UNL A   1      44.496  27.785  34.513  1.00  0.00     0.064 A 
ATOM     90  C   UNL A   1      45.813  28.261  34.420  1.00  0.00     0.173 A 
ATOM     91  C   UNL A   1      44.274  26.609  35.246  1.00  0.00     0.173 A 
ATOM     92  F   UNL A   1      46.080  29.373  33.718  1.00  0.00    -0.203 F 
ATOM     93  C   UNL A   1      46.865  27.580  35.026  1.00  0.00     0.198 A 
ATOM     94  C   UNL A   1      45.324  25.946  35.875  1.00  0.00     0.198 A 
ATOM     95  F   UNL A   1      43.033  26.114  35.369  1.00  0.00    -0.203 F 
ATOM     96  F   UNL A   1      48.119  28.034  34.894  1.00  0.00    -0.200 F 
ATOM     97  C   UNL A   1      46.619  26.430  35.761  1.00  0.00     0.200 A 
ATOM     98  F   UNL A   1      45.084  24.842  36.595  1.00  0.00    -0.200 F 
ATOM     99  F   UNL A   1      47.631  25.784  36.357  1.00  0.00    -0.200 F 
ENDBRANCH  66  89
ENDBRANCH  40  41
ENDBRANCH  33  35
ENDBRANCH  32  33
ENDBRANCH  31  32
ENDBRANCH  30  31
ENDBRANCH  29  30
ENDBRANCH  28  29
ENDBRANCH   1  28
TORSDOF 22
ENDMDL
