MODEL 1
REMARK VINA RESULT:      -9.2      0.000      0.000
REMARK SMILES C[C@H](C[NH3+])CS/C=C/C(=O)OCCOCCOCCOCCOC(=O)c1ccc(-c2c3nc(c(-c4c(F)c(F)c(F)c(F)c4F)c4ccc([nH]4)c(-c4c(F)c(F)c(F)c(F)c4F)c4nc(c(-c5c(F)c(F)c(F)c(F)c5F)c5ccc2[nH]5)C=C4)C=C3)cc1
REMARK SMILES IDX 15 1 14 2 13 3 12 4 11 5 9 6 10 7 8 8 7 9 6 10 5 11 2 12
REMARK SMILES IDX 1 13 3 14 4 15 16 19 17 20 18 21 19 22 20 23 21 24 22 25
REMARK SMILES IDX 23 26 24 27 25 28 26 29 27 30 88 31 28 32 87 33 29 34 30 35
REMARK SMILES IDX 31 36 81 37 32 38 86 39 80 40 82 41 33 42 85 43 79 44 78 45
REMARK SMILES IDX 34 47 66 48 46 49 65 50 47 51 50 52 64 53 83 54 48 55 49 56
REMARK SMILES IDX 63 58 84 59 51 60 35 61 36 62 44 63 37 64 38 65 42 66 45 67
REMARK SMILES IDX 39 68 40 69 43 70 41 71 67 72 68 73 76 74 69 75 70 76 74 77
REMARK SMILES IDX 77 78 71 79 72 80 75 81 73 82 52 83 53 84 61 85 54 86 55 87
REMARK SMILES IDX 59 88 62 89 56 90 57 91 60 92 58 93
REMARK H PARENT 4 16 4 17 4 18 82 46 50 57
REMARK Flexibility Score: inf
ROOT
ATOM      1  C   UNL A   1      33.835  25.464  23.622  1.00  0.00     0.188 C 
ENDROOT
BRANCH   1   2
ATOM      2  O   UNL A   1      34.022  26.620  24.412  1.00  0.00    -0.376 OA
BRANCH   2   3
ATOM      3  C   UNL A   1      33.662  26.703  25.783  1.00  0.00     0.202 C 
BRANCH   3   4
ATOM      4  C   UNL A   1      33.639  27.966  26.665  1.00  0.00     0.261 C 
BRANCH   4   5
ATOM      5  O   UNL A   1      33.621  29.217  25.988  1.00  0.00    -0.460 OA
BRANCH   5   6
ATOM      6  C   UNL A   1      32.570  30.005  26.282  1.00  0.00     0.331 C 
ATOM      7  O   UNL A   1      32.590  31.075  26.869  1.00  0.00    -0.247 OA
BRANCH   6   8
ATOM      8  C   UNL A   1      31.402  29.569  25.512  1.00  0.00     0.100 C 
ATOM      9  C   UNL A   1      31.372  29.529  24.180  1.00  0.00     0.048 C 
BRANCH   9  10
ATOM     10  S   UNL A   1      30.168  28.664  23.281  1.00  0.00    -0.133 SA
BRANCH  10  11
ATOM     11  C   UNL A   1      29.312  29.899  22.228  1.00  0.00     0.083 C 
BRANCH  11  12
ATOM     12  C   UNL A   1      28.721  31.175  22.894  1.00  0.00     0.051 C 
ATOM     13  C   UNL A   1      27.411  30.773  23.598  1.00  0.00     0.014 C 
BRANCH  12  14
ATOM     14  C   UNL A   1      28.483  32.333  21.909  1.00  0.00     0.262 C 
BRANCH  14  15
ATOM     15  N   UNL A   1      28.478  31.965  20.497  1.00  0.00    -0.357 N 
ATOM     16  H   UNL A   1      29.315  32.333  20.046  1.00  0.00     0.344 HD
ATOM     17  H   UNL A   1      27.649  32.354  20.046  1.00  0.00     0.344 HD
ATOM     18  H   UNL A   1      28.465  30.948  20.410  1.00  0.00     0.344 HD
ENDBRANCH  14  15
ENDBRANCH  12  14
ENDBRANCH  11  12
ENDBRANCH  10  11
ENDBRANCH   9  10
ENDBRANCH   6   8
ENDBRANCH   5   6
ENDBRANCH   4   5
ENDBRANCH   3   4
ENDBRANCH   2   3
ENDBRANCH   1   2
BRANCH   1  19
ATOM     19  C   UNL A   1      34.002  24.082  24.287  1.00  0.00     0.188 C 
BRANCH  19  20
ATOM     20  O   UNL A   1      32.935  23.180  24.099  1.00  0.00    -0.377 OA
BRANCH  20  21
ATOM     21  C   UNL A   1      33.223  21.810  23.859  1.00  0.00     0.188 C 
BRANCH  21  22
ATOM     22  C   UNL A   1      33.611  20.833  24.995  1.00  0.00     0.188 C 
BRANCH  22  23
ATOM     23  O   UNL A   1      34.910  20.274  24.903  1.00  0.00    -0.376 OA
BRANCH  23  24
ATOM     24  C   UNL A   1      36.008  21.042  25.367  1.00  0.00     0.202 C 
BRANCH  24  25
ATOM     25  C   UNL A   1      37.413  20.482  25.095  1.00  0.00     0.261 C 
BRANCH  25  26
ATOM     26  O   UNL A   1      38.491  21.425  25.185  1.00  0.00    -0.460 OA
BRANCH  26  27
ATOM     27  C   UNL A   1      39.428  21.196  26.127  1.00  0.00     0.338 C 
ATOM     28  O   UNL A   1      40.007  20.144  26.352  1.00  0.00    -0.246 OA
BRANCH  27  29
ATOM     29  C   UNL A   1      39.794  22.490  26.737  1.00  0.00     0.060 A 
ATOM     30  C   UNL A   1      39.099  23.641  26.343  1.00  0.00     0.016 A 
ATOM     31  C   UNL A   1      40.817  22.569  27.684  1.00  0.00     0.016 A 
ATOM     32  C   UNL A   1      39.463  24.884  26.856  1.00  0.00     0.010 A 
ATOM     33  C   UNL A   1      41.194  23.819  28.182  1.00  0.00     0.010 A 
ATOM     34  C   UNL A   1      40.547  24.986  27.735  1.00  0.00    -0.014 A 
BRANCH  34  35
ATOM     35  C   UNL A   1      41.141  26.321  27.998  1.00  0.00     0.031 A 
ATOM     36  C   UNL A   1      42.543  26.582  27.516  1.00  0.00     0.074 A 
ATOM     37  C   UNL A   1      40.443  27.295  28.607  1.00  0.00     0.049 A 
ATOM     38  N   UNL A   1      43.281  27.655  27.637  1.00  0.00    -0.248 NA
ATOM     39  C   UNL A   1      43.203  25.477  26.801  1.00  0.00     0.031 C 
ATOM     40  C   UNL A   1      39.067  27.179  29.085  1.00  0.00     0.029 A 
ATOM     41  N   UNL A   1      40.806  28.579  28.931  1.00  0.00    -0.354 N 
ATOM     42  C   UNL A   1      44.491  27.351  27.024  1.00  0.00     0.074 A 
ATOM     43  C   UNL A   1      44.402  25.984  26.562  1.00  0.00     0.031 C 
ATOM     44  C   UNL A   1      38.706  28.342  29.655  1.00  0.00     0.029 A 
ATOM     45  C   UNL A   1      39.833  29.272  29.608  1.00  0.00     0.049 A 
ATOM     46  H   UNL A   1      41.682  28.966  28.700  1.00  0.00     0.167 HD
ATOM     47  C   UNL A   1      45.575  28.144  26.856  1.00  0.00     0.037 A 
ATOM     48  C   UNL A   1      39.862  30.507  30.147  1.00  0.00     0.037 A 
ATOM     49  C   UNL A   1      45.660  29.505  27.313  1.00  0.00     0.049 A 
ATOM     50  C   UNL A   1      41.106  31.350  29.995  1.00  0.00     0.074 A 
ATOM     51  C   UNL A   1      46.706  30.399  27.170  1.00  0.00     0.029 A 
ATOM     52  N   UNL A   1      44.662  30.166  28.014  1.00  0.00    -0.354 N 
ATOM     53  N   UNL A   1      42.233  31.068  29.386  1.00  0.00    -0.248 NA
ATOM     54  C   UNL A   1      41.074  32.690  30.597  1.00  0.00     0.031 C 
ATOM     55  C   UNL A   1      46.367  31.578  27.841  1.00  0.00     0.029 A 
ATOM     56  C   UNL A   1      45.080  31.447  28.335  1.00  0.00     0.049 A 
ATOM     57  H   UNL A   1      43.786  29.782  28.249  1.00  0.00     0.167 HD
ATOM     58  C   UNL A   1      43.026  32.205  29.499  1.00  0.00     0.074 A 
ATOM     59  C   UNL A   1      42.244  33.186  30.220  1.00  0.00     0.031 C 
ATOM     60  C   UNL A   1      44.286  32.420  29.044  1.00  0.00     0.037 A 
BRANCH  47  61
ATOM     61  C   UNL A   1      46.775  27.549  26.177  1.00  0.00     0.064 A 
ATOM     62  C   UNL A   1      46.962  27.630  24.788  1.00  0.00     0.173 A 
ATOM     63  C   UNL A   1      47.775  26.921  26.936  1.00  0.00     0.173 A 
ATOM     64  F   UNL A   1      46.029  28.203  24.014  1.00  0.00    -0.203 F 
ATOM     65  C   UNL A   1      48.094  27.088  24.185  1.00  0.00     0.198 A 
ATOM     66  C   UNL A   1      48.922  26.411  26.334  1.00  0.00     0.198 A 
ATOM     67  F   UNL A   1      47.648  26.816  28.267  1.00  0.00    -0.203 F 
ATOM     68  F   UNL A   1      48.229  27.136  22.852  1.00  0.00    -0.200 F 
ATOM     69  C   UNL A   1      49.077  26.488  24.958  1.00  0.00     0.200 A 
ATOM     70  F   UNL A   1      49.877  25.845  27.085  1.00  0.00    -0.200 F 
ATOM     71  F   UNL A   1      50.172  25.979  24.376  1.00  0.00    -0.200 F 
ENDBRANCH  47  61
BRANCH  48  72
ATOM     72  C   UNL A   1      38.687  31.025  30.900  1.00  0.00     0.064 A 
ATOM     73  C   UNL A   1      38.611  30.919  32.296  1.00  0.00     0.173 A 
ATOM     74  C   UNL A   1      37.594  31.597  30.231  1.00  0.00     0.173 A 
ATOM     75  F   UNL A   1      39.618  30.358  32.981  1.00  0.00    -0.203 F 
ATOM     76  C   UNL A   1      37.476  31.336  32.990  1.00  0.00     0.198 A 
ATOM     77  C   UNL A   1      36.474  32.045  30.929  1.00  0.00     0.198 A 
ATOM     78  F   UNL A   1      37.612  31.719  28.895  1.00  0.00    -0.203 F 
ATOM     79  F   UNL A   1      37.405  31.163  34.316  1.00  0.00    -0.200 F 
ATOM     80  C   UNL A   1      36.411  31.903  32.307  1.00  0.00     0.200 A 
ATOM     81  F   UNL A   1      35.454  32.604  30.265  1.00  0.00    -0.200 F 
ATOM     82  F   UNL A   1      35.319  32.301  32.973  1.00  0.00    -0.200 F 
ENDBRANCH  48  72
BRANCH  60  83
ATOM     83  C   UNL A   1      44.877  33.786  29.260  1.00  0.00     0.064 A 
ATOM     84  C   UNL A   1      45.664  34.091  30.381  1.00  0.00     0.173 A 
ATOM     85  C   UNL A   1      44.667  34.803  28.313  1.00  0.00     0.173 A 
ATOM     86  F   UNL A   1      45.890  33.160  31.320  1.00  0.00    -0.203 F 
ATOM     87  C   UNL A   1      46.180  35.372  30.568  1.00  0.00     0.198 A 
ATOM     88  C   UNL A   1      45.217  36.069  28.485  1.00  0.00     0.198 A 
ATOM     89  F   UNL A   1      43.934  34.565  27.216  1.00  0.00    -0.203 F 
ATOM     90  F   UNL A   1      46.870  35.657  31.681  1.00  0.00    -0.200 F 
ATOM     91  C   UNL A   1      45.960  36.358  29.618  1.00  0.00     0.200 A 
ATOM     92  F   UNL A   1      45.022  37.014  27.553  1.00  0.00    -0.200 F 
ATOM     93  F   UNL A   1      46.459  37.589  29.800  1.00  0.00    -0.200 F 
ENDBRANCH  60  83
ENDBRANCH  34  35
ENDBRANCH  27  29
ENDBRANCH  26  27
ENDBRANCH  25  26
ENDBRANCH  24  25
ENDBRANCH  23  24
ENDBRANCH  22  23
ENDBRANCH  21  22
ENDBRANCH  20  21
ENDBRANCH  19  20
ENDBRANCH   1  19
TORSDOF 25
ENDMDL
MODEL 2
REMARK VINA RESULT:      -9.0      4.602     10.612
REMARK SMILES C[C@H](C[NH3+])CS/C=C/C(=O)OCCOCCOCCOCCOC(=O)c1ccc(-c2c3nc(c(-c4c(F)c(F)c(F)c(F)c4F)c4ccc([nH]4)c(-c4c(F)c(F)c(F)c(F)c4F)c4nc(c(-c5c(F)c(F)c(F)c(F)c5F)c5ccc2[nH]5)C=C4)C=C3)cc1
REMARK SMILES IDX 15 1 14 2 13 3 12 4 11 5 9 6 10 7 8 8 7 9 6 10 5 11 2 12
REMARK SMILES IDX 1 13 3 14 4 15 16 19 17 20 18 21 19 22 20 23 21 24 22 25
REMARK SMILES IDX 23 26 24 27 25 28 26 29 27 30 88 31 28 32 87 33 29 34 30 35
REMARK SMILES IDX 31 36 81 37 32 38 86 39 80 40 82 41 33 42 85 43 79 44 78 45
REMARK SMILES IDX 34 47 66 48 46 49 65 50 47 51 50 52 64 53 83 54 48 55 49 56
REMARK SMILES IDX 63 58 84 59 51 60 35 61 36 62 44 63 37 64 38 65 42 66 45 67
REMARK SMILES IDX 39 68 40 69 43 70 41 71 67 72 68 73 76 74 69 75 70 76 74 77
REMARK SMILES IDX 77 78 71 79 72 80 75 81 73 82 52 83 53 84 61 85 54 86 55 87
REMARK SMILES IDX 59 88 62 89 56 90 57 91 60 92 58 93
REMARK H PARENT 4 16 4 17 4 18 82 46 50 57
REMARK Flexibility Score: inf
ROOT
ATOM      1  C   UNL A   1      33.458  27.294  24.908  1.00  0.00     0.188 C 
ENDROOT
BRANCH   1   2
ATOM      2  O   UNL A   1      32.624  26.736  25.902  1.00  0.00    -0.376 OA
BRANCH   2   3
ATOM      3  C   UNL A   1      32.297  25.357  25.972  1.00  0.00     0.202 C 
BRANCH   3   4
ATOM      4  C   UNL A   1      33.272  24.175  26.130  1.00  0.00     0.261 C 
BRANCH   4   5
ATOM      5  O   UNL A   1      32.845  22.922  25.612  1.00  0.00    -0.460 OA
BRANCH   5   6
ATOM      6  C   UNL A   1      33.201  22.686  24.335  1.00  0.00     0.331 C 
ATOM      7  O   UNL A   1      33.580  23.504  23.511  1.00  0.00    -0.247 OA
BRANCH   6   8
ATOM      8  C   UNL A   1      33.391  21.247  24.138  1.00  0.00     0.100 C 
ATOM      9  C   UNL A   1      32.472  20.333  24.451  1.00  0.00     0.048 C 
BRANCH   9  10
ATOM     10  S   UNL A   1      32.521  18.699  23.875  1.00  0.00    -0.133 SA
BRANCH  10  11
ATOM     11  C   UNL A   1      32.730  17.628  25.351  1.00  0.00     0.083 C 
BRANCH  11  12
ATOM     12  C   UNL A   1      33.669  16.392  25.256  1.00  0.00     0.051 C 
ATOM     13  C   UNL A   1      34.433  16.484  23.922  1.00  0.00     0.014 C 
BRANCH  12  14
ATOM     14  C   UNL A   1      32.934  15.045  25.377  1.00  0.00     0.262 C 
BRANCH  14  15
ATOM     15  N   UNL A   1      31.526  15.131  25.750  1.00  0.00    -0.357 N 
ATOM     16  H   UNL A   1      31.362  15.996  26.266  1.00  0.00     0.344 HD
ATOM     17  H   UNL A   1      31.279  14.333  26.336  1.00  0.00     0.344 HD
ATOM     18  H   UNL A   1      30.949  15.124  24.908  1.00  0.00     0.344 HD
ENDBRANCH  14  15
ENDBRANCH  12  14
ENDBRANCH  11  12
ENDBRANCH  10  11
ENDBRANCH   9  10
ENDBRANCH   6   8
ENDBRANCH   5   6
ENDBRANCH   4   5
ENDBRANCH   3   4
ENDBRANCH   2   3
ENDBRANCH   1   2
BRANCH   1  19
ATOM     19  C   UNL A   1      32.813  27.785  23.595  1.00  0.00     0.188 C 
BRANCH  19  20
ATOM     20  O   UNL A   1      31.486  27.363  23.370  1.00  0.00    -0.377 OA
BRANCH  20  21
ATOM     21  C   UNL A   1      30.417  28.136  23.897  1.00  0.00     0.188 C 
BRANCH  21  22
ATOM     22  C   UNL A   1      30.478  29.679  23.995  1.00  0.00     0.188 C 
BRANCH  22  23
ATOM     23  O   UNL A   1      31.046  30.194  25.187  1.00  0.00    -0.376 OA
BRANCH  23  24
ATOM     24  C   UNL A   1      30.784  31.545  25.530  1.00  0.00     0.202 C 
BRANCH  24  25
ATOM     25  C   UNL A   1      31.402  32.063  26.838  1.00  0.00     0.261 C 
BRANCH  25  26
ATOM     26  O   UNL A   1      32.795  31.772  27.030  1.00  0.00    -0.460 OA
BRANCH  26  27
ATOM     27  C   UNL A   1      33.540  32.717  27.636  1.00  0.00     0.338 C 
ATOM     28  O   UNL A   1      33.182  33.836  27.974  1.00  0.00    -0.246 OA
BRANCH  27  29
ATOM     29  C   UNL A   1      34.835  32.114  28.010  1.00  0.00     0.060 A 
ATOM     30  C   UNL A   1      34.917  30.721  28.133  1.00  0.00     0.016 A 
ATOM     31  C   UNL A   1      35.955  32.914  28.243  1.00  0.00     0.016 A 
ATOM     32  C   UNL A   1      36.109  30.127  28.543  1.00  0.00     0.010 A 
ATOM     33  C   UNL A   1      37.144  32.318  28.674  1.00  0.00     0.010 A 
ATOM     34  C   UNL A   1      37.211  30.926  28.869  1.00  0.00    -0.014 A 
BRANCH  34  35
ATOM     35  C   UNL A   1      38.340  30.328  29.625  1.00  0.00     0.031 A 
ATOM     36  C   UNL A   1      38.529  30.739  31.061  1.00  0.00     0.074 A 
ATOM     37  C   UNL A   1      39.150  29.410  29.072  1.00  0.00     0.049 A 
ATOM     38  N   UNL A   1      39.443  30.371  31.921  1.00  0.00    -0.248 NA
ATOM     39  C   UNL A   1      37.552  31.700  31.599  1.00  0.00     0.031 C 
ATOM     40  C   UNL A   1      39.046  28.901  27.706  1.00  0.00     0.029 A 
ATOM     41  N   UNL A   1      40.229  28.743  29.600  1.00  0.00    -0.354 N 
ATOM     42  C   UNL A   1      39.158  31.060  33.093  1.00  0.00     0.074 A 
ATOM     43  C   UNL A   1      38.007  31.894  32.827  1.00  0.00     0.031 C 
ATOM     44  C   UNL A   1      40.033  28.011  27.497  1.00  0.00     0.029 A 
ATOM     45  C   UNL A   1      40.852  27.910  28.704  1.00  0.00     0.049 A 
ATOM     46  H   UNL A   1      40.527  28.853  30.532  1.00  0.00     0.167 HD
ATOM     47  C   UNL A   1      39.794  30.998  34.286  1.00  0.00     0.037 A 
ATOM     48  C   UNL A   1      41.971  27.170  28.840  1.00  0.00     0.037 A 
ATOM     49  C   UNL A   1      40.937  30.165  34.550  1.00  0.00     0.049 A 
ATOM     50  C   UNL A   1      42.695  27.163  30.166  1.00  0.00     0.074 A 
ATOM     51  C   UNL A   1      41.638  30.013  35.733  1.00  0.00     0.029 A 
ATOM     52  N   UNL A   1      41.554  29.351  33.612  1.00  0.00    -0.354 N 
ATOM     53  N   UNL A   1      42.401  27.792  31.278  1.00  0.00    -0.248 NA
ATOM     54  C   UNL A   1      43.904  26.331  30.254  1.00  0.00     0.031 C 
ATOM     55  C   UNL A   1      42.718  29.158  35.494  1.00  0.00     0.029 A 
ATOM     56  C   UNL A   1      42.645  28.716  34.183  1.00  0.00     0.049 A 
ATOM     57  H   UNL A   1      41.260  29.240  32.679  1.00  0.00     0.167 HD
ATOM     58  C   UNL A   1      43.361  27.403  32.206  1.00  0.00     0.074 A 
ATOM     59  C   UNL A   1      44.237  26.470  31.529  1.00  0.00     0.031 C 
ATOM     60  C   UNL A   1      43.504  27.780  33.501  1.00  0.00     0.037 A 
BRANCH  47  61
ATOM     61  C   UNL A   1      39.291  31.882  35.391  1.00  0.00     0.064 A 
ATOM     62  C   UNL A   1      39.635  33.241  35.472  1.00  0.00     0.173 A 
ATOM     63  C   UNL A   1      38.418  31.368  36.363  1.00  0.00     0.173 A 
ATOM     64  F   UNL A   1      40.480  33.778  34.581  1.00  0.00    -0.203 F 
ATOM     65  C   UNL A   1      39.139  34.044  36.496  1.00  0.00     0.198 A 
ATOM     66  C   UNL A   1      37.898  32.183  37.364  1.00  0.00     0.198 A 
ATOM     67  F   UNL A   1      38.057  30.077  36.332  1.00  0.00    -0.203 F 
ATOM     68  F   UNL A   1      39.518  35.327  36.581  1.00  0.00    -0.200 F 
ATOM     69  C   UNL A   1      38.264  33.518  37.435  1.00  0.00     0.200 A 
ATOM     70  F   UNL A   1      37.041  31.676  38.261  1.00  0.00    -0.200 F 
ATOM     71  F   UNL A   1      37.777  34.298  38.411  1.00  0.00    -0.200 F 
ENDBRANCH  47  61
BRANCH  48  72
ATOM     72  C   UNL A   1      42.495  26.384  27.690  1.00  0.00     0.064 A 
ATOM     73  C   UNL A   1      42.065  25.072  27.446  1.00  0.00     0.173 A 
ATOM     74  C   UNL A   1      43.473  26.917  26.836  1.00  0.00     0.173 A 
ATOM     75  F   UNL A   1      41.151  24.508  28.248  1.00  0.00    -0.203 F 
ATOM     76  C   UNL A   1      42.615  24.314  26.414  1.00  0.00     0.198 A 
ATOM     77  C   UNL A   1      43.996  26.170  25.782  1.00  0.00     0.198 A 
ATOM     78  F   UNL A   1      43.924  28.166  27.025  1.00  0.00    -0.203 F 
ATOM     79  F   UNL A   1      42.232  23.041  26.245  1.00  0.00    -0.200 F 
ATOM     80  C   UNL A   1      43.576  24.864  25.579  1.00  0.00     0.200 A 
ATOM     81  F   UNL A   1      44.915  26.712  24.972  1.00  0.00    -0.200 F 
ATOM     82  F   UNL A   1      44.105  24.134  24.589  1.00  0.00    -0.200 F 
ENDBRANCH  48  72
BRANCH  60  83
ATOM     83  C   UNL A   1      44.612  27.139  34.291  1.00  0.00     0.064 A 
ATOM     84  C   UNL A   1      45.870  27.745  34.438  1.00  0.00     0.173 A 
ATOM     85  C   UNL A   1      44.402  25.906  34.929  1.00  0.00     0.173 A 
ATOM     86  F   UNL A   1      46.128  28.918  33.843  1.00  0.00    -0.203 F 
ATOM     87  C   UNL A   1      46.887  27.119  35.155  1.00  0.00     0.198 A 
ATOM     88  C   UNL A   1      45.409  25.304  35.678  1.00  0.00     0.198 A 
ATOM     89  F   UNL A   1      43.216  25.288  34.835  1.00  0.00    -0.203 F 
ATOM     90  F   UNL A   1      48.101  27.683  35.223  1.00  0.00    -0.200 F 
ATOM     91  C   UNL A   1      46.654  25.902  35.779  1.00  0.00     0.200 A 
ATOM     92  F   UNL A   1      45.173  24.138  36.299  1.00  0.00    -0.200 F 
ATOM     93  F   UNL A   1      47.634  25.303  36.470  1.00  0.00    -0.200 F 
ENDBRANCH  60  83
ENDBRANCH  34  35
ENDBRANCH  27  29
ENDBRANCH  26  27
ENDBRANCH  25  26
ENDBRANCH  24  25
ENDBRANCH  23  24
ENDBRANCH  22  23
ENDBRANCH  21  22
ENDBRANCH  20  21
ENDBRANCH  19  20
ENDBRANCH   1  19
TORSDOF 25
ENDMDL
MODEL 3
REMARK VINA RESULT:      -8.9      4.808     10.751
REMARK SMILES C[C@H](C[NH3+])CS/C=C/C(=O)OCCOCCOCCOCCOC(=O)c1ccc(-c2c3nc(c(-c4c(F)c(F)c(F)c(F)c4F)c4ccc([nH]4)c(-c4c(F)c(F)c(F)c(F)c4F)c4nc(c(-c5c(F)c(F)c(F)c(F)c5F)c5ccc2[nH]5)C=C4)C=C3)cc1
REMARK SMILES IDX 15 1 14 2 13 3 12 4 11 5 9 6 10 7 8 8 7 9 6 10 5 11 2 12
REMARK SMILES IDX 1 13 3 14 4 15 16 19 17 20 18 21 19 22 20 23 21 24 22 25
REMARK SMILES IDX 23 26 24 27 25 28 26 29 27 30 88 31 28 32 87 33 29 34 30 35
REMARK SMILES IDX 31 36 81 37 32 38 86 39 80 40 82 41 33 42 85 43 79 44 78 45
REMARK SMILES IDX 34 47 66 48 46 49 65 50 47 51 50 52 64 53 83 54 48 55 49 56
REMARK SMILES IDX 63 58 84 59 51 60 35 61 36 62 44 63 37 64 38 65 42 66 45 67
REMARK SMILES IDX 39 68 40 69 43 70 41 71 67 72 68 73 76 74 69 75 70 76 74 77
REMARK SMILES IDX 77 78 71 79 72 80 75 81 73 82 52 83 53 84 61 85 54 86 55 87
REMARK SMILES IDX 59 88 62 89 56 90 57 91 60 92 58 93
REMARK H PARENT 4 16 4 17 4 18 82 46 50 57
REMARK Flexibility Score: inf
ROOT
ATOM      1  C   UNL A   1      31.527  27.938  22.781  1.00  0.00     0.188 C 
ENDROOT
BRANCH   1   2
ATOM      2  O   UNL A   1      30.788  26.987  23.517  1.00  0.00    -0.376 OA
BRANCH   2   3
ATOM      3  C   UNL A   1      31.229  26.423  24.743  1.00  0.00     0.202 C 
BRANCH   3   4
ATOM      4  C   UNL A   1      31.382  24.928  25.080  1.00  0.00     0.261 C 
BRANCH   4   5
ATOM      5  O   UNL A   1      32.222  24.603  26.180  1.00  0.00    -0.460 OA
BRANCH   5   6
ATOM      6  C   UNL A   1      32.158  23.320  26.581  1.00  0.00     0.331 C 
ATOM      7  O   UNL A   1      31.906  22.909  27.703  1.00  0.00    -0.247 OA
BRANCH   6   8
ATOM      8  C   UNL A   1      32.110  22.443  25.409  1.00  0.00     0.100 C 
ATOM      9  C   UNL A   1      32.955  21.431  25.210  1.00  0.00     0.048 C 
BRANCH   9  10
ATOM     10  S   UNL A   1      32.674  20.169  24.055  1.00  0.00    -0.133 SA
BRANCH  10  11
ATOM     11  C   UNL A   1      33.089  18.589  24.893  1.00  0.00     0.083 C 
BRANCH  11  12
ATOM     12  C   UNL A   1      34.138  17.645  24.239  1.00  0.00     0.051 C 
ATOM     13  C   UNL A   1      33.633  17.287  22.829  1.00  0.00     0.014 C 
BRANCH  12  14
ATOM     14  C   UNL A   1      34.423  16.375  25.061  1.00  0.00     0.262 C 
BRANCH  14  15
ATOM     15  N   UNL A   1      35.694  16.363  25.778  1.00  0.00    -0.357 N 
ATOM     16  H   UNL A   1      36.166  15.473  25.619  1.00  0.00     0.344 HD
ATOM     17  H   UNL A   1      35.523  16.485  26.776  1.00  0.00     0.344 HD
ATOM     18  H   UNL A   1      36.283  17.125  25.438  1.00  0.00     0.344 HD
ENDBRANCH  14  15
ENDBRANCH  12  14
ENDBRANCH  11  12
ENDBRANCH  10  11
ENDBRANCH   9  10
ENDBRANCH   6   8
ENDBRANCH   5   6
ENDBRANCH   4   5
ENDBRANCH   3   4
ENDBRANCH   2   3
ENDBRANCH   1   2
BRANCH   1  19
ATOM     19  C   UNL A   1      32.985  28.220  23.196  1.00  0.00     0.188 C 
BRANCH  19  20
ATOM     20  O   UNL A   1      33.178  29.340  24.032  1.00  0.00    -0.377 OA
BRANCH  20  21
ATOM     21  C   UNL A   1      33.096  29.173  25.440  1.00  0.00     0.188 C 
BRANCH  21  22
ATOM     22  C   UNL A   1      32.829  30.355  26.402  1.00  0.00     0.188 C 
BRANCH  22  23
ATOM     23  O   UNL A   1      31.678  31.129  26.115  1.00  0.00    -0.376 OA
BRANCH  23  24
ATOM     24  C   UNL A   1      31.421  32.277  26.909  1.00  0.00     0.202 C 
BRANCH  24  25
ATOM     25  C   UNL A   1      32.621  33.180  27.233  1.00  0.00     0.261 C 
BRANCH  25  26
ATOM     26  O   UNL A   1      32.440  34.092  28.327  1.00  0.00    -0.460 OA
BRANCH  26  27
ATOM     27  C   UNL A   1      33.506  34.835  28.687  1.00  0.00     0.338 C 
ATOM     28  O   UNL A   1      33.528  36.036  28.912  1.00  0.00    -0.246 OA
BRANCH  27  29
ATOM     29  C   UNL A   1      34.633  33.921  28.961  1.00  0.00     0.060 A 
ATOM     30  C   UNL A   1      34.379  32.724  29.643  1.00  0.00     0.016 A 
ATOM     31  C   UNL A   1      35.929  34.243  28.553  1.00  0.00     0.016 A 
ATOM     32  C   UNL A   1      35.431  31.870  29.969  1.00  0.00     0.010 A 
ATOM     33  C   UNL A   1      36.986  33.396  28.899  1.00  0.00     0.010 A 
ATOM     34  C   UNL A   1      36.745  32.229  29.647  1.00  0.00    -0.014 A 
BRANCH  34  35
ATOM     35  C   UNL A   1      37.869  31.505  30.291  1.00  0.00     0.031 A 
ATOM     36  C   UNL A   1      38.207  31.844  31.719  1.00  0.00     0.074 A 
ATOM     37  C   UNL A   1      38.547  30.539  29.648  1.00  0.00     0.049 A 
ATOM     38  N   UNL A   1      39.148  31.365  32.491  1.00  0.00    -0.248 NA
ATOM     39  C   UNL A   1      37.367  32.868  32.362  1.00  0.00     0.031 C 
ATOM     40  C   UNL A   1      38.291  30.092  28.280  1.00  0.00     0.029 A 
ATOM     41  N   UNL A   1      39.598  29.760  30.066  1.00  0.00    -0.354 N 
ATOM     42  C   UNL A   1      39.019  32.034  33.702  1.00  0.00     0.074 A 
ATOM     43  C   UNL A   1      37.933  32.976  33.555  1.00  0.00     0.031 C 
ATOM     44  C   UNL A   1      39.172  29.127  27.966  1.00  0.00     0.029 A 
ATOM     45  C   UNL A   1      40.071  28.908  29.099  1.00  0.00     0.049 A 
ATOM     46  H   UNL A   1      39.976  29.808  30.974  1.00  0.00     0.167 HD
ATOM     47  C   UNL A   1      39.738  31.872  34.837  1.00  0.00     0.037 A 
ATOM     48  C   UNL A   1      41.124  28.067  29.122  1.00  0.00     0.037 A 
ATOM     49  C   UNL A   1      40.817  30.930  34.983  1.00  0.00     0.049 A 
ATOM     50  C   UNL A   1      41.945  27.947  30.384  1.00  0.00     0.074 A 
ATOM     51  C   UNL A   1      41.591  30.673  36.100  1.00  0.00     0.029 A 
ATOM     52  N   UNL A   1      41.282  30.100  33.975  1.00  0.00    -0.354 N 
ATOM     53  N   UNL A   1      41.798  28.559  31.535  1.00  0.00    -0.248 NA
ATOM     54  C   UNL A   1      43.076  27.008  30.350  1.00  0.00     0.031 C 
ATOM     55  C   UNL A   1      42.567  29.735  35.749  1.00  0.00     0.029 A 
ATOM     56  C   UNL A   1      42.352  29.350  34.436  1.00  0.00     0.049 A 
ATOM     57  H   UNL A   1      40.907  30.050  33.065  1.00  0.00     0.167 HD
ATOM     58  C   UNL A   1      42.787  28.052  32.370  1.00  0.00     0.074 A 
ATOM     59  C   UNL A   1      43.519  27.070  31.597  1.00  0.00     0.031 C 
ATOM     60  C   UNL A   1      43.065  28.367  33.660  1.00  0.00     0.037 A 
BRANCH  47  61
ATOM     61  C   UNL A   1      39.406  32.755  36.005  1.00  0.00     0.064 A 
ATOM     62  C   UNL A   1      38.511  32.356  37.010  1.00  0.00     0.173 A 
ATOM     63  C   UNL A   1      40.027  34.007  36.141  1.00  0.00     0.173 A 
ATOM     64  F   UNL A   1      37.877  31.178  36.921  1.00  0.00    -0.203 F 
ATOM     65  C   UNL A   1      38.235  33.186  38.093  1.00  0.00     0.198 A 
ATOM     66  C   UNL A   1      39.775  34.819  37.243  1.00  0.00     0.198 A 
ATOM     67  F   UNL A   1      40.891  34.437  35.210  1.00  0.00    -0.203 F 
ATOM     68  F   UNL A   1      37.341  32.804  39.017  1.00  0.00    -0.200 F 
ATOM     69  C   UNL A   1      38.874  34.411  38.215  1.00  0.00     0.200 A 
ATOM     70  F   UNL A   1      40.405  35.995  37.365  1.00  0.00    -0.200 F 
ATOM     71  F   UNL A   1      38.617  35.202  39.266  1.00  0.00    -0.200 F 
ENDBRANCH  47  61
BRANCH  48  72
ATOM     72  C   UNL A   1      41.483  27.281  27.910  1.00  0.00     0.064 A 
ATOM     73  C   UNL A   1      41.014  25.972  27.725  1.00  0.00     0.173 A 
ATOM     74  C   UNL A   1      42.340  27.809  26.933  1.00  0.00     0.173 A 
ATOM     75  F   UNL A   1      40.213  25.412  28.642  1.00  0.00    -0.203 F 
ATOM     76  C   UNL A   1      41.414  25.212  26.627  1.00  0.00     0.198 A 
ATOM     77  C   UNL A   1      42.711  27.060  25.817  1.00  0.00     0.198 A 
ATOM     78  F   UNL A   1      42.821  29.054  27.062  1.00  0.00    -0.203 F 
ATOM     79  F   UNL A   1      41.003  23.942  26.509  1.00  0.00    -0.200 F 
ATOM     80  C   UNL A   1      42.258  25.758  25.671  1.00  0.00     0.200 A 
ATOM     81  F   UNL A   1      43.515  27.598  24.891  1.00  0.00    -0.200 F 
ATOM     82  F   UNL A   1      42.644  25.027  24.618  1.00  0.00    -0.200 F 
ENDBRANCH  48  72
BRANCH  60  83
ATOM     83  C   UNL A   1      44.168  27.602  34.338  1.00  0.00     0.064 A 
ATOM     84  C   UNL A   1      43.926  26.418  35.052  1.00  0.00     0.173 A 
ATOM     85  C   UNL A   1      45.496  28.052  34.252  1.00  0.00     0.173 A 
ATOM     86  F   UNL A   1      42.676  25.947  35.174  1.00  0.00    -0.203 F 
ATOM     87  C   UNL A   1      44.963  25.742  35.691  1.00  0.00     0.198 A 
ATOM     88  C   UNL A   1      46.534  27.351  34.858  1.00  0.00     0.198 A 
ATOM     89  F   UNL A   1      45.788  29.170  33.571  1.00  0.00    -0.203 F 
ATOM     90  F   UNL A   1      44.696  24.652  36.425  1.00  0.00    -0.200 F 
ATOM     91  C   UNL A   1      46.266  26.205  35.589  1.00  0.00     0.200 A 
ATOM     92  F   UNL A   1      47.795  27.790  34.738  1.00  0.00    -0.200 F 
ATOM     93  F   UNL A   1      47.262  25.551  36.203  1.00  0.00    -0.200 F 
ENDBRANCH  60  83
ENDBRANCH  34  35
ENDBRANCH  27  29
ENDBRANCH  26  27
ENDBRANCH  25  26
ENDBRANCH  24  25
ENDBRANCH  23  24
ENDBRANCH  22  23
ENDBRANCH  21  22
ENDBRANCH  20  21
ENDBRANCH  19  20
ENDBRANCH   1  19
TORSDOF 25
ENDMDL
