MODEL 1
REMARK VINA RESULT:     -11.1      0.000      0.000
REMARK SMILES O=C(OCCOCCOCCOCCOC(=O)c1ccc(-c2c3nc(c(-c4c(F)c(F)c(F)c(F)c4F)c4ccc([nH]4)c(-c4c(F)c(F)c(F)c(F)c4F)c4nc(c(-c5c(F)c(F)c(F)c(F)c5F)c5ccc2[nH]5)C=C4)C=C3)cc1)C1=C[C@H]2C=C[C@@H]1[C@@H]1C=C[C@H]21
REMARK SMILES IDX 10 1 9 2 8 3 7 4 6 5 5 6 4 7 3 8 2 9 1 10 81 11 82 12 86 13
REMARK SMILES IDX 83 14 85 15 87 16 84 17 90 18 88 19 89 20 11 21 12 22 13 23
REMARK SMILES IDX 14 24 15 25 16 26 17 27 18 28 19 29 80 30 20 31 79 32 21 33
REMARK SMILES IDX 22 34 23 35 73 36 24 37 78 38 72 39 74 40 25 41 77 42 71 43
REMARK SMILES IDX 70 44 26 46 58 47 38 48 57 49 39 50 42 51 56 52 75 53 40 54
REMARK SMILES IDX 41 55 55 57 76 58 43 59 27 60 28 61 36 62 29 63 30 64 34 65
REMARK SMILES IDX 37 66 31 67 32 68 35 69 33 70 59 71 60 72 68 73 61 74 62 75
REMARK SMILES IDX 66 76 69 77 63 78 64 79 67 80 65 81 44 82 45 83 53 84 46 85
REMARK SMILES IDX 47 86 51 87 54 88 48 89 49 90 52 91 50 92
REMARK H PARENT 74 45 42 56
REMARK Flexibility Score: inf
ROOT
ATOM      1  C   UNL A   1      44.061  19.126  24.677  1.00  0.00     0.188 C 
ENDROOT
BRANCH   1   2
ATOM      2  O   UNL A   1      43.014  18.328  25.207  1.00  0.00    -0.377 OA
BRANCH   2   3
ATOM      3  C   UNL A   1      42.629  18.570  26.547  1.00  0.00     0.188 C 
BRANCH   3   4
ATOM      4  C   UNL A   1      42.217  19.989  26.955  1.00  0.00     0.188 C 
BRANCH   4   5
ATOM      5  O   UNL A   1      41.677  20.835  25.951  1.00  0.00    -0.376 OA
BRANCH   5   6
ATOM      6  C   UNL A   1      40.760  21.885  26.223  1.00  0.00     0.202 C 
BRANCH   6   7
ATOM      7  C   UNL A   1      39.270  21.606  26.225  1.00  0.00     0.261 C 
BRANCH   7   8
ATOM      8  O   UNL A   1      38.701  20.698  25.251  1.00  0.00    -0.460 OA
BRANCH   8   9
ATOM      9  C   UNL A   1      37.439  20.406  24.900  1.00  0.00     0.334 C 
ATOM     10  O   UNL A   1      37.041  19.245  24.937  1.00  0.00    -0.247 OA
BRANCH   9  11
ATOM     11  C   UNL A   1      36.508  21.444  24.466  1.00  0.00     0.041 C 
ATOM     12  C   UNL A   1      36.813  22.567  23.768  1.00  0.00    -0.007 C 
ATOM     13  C   UNL A   1      35.163  21.523  25.173  1.00  0.00     0.056 C 
ATOM     14  C   UNL A   1      35.680  23.631  23.765  1.00  0.00     0.042 C 
ATOM     15  C   UNL A   1      34.108  21.852  24.103  1.00  0.00    -0.022 C 
ATOM     16  C   UNL A   1      35.353  22.739  26.122  1.00  0.00     0.031 C 
ATOM     17  C   UNL A   1      34.403  22.924  23.341  1.00  0.00    -0.022 C 
ATOM     18  C   UNL A   1      35.477  24.041  25.272  1.00  0.00     0.030 C 
ATOM     19  C   UNL A   1      34.137  23.361  26.758  1.00  0.00    -0.026 C 
ATOM     20  C   UNL A   1      34.082  24.362  25.854  1.00  0.00    -0.026 C 
ENDBRANCH   9  11
ENDBRANCH   8   9
ENDBRANCH   7   8
ENDBRANCH   6   7
ENDBRANCH   5   6
ENDBRANCH   4   5
ENDBRANCH   3   4
ENDBRANCH   2   3
ENDBRANCH   1   2
BRANCH   1  21
ATOM     21  C   UNL A   1      45.506  19.030  25.235  1.00  0.00     0.188 C 
BRANCH  21  22
ATOM     22  O   UNL A   1      46.166  20.269  25.461  1.00  0.00    -0.376 OA
BRANCH  22  23
ATOM     23  C   UNL A   1      45.335  21.390  25.726  1.00  0.00     0.202 C 
BRANCH  23  24
ATOM     24  C   UNL A   1      46.088  22.729  25.704  1.00  0.00     0.261 C 
BRANCH  24  25
ATOM     25  O   UNL A   1      45.378  23.815  26.320  1.00  0.00    -0.460 OA
BRANCH  25  26
ATOM     26  C   UNL A   1      44.704  24.629  25.476  1.00  0.00     0.338 C 
ATOM     27  O   UNL A   1      44.700  24.585  24.264  1.00  0.00    -0.246 OA
BRANCH  26  28
ATOM     28  C   UNL A   1      43.766  25.447  26.278  1.00  0.00     0.060 A 
ATOM     29  C   UNL A   1      44.089  26.794  26.493  1.00  0.00     0.016 A 
ATOM     30  C   UNL A   1      42.589  24.907  26.803  1.00  0.00     0.016 A 
ATOM     31  C   UNL A   1      43.259  27.595  27.270  1.00  0.00     0.010 A 
ATOM     32  C   UNL A   1      41.775  25.701  27.615  1.00  0.00     0.010 A 
ATOM     33  C   UNL A   1      42.138  27.032  27.891  1.00  0.00    -0.014 A 
BRANCH  33  34
ATOM     34  C   UNL A   1      41.564  27.741  29.058  1.00  0.00     0.031 A 
ATOM     35  C   UNL A   1      42.286  27.594  30.371  1.00  0.00     0.074 A 
ATOM     36  C   UNL A   1      40.503  28.556  28.947  1.00  0.00     0.049 A 
ATOM     37  N   UNL A   1      42.037  28.147  31.529  1.00  0.00    -0.248 NA
ATOM     38  C   UNL A   1      43.457  26.699  30.373  1.00  0.00     0.031 C 
ATOM     39  C   UNL A   1      39.756  28.817  27.721  1.00  0.00     0.029 A 
ATOM     40  N   UNL A   1      39.878  29.328  29.896  1.00  0.00    -0.354 N 
ATOM     41  C   UNL A   1      43.014  27.665  32.392  1.00  0.00     0.074 A 
ATOM     42  C   UNL A   1      43.835  26.744  31.639  1.00  0.00     0.031 C 
ATOM     43  C   UNL A   1      38.770  29.691  27.990  1.00  0.00     0.029 A 
ATOM     44  C   UNL A   1      38.805  30.032  29.413  1.00  0.00     0.049 A 
ATOM     45  H   UNL A   1      40.172  29.370  30.835  1.00  0.00     0.167 HD
ATOM     46  C   UNL A   1      43.217  27.969  33.694  1.00  0.00     0.037 A 
ATOM     47  C   UNL A   1      37.950  30.851  30.056  1.00  0.00     0.037 A 
ATOM     48  C   UNL A   1      42.395  28.882  34.440  1.00  0.00     0.049 A 
ATOM     49  C   UNL A   1      38.155  31.119  31.528  1.00  0.00     0.074 A 
ATOM     50  C   UNL A   1      42.516  29.269  35.761  1.00  0.00     0.029 A 
ATOM     51  N   UNL A   1      41.288  29.542  33.927  1.00  0.00    -0.354 N 
ATOM     52  N   UNL A   1      39.095  30.684  32.331  1.00  0.00    -0.248 NA
ATOM     53  C   UNL A   1      37.180  32.006  32.178  1.00  0.00     0.031 C 
ATOM     54  C   UNL A   1      41.444  30.113  36.067  1.00  0.00     0.029 A 
ATOM     55  C   UNL A   1      40.700  30.315  34.915  1.00  0.00     0.049 A 
ATOM     56  H   UNL A   1      40.967  29.471  32.999  1.00  0.00     0.167 HD
ATOM     57  C   UNL A   1      38.855  31.280  33.564  1.00  0.00     0.074 A 
ATOM     58  C   UNL A   1      37.684  32.114  33.399  1.00  0.00     0.031 C 
ATOM     59  C   UNL A   1      39.544  31.155  34.727  1.00  0.00     0.037 A 
BRANCH  46  60
ATOM     60  C   UNL A   1      44.345  27.274  34.397  1.00  0.00     0.064 A 
ATOM     61  C   UNL A   1      44.176  26.033  35.033  1.00  0.00     0.173 A 
ATOM     62  C   UNL A   1      45.621  27.857  34.431  1.00  0.00     0.173 A 
ATOM     63  F   UNL A   1      42.972  25.441  35.052  1.00  0.00    -0.203 F 
ATOM     64  C   UNL A   1      45.233  25.420  35.701  1.00  0.00     0.198 A 
ATOM     65  C   UNL A   1      46.685  27.224  35.068  1.00  0.00     0.198 A 
ATOM     66  F   UNL A   1      45.838  29.043  33.842  1.00  0.00    -0.203 F 
ATOM     67  F   UNL A   1      45.034  24.266  36.352  1.00  0.00    -0.200 F 
ATOM     68  C   UNL A   1      46.488  26.011  35.711  1.00  0.00     0.200 A 
ATOM     69  F   UNL A   1      47.897  27.792  35.066  1.00  0.00    -0.200 F 
ATOM     70  F   UNL A   1      47.506  25.418  36.349  1.00  0.00    -0.200 F 
ENDBRANCH  46  60
BRANCH  47  71
ATOM     71  C   UNL A   1      36.822  31.487  29.322  1.00  0.00     0.064 A 
ATOM     72  C   UNL A   1      36.813  32.865  29.057  1.00  0.00     0.173 A 
ATOM     73  C   UNL A   1      35.712  30.738  28.904  1.00  0.00     0.173 A 
ATOM     74  F   UNL A   1      37.838  33.630  29.459  1.00  0.00    -0.203 F 
ATOM     75  C   UNL A   1      35.725  33.472  28.432  1.00  0.00     0.198 A 
ATOM     76  C   UNL A   1      34.640  31.341  28.249  1.00  0.00     0.198 A 
ATOM     77  F   UNL A   1      35.667  29.418  29.134  1.00  0.00    -0.203 F 
ATOM     78  F   UNL A   1      35.717  34.799  28.247  1.00  0.00    -0.200 F 
ATOM     79  C   UNL A   1      34.642  32.709  28.023  1.00  0.00     0.200 A 
ATOM     80  F   UNL A   1      33.600  30.598  27.846  1.00  0.00    -0.200 F 
ATOM     81  F   UNL A   1      33.596  33.293  27.423  1.00  0.00    -0.200 F 
ENDBRANCH  47  71
BRANCH  59  82
ATOM     82  C   UNL A   1      39.096  31.994  35.892  1.00  0.00     0.064 A 
ATOM     83  C   UNL A   1      39.501  33.326  36.056  1.00  0.00     0.173 A 
ATOM     84  C   UNL A   1      38.221  31.453  36.850  1.00  0.00     0.173 A 
ATOM     85  F   UNL A   1      40.341  33.889  35.175  1.00  0.00    -0.203 F 
ATOM     86  C   UNL A   1      39.083  34.072  37.156  1.00  0.00     0.198 A 
ATOM     87  C   UNL A   1      37.772  32.215  37.925  1.00  0.00     0.198 A 
ATOM     88  F   UNL A   1      37.789  30.189  36.736  1.00  0.00    -0.203 F 
ATOM     89  F   UNL A   1      39.537  35.321  37.327  1.00  0.00    -0.200 F 
ATOM     90  C   UNL A   1      38.214  33.518  38.085  1.00  0.00     0.200 A 
ATOM     91  F   UNL A   1      36.916  31.684  38.809  1.00  0.00    -0.200 F 
ATOM     92  F   UNL A   1      37.812  34.239  39.141  1.00  0.00    -0.200 F 
ENDBRANCH  59  82
ENDBRANCH  33  34
ENDBRANCH  26  28
ENDBRANCH  25  26
ENDBRANCH  24  25
ENDBRANCH  23  24
ENDBRANCH  22  23
ENDBRANCH  21  22
ENDBRANCH   1  21
TORSDOF 20
ENDMDL
MODEL 2
REMARK VINA RESULT:     -10.6      4.893     10.077
REMARK SMILES O=C(OCCOCCOCCOCCOC(=O)c1ccc(-c2c3nc(c(-c4c(F)c(F)c(F)c(F)c4F)c4ccc([nH]4)c(-c4c(F)c(F)c(F)c(F)c4F)c4nc(c(-c5c(F)c(F)c(F)c(F)c5F)c5ccc2[nH]5)C=C4)C=C3)cc1)C1=C[C@H]2C=C[C@@H]1[C@@H]1C=C[C@H]21
REMARK SMILES IDX 10 1 9 2 8 3 7 4 6 5 5 6 4 7 3 8 2 9 1 10 81 11 82 12 86 13
REMARK SMILES IDX 83 14 85 15 87 16 84 17 90 18 88 19 89 20 11 21 12 22 13 23
REMARK SMILES IDX 14 24 15 25 16 26 17 27 18 28 19 29 80 30 20 31 79 32 21 33
REMARK SMILES IDX 22 34 23 35 73 36 24 37 78 38 72 39 74 40 25 41 77 42 71 43
REMARK SMILES IDX 70 44 26 46 58 47 38 48 57 49 39 50 42 51 56 52 75 53 40 54
REMARK SMILES IDX 41 55 55 57 76 58 43 59 27 60 28 61 36 62 29 63 30 64 34 65
REMARK SMILES IDX 37 66 31 67 32 68 35 69 33 70 59 71 60 72 68 73 61 74 62 75
REMARK SMILES IDX 66 76 69 77 63 78 64 79 67 80 65 81 44 82 45 83 53 84 46 85
REMARK SMILES IDX 47 86 51 87 54 88 48 89 49 90 52 91 50 92
REMARK H PARENT 74 45 42 56
REMARK Flexibility Score: inf
ROOT
ATOM      1  C   UNL A   1      35.292  22.293  25.614  1.00  0.00     0.188 C 
ENDROOT
BRANCH   1   2
ATOM      2  O   UNL A   1      34.521  21.406  26.410  1.00  0.00    -0.377 OA
BRANCH   2   3
ATOM      3  C   UNL A   1      33.280  20.977  25.885  1.00  0.00     0.188 C 
BRANCH   3   4
ATOM      4  C   UNL A   1      33.216  20.491  24.432  1.00  0.00     0.188 C 
BRANCH   4   5
ATOM      5  O   UNL A   1      32.247  21.084  23.580  1.00  0.00    -0.376 OA
BRANCH   5   6
ATOM      6  C   UNL A   1      32.246  22.462  23.237  1.00  0.00     0.202 C 
BRANCH   6   7
ATOM      7  C   UNL A   1      31.127  23.362  23.724  1.00  0.00     0.261 C 
BRANCH   7   8
ATOM      8  O   UNL A   1      30.914  23.550  25.143  1.00  0.00    -0.460 OA
BRANCH   8   9
ATOM      9  C   UNL A   1      31.486  24.351  26.056  1.00  0.00     0.334 C 
ATOM     10  O   UNL A   1      31.402  24.082  27.251  1.00  0.00    -0.247 OA
BRANCH   9  11
ATOM     11  C   UNL A   1      32.215  25.554  25.666  1.00  0.00     0.041 C 
ATOM     12  C   UNL A   1      33.563  25.702  25.609  1.00  0.00    -0.007 C 
ATOM     13  C   UNL A   1      31.467  26.878  25.715  1.00  0.00     0.056 C 
ATOM     14  C   UNL A   1      34.028  27.181  25.502  1.00  0.00     0.042 C 
ATOM     15  C   UNL A   1      31.915  27.696  24.491  1.00  0.00    -0.022 C 
ATOM     16  C   UNL A   1      32.015  27.527  27.016  1.00  0.00     0.031 C 
ATOM     17  C   UNL A   1      33.251  27.814  24.358  1.00  0.00    -0.022 C 
ATOM     18  C   UNL A   1      33.522  27.883  26.819  1.00  0.00     0.030 C 
ATOM     19  C   UNL A   1      31.778  28.996  27.251  1.00  0.00    -0.026 C 
ATOM     20  C   UNL A   1      33.012  29.342  26.826  1.00  0.00    -0.026 C 
ENDBRANCH   9  11
ENDBRANCH   8   9
ENDBRANCH   7   8
ENDBRANCH   6   7
ENDBRANCH   5   6
ENDBRANCH   4   5
ENDBRANCH   3   4
ENDBRANCH   2   3
ENDBRANCH   1   2
BRANCH   1  21
ATOM     21  C   UNL A   1      36.728  21.921  25.156  1.00  0.00     0.188 C 
BRANCH  21  22
ATOM     22  O   UNL A   1      37.745  22.858  25.485  1.00  0.00    -0.376 OA
BRANCH  22  23
ATOM     23  C   UNL A   1      38.902  22.338  26.126  1.00  0.00     0.202 C 
BRANCH  23  24
ATOM     24  C   UNL A   1      39.192  20.873  25.769  1.00  0.00     0.261 C 
BRANCH  24  25
ATOM     25  O   UNL A   1      39.989  20.176  26.741  1.00  0.00    -0.460 OA
BRANCH  25  26
ATOM     26  C   UNL A   1      41.219  19.796  26.328  1.00  0.00     0.338 C 
ATOM     27  O   UNL A   1      41.513  18.770  25.751  1.00  0.00    -0.246 OA
BRANCH  26  28
ATOM     28  C   UNL A   1      42.130  20.954  26.475  1.00  0.00     0.060 A 
ATOM     29  C   UNL A   1      42.324  21.476  27.762  1.00  0.00     0.016 A 
ATOM     30  C   UNL A   1      42.787  21.513  25.376  1.00  0.00     0.016 A 
ATOM     31  C   UNL A   1      43.142  22.585  27.948  1.00  0.00     0.010 A 
ATOM     32  C   UNL A   1      43.578  22.651  25.557  1.00  0.00     0.010 A 
ATOM     33  C   UNL A   1      43.714  23.218  26.838  1.00  0.00    -0.014 A 
BRANCH  33  34
ATOM     34  C   UNL A   1      44.158  24.622  26.995  1.00  0.00     0.031 A 
ATOM     35  C   UNL A   1      43.135  25.614  27.479  1.00  0.00     0.074 A 
ATOM     36  C   UNL A   1      45.435  24.992  26.807  1.00  0.00     0.049 A 
ATOM     37  N   UNL A   1      43.267  26.885  27.757  1.00  0.00    -0.248 NA
ATOM     38  C   UNL A   1      41.771  25.096  27.683  1.00  0.00     0.031 C 
ATOM     39  C   UNL A   1      46.522  24.112  26.390  1.00  0.00     0.029 A 
ATOM     40  N   UNL A   1      46.032  26.219  26.959  1.00  0.00    -0.354 N 
ATOM     41  C   UNL A   1      42.009  27.313  28.161  1.00  0.00     0.074 A 
ATOM     42  C   UNL A   1      41.116  26.182  28.056  1.00  0.00     0.031 C 
ATOM     43  C   UNL A   1      47.659  24.828  26.318  1.00  0.00     0.029 A 
ATOM     44  C   UNL A   1      47.371  26.220  26.663  1.00  0.00     0.049 A 
ATOM     45  H   UNL A   1      45.543  27.023  27.251  1.00  0.00     0.167 HD
ATOM     46  C   UNL A   1      41.631  28.538  28.593  1.00  0.00     0.037 A 
ATOM     47  C   UNL A   1      48.255  27.238  26.667  1.00  0.00     0.037 A 
ATOM     48  C   UNL A   1      42.521  29.662  28.693  1.00  0.00     0.049 A 
ATOM     49  C   UNL A   1      47.791  28.613  27.085  1.00  0.00     0.074 A 
ATOM     50  C   UNL A   1      42.245  30.945  29.126  1.00  0.00     0.029 A 
ATOM     51  N   UNL A   1      43.862  29.635  28.341  1.00  0.00    -0.354 N 
ATOM     52  N   UNL A   1      46.609  29.006  27.494  1.00  0.00    -0.248 NA
ATOM     53  C   UNL A   1      48.797  29.685  27.052  1.00  0.00     0.031 C 
ATOM     54  C   UNL A   1      43.404  31.713  28.974  1.00  0.00     0.029 A 
ATOM     55  C   UNL A   1      44.423  30.889  28.522  1.00  0.00     0.049 A 
ATOM     56  H   UNL A   1      44.345  28.843  28.010  1.00  0.00     0.167 HD
ATOM     57  C   UNL A   1      46.739  30.353  27.812  1.00  0.00     0.074 A 
ATOM     58  C   UNL A   1      48.119  30.707  27.555  1.00  0.00     0.031 C 
ATOM     59  C   UNL A   1      45.804  31.218  28.280  1.00  0.00     0.037 A 
BRANCH  46  60
ATOM     60  C   UNL A   1      40.185  28.729  28.947  1.00  0.00     0.064 A 
ATOM     61  C   UNL A   1      39.226  29.102  27.991  1.00  0.00     0.173 A 
ATOM     62  C   UNL A   1      39.749  28.529  30.266  1.00  0.00     0.173 A 
ATOM     63  F   UNL A   1      39.591  29.328  26.720  1.00  0.00    -0.203 F 
ATOM     64  C   UNL A   1      37.895  29.297  28.349  1.00  0.00     0.198 A 
ATOM     65  C   UNL A   1      38.412  28.689  30.613  1.00  0.00     0.198 A 
ATOM     66  F   UNL A   1      40.624  28.175  31.220  1.00  0.00    -0.203 F 
ATOM     67  F   UNL A   1      37.009  29.712  27.433  1.00  0.00    -0.200 F 
ATOM     68  C   UNL A   1      37.487  29.083  29.657  1.00  0.00     0.200 A 
ATOM     69  F   UNL A   1      38.018  28.471  31.874  1.00  0.00    -0.200 F 
ATOM     70  F   UNL A   1      36.204  29.265  30.000  1.00  0.00    -0.200 F 
ENDBRANCH  46  60
BRANCH  47  71
ATOM     71  C   UNL A   1      49.671  27.005  26.271  1.00  0.00     0.064 A 
ATOM     72  C   UNL A   1      50.078  27.107  24.933  1.00  0.00     0.173 A 
ATOM     73  C   UNL A   1      50.639  26.638  27.219  1.00  0.00     0.173 A 
ATOM     74  F   UNL A   1      49.185  27.429  23.985  1.00  0.00    -0.203 F 
ATOM     75  C   UNL A   1      51.388  26.820  24.554  1.00  0.00     0.198 A 
ATOM     76  C   UNL A   1      51.956  26.384  26.842  1.00  0.00     0.198 A 
ATOM     77  F   UNL A   1      50.304  26.522  28.511  1.00  0.00    -0.203 F 
ATOM     78  F   UNL A   1      51.733  26.866  23.259  1.00  0.00    -0.200 F 
ATOM     79  C   UNL A   1      52.328  26.464  25.509  1.00  0.00     0.200 A 
ATOM     80  F   UNL A   1      52.864  26.052  27.770  1.00  0.00    -0.200 F 
ATOM     81  F   UNL A   1      53.587  26.188  25.143  1.00  0.00    -0.200 F 
ENDBRANCH  47  71
BRANCH  59  82
ATOM     82  C   UNL A   1      46.257  32.613  28.616  1.00  0.00     0.064 A 
ATOM     83  C   UNL A   1      46.749  32.955  29.884  1.00  0.00     0.173 A 
ATOM     84  C   UNL A   1      46.219  33.619  27.636  1.00  0.00     0.173 A 
ATOM     85  F   UNL A   1      46.799  32.036  30.859  1.00  0.00    -0.203 F 
ATOM     86  C   UNL A   1      47.143  34.260  30.171  1.00  0.00     0.198 A 
ATOM     87  C   UNL A   1      46.654  34.911  27.914  1.00  0.00     0.198 A 
ATOM     88  F   UNL A   1      45.772  33.345  26.401  1.00  0.00    -0.203 F 
ATOM     89  F   UNL A   1      47.545  34.579  31.409  1.00  0.00    -0.200 F 
ATOM     90  C   UNL A   1      47.102  35.234  29.184  1.00  0.00     0.200 A 
ATOM     91  F   UNL A   1      46.633  35.844  26.953  1.00  0.00    -0.200 F 
ATOM     92  F   UNL A   1      47.485  36.488  29.463  1.00  0.00    -0.200 F 
ENDBRANCH  59  82
ENDBRANCH  33  34
ENDBRANCH  26  28
ENDBRANCH  25  26
ENDBRANCH  24  25
ENDBRANCH  23  24
ENDBRANCH  22  23
ENDBRANCH  21  22
ENDBRANCH   1  21
TORSDOF 20
ENDMDL
MODEL 3
REMARK VINA RESULT:     -10.5      5.810     11.314
REMARK SMILES O=C(OCCOCCOCCOCCOC(=O)c1ccc(-c2c3nc(c(-c4c(F)c(F)c(F)c(F)c4F)c4ccc([nH]4)c(-c4c(F)c(F)c(F)c(F)c4F)c4nc(c(-c5c(F)c(F)c(F)c(F)c5F)c5ccc2[nH]5)C=C4)C=C3)cc1)C1=C[C@H]2C=C[C@@H]1[C@@H]1C=C[C@H]21
REMARK SMILES IDX 10 1 9 2 8 3 7 4 6 5 5 6 4 7 3 8 2 9 1 10 81 11 82 12 86 13
REMARK SMILES IDX 83 14 85 15 87 16 84 17 90 18 88 19 89 20 11 21 12 22 13 23
REMARK SMILES IDX 14 24 15 25 16 26 17 27 18 28 19 29 80 30 20 31 79 32 21 33
REMARK SMILES IDX 22 34 23 35 73 36 24 37 78 38 72 39 74 40 25 41 77 42 71 43
REMARK SMILES IDX 70 44 26 46 58 47 38 48 57 49 39 50 42 51 56 52 75 53 40 54
REMARK SMILES IDX 41 55 55 57 76 58 43 59 27 60 28 61 36 62 29 63 30 64 34 65
REMARK SMILES IDX 37 66 31 67 32 68 35 69 33 70 59 71 60 72 68 73 61 74 62 75
REMARK SMILES IDX 66 76 69 77 63 78 64 79 67 80 65 81 44 82 45 83 53 84 46 85
REMARK SMILES IDX 47 86 51 87 54 88 48 89 49 90 52 91 50 92
REMARK H PARENT 74 45 42 56
REMARK Flexibility Score: inf
ROOT
ATOM      1  C   UNL A   1      34.481  34.775  28.748  1.00  0.00     0.188 C 
ENDROOT
BRANCH   1   2
ATOM      2  O   UNL A   1      34.339  33.676  27.861  1.00  0.00    -0.377 OA
BRANCH   2   3
ATOM      3  C   UNL A   1      34.317  32.381  28.430  1.00  0.00     0.188 C 
BRANCH   3   4
ATOM      4  C   UNL A   1      33.700  31.229  27.629  1.00  0.00     0.188 C 
BRANCH   4   5
ATOM      5  O   UNL A   1      34.558  30.171  27.228  1.00  0.00    -0.376 OA
BRANCH   5   6
ATOM      6  C   UNL A   1      34.117  28.833  27.044  1.00  0.00     0.202 C 
BRANCH   6   7
ATOM      7  C   UNL A   1      33.805  28.325  25.650  1.00  0.00     0.261 C 
BRANCH   7   8
ATOM      8  O   UNL A   1      32.646  27.487  25.427  1.00  0.00    -0.460 OA
BRANCH   8   9
ATOM      9  C   UNL A   1      32.255  26.721  24.396  1.00  0.00     0.334 C 
ATOM     10  O   UNL A   1      31.543  27.191  23.513  1.00  0.00    -0.247 OA
BRANCH   9  11
ATOM     11  C   UNL A   1      32.657  25.321  24.290  1.00  0.00     0.041 C 
ATOM     12  C   UNL A   1      31.940  24.239  24.688  1.00  0.00    -0.007 C 
ATOM     13  C   UNL A   1      34.138  25.025  24.107  1.00  0.00     0.056 C 
ATOM     14  C   UNL A   1      32.771  22.929  24.765  1.00  0.00     0.042 C 
ATOM     15  C   UNL A   1      34.246  23.854  23.115  1.00  0.00    -0.022 C 
ATOM     16  C   UNL A   1      34.567  24.560  25.526  1.00  0.00     0.031 C 
ATOM     17  C   UNL A   1      33.497  22.780  23.437  1.00  0.00    -0.022 C 
ATOM     18  C   UNL A   1      33.884  23.193  25.848  1.00  0.00     0.030 C 
ATOM     19  C   UNL A   1      35.887  23.852  25.691  1.00  0.00    -0.026 C 
ATOM     20  C   UNL A   1      35.316  22.629  25.707  1.00  0.00    -0.026 C 
ENDBRANCH   9  11
ENDBRANCH   8   9
ENDBRANCH   7   8
ENDBRANCH   6   7
ENDBRANCH   5   6
ENDBRANCH   4   5
ENDBRANCH   3   4
ENDBRANCH   2   3
ENDBRANCH   1   2
BRANCH   1  21
ATOM     21  C   UNL A   1      33.307  35.234  29.654  1.00  0.00     0.188 C 
BRANCH  21  22
ATOM     22  O   UNL A   1      33.398  34.858  31.022  1.00  0.00    -0.376 OA
BRANCH  22  23
ATOM     23  C   UNL A   1      34.576  34.168  31.413  1.00  0.00     0.202 C 
BRANCH  23  24
ATOM     24  C   UNL A   1      34.419  33.382  32.723  1.00  0.00     0.261 C 
BRANCH  24  25
ATOM     25  O   UNL A   1      35.074  32.104  32.726  1.00  0.00    -0.460 OA
BRANCH  25  26
ATOM     26  C   UNL A   1      36.319  32.084  33.253  1.00  0.00     0.338 C 
ATOM     27  O   UNL A   1      36.659  32.492  34.344  1.00  0.00    -0.246 OA
BRANCH  26  28
ATOM     28  C   UNL A   1      37.176  31.255  32.375  1.00  0.00     0.060 A 
ATOM     29  C   UNL A   1      38.262  30.587  32.960  1.00  0.00     0.016 A 
ATOM     30  C   UNL A   1      36.918  31.128  31.009  1.00  0.00     0.016 A 
ATOM     31  C   UNL A   1      39.118  29.824  32.173  1.00  0.00     0.010 A 
ATOM     32  C   UNL A   1      37.800  30.394  30.211  1.00  0.00     0.010 A 
ATOM     33  C   UNL A   1      38.930  29.785  30.786  1.00  0.00    -0.014 A 
BRANCH  33  34
ATOM     34  C   UNL A   1      40.083  29.391  29.944  1.00  0.00     0.031 A 
ATOM     35  C   UNL A   1      41.167  30.416  29.744  1.00  0.00     0.074 A 
ATOM     36  C   UNL A   1      40.215  28.150  29.449  1.00  0.00     0.049 A 
ATOM     37  N   UNL A   1      42.304  30.319  29.107  1.00  0.00    -0.248 NA
ATOM     38  C   UNL A   1      40.935  31.736  30.356  1.00  0.00     0.031 C 
ATOM     39  C   UNL A   1      39.258  27.061  29.619  1.00  0.00     0.029 A 
ATOM     40  N   UNL A   1      41.228  27.597  28.705  1.00  0.00    -0.354 N 
ATOM     41  C   UNL A   1      42.915  31.559  29.238  1.00  0.00     0.074 A 
ATOM     42  C   UNL A   1      42.010  32.407  29.979  1.00  0.00     0.031 C 
ATOM     43  C   UNL A   1      39.730  25.966  28.996  1.00  0.00     0.029 A 
ATOM     44  C   UNL A   1      41.010  26.287  28.366  1.00  0.00     0.049 A 
ATOM     45  H   UNL A   1      42.035  28.097  28.438  1.00  0.00     0.167 HD
ATOM     46  C   UNL A   1      44.129  31.956  28.791  1.00  0.00     0.037 A 
ATOM     47  C   UNL A   1      41.763  25.450  27.624  1.00  0.00     0.037 A 
ATOM     48  C   UNL A   1      45.025  31.110  28.050  1.00  0.00     0.049 A 
ATOM     49  C   UNL A   1      43.082  25.940  27.075  1.00  0.00     0.074 A 
ATOM     50  C   UNL A   1      46.281  31.408  27.557  1.00  0.00     0.029 A 
ATOM     51  N   UNL A   1      44.749  29.800  27.687  1.00  0.00    -0.354 N 
ATOM     52  N   UNL A   1      43.668  27.103  27.226  1.00  0.00    -0.248 NA
ATOM     53  C   UNL A   1      43.850  24.988  26.259  1.00  0.00     0.031 C 
ATOM     54  C   UNL A   1      46.739  30.299  26.838  1.00  0.00     0.029 A 
ATOM     55  C   UNL A   1      45.802  29.283  26.951  1.00  0.00     0.049 A 
ATOM     56  H   UNL A   1      43.926  29.311  27.917  1.00  0.00     0.167 HD
ATOM     57  C   UNL A   1      44.890  27.007  26.569  1.00  0.00     0.074 A 
ATOM     58  C   UNL A   1      44.962  25.668  26.025  1.00  0.00     0.031 C 
ATOM     59  C   UNL A   1      45.866  27.940  26.433  1.00  0.00     0.037 A 
BRANCH  46  60
ATOM     60  C   UNL A   1      44.531  33.377  29.056  1.00  0.00     0.064 A 
ATOM     61  C   UNL A   1      44.303  34.403  28.125  1.00  0.00     0.173 A 
ATOM     62  C   UNL A   1      45.152  33.719  30.268  1.00  0.00     0.173 A 
ATOM     63  F   UNL A   1      43.735  34.128  26.942  1.00  0.00    -0.203 F 
ATOM     64  C   UNL A   1      44.709  35.710  28.385  1.00  0.00     0.198 A 
ATOM     65  C   UNL A   1      45.523  35.033  30.540  1.00  0.00     0.198 A 
ATOM     66  F   UNL A   1      45.396  32.778  31.192  1.00  0.00    -0.203 F 
ATOM     67  F   UNL A   1      44.536  36.661  27.457  1.00  0.00    -0.200 F 
ATOM     68  C   UNL A   1      45.310  36.025  29.594  1.00  0.00     0.200 A 
ATOM     69  F   UNL A   1      46.092  35.337  31.713  1.00  0.00    -0.200 F 
ATOM     70  F   UNL A   1      45.695  37.284  29.846  1.00  0.00    -0.200 F 
ENDBRANCH  46  60
BRANCH  47  71
ATOM     71  C   UNL A   1      41.302  24.061  27.357  1.00  0.00     0.064 A 
ATOM     72  C   UNL A   1      40.196  23.807  26.533  1.00  0.00     0.173 A 
ATOM     73  C   UNL A   1      41.934  22.958  27.953  1.00  0.00     0.173 A 
ATOM     74  F   UNL A   1      39.541  24.828  25.961  1.00  0.00    -0.203 F 
ATOM     75  C   UNL A   1      39.722  22.511  26.339  1.00  0.00     0.198 A 
ATOM     76  C   UNL A   1      41.480  21.660  27.732  1.00  0.00     0.198 A 
ATOM     77  F   UNL A   1      42.994  23.143  28.753  1.00  0.00    -0.203 F 
ATOM     78  F   UNL A   1      38.626  22.305  25.595  1.00  0.00    -0.200 F 
ATOM     79  C   UNL A   1      40.367  21.437  26.935  1.00  0.00     0.200 A 
ATOM     80  F   UNL A   1      42.113  20.624  28.299  1.00  0.00    -0.200 F 
ATOM     81  F   UNL A   1      39.910  20.192  26.749  1.00  0.00    -0.200 F 
ENDBRANCH  47  71
BRANCH  59  82
ATOM     82  C   UNL A   1      47.130  27.524  25.731  1.00  0.00     0.064 A 
ATOM     83  C   UNL A   1      47.312  27.698  24.351  1.00  0.00     0.173 A 
ATOM     84  C   UNL A   1      48.189  26.964  26.465  1.00  0.00     0.173 A 
ATOM     85  F   UNL A   1      46.330  28.222  23.602  1.00  0.00    -0.203 F 
ATOM     86  C   UNL A   1      48.486  27.287  23.726  1.00  0.00     0.198 A 
ATOM     87  C   UNL A   1      49.377  26.592  25.843  1.00  0.00     0.198 A 
ATOM     88  F   UNL A   1      48.076  26.788  27.790  1.00  0.00    -0.203 F 
ATOM     89  F   UNL A   1      48.611  27.400  22.397  1.00  0.00    -0.200 F 
ATOM     90  C   UNL A   1      49.520  26.741  24.473  1.00  0.00     0.200 A 
ATOM     91  F   UNL A   1      50.382  26.086  26.572  1.00  0.00    -0.200 F 
ATOM     92  F   UNL A   1      50.651  26.348  23.870  1.00  0.00    -0.200 F 
ENDBRANCH  59  82
ENDBRANCH  33  34
ENDBRANCH  26  28
ENDBRANCH  25  26
ENDBRANCH  24  25
ENDBRANCH  23  24
ENDBRANCH  22  23
ENDBRANCH  21  22
ENDBRANCH   1  21
TORSDOF 20
ENDMDL
