MODEL 1
REMARK VINA RESULT:      -7.5      0.000      0.000
REMARK SMILES C[NH2+][C@]1(C(=O)OCCOCCOCCOCCOC(=O)c2ccc(-c3c4nc(c(-c5c(F)c(F)c(F)c(F)c5F)c5ccc([nH]5)c(-c5c(F)c(F)c(F)c(F)c5F)c5nc(c(-c6c(F)c(F)c(F)c(F)c6F)c6ccc3[nH]6)C=C5)C=C4)cc2)CCC[C@H]1CCOC1C[C@@H](C)C[C@H](C)C1
REMARK SMILES IDX 11 1 10 2 9 3 8 4 7 5 6 6 4 7 5 8 3 9 84 10 87 11 85 12
REMARK SMILES IDX 86 13 2 14 1 15 88 18 89 19 90 20 91 21 92 22 98 23 93 24
REMARK SMILES IDX 96 25 94 26 95 27 97 28 12 29 13 30 14 31 15 32 16 33 17 34
REMARK SMILES IDX 18 35 19 36 20 37 21 38 22 39 83 40 23 41 82 42 24 43 25 44
REMARK SMILES IDX 26 45 76 46 27 47 81 48 75 49 77 50 28 51 80 52 74 53 73 54
REMARK SMILES IDX 29 56 61 57 41 58 60 59 42 60 45 61 59 62 78 63 43 64 44 65
REMARK SMILES IDX 58 67 79 68 46 69 30 70 31 71 39 72 32 73 33 74 37 75 40 76
REMARK SMILES IDX 34 77 35 78 38 79 36 80 62 81 63 82 71 83 64 84 65 85 69 86
REMARK SMILES IDX 72 87 66 88 67 89 70 90 68 91 47 92 48 93 56 94 49 95 50 96
REMARK SMILES IDX 54 97 57 98 51 99 52 100 55 101 53 102
REMARK H PARENT 2 16 2 17 77 55 45 66
REMARK Flexibility Score: inf
ROOT
ATOM      1  C   UNL A   1      42.325  20.708  26.030  1.00  0.00     0.188 C 
ENDROOT
BRANCH   1   2
ATOM      2  C   UNL A   1      41.631  22.075  26.159  1.00  0.00     0.188 C 
BRANCH   2   3
ATOM      3  O   UNL A   1      41.040  22.353  27.408  1.00  0.00    -0.376 OA
BRANCH   3   4
ATOM      4  C   UNL A   1      41.721  23.099  28.387  1.00  0.00     0.202 C 
BRANCH   4   5
ATOM      5  C   UNL A   1      42.173  24.550  28.253  1.00  0.00     0.261 C 
BRANCH   5   6
ATOM      6  O   UNL A   1      42.875  25.035  27.093  1.00  0.00    -0.459 OA
BRANCH   6   7
ATOM      7  C   UNL A   1      42.202  25.883  26.252  1.00  0.00     0.368 C 
ATOM      8  O   UNL A   1      41.341  25.508  25.464  1.00  0.00    -0.245 OA
BRANCH   7   9
ATOM      9  C   UNL A   1      42.761  27.357  26.310  1.00  0.00     0.197 C 
ATOM     10  C   UNL A   1      41.680  28.371  25.794  1.00  0.00     0.081 C 
ATOM     11  C   UNL A   1      43.544  28.148  27.799  1.00  0.00     0.065 C 
ATOM     12  C   UNL A   1      42.248  29.750  26.036  1.00  0.00     0.008 C 
ATOM     13  C   UNL A   1      43.494  29.607  26.908  1.00  0.00     0.011 C 
BRANCH   9  14
ATOM     14  N   UNL A   1      43.631  27.468  25.047  1.00  0.00    -0.334 N 
ATOM     15  C   UNL A   1      44.909  26.807  24.965  1.00  0.00     0.331 C 
ATOM     16  H   UNL A   1      43.069  27.108  24.276  1.00  0.00     0.347 HD
ATOM     17  H   UNL A   1      43.889  28.454  25.039  1.00  0.00     0.347 HD
ENDBRANCH   9  14
BRANCH  11  18
ATOM     18  C   UNL A   1      43.590  27.879  29.904  1.00  0.00     0.039 C 
BRANCH  18  19
ATOM     19  C   UNL A   1      42.323  27.714  31.023  1.00  0.00     0.161 C 
BRANCH  19  20
ATOM     20  O   UNL A   1      41.636  28.922  31.082  1.00  0.00    -0.378 OA
BRANCH  20  21
ATOM     21  C   UNL A   1      40.352  28.356  30.980  1.00  0.00     0.118 C 
ATOM     22  C   UNL A   1      39.512  29.076  32.570  1.00  0.00     0.035 C 
ATOM     23  C   UNL A   1      39.779  28.950  29.228  1.00  0.00     0.035 C 
ATOM     24  C   UNL A   1      37.953  30.188  32.433  1.00  0.00    -0.011 C 
ATOM     25  C   UNL A   1      38.328  30.180  29.067  1.00  0.00    -0.011 C 
ATOM     26  C   UNL A   1      38.006  31.271  33.523  1.00  0.00     0.008 C 
ATOM     27  C   UNL A   1      37.491  30.887  30.682  1.00  0.00     0.006 C 
ATOM     28  C   UNL A   1      37.559  29.898  27.764  1.00  0.00     0.008 C 
ENDBRANCH  20  21
ENDBRANCH  19  20
ENDBRANCH  18  19
ENDBRANCH  11  18
ENDBRANCH   7   9
ENDBRANCH   6   7
ENDBRANCH   5   6
ENDBRANCH   4   5
ENDBRANCH   3   4
ENDBRANCH   2   3
ENDBRANCH   1   2
BRANCH   1  29
ATOM     29  O   UNL A   1      43.380  20.627  25.085  1.00  0.00    -0.377 OA
BRANCH  29  30
ATOM     30  C   UNL A   1      44.686  21.061  25.448  1.00  0.00     0.188 C 
BRANCH  30  31
ATOM     31  C   UNL A   1      45.329  22.316  24.819  1.00  0.00     0.188 C 
BRANCH  31  32
ATOM     32  O   UNL A   1      46.351  22.918  25.595  1.00  0.00    -0.376 OA
BRANCH  32  33
ATOM     33  C   UNL A   1      46.005  23.574  26.803  1.00  0.00     0.202 C 
BRANCH  33  34
ATOM     34  C   UNL A   1      47.044  24.540  27.392  1.00  0.00     0.261 C 
BRANCH  34  35
ATOM     35  O   UNL A   1      46.542  25.819  27.806  1.00  0.00    -0.460 OA
BRANCH  35  36
ATOM     36  C   UNL A   1      46.993  26.325  28.973  1.00  0.00     0.338 C 
ATOM     37  O   UNL A   1      47.375  25.720  29.952  1.00  0.00    -0.246 OA
BRANCH  36  38
ATOM     38  C   UNL A   1      47.144  27.780  28.780  1.00  0.00     0.060 A 
ATOM     39  C   UNL A   1      47.410  28.586  29.896  1.00  0.00     0.016 A 
ATOM     40  C   UNL A   1      47.020  28.336  27.506  1.00  0.00     0.016 A 
ATOM     41  C   UNL A   1      47.504  29.964  29.746  1.00  0.00     0.010 A 
ATOM     42  C   UNL A   1      47.076  29.721  27.361  1.00  0.00     0.010 A 
ATOM     43  C   UNL A   1      47.269  30.537  28.489  1.00  0.00    -0.014 A 
BRANCH  43  44
ATOM     44  C   UNL A   1      46.915  31.970  28.416  1.00  0.00     0.031 A 
ATOM     45  C   UNL A   1      47.960  32.909  27.881  1.00  0.00     0.074 A 
ATOM     46  C   UNL A   1      45.706  32.418  28.786  1.00  0.00     0.049 A 
ATOM     47  N   UNL A   1      47.930  34.209  27.760  1.00  0.00    -0.248 NA
ATOM     48  C   UNL A   1      49.214  32.289  27.417  1.00  0.00     0.031 C 
ATOM     49  C   UNL A   1      44.603  31.587  29.265  1.00  0.00     0.029 A 
ATOM     50  N   UNL A   1      45.211  33.695  28.822  1.00  0.00    -0.354 N 
ATOM     51  C   UNL A   1      49.156  34.560  27.211  1.00  0.00     0.074 A 
ATOM     52  C   UNL A   1      49.920  33.345  27.046  1.00  0.00     0.031 C 
ATOM     53  C   UNL A   1      43.561  32.383  29.566  1.00  0.00     0.029 A 
ATOM     54  C   UNL A   1      43.939  33.776  29.330  1.00  0.00     0.049 A 
ATOM     55  H   UNL A   1      45.719  34.480  28.512  1.00  0.00     0.167 HD
ATOM     56  C   UNL A   1      49.602  35.790  26.869  1.00  0.00     0.037 A 
ATOM     57  C   UNL A   1      43.187  34.861  29.597  1.00  0.00     0.037 A 
ATOM     58  C   UNL A   1      48.841  36.995  27.050  1.00  0.00     0.049 A 
ATOM     59  C   UNL A   1      43.741  36.230  29.289  1.00  0.00     0.074 A 
ATOM     60  C   UNL A   1      49.196  38.294  26.742  1.00  0.00     0.029 A 
ATOM     61  N   UNL A   1      47.570  37.042  27.603  1.00  0.00    -0.354 N 
ATOM     62  N   UNL A   1      44.894  36.559  28.755  1.00  0.00    -0.248 NA
ATOM     63  C   UNL A   1      42.888  37.380  29.622  1.00  0.00     0.031 C 
ATOM     64  C   UNL A   1      48.158  39.135  27.157  1.00  0.00     0.029 A 
ATOM     65  C   UNL A   1      47.134  38.354  27.669  1.00  0.00     0.049 A 
ATOM     66  H   UNL A   1      47.055  36.259  27.903  1.00  0.00     0.167 HD
ATOM     67  C   UNL A   1      44.892  37.945  28.660  1.00  0.00     0.074 A 
ATOM     68  C   UNL A   1      43.617  38.395  29.180  1.00  0.00     0.031 C 
ATOM     69  C   UNL A   1      45.855  38.773  28.182  1.00  0.00     0.037 A 
BRANCH  56  70
ATOM     70  C   UNL A   1      50.989  35.887  26.305  1.00  0.00     0.064 A 
ATOM     71  C   UNL A   1      51.224  35.902  24.922  1.00  0.00     0.173 A 
ATOM     72  C   UNL A   1      52.096  35.973  27.161  1.00  0.00     0.173 A 
ATOM     73  F   UNL A   1      50.201  35.796  24.060  1.00  0.00    -0.203 F 
ATOM     74  C   UNL A   1      52.521  35.976  24.418  1.00  0.00     0.198 A 
ATOM     75  C   UNL A   1      53.388  36.078  26.654  1.00  0.00     0.198 A 
ATOM     76  F   UNL A   1      51.925  35.957  28.492  1.00  0.00    -0.203 F 
ATOM     77  F   UNL A   1      52.726  35.937  23.095  1.00  0.00    -0.200 F 
ATOM     78  C   UNL A   1      53.600  36.072  25.283  1.00  0.00     0.200 A 
ATOM     79  F   UNL A   1      54.429  36.177  27.492  1.00  0.00    -0.200 F 
ATOM     80  F   UNL A   1      54.846  36.148  24.797  1.00  0.00    -0.200 F 
ENDBRANCH  56  70
BRANCH  57  81
ATOM     81  C   UNL A   1      41.838  34.703  30.203  1.00  0.00     0.064 A 
ATOM     82  C   UNL A   1      41.685  34.415  31.566  1.00  0.00     0.173 A 
ATOM     83  C   UNL A   1      40.676  34.812  29.425  1.00  0.00     0.173 A 
ATOM     84  F   UNL A   1      42.767  34.276  32.347  1.00  0.00    -0.203 F 
ATOM     85  C   UNL A   1      40.422  34.222  32.124  1.00  0.00     0.198 A 
ATOM     86  C   UNL A   1      39.413  34.648  29.990  1.00  0.00     0.198 A 
ATOM     87  F   UNL A   1      40.766  35.082  28.115  1.00  0.00    -0.203 F 
ATOM     88  F   UNL A   1      40.307  33.900  33.419  1.00  0.00    -0.200 F 
ATOM     89  C   UNL A   1      39.287  34.344  31.336  1.00  0.00     0.200 A 
ATOM     90  F   UNL A   1      38.318  34.779  29.228  1.00  0.00    -0.200 F 
ATOM     91  F   UNL A   1      38.073  34.161  31.874  1.00  0.00    -0.200 F 
ENDBRANCH  57  81
BRANCH  69  92
ATOM     92  C   UNL A   1      45.553  40.244  28.161  1.00  0.00     0.064 A 
ATOM     93  C   UNL A   1      45.884  41.080  29.236  1.00  0.00     0.173 A 
ATOM     94  C   UNL A   1      44.972  40.829  27.025  1.00  0.00     0.173 A 
ATOM     95  F   UNL A   1      46.430  40.567  30.349  1.00  0.00    -0.203 F 
ATOM     96  C   UNL A   1      45.621  42.447  29.184  1.00  0.00     0.198 A 
ATOM     97  C   UNL A   1      44.742  42.200  26.963  1.00  0.00     0.198 A 
ATOM     98  F   UNL A   1      44.647  40.073  25.965  1.00  0.00    -0.203 F 
ATOM     99  F   UNL A   1      45.903  43.222  30.241  1.00  0.00    -0.200 F 
ATOM    100  C   UNL A   1      45.059  43.007  28.046  1.00  0.00     0.200 A 
ATOM    101  F   UNL A   1      44.214  42.740  25.857  1.00  0.00    -0.200 F 
ATOM    102  F   UNL A   1      44.818  44.324  27.995  1.00  0.00    -0.200 F 
ENDBRANCH  69  92
ENDBRANCH  43  44
ENDBRANCH  36  38
ENDBRANCH  35  36
ENDBRANCH  34  35
ENDBRANCH  33  34
ENDBRANCH  32  33
ENDBRANCH  31  32
ENDBRANCH  30  31
ENDBRANCH  29  30
ENDBRANCH   1  29
TORSDOF 25
ENDMDL
MODEL 2
REMARK VINA RESULT:      -7.2      8.082     12.118
REMARK SMILES C[NH2+][C@]1(C(=O)OCCOCCOCCOCCOC(=O)c2ccc(-c3c4nc(c(-c5c(F)c(F)c(F)c(F)c5F)c5ccc([nH]5)c(-c5c(F)c(F)c(F)c(F)c5F)c5nc(c(-c6c(F)c(F)c(F)c(F)c6F)c6ccc3[nH]6)C=C5)C=C4)cc2)CCC[C@H]1CCOC1C[C@@H](C)C[C@H](C)C1
REMARK SMILES IDX 11 1 10 2 9 3 8 4 7 5 6 6 4 7 5 8 3 9 84 10 87 11 85 12
REMARK SMILES IDX 86 13 2 14 1 15 88 18 89 19 90 20 91 21 92 22 98 23 93 24
REMARK SMILES IDX 96 25 94 26 95 27 97 28 12 29 13 30 14 31 15 32 16 33 17 34
REMARK SMILES IDX 18 35 19 36 20 37 21 38 22 39 83 40 23 41 82 42 24 43 25 44
REMARK SMILES IDX 26 45 76 46 27 47 81 48 75 49 77 50 28 51 80 52 74 53 73 54
REMARK SMILES IDX 29 56 61 57 41 58 60 59 42 60 45 61 59 62 78 63 43 64 44 65
REMARK SMILES IDX 58 67 79 68 46 69 30 70 31 71 39 72 32 73 33 74 37 75 40 76
REMARK SMILES IDX 34 77 35 78 38 79 36 80 62 81 63 82 71 83 64 84 65 85 69 86
REMARK SMILES IDX 72 87 66 88 67 89 70 90 68 91 47 92 48 93 56 94 49 95 50 96
REMARK SMILES IDX 54 97 57 98 51 99 52 100 55 101 53 102
REMARK H PARENT 2 16 2 17 77 55 45 66
REMARK Flexibility Score: inf
ROOT
ATOM      1  C   UNL A   1      40.561  28.418  29.004  1.00  0.00     0.188 C 
ENDROOT
BRANCH   1   2
ATOM      2  C   UNL A   1      41.327  27.084  28.952  1.00  0.00     0.188 C 
BRANCH   2   3
ATOM      3  O   UNL A   1      42.734  27.179  28.963  1.00  0.00    -0.376 OA
BRANCH   3   4
ATOM      4  C   UNL A   1      43.539  26.057  29.228  1.00  0.00     0.202 C 
BRANCH   4   5
ATOM      5  C   UNL A   1      43.135  24.599  29.031  1.00  0.00     0.261 C 
BRANCH   5   6
ATOM      6  O   UNL A   1      43.428  23.874  27.823  1.00  0.00    -0.459 OA
BRANCH   6   7
ATOM      7  C   UNL A   1      42.488  23.895  26.825  1.00  0.00     0.368 C 
ATOM      8  O   UNL A   1      42.082  24.927  26.302  1.00  0.00    -0.245 OA
BRANCH   7   9
ATOM      9  C   UNL A   1      41.889  22.465  26.534  1.00  0.00     0.197 C 
ATOM     10  C   UNL A   1      42.300  21.460  27.667  1.00  0.00     0.081 C 
ATOM     11  C   UNL A   1      40.106  22.109  26.148  1.00  0.00     0.065 C 
ATOM     12  C   UNL A   1      41.556  20.177  27.382  1.00  0.00     0.008 C 
ATOM     13  C   UNL A   1      40.524  20.456  26.291  1.00  0.00     0.011 C 
BRANCH   9  14
ATOM     14  N   UNL A   1      42.855  21.868  25.498  1.00  0.00    -0.334 N 
ATOM     15  C   UNL A   1      43.570  22.712  24.575  1.00  0.00     0.331 C 
ATOM     16  H   UNL A   1      43.561  21.351  26.024  1.00  0.00     0.347 HD
ATOM     17  H   UNL A   1      42.230  21.345  24.884  1.00  0.00     0.347 HD
ENDBRANCH   9  14
BRANCH  11  18
ATOM     18  C   UNL A   1      38.208  23.026  26.407  1.00  0.00     0.039 C 
BRANCH  18  19
ATOM     19  C   UNL A   1      37.115  23.641  25.262  1.00  0.00     0.161 C 
BRANCH  19  20
ATOM     20  O   UNL A   1      35.925  23.942  25.918  1.00  0.00    -0.378 OA
BRANCH  20  21
ATOM     21  C   UNL A   1      35.191  24.220  24.750  1.00  0.00     0.118 C 
ATOM     22  C   UNL A   1      34.477  22.466  24.344  1.00  0.00     0.035 C 
ATOM     23  C   UNL A   1      34.007  25.635  25.338  1.00  0.00     0.035 C 
ATOM     24  C   UNL A   1      32.581  22.173  24.279  1.00  0.00    -0.011 C 
ATOM     25  C   UNL A   1      32.125  25.324  25.433  1.00  0.00    -0.011 C 
ATOM     26  C   UNL A   1      32.267  20.769  24.819  1.00  0.00     0.008 C 
ATOM     27  C   UNL A   1      31.428  23.552  25.011  1.00  0.00     0.006 C 
ATOM     28  C   UNL A   1      31.374  26.631  25.122  1.00  0.00     0.008 C 
ENDBRANCH  20  21
ENDBRANCH  19  20
ENDBRANCH  18  19
ENDBRANCH  11  18
ENDBRANCH   7   9
ENDBRANCH   6   7
ENDBRANCH   5   6
ENDBRANCH   4   5
ENDBRANCH   3   4
ENDBRANCH   2   3
ENDBRANCH   1   2
BRANCH   1  29
ATOM     29  O   UNL A   1      39.476  28.481  29.916  1.00  0.00    -0.377 OA
BRANCH  29  30
ATOM     30  C   UNL A   1      38.381  29.350  29.648  1.00  0.00     0.188 C 
BRANCH  30  31
ATOM     31  C   UNL A   1      38.345  30.249  28.394  1.00  0.00     0.188 C 
BRANCH  31  32
ATOM     32  O   UNL A   1      37.117  30.923  28.173  1.00  0.00    -0.376 OA
BRANCH  32  33
ATOM     33  C   UNL A   1      35.967  30.516  28.895  1.00  0.00     0.202 C 
BRANCH  33  34
ATOM     34  C   UNL A   1      35.004  31.622  29.350  1.00  0.00     0.261 C 
BRANCH  34  35
ATOM     35  O   UNL A   1      35.050  31.954  30.745  1.00  0.00    -0.460 OA
BRANCH  35  36
ATOM     36  C   UNL A   1      35.808  33.006  31.118  1.00  0.00     0.338 C 
ATOM     37  O   UNL A   1      35.548  34.186  31.021  1.00  0.00    -0.246 OA
BRANCH  36  38
ATOM     38  C   UNL A   1      36.953  32.464  31.873  1.00  0.00     0.060 A 
ATOM     39  C   UNL A   1      36.707  31.735  33.045  1.00  0.00     0.016 A 
ATOM     40  C   UNL A   1      38.257  32.679  31.422  1.00  0.00     0.016 A 
ATOM     41  C   UNL A   1      37.773  31.260  33.799  1.00  0.00     0.010 A 
ATOM     42  C   UNL A   1      39.326  32.236  32.198  1.00  0.00     0.010 A 
ATOM     43  C   UNL A   1      39.082  31.569  33.411  1.00  0.00    -0.014 A 
BRANCH  43  44
ATOM     44  C   UNL A   1      40.162  31.477  34.416  1.00  0.00     0.031 A 
ATOM     45  C   UNL A   1      41.020  30.243  34.390  1.00  0.00     0.074 A 
ATOM     46  C   UNL A   1      40.388  32.459  35.301  1.00  0.00     0.049 A 
ATOM     47  N   UNL A   1      41.993  29.886  35.185  1.00  0.00    -0.248 NA
ATOM     48  C   UNL A   1      40.738  29.276  33.313  1.00  0.00     0.031 C 
ATOM     49  C   UNL A   1      39.654  33.719  35.376  1.00  0.00     0.029 A 
ATOM     50  N   UNL A   1      41.307  32.539  36.315  1.00  0.00    -0.354 N 
ATOM     51  C   UNL A   1      42.435  28.660  34.706  1.00  0.00     0.074 A 
ATOM     52  C   UNL A   1      41.610  28.316  33.572  1.00  0.00     0.031 C 
ATOM     53  C   UNL A   1      40.140  34.443  36.400  1.00  0.00     0.029 A 
ATOM     54  C   UNL A   1      41.195  33.681  37.067  1.00  0.00     0.049 A 
ATOM     55  H   UNL A   1      41.982  31.843  36.488  1.00  0.00     0.167 HD
ATOM     56  C   UNL A   1      43.445  27.891  35.172  1.00  0.00     0.037 A 
ATOM     57  C   UNL A   1      41.857  34.045  38.183  1.00  0.00     0.037 A 
ATOM     58  C   UNL A   1      44.250  28.233  36.311  1.00  0.00     0.049 A 
ATOM     59  C   UNL A   1      42.919  33.128  38.735  1.00  0.00     0.074 A 
ATOM     60  C   UNL A   1      45.298  27.527  36.871  1.00  0.00     0.029 A 
ATOM     61  N   UNL A   1      44.084  29.381  37.071  1.00  0.00    -0.354 N 
ATOM     62  N   UNL A   1      43.346  31.977  38.272  1.00  0.00    -0.248 NA
ATOM     63  C   UNL A   1      43.593  33.563  39.967  1.00  0.00     0.031 C 
ATOM     64  C   UNL A   1      45.732  28.224  38.004  1.00  0.00     0.029 A 
ATOM     65  C   UNL A   1      44.994  29.392  38.114  1.00  0.00     0.049 A 
ATOM     66  H   UNL A   1      43.418  30.084  36.895  1.00  0.00     0.167 HD
ATOM     67  C   UNL A   1      44.355  31.566  39.135  1.00  0.00     0.074 A 
ATOM     68  C   UNL A   1      44.485  32.598  40.143  1.00  0.00     0.031 C 
ATOM     69  C   UNL A   1      45.109  30.439  39.097  1.00  0.00     0.037 A 
BRANCH  56  70
ATOM     70  C   UNL A   1      43.700  26.590  34.470  1.00  0.00     0.064 A 
ATOM     71  C   UNL A   1      43.054  25.405  34.852  1.00  0.00     0.173 A 
ATOM     72  C   UNL A   1      44.599  26.531  33.396  1.00  0.00     0.173 A 
ATOM     73  F   UNL A   1      42.203  25.403  35.890  1.00  0.00    -0.203 F 
ATOM     74  C   UNL A   1      43.317  24.204  34.199  1.00  0.00     0.198 A 
ATOM     75  C   UNL A   1      44.837  25.334  32.725  1.00  0.00     0.198 A 
ATOM     76  F   UNL A   1      45.248  27.635  32.995  1.00  0.00    -0.203 F 
ATOM     77  F   UNL A   1      42.727  23.074  34.613  1.00  0.00    -0.200 F 
ATOM     78  C   UNL A   1      44.201  24.171  33.131  1.00  0.00     0.200 A 
ATOM     79  F   UNL A   1      45.687  25.306  31.689  1.00  0.00    -0.200 F 
ATOM     80  F   UNL A   1      44.450  23.015  32.500  1.00  0.00    -0.200 F 
ENDBRANCH  56  70
BRANCH  57  81
ATOM     81  C   UNL A   1      41.524  35.325  38.863  1.00  0.00     0.064 A 
ATOM     82  C   UNL A   1      42.258  36.492  38.612  1.00  0.00     0.173 A 
ATOM     83  C   UNL A   1      40.481  35.399  39.799  1.00  0.00     0.173 A 
ATOM     84  F   UNL A   1      43.281  36.466  37.745  1.00  0.00    -0.203 F 
ATOM     85  C   UNL A   1      41.974  37.679  39.284  1.00  0.00     0.198 A 
ATOM     86  C   UNL A   1      40.180  36.594  40.449  1.00  0.00     0.198 A 
ATOM     87  F   UNL A   1      39.750  34.310  40.080  1.00  0.00    -0.203 F 
ATOM     88  F   UNL A   1      42.723  38.768  39.061  1.00  0.00    -0.200 F 
ATOM     89  C   UNL A   1      40.932  37.731  40.199  1.00  0.00     0.200 A 
ATOM     90  F   UNL A   1      39.164  36.642  41.322  1.00  0.00    -0.200 F 
ATOM     91  F   UNL A   1      40.659  38.873  40.843  1.00  0.00    -0.200 F 
ENDBRANCH  57  81
BRANCH  69  92
ATOM     92  C   UNL A   1      46.169  30.281  40.149  1.00  0.00     0.064 A 
ATOM     93  C   UNL A   1      47.460  30.799  39.979  1.00  0.00     0.173 A 
ATOM     94  C   UNL A   1      45.868  29.647  41.365  1.00  0.00     0.173 A 
ATOM     95  F   UNL A   1      47.800  31.403  38.830  1.00  0.00    -0.203 F 
ATOM     96  C   UNL A   1      48.420  30.667  40.979  1.00  0.00     0.198 A 
ATOM     97  C   UNL A   1      46.820  29.547  42.375  1.00  0.00     0.198 A 
ATOM     98  F   UNL A   1      44.644  29.144  41.582  1.00  0.00    -0.203 F 
ATOM     99  F   UNL A   1      49.662  31.129  40.777  1.00  0.00    -0.200 F 
ATOM    100  C   UNL A   1      48.097  30.049  42.179  1.00  0.00     0.200 A 
ATOM    101  F   UNL A   1      46.501  28.964  43.538  1.00  0.00    -0.200 F 
ATOM    102  F   UNL A   1      49.020  29.933  43.143  1.00  0.00    -0.200 F 
ENDBRANCH  69  92
ENDBRANCH  43  44
ENDBRANCH  36  38
ENDBRANCH  35  36
ENDBRANCH  34  35
ENDBRANCH  33  34
ENDBRANCH  32  33
ENDBRANCH  31  32
ENDBRANCH  30  31
ENDBRANCH  29  30
ENDBRANCH   1  29
TORSDOF 25
ENDMDL
MODEL 3
REMARK VINA RESULT:      -7.0      3.479      8.725
REMARK SMILES C[NH2+][C@]1(C(=O)OCCOCCOCCOCCOC(=O)c2ccc(-c3c4nc(c(-c5c(F)c(F)c(F)c(F)c5F)c5ccc([nH]5)c(-c5c(F)c(F)c(F)c(F)c5F)c5nc(c(-c6c(F)c(F)c(F)c(F)c6F)c6ccc3[nH]6)C=C5)C=C4)cc2)CCC[C@H]1CCOC1C[C@@H](C)C[C@H](C)C1
REMARK SMILES IDX 11 1 10 2 9 3 8 4 7 5 6 6 4 7 5 8 3 9 84 10 87 11 85 12
REMARK SMILES IDX 86 13 2 14 1 15 88 18 89 19 90 20 91 21 92 22 98 23 93 24
REMARK SMILES IDX 96 25 94 26 95 27 97 28 12 29 13 30 14 31 15 32 16 33 17 34
REMARK SMILES IDX 18 35 19 36 20 37 21 38 22 39 83 40 23 41 82 42 24 43 25 44
REMARK SMILES IDX 26 45 76 46 27 47 81 48 75 49 77 50 28 51 80 52 74 53 73 54
REMARK SMILES IDX 29 56 61 57 41 58 60 59 42 60 45 61 59 62 78 63 43 64 44 65
REMARK SMILES IDX 58 67 79 68 46 69 30 70 31 71 39 72 32 73 33 74 37 75 40 76
REMARK SMILES IDX 34 77 35 78 38 79 36 80 62 81 63 82 71 83 64 84 65 85 69 86
REMARK SMILES IDX 72 87 66 88 67 89 70 90 68 91 47 92 48 93 56 94 49 95 50 96
REMARK SMILES IDX 54 97 57 98 51 99 52 100 55 101 53 102
REMARK H PARENT 2 16 2 17 77 55 45 66
REMARK Flexibility Score: inf
ROOT
ATOM      1  C   UNL A   1      38.666  29.674  30.431  1.00  0.00     0.188 C 
ENDROOT
BRANCH   1   2
ATOM      2  C   UNL A   1      39.547  28.445  30.708  1.00  0.00     0.188 C 
BRANCH   2   3
ATOM      3  O   UNL A   1      39.911  27.678  29.582  1.00  0.00    -0.376 OA
BRANCH   3   4
ATOM      4  C   UNL A   1      40.357  28.290  28.396  1.00  0.00     0.202 C 
BRANCH   4   5
ATOM      5  C   UNL A   1      40.824  27.565  27.138  1.00  0.00     0.261 C 
BRANCH   5   6
ATOM      6  O   UNL A   1      41.823  26.530  27.170  1.00  0.00    -0.459 OA
BRANCH   6   7
ATOM      7  C   UNL A   1      41.851  25.641  26.126  1.00  0.00     0.368 C 
ATOM      8  O   UNL A   1      41.879  25.983  24.949  1.00  0.00    -0.245 OA
BRANCH   7   9
ATOM      9  C   UNL A   1      41.695  24.146  26.606  1.00  0.00     0.197 C 
ATOM     10  C   UNL A   1      42.293  23.971  28.046  1.00  0.00     0.081 C 
ATOM     11  C   UNL A   1      40.112  23.173  26.581  1.00  0.00     0.065 C 
ATOM     12  C   UNL A   1      41.957  22.561  28.473  1.00  0.00     0.008 C 
ATOM     13  C   UNL A   1      40.964  21.982  27.467  1.00  0.00     0.011 C 
BRANCH   9  14
ATOM     14  N   UNL A   1      42.857  23.417  25.912  1.00  0.00    -0.334 N 
ATOM     15  C   UNL A   1      44.211  23.891  26.035  1.00  0.00     0.331 C 
ATOM     16  H   UNL A   1      42.851  22.460  26.267  1.00  0.00     0.347 HD
ATOM     17  H   UNL A   1      42.656  23.567  24.924  1.00  0.00     0.347 HD
ENDBRANCH   9  14
BRANCH  11  18
ATOM     18  C   UNL A   1      38.021  23.537  26.516  1.00  0.00     0.039 C 
BRANCH  18  19
ATOM     19  C   UNL A   1      36.987  23.800  25.195  1.00  0.00     0.161 C 
BRANCH  19  20
ATOM     20  O   UNL A   1      35.677  23.794  25.662  1.00  0.00    -0.378 OA
BRANCH  20  21
ATOM     21  C   UNL A   1      35.088  24.110  24.424  1.00  0.00     0.118 C 
ATOM     22  C   UNL A   1      34.536  22.352  23.827  1.00  0.00     0.035 C 
ATOM     23  C   UNL A   1      33.757  25.423  24.926  1.00  0.00     0.035 C 
ATOM     24  C   UNL A   1      32.685  21.970  23.491  1.00  0.00    -0.011 C 
ATOM     25  C   UNL A   1      31.901  25.014  24.749  1.00  0.00    -0.011 C 
ATOM     26  C   UNL A   1      32.384  20.520  23.903  1.00  0.00     0.008 C 
ATOM     27  C   UNL A   1      31.368  23.240  24.138  1.00  0.00     0.006 C 
ATOM     28  C   UNL A   1      31.122  26.299  24.415  1.00  0.00     0.008 C 
ENDBRANCH  20  21
ENDBRANCH  19  20
ENDBRANCH  18  19
ENDBRANCH  11  18
ENDBRANCH   7   9
ENDBRANCH   6   7
ENDBRANCH   5   6
ENDBRANCH   4   5
ENDBRANCH   3   4
ENDBRANCH   2   3
ENDBRANCH   1   2
BRANCH   1  29
ATOM     29  O   UNL A   1      37.265  29.479  30.545  1.00  0.00    -0.377 OA
BRANCH  29  30
ATOM     30  C   UNL A   1      36.583  29.926  31.712  1.00  0.00     0.188 C 
BRANCH  30  31
ATOM     31  C   UNL A   1      37.341  30.540  32.909  1.00  0.00     0.188 C 
BRANCH  31  32
ATOM     32  O   UNL A   1      36.606  31.492  33.660  1.00  0.00    -0.376 OA
BRANCH  32  33
ATOM     33  C   UNL A   1      35.925  32.532  32.979  1.00  0.00     0.202 C 
BRANCH  33  34
ATOM     34  C   UNL A   1      36.777  33.705  32.472  1.00  0.00     0.261 C 
BRANCH  34  35
ATOM     35  O   UNL A   1      38.054  33.355  31.918  1.00  0.00    -0.460 OA
BRANCH  35  36
ATOM     36  C   UNL A   1      38.169  33.320  30.574  1.00  0.00     0.338 C 
ATOM     37  O   UNL A   1      37.365  32.907  29.765  1.00  0.00    -0.246 OA
BRANCH  36  38
ATOM     38  C   UNL A   1      39.387  34.077  30.227  1.00  0.00     0.060 A 
ATOM     39  C   UNL A   1      39.504  34.615  28.938  1.00  0.00     0.016 A 
ATOM     40  C   UNL A   1      40.400  34.247  31.172  1.00  0.00     0.016 A 
ATOM     41  C   UNL A   1      40.665  35.287  28.573  1.00  0.00     0.010 A 
ATOM     42  C   UNL A   1      41.579  34.888  30.795  1.00  0.00     0.010 A 
ATOM     43  C   UNL A   1      41.729  35.363  29.481  1.00  0.00    -0.014 A 
BRANCH  43  44
ATOM     44  C   UNL A   1      43.084  35.650  28.964  1.00  0.00     0.031 A 
ATOM     45  C   UNL A   1      43.985  34.473  28.714  1.00  0.00     0.074 A 
ATOM     46  C   UNL A   1      43.490  36.901  28.703  1.00  0.00     0.049 A 
ATOM     47  N   UNL A   1      45.229  34.444  28.316  1.00  0.00    -0.248 NA
ATOM     48  C   UNL A   1      43.397  33.141  28.947  1.00  0.00     0.031 C 
ATOM     49  C   UNL A   1      42.678  38.105  28.856  1.00  0.00     0.029 A 
ATOM     50  N   UNL A   1      44.702  37.360  28.258  1.00  0.00    -0.354 N 
ATOM     51  C   UNL A   1      45.569  33.100  28.253  1.00  0.00     0.074 A 
ATOM     52  C   UNL A   1      44.416  32.341  28.679  1.00  0.00     0.031 C 
ATOM     53  C   UNL A   1      43.425  39.175  28.527  1.00  0.00     0.029 A 
ATOM     54  C   UNL A   1      44.772  38.728  28.173  1.00  0.00     0.049 A 
ATOM     55  H   UNL A   1      45.451  36.767  28.022  1.00  0.00     0.167 HD
ATOM     56  C   UNL A   1      46.742  32.547  27.868  1.00  0.00     0.037 A 
ATOM     57  C   UNL A   1      45.819  39.519  27.870  1.00  0.00     0.037 A 
ATOM     58  C   UNL A   1      47.889  33.310  27.460  1.00  0.00     0.049 A 
ATOM     59  C   UNL A   1      47.143  38.881  27.530  1.00  0.00     0.074 A 
ATOM     60  C   UNL A   1      49.128  32.853  27.053  1.00  0.00     0.029 A 
ATOM     61  N   UNL A   1      47.934  34.695  27.422  1.00  0.00    -0.354 N 
ATOM     62  N   UNL A   1      47.458  37.610  27.456  1.00  0.00    -0.248 NA
ATOM     63  C   UNL A   1      48.258  39.791  27.230  1.00  0.00     0.031 C 
ATOM     64  C   UNL A   1      49.942  33.967  26.818  1.00  0.00     0.029 A 
ATOM     65  C   UNL A   1      49.191  35.114  27.021  1.00  0.00     0.049 A 
ATOM     66  H   UNL A   1      47.184  35.292  27.646  1.00  0.00     0.167 HD
ATOM     67  C   UNL A   1      48.794  37.567  27.073  1.00  0.00     0.074 A 
ATOM     68  C   UNL A   1      49.226  38.940  26.919  1.00  0.00     0.031 C 
ATOM     69  C   UNL A   1      49.591  36.489  26.865  1.00  0.00     0.037 A 
BRANCH  56  70
ATOM     70  C   UNL A   1      46.845  31.051  27.912  1.00  0.00     0.064 A 
ATOM     71  C   UNL A   1      46.520  30.255  26.805  1.00  0.00     0.173 A 
ATOM     72  C   UNL A   1      47.283  30.407  29.078  1.00  0.00     0.173 A 
ATOM     73  F   UNL A   1      46.071  30.821  25.673  1.00  0.00    -0.203 F 
ATOM     74  C   UNL A   1      46.606  28.866  26.871  1.00  0.00     0.198 A 
ATOM     75  C   UNL A   1      47.398  29.020  29.132  1.00  0.00     0.198 A 
ATOM     76  F   UNL A   1      47.601  31.122  30.168  1.00  0.00    -0.203 F 
ATOM     77  F   UNL A   1      46.241  28.123  25.818  1.00  0.00    -0.200 F 
ATOM     78  C   UNL A   1      47.053  28.251  28.031  1.00  0.00     0.200 A 
ATOM     79  F   UNL A   1      47.836  28.429  30.252  1.00  0.00    -0.200 F 
ATOM     80  F   UNL A   1      47.140  26.916  28.092  1.00  0.00    -0.200 F 
ENDBRANCH  56  70
BRANCH  57  81
ATOM     81  C   UNL A   1      45.668  40.998  27.892  1.00  0.00     0.064 A 
ATOM     82  C   UNL A   1      45.985  41.743  29.036  1.00  0.00     0.173 A 
ATOM     83  C   UNL A   1      45.178  41.694  26.776  1.00  0.00     0.173 A 
ATOM     84  F   UNL A   1      46.431  41.121  30.137  1.00  0.00    -0.203 F 
ATOM     85  C   UNL A   1      45.799  43.124  29.070  1.00  0.00     0.198 A 
ATOM     86  C   UNL A   1      45.022  43.078  26.802  1.00  0.00     0.198 A 
ATOM     87  F   UNL A   1      44.857  41.029  25.657  1.00  0.00    -0.203 F 
ATOM     88  F   UNL A   1      46.063  43.805  30.194  1.00  0.00    -0.200 F 
ATOM     89  C   UNL A   1      45.323  43.791  27.951  1.00  0.00     0.200 A 
ATOM     90  F   UNL A   1      44.573  43.720  25.714  1.00  0.00    -0.200 F 
ATOM     91  F   UNL A   1      45.147  45.119  27.984  1.00  0.00    -0.200 F 
ENDBRANCH  57  81
BRANCH  69  92
ATOM     92  C   UNL A   1      50.998  36.749  26.407  1.00  0.00     0.064 A 
ATOM     93  C   UNL A   1      52.049  36.923  27.318  1.00  0.00     0.173 A 
ATOM     94  C   UNL A   1      51.302  36.771  25.037  1.00  0.00     0.173 A 
ATOM     95  F   UNL A   1      51.808  36.923  28.637  1.00  0.00    -0.203 F 
ATOM     96  C   UNL A   1      53.352  37.134  26.872  1.00  0.00     0.198 A 
ATOM     97  C   UNL A   1      52.610  36.948  24.596  1.00  0.00     0.198 A 
ATOM     98  F   UNL A   1      50.333  36.598  24.125  1.00  0.00    -0.203 F 
ATOM     99  F   UNL A   1      54.335  37.345  27.759  1.00  0.00    -0.200 F 
ATOM    100  C   UNL A   1      53.632  37.138  25.513  1.00  0.00     0.200 A 
ATOM    101  F   UNL A   1      52.880  36.935  23.284  1.00  0.00    -0.200 F 
ATOM    102  F   UNL A   1      54.888  37.331  25.088  1.00  0.00    -0.200 F 
ENDBRANCH  69  92
ENDBRANCH  43  44
ENDBRANCH  36  38
ENDBRANCH  35  36
ENDBRANCH  34  35
ENDBRANCH  33  34
ENDBRANCH  32  33
ENDBRANCH  31  32
ENDBRANCH  30  31
ENDBRANCH  29  30
ENDBRANCH   1  29
TORSDOF 25
ENDMDL
