MODEL 1
REMARK VINA RESULT:      -9.4      0.000      0.000
REMARK SMILES C[C@H]([NH2+]CC1CCCC1)[C@H](C)C(=O)OCCOCCOCCOCCOC(=O)c1ccc(-c2c3nc(c(-c4c(F)c(F)c(F)c(F)c4F)c4ccc([nH]4)c(-c4c(F)c(F)c(F)c(F)c4F)c4nc(c(-c5c(F)c(F)c(F)c(F)c5F)c5ccc2[nH]5)C=C4)C=C3)cc1
REMARK SMILES IDX 19 1 18 2 17 3 16 4 15 5 14 6 12 7 13 8 10 9 11 10 2 11 1 12
REMARK SMILES IDX 3 13 4 16 5 17 6 18 9 19 7 20 8 21 20 22 21 23 22 24 23 25
REMARK SMILES IDX 24 26 25 27 26 28 27 29 28 30 29 31 30 32 91 33 31 34 90 35
REMARK SMILES IDX 32 36 33 37 34 38 84 39 35 40 89 41 83 42 85 43 36 44 88 45
REMARK SMILES IDX 82 46 81 47 37 49 69 50 49 51 68 52 50 53 53 54 67 55 86 56
REMARK SMILES IDX 51 57 52 58 66 60 87 61 54 62 38 63 39 64 47 65 40 66 41 67
REMARK SMILES IDX 45 68 48 69 42 70 43 71 46 72 44 73 70 74 71 75 79 76 72 77
REMARK SMILES IDX 73 78 77 79 80 80 74 81 75 82 78 83 76 84 55 85 56 86 64 87
REMARK SMILES IDX 57 88 58 89 62 90 65 91 59 92 60 93 63 94 61 95
REMARK H PARENT 3 14 3 15 85 48 53 59
REMARK Flexibility Score: inf
ROOT
ATOM      1  C   UNL A   1      27.446  29.490  22.528  1.00  0.00     0.188 C 
ENDROOT
BRANCH   1   2
ATOM      2  C   UNL A   1      28.573  28.480  22.805  1.00  0.00     0.188 C 
BRANCH   2   3
ATOM      3  O   UNL A   1      28.337  27.359  23.646  1.00  0.00    -0.376 OA
BRANCH   3   4
ATOM      4  C   UNL A   1      29.365  26.401  23.858  1.00  0.00     0.202 C 
BRANCH   4   5
ATOM      5  C   UNL A   1      30.640  26.767  24.632  1.00  0.00     0.261 C 
BRANCH   5   6
ATOM      6  O   UNL A   1      31.429  25.664  25.106  1.00  0.00    -0.463 OA
BRANCH   6   7
ATOM      7  C   UNL A   1      32.626  25.458  24.507  1.00  0.00     0.314 C 
ATOM      8  O   UNL A   1      33.677  25.968  24.886  1.00  0.00    -0.252 OA
BRANCH   7   9
ATOM      9  C   UNL A   1      32.562  24.579  23.258  1.00  0.00     0.154 C 
ATOM     10  C   UNL A   1      32.904  25.179  21.893  1.00  0.00     0.026 C 
BRANCH   9  11
ATOM     11  C   UNL A   1      33.264  23.220  23.503  1.00  0.00     0.193 C 
ATOM     12  C   UNL A   1      32.211  22.231  24.032  1.00  0.00     0.076 C 
BRANCH  11  13
ATOM     13  N   UNL A   1      34.418  23.173  24.417  1.00  0.00    -0.343 N 
ATOM     14  H   UNL A   1      34.119  23.560  25.313  1.00  0.00     0.346 HD
ATOM     15  H   UNL A   1      35.153  23.703  23.950  1.00  0.00     0.346 HD
BRANCH  13  16
ATOM     16  C   UNL A   1      34.995  21.856  24.673  1.00  0.00     0.264 C 
BRANCH  16  17
ATOM     17  C   UNL A   1      36.244  21.962  25.554  1.00  0.00     0.044 C 
ATOM     18  C   UNL A   1      37.483  21.317  24.948  1.00  0.00     0.009 C 
ATOM     19  C   UNL A   1      36.691  23.415  25.757  1.00  0.00     0.009 C 
ATOM     20  C   UNL A   1      38.626  21.926  25.750  1.00  0.00     0.001 C 
ATOM     21  C   UNL A   1      38.165  23.331  26.137  1.00  0.00     0.001 C 
ENDBRANCH  16  17
ENDBRANCH  13  16
ENDBRANCH  11  13
ENDBRANCH   9  11
ENDBRANCH   7   9
ENDBRANCH   6   7
ENDBRANCH   5   6
ENDBRANCH   4   5
ENDBRANCH   3   4
ENDBRANCH   2   3
ENDBRANCH   1   2
BRANCH   1  22
ATOM     22  O   UNL A   1      27.317  30.538  23.468  1.00  0.00    -0.377 OA
BRANCH  22  23
ATOM     23  C   UNL A   1      28.242  31.612  23.350  1.00  0.00     0.188 C 
BRANCH  23  24
ATOM     24  C   UNL A   1      29.366  31.733  24.403  1.00  0.00     0.188 C 
BRANCH  24  25
ATOM     25  O   UNL A   1      30.408  30.776  24.274  1.00  0.00    -0.376 OA
BRANCH  25  26
ATOM     26  C   UNL A   1      31.146  30.384  25.421  1.00  0.00     0.202 C 
BRANCH  26  27
ATOM     27  C   UNL A   1      31.559  31.481  26.418  1.00  0.00     0.261 C 
BRANCH  27  28
ATOM     28  O   UNL A   1      32.713  31.194  27.220  1.00  0.00    -0.460 OA
BRANCH  28  29
ATOM     29  C   UNL A   1      33.488  32.242  27.552  1.00  0.00     0.338 C 
ATOM     30  O   UNL A   1      33.134  33.404  27.712  1.00  0.00    -0.246 OA
BRANCH  29  31
ATOM     31  C   UNL A   1      34.835  31.749  27.881  1.00  0.00     0.060 A 
ATOM     32  C   UNL A   1      35.011  30.372  28.065  1.00  0.00     0.016 A 
ATOM     33  C   UNL A   1      35.897  32.637  28.075  1.00  0.00     0.016 A 
ATOM     34  C   UNL A   1      36.224  29.883  28.534  1.00  0.00     0.010 A 
ATOM     35  C   UNL A   1      37.110  32.148  28.569  1.00  0.00     0.010 A 
ATOM     36  C   UNL A   1      37.249  30.780  28.863  1.00  0.00    -0.014 A 
BRANCH  36  37
ATOM     37  C   UNL A   1      38.311  30.314  29.786  1.00  0.00     0.031 A 
ATOM     38  C   UNL A   1      39.315  29.323  29.255  1.00  0.00     0.074 A 
ATOM     39  C   UNL A   1      38.441  30.820  31.022  1.00  0.00     0.049 A 
ATOM     40  N   UNL A   1      40.348  28.781  29.846  1.00  0.00    -0.248 NA
ATOM     41  C   UNL A   1      39.127  28.887  27.860  1.00  0.00     0.031 C 
ATOM     42  C   UNL A   1      37.571  31.828  31.620  1.00  0.00     0.029 A 
ATOM     43  N   UNL A   1      39.372  30.553  31.995  1.00  0.00    -0.354 N 
ATOM     44  C   UNL A   1      40.924  27.940  28.901  1.00  0.00     0.074 A 
ATOM     45  C   UNL A   1      40.106  28.011  27.712  1.00  0.00     0.031 C 
ATOM     46  C   UNL A   1      38.004  32.092  32.866  1.00  0.00     0.029 A 
ATOM     47  C   UNL A   1      39.166  31.252  33.157  1.00  0.00     0.049 A 
ATOM     48  H   UNL A   1      40.116  29.920  31.870  1.00  0.00     0.167 HD
ATOM     49  C   UNL A   1      42.044  27.188  29.009  1.00  0.00     0.037 A 
ATOM     50  C   UNL A   1      39.836  31.202  34.325  1.00  0.00     0.037 A 
ATOM     51  C   UNL A   1      42.856  27.124  30.195  1.00  0.00     0.049 A 
ATOM     52  C   UNL A   1      41.039  30.298  34.445  1.00  0.00     0.074 A 
ATOM     53  C   UNL A   1      44.009  26.392  30.411  1.00  0.00     0.029 A 
ATOM     54  N   UNL A   1      42.592  27.816  31.367  1.00  0.00    -0.354 N 
ATOM     55  N   UNL A   1      41.585  29.515  33.546  1.00  0.00    -0.248 NA
ATOM     56  C   UNL A   1      41.725  30.284  35.745  1.00  0.00     0.031 C 
ATOM     57  C   UNL A   1      44.411  26.595  31.736  1.00  0.00     0.029 A 
ATOM     58  C   UNL A   1      43.551  27.512  32.320  1.00  0.00     0.049 A 
ATOM     59  H   UNL A   1      41.836  28.431  31.502  1.00  0.00     0.167 HD
ATOM     60  C   UNL A   1      42.701  28.951  34.153  1.00  0.00     0.074 A 
ATOM     61  C   UNL A   1      42.758  29.491  35.497  1.00  0.00     0.031 C 
ATOM     62  C   UNL A   1      43.602  28.073  33.647  1.00  0.00     0.037 A 
BRANCH  49  63
ATOM     63  C   UNL A   1      42.432  26.350  27.825  1.00  0.00     0.064 A 
ATOM     64  C   UNL A   1      41.864  25.088  27.588  1.00  0.00     0.173 A 
ATOM     65  C   UNL A   1      43.379  26.823  26.904  1.00  0.00     0.173 A 
ATOM     66  F   UNL A   1      40.968  24.578  28.448  1.00  0.00    -0.203 F 
ATOM     67  C   UNL A   1      42.250  24.322  26.491  1.00  0.00     0.198 A 
ATOM     68  C   UNL A   1      43.737  26.070  25.790  1.00  0.00     0.198 A 
ATOM     69  F   UNL A   1      43.956  28.021  27.083  1.00  0.00    -0.203 F 
ATOM     70  F   UNL A   1      41.735  23.097  26.317  1.00  0.00    -0.200 F 
ATOM     71  C   UNL A   1      43.179  24.817  25.589  1.00  0.00     0.200 A 
ATOM     72  F   UNL A   1      44.626  26.556  24.913  1.00  0.00    -0.200 F 
ATOM     73  F   UNL A   1      43.545  24.081  24.530  1.00  0.00    -0.200 F 
ENDBRANCH  49  63
BRANCH  50  74
ATOM     74  C   UNL A   1      39.388  32.028  35.477  1.00  0.00     0.064 A 
ATOM     75  C   UNL A   1      39.884  33.324  35.681  1.00  0.00     0.173 A 
ATOM     76  C   UNL A   1      38.480  31.523  36.420  1.00  0.00     0.173 A 
ATOM     77  F   UNL A   1      40.773  33.843  34.821  1.00  0.00    -0.203 F 
ATOM     78  C   UNL A   1      39.510  34.070  36.796  1.00  0.00     0.198 A 
ATOM     79  C   UNL A   1      38.082  32.284  37.517  1.00  0.00     0.198 A 
ATOM     80  F   UNL A   1      37.976  30.289  36.274  1.00  0.00    -0.203 F 
ATOM     81  F   UNL A   1      40.044  35.283  36.996  1.00  0.00    -0.200 F 
ATOM     82  C   UNL A   1      38.605  33.553  37.710  1.00  0.00     0.200 A 
ATOM     83  F   UNL A   1      37.197  31.784  38.391  1.00  0.00    -0.200 F 
ATOM     84  F   UNL A   1      38.247  34.271  38.784  1.00  0.00    -0.200 F 
ENDBRANCH  50  74
BRANCH  62  85
ATOM     85  C   UNL A   1      44.767  27.693  34.519  1.00  0.00     0.064 A 
ATOM     86  C   UNL A   1      44.724  26.588  35.381  1.00  0.00     0.173 A 
ATOM     87  C   UNL A   1      45.958  28.435  34.464  1.00  0.00     0.173 A 
ATOM     88  F   UNL A   1      43.609  25.849  35.479  1.00  0.00    -0.203 F 
ATOM     89  C   UNL A   1      45.813  26.266  36.188  1.00  0.00     0.198 A 
ATOM     90  C   UNL A   1      47.058  28.088  35.243  1.00  0.00     0.198 A 
ATOM     91  F   UNL A   1      46.059  29.494  33.647  1.00  0.00    -0.203 F 
ATOM     92  F   UNL A   1      45.726  25.245  37.053  1.00  0.00    -0.200 F 
ATOM     93  C   UNL A   1      46.981  27.011  36.113  1.00  0.00     0.200 A 
ATOM     94  F   UNL A   1      48.191  28.797  35.152  1.00  0.00    -0.200 F 
ATOM     95  F   UNL A   1      48.029  26.698  36.887  1.00  0.00    -0.200 F 
ENDBRANCH  62  85
ENDBRANCH  36  37
ENDBRANCH  29  31
ENDBRANCH  28  29
ENDBRANCH  27  28
ENDBRANCH  26  27
ENDBRANCH  25  26
ENDBRANCH  24  25
ENDBRANCH  23  24
ENDBRANCH  22  23
ENDBRANCH   1  22
TORSDOF 24
ENDMDL
MODEL 2
REMARK VINA RESULT:      -9.4      1.220      2.135
REMARK SMILES C[C@H]([NH2+]CC1CCCC1)[C@H](C)C(=O)OCCOCCOCCOCCOC(=O)c1ccc(-c2c3nc(c(-c4c(F)c(F)c(F)c(F)c4F)c4ccc([nH]4)c(-c4c(F)c(F)c(F)c(F)c4F)c4nc(c(-c5c(F)c(F)c(F)c(F)c5F)c5ccc2[nH]5)C=C4)C=C3)cc1
REMARK SMILES IDX 19 1 18 2 17 3 16 4 15 5 14 6 12 7 13 8 10 9 11 10 2 11 1 12
REMARK SMILES IDX 3 13 4 16 5 17 6 18 9 19 7 20 8 21 20 22 21 23 22 24 23 25
REMARK SMILES IDX 24 26 25 27 26 28 27 29 28 30 29 31 30 32 91 33 31 34 90 35
REMARK SMILES IDX 32 36 33 37 34 38 84 39 35 40 89 41 83 42 85 43 36 44 88 45
REMARK SMILES IDX 82 46 81 47 37 49 69 50 49 51 68 52 50 53 53 54 67 55 86 56
REMARK SMILES IDX 51 57 52 58 66 60 87 61 54 62 38 63 39 64 47 65 40 66 41 67
REMARK SMILES IDX 45 68 48 69 42 70 43 71 46 72 44 73 70 74 71 75 79 76 72 77
REMARK SMILES IDX 73 78 77 79 80 80 74 81 75 82 78 83 76 84 55 85 56 86 64 87
REMARK SMILES IDX 57 88 58 89 62 90 65 91 59 92 60 93 63 94 61 95
REMARK H PARENT 3 14 3 15 85 48 53 59
REMARK Flexibility Score: inf
ROOT
ATOM      1  C   UNL A   1      27.292  28.630  23.040  1.00  0.00     0.188 C 
ENDROOT
BRANCH   1   2
ATOM      2  C   UNL A   1      28.682  28.024  23.303  1.00  0.00     0.188 C 
BRANCH   2   3
ATOM      3  O   UNL A   1      29.702  28.120  22.318  1.00  0.00    -0.376 OA
BRANCH   3   4
ATOM      4  C   UNL A   1      30.834  27.264  22.382  1.00  0.00     0.202 C 
BRANCH   4   5
ATOM      5  C   UNL A   1      30.821  25.997  23.250  1.00  0.00     0.261 C 
BRANCH   5   6
ATOM      6  O   UNL A   1      32.098  25.388  23.498  1.00  0.00    -0.463 OA
BRANCH   6   7
ATOM      7  C   UNL A   1      32.127  24.039  23.612  1.00  0.00     0.314 C 
ATOM      8  O   UNL A   1      31.953  23.269  22.671  1.00  0.00    -0.252 OA
BRANCH   7   9
ATOM      9  C   UNL A   1      32.332  23.531  25.040  1.00  0.00     0.154 C 
ATOM     10  C   UNL A   1      31.186  22.817  25.759  1.00  0.00     0.026 C 
BRANCH   9  11
ATOM     11  C   UNL A   1      33.678  22.779  25.170  1.00  0.00     0.193 C 
ATOM     12  C   UNL A   1      34.789  23.694  24.627  1.00  0.00     0.076 C 
BRANCH  11  13
ATOM     13  N   UNL A   1      33.823  21.467  24.516  1.00  0.00    -0.343 N 
ATOM     14  H   UNL A   1      34.700  21.476  23.995  1.00  0.00     0.346 HD
ATOM     15  H   UNL A   1      32.988  21.358  23.941  1.00  0.00     0.346 HD
BRANCH  13  16
ATOM     16  C   UNL A   1      33.842  20.299  25.393  1.00  0.00     0.264 C 
BRANCH  16  17
ATOM     17  C   UNL A   1      33.243  19.074  24.695  1.00  0.00     0.044 C 
ATOM     18  C   UNL A   1      32.531  19.395  23.388  1.00  0.00     0.009 C 
ATOM     19  C   UNL A   1      34.317  18.073  24.252  1.00  0.00     0.009 C 
ATOM     20  C   UNL A   1      32.435  18.041  22.696  1.00  0.00     0.001 C 
ATOM     21  C   UNL A   1      33.667  17.254  23.142  1.00  0.00     0.001 C 
ENDBRANCH  16  17
ENDBRANCH  13  16
ENDBRANCH  11  13
ENDBRANCH   9  11
ENDBRANCH   7   9
ENDBRANCH   6   7
ENDBRANCH   5   6
ENDBRANCH   4   5
ENDBRANCH   3   4
ENDBRANCH   2   3
ENDBRANCH   1   2
BRANCH   1  22
ATOM     22  O   UNL A   1      27.200  30.034  23.171  1.00  0.00    -0.377 OA
BRANCH  22  23
ATOM     23  C   UNL A   1      28.391  30.773  22.924  1.00  0.00     0.188 C 
BRANCH  23  24
ATOM     24  C   UNL A   1      29.212  31.270  24.134  1.00  0.00     0.188 C 
BRANCH  24  25
ATOM     25  O   UNL A   1      30.538  30.761  24.203  1.00  0.00    -0.376 OA
BRANCH  25  26
ATOM     26  C   UNL A   1      31.057  30.324  25.450  1.00  0.00     0.202 C 
BRANCH  26  27
ATOM     27  C   UNL A   1      31.409  31.396  26.496  1.00  0.00     0.261 C 
BRANCH  27  28
ATOM     28  O   UNL A   1      32.593  31.149  27.268  1.00  0.00    -0.460 OA
BRANCH  28  29
ATOM     29  C   UNL A   1      33.392  32.207  27.496  1.00  0.00     0.338 C 
ATOM     30  O   UNL A   1      33.062  33.385  27.556  1.00  0.00    -0.246 OA
BRANCH  29  31
ATOM     31  C   UNL A   1      34.734  31.718  27.850  1.00  0.00     0.060 A 
ATOM     32  C   UNL A   1      34.916  30.339  28.013  1.00  0.00     0.016 A 
ATOM     33  C   UNL A   1      35.783  32.611  28.088  1.00  0.00     0.016 A 
ATOM     34  C   UNL A   1      36.121  29.852  28.504  1.00  0.00     0.010 A 
ATOM     35  C   UNL A   1      36.986  32.123  28.604  1.00  0.00     0.010 A 
ATOM     36  C   UNL A   1      37.130  30.751  28.877  1.00  0.00    -0.014 A 
BRANCH  36  37
ATOM     37  C   UNL A   1      38.172  30.276  29.817  1.00  0.00     0.031 A 
ATOM     38  C   UNL A   1      39.186  29.289  29.300  1.00  0.00     0.074 A 
ATOM     39  C   UNL A   1      38.276  30.771  31.061  1.00  0.00     0.049 A 
ATOM     40  N   UNL A   1      40.206  28.742  29.908  1.00  0.00    -0.248 NA
ATOM     41  C   UNL A   1      39.028  28.866  27.897  1.00  0.00     0.031 C 
ATOM     42  C   UNL A   1      37.393  31.775  31.648  1.00  0.00     0.029 A 
ATOM     43  N   UNL A   1      39.185  30.495  32.050  1.00  0.00    -0.354 N 
ATOM     44  C   UNL A   1      40.802  27.909  28.968  1.00  0.00     0.074 A 
ATOM     45  C   UNL A   1      40.010  27.991  27.763  1.00  0.00     0.031 C 
ATOM     46  C   UNL A   1      37.800  32.028  32.905  1.00  0.00     0.029 A 
ATOM     47  C   UNL A   1      38.955  31.184  33.214  1.00  0.00     0.049 A 
ATOM     48  H   UNL A   1      39.931  29.863  31.936  1.00  0.00     0.167 HD
ATOM     49  C   UNL A   1      41.919  27.155  29.093  1.00  0.00     0.037 A 
ATOM     50  C   UNL A   1      39.599  31.124  34.396  1.00  0.00     0.037 A 
ATOM     51  C   UNL A   1      42.705  27.080  30.295  1.00  0.00     0.049 A 
ATOM     52  C   UNL A   1      40.799  30.218  34.534  1.00  0.00     0.074 A 
ATOM     53  C   UNL A   1      43.853  26.346  30.530  1.00  0.00     0.029 A 
ATOM     54  N   UNL A   1      42.417  27.762  31.468  1.00  0.00    -0.354 N 
ATOM     55  N   UNL A   1      41.365  29.443  33.640  1.00  0.00    -0.248 NA
ATOM     56  C   UNL A   1      41.458  30.192  35.847  1.00  0.00     0.031 C 
ATOM     57  C   UNL A   1      44.227  26.537  31.865  1.00  0.00     0.029 A 
ATOM     58  C   UNL A   1      43.355  27.449  32.439  1.00  0.00     0.049 A 
ATOM     59  H   UNL A   1      41.658  28.377  31.593  1.00  0.00     0.167 HD
ATOM     60  C   UNL A   1      42.467  28.873  34.266  1.00  0.00     0.074 A 
ATOM     61  C   UNL A   1      42.495  29.401  35.615  1.00  0.00     0.031 C 
ATOM     62  C   UNL A   1      43.378  27.999  33.771  1.00  0.00     0.037 A 
BRANCH  49  63
ATOM     63  C   UNL A   1      42.332  26.327  27.911  1.00  0.00     0.064 A 
ATOM     64  C   UNL A   1      41.821  25.038  27.690  1.00  0.00     0.173 A 
ATOM     65  C   UNL A   1      43.244  26.837  26.975  1.00  0.00     0.173 A 
ATOM     66  F   UNL A   1      40.961  24.493  28.564  1.00  0.00    -0.203 F 
ATOM     67  C   UNL A   1      42.230  24.283  26.594  1.00  0.00     0.198 A 
ATOM     68  C   UNL A   1      43.623  26.093  25.861  1.00  0.00     0.198 A 
ATOM     69  F   UNL A   1      43.766  28.063  27.138  1.00  0.00    -0.203 F 
ATOM     70  F   UNL A   1      41.771  23.033  26.434  1.00  0.00    -0.200 F 
ATOM     71  C   UNL A   1      43.123  24.813  25.676  1.00  0.00     0.200 A 
ATOM     72  F   UNL A   1      44.478  26.614  24.970  1.00  0.00    -0.200 F 
ATOM     73  F   UNL A   1      43.511  24.088  24.618  1.00  0.00    -0.200 F 
ENDBRANCH  49  63
BRANCH  50  74
ATOM     74  C   UNL A   1      39.128  31.940  35.545  1.00  0.00     0.064 A 
ATOM     75  C   UNL A   1      39.577  33.254  35.739  1.00  0.00     0.173 A 
ATOM     76  C   UNL A   1      38.242  31.409  36.495  1.00  0.00     0.173 A 
ATOM     77  F   UNL A   1      40.443  33.799  34.873  1.00  0.00    -0.203 F 
ATOM     78  C   UNL A   1      39.182  33.993  36.852  1.00  0.00     0.198 A 
ATOM     79  C   UNL A   1      37.822  32.161  37.590  1.00  0.00     0.198 A 
ATOM     80  F   UNL A   1      37.782  30.157  36.358  1.00  0.00    -0.203 F 
ATOM     81  F   UNL A   1      39.674  35.225  37.043  1.00  0.00    -0.200 F 
ATOM     82  C   UNL A   1      38.301  33.449  37.773  1.00  0.00     0.200 A 
ATOM     83  F   UNL A   1      36.959  31.635  38.470  1.00  0.00    -0.200 F 
ATOM     84  F   UNL A   1      37.922  34.161  38.844  1.00  0.00    -0.200 F 
ENDBRANCH  50  74
BRANCH  62  85
ATOM     85  C   UNL A   1      44.524  27.610  34.664  1.00  0.00     0.064 A 
ATOM     86  C   UNL A   1      45.664  28.414  34.807  1.00  0.00     0.173 A 
ATOM     87  C   UNL A   1      44.462  26.423  35.412  1.00  0.00     0.173 A 
ATOM     88  F   UNL A   1      45.779  29.555  34.111  1.00  0.00    -0.203 F 
ATOM     89  C   UNL A   1      46.717  28.024  35.632  1.00  0.00     0.198 A 
ATOM     90  C   UNL A   1      45.498  26.055  36.264  1.00  0.00     0.198 A 
ATOM     91  F   UNL A   1      43.389  25.623  35.323  1.00  0.00    -0.203 F 
ATOM     92  F   UNL A   1      47.825  28.775  35.702  1.00  0.00    -0.200 F 
ATOM     93  C   UNL A   1      46.630  26.849  36.364  1.00  0.00     0.200 A 
ATOM     94  F   UNL A   1      45.402  24.931  36.986  1.00  0.00    -0.200 F 
ATOM     95  F   UNL A   1      47.643  26.476  37.159  1.00  0.00    -0.200 F 
ENDBRANCH  62  85
ENDBRANCH  36  37
ENDBRANCH  29  31
ENDBRANCH  28  29
ENDBRANCH  27  28
ENDBRANCH  26  27
ENDBRANCH  25  26
ENDBRANCH  24  25
ENDBRANCH  23  24
ENDBRANCH  22  23
ENDBRANCH   1  22
TORSDOF 24
ENDMDL
MODEL 3
REMARK VINA RESULT:      -9.2      2.134      7.821
REMARK SMILES C[C@H]([NH2+]CC1CCCC1)[C@H](C)C(=O)OCCOCCOCCOCCOC(=O)c1ccc(-c2c3nc(c(-c4c(F)c(F)c(F)c(F)c4F)c4ccc([nH]4)c(-c4c(F)c(F)c(F)c(F)c4F)c4nc(c(-c5c(F)c(F)c(F)c(F)c5F)c5ccc2[nH]5)C=C4)C=C3)cc1
REMARK SMILES IDX 19 1 18 2 17 3 16 4 15 5 14 6 12 7 13 8 10 9 11 10 2 11 1 12
REMARK SMILES IDX 3 13 4 16 5 17 6 18 9 19 7 20 8 21 20 22 21 23 22 24 23 25
REMARK SMILES IDX 24 26 25 27 26 28 27 29 28 30 29 31 30 32 91 33 31 34 90 35
REMARK SMILES IDX 32 36 33 37 34 38 84 39 35 40 89 41 83 42 85 43 36 44 88 45
REMARK SMILES IDX 82 46 81 47 37 49 69 50 49 51 68 52 50 53 53 54 67 55 86 56
REMARK SMILES IDX 51 57 52 58 66 60 87 61 54 62 38 63 39 64 47 65 40 66 41 67
REMARK SMILES IDX 45 68 48 69 42 70 43 71 46 72 44 73 70 74 71 75 79 76 72 77
REMARK SMILES IDX 73 78 77 79 80 80 74 81 75 82 78 83 76 84 55 85 56 86 64 87
REMARK SMILES IDX 57 88 58 89 62 90 65 91 59 92 60 93 63 94 61 95
REMARK H PARENT 3 14 3 15 85 48 53 59
REMARK Flexibility Score: inf
ROOT
ATOM      1  C   UNL A   1      31.304  26.505  25.891  1.00  0.00     0.188 C 
ENDROOT
BRANCH   1   2
ATOM      2  C   UNL A   1      31.387  25.007  25.550  1.00  0.00     0.188 C 
BRANCH   2   3
ATOM      3  O   UNL A   1      31.646  24.054  26.571  1.00  0.00    -0.376 OA
BRANCH   3   4
ATOM      4  C   UNL A   1      31.495  22.667  26.304  1.00  0.00     0.202 C 
BRANCH   4   5
ATOM      5  C   UNL A   1      32.472  21.928  25.379  1.00  0.00     0.261 C 
BRANCH   5   6
ATOM      6  O   UNL A   1      33.854  22.300  25.493  1.00  0.00    -0.463 OA
BRANCH   6   7
ATOM      7  C   UNL A   1      34.449  22.811  24.389  1.00  0.00     0.314 C 
ATOM      8  O   UNL A   1      33.859  23.469  23.536  1.00  0.00    -0.252 OA
BRANCH   7   9
ATOM      9  C   UNL A   1      35.927  22.446  24.243  1.00  0.00     0.154 C 
ATOM     10  C   UNL A   1      36.686  22.858  22.981  1.00  0.00     0.026 C 
BRANCH   9  11
ATOM     11  C   UNL A   1      36.706  22.774  25.540  1.00  0.00     0.193 C 
ATOM     12  C   UNL A   1      36.393  24.229  25.928  1.00  0.00     0.076 C 
BRANCH  11  13
ATOM     13  N   UNL A   1      38.171  22.617  25.546  1.00  0.00    -0.343 N 
ATOM     14  H   UNL A   1      38.543  23.216  26.284  1.00  0.00     0.346 HD
ATOM     15  H   UNL A   1      38.473  22.866  24.604  1.00  0.00     0.346 HD
BRANCH  13  16
ATOM     16  C   UNL A   1      38.682  21.268  25.771  1.00  0.00     0.264 C 
BRANCH  16  17
ATOM     17  C   UNL A   1      40.176  21.293  26.111  1.00  0.00     0.044 C 
ATOM     18  C   UNL A   1      40.502  22.012  27.412  1.00  0.00     0.009 C 
ATOM     19  C   UNL A   1      40.740  19.888  26.356  1.00  0.00     0.009 C 
ATOM     20  C   UNL A   1      41.908  21.525  27.743  1.00  0.00     0.001 C 
ATOM     21  C   UNL A   1      41.999  20.103  27.190  1.00  0.00     0.001 C 
ENDBRANCH  16  17
ENDBRANCH  13  16
ENDBRANCH  11  13
ENDBRANCH   9  11
ENDBRANCH   7   9
ENDBRANCH   6   7
ENDBRANCH   5   6
ENDBRANCH   4   5
ENDBRANCH   3   4
ENDBRANCH   2   3
ENDBRANCH   1   2
BRANCH   1  22
ATOM     22  O   UNL A   1      31.564  26.843  27.239  1.00  0.00    -0.377 OA
BRANCH  22  23
ATOM     23  C   UNL A   1      31.674  28.230  27.535  1.00  0.00     0.188 C 
BRANCH  23  24
ATOM     24  C   UNL A   1      32.773  29.049  26.822  1.00  0.00     0.188 C 
BRANCH  24  25
ATOM     25  O   UNL A   1      32.306  30.207  26.143  1.00  0.00    -0.376 OA
BRANCH  25  26
ATOM     26  C   UNL A   1      32.117  31.414  26.866  1.00  0.00     0.202 C 
BRANCH  26  27
ATOM     27  C   UNL A   1      33.322  31.990  27.630  1.00  0.00     0.261 C 
BRANCH  27  28
ATOM     28  O   UNL A   1      33.613  33.373  27.386  1.00  0.00    -0.460 OA
BRANCH  28  29
ATOM     29  C   UNL A   1      33.467  34.210  28.428  1.00  0.00     0.338 C 
ATOM     30  O   UNL A   1      32.510  34.936  28.667  1.00  0.00    -0.246 OA
BRANCH  29  31
ATOM     31  C   UNL A   1      34.579  33.994  29.368  1.00  0.00     0.060 A 
ATOM     32  C   UNL A   1      35.879  34.282  28.934  1.00  0.00     0.016 A 
ATOM     33  C   UNL A   1      34.353  33.449  30.635  1.00  0.00     0.016 A 
ATOM     34  C   UNL A   1      36.967  33.940  29.728  1.00  0.00     0.010 A 
ATOM     35  C   UNL A   1      35.447  33.084  31.423  1.00  0.00     0.010 A 
ATOM     36  C   UNL A   1      36.755  33.267  30.938  1.00  0.00    -0.014 A 
BRANCH  36  37
ATOM     37  C   UNL A   1      37.885  32.501  31.515  1.00  0.00     0.031 A 
ATOM     38  C   UNL A   1      38.392  32.914  32.872  1.00  0.00     0.074 A 
ATOM     39  C   UNL A   1      38.385  31.416  30.902  1.00  0.00     0.049 A 
ATOM     40  N   UNL A   1      39.346  32.397  33.602  1.00  0.00    -0.248 NA
ATOM     41  C   UNL A   1      37.724  34.072  33.493  1.00  0.00     0.031 C 
ATOM     42  C   UNL A   1      37.932  30.884  29.620  1.00  0.00     0.029 A 
ATOM     43  N   UNL A   1      39.385  30.561  31.292  1.00  0.00    -0.354 N 
ATOM     44  C   UNL A   1      39.395  33.168  34.758  1.00  0.00     0.074 A 
ATOM     45  C   UNL A   1      38.406  34.211  34.618  1.00  0.00     0.031 C 
ATOM     46  C   UNL A   1      38.659  29.792  29.322  1.00  0.00     0.029 A 
ATOM     47  C   UNL A   1      39.643  29.568  30.382  1.00  0.00     0.049 A 
ATOM     48  H   UNL A   1      39.870  30.652  32.144  1.00  0.00     0.167 HD
ATOM     49  C   UNL A   1      40.185  33.010  35.846  1.00  0.00     0.037 A 
ATOM     50  C   UNL A   1      40.580  28.600  30.402  1.00  0.00     0.037 A 
ATOM     51  C   UNL A   1      41.166  31.967  35.981  1.00  0.00     0.049 A 
ATOM     52  C   UNL A   1      41.500  28.491  31.594  1.00  0.00     0.074 A 
ATOM     53  C   UNL A   1      42.020  31.719  37.040  1.00  0.00     0.029 A 
ATOM     54  N   UNL A   1      41.427  31.003  35.019  1.00  0.00    -0.354 N 
ATOM     55  N   UNL A   1      41.534  29.214  32.688  1.00  0.00    -0.248 NA
ATOM     56  C   UNL A   1      42.502  27.417  31.556  1.00  0.00     0.031 C 
ATOM     57  C   UNL A   1      42.840  30.639  36.694  1.00  0.00     0.029 A 
ATOM     58  C   UNL A   1      42.445  30.169  35.451  1.00  0.00     0.049 A 
ATOM     59  H   UNL A   1      40.959  30.924  34.157  1.00  0.00     0.167 HD
ATOM     60  C   UNL A   1      42.528  28.658  33.485  1.00  0.00     0.074 A 
ATOM     61  C   UNL A   1      43.065  27.530  32.751  1.00  0.00     0.031 C 
ATOM     62  C   UNL A   1      42.954  29.039  34.715  1.00  0.00     0.037 A 
BRANCH  49  63
ATOM     63  C   UNL A   1      40.041  34.010  36.956  1.00  0.00     0.064 A 
ATOM     64  C   UNL A   1      39.159  33.809  38.030  1.00  0.00     0.173 A 
ATOM     65  C   UNL A   1      40.809  35.185  36.954  1.00  0.00     0.173 A 
ATOM     66  F   UNL A   1      38.385  32.713  38.072  1.00  0.00    -0.203 F 
ATOM     67  C   UNL A   1      39.031  34.758  39.041  1.00  0.00     0.198 A 
ATOM     68  C   UNL A   1      40.705  36.114  37.985  1.00  0.00     0.198 A 
ATOM     69  F   UNL A   1      41.667  35.429  35.951  1.00  0.00    -0.203 F 
ATOM     70  F   UNL A   1      38.141  34.570  40.026  1.00  0.00    -0.200 F 
ATOM     71  C   UNL A   1      39.810  35.905  39.023  1.00  0.00     0.200 A 
ATOM     72  F   UNL A   1      41.468  37.215  37.970  1.00  0.00    -0.200 F 
ATOM     73  F   UNL A   1      39.692  36.814  40.000  1.00  0.00    -0.200 F 
ENDBRANCH  49  63
BRANCH  50  74
ATOM     74  C   UNL A   1      40.702  27.656  29.259  1.00  0.00     0.064 A 
ATOM     75  C   UNL A   1      41.689  27.824  28.278  1.00  0.00     0.173 A 
ATOM     76  C   UNL A   1      39.808  26.585  29.107  1.00  0.00     0.173 A 
ATOM     77  F   UNL A   1      42.552  28.847  28.366  1.00  0.00    -0.203 F 
ATOM     78  C   UNL A   1      41.761  26.974  27.176  1.00  0.00     0.198 A 
ATOM     79  C   UNL A   1      39.902  25.717  28.021  1.00  0.00     0.198 A 
ATOM     80  F   UNL A   1      38.844  26.380  30.016  1.00  0.00    -0.203 F 
ATOM     81  F   UNL A   1      42.678  27.194  26.224  1.00  0.00    -0.200 F 
ATOM     82  C   UNL A   1      40.872  25.919  27.051  1.00  0.00     0.200 A 
ATOM     83  F   UNL A   1      39.048  24.689  27.912  1.00  0.00    -0.200 F 
ATOM     84  F   UNL A   1      40.940  25.103  25.990  1.00  0.00    -0.200 F 
ENDBRANCH  50  74
BRANCH  62  85
ATOM     85  C   UNL A   1      44.005  28.192  35.379  1.00  0.00     0.064 A 
ATOM     86  C   UNL A   1      45.376  28.426  35.200  1.00  0.00     0.173 A 
ATOM     87  C   UNL A   1      43.626  27.144  36.234  1.00  0.00     0.173 A 
ATOM     88  F   UNL A   1      45.793  29.409  34.388  1.00  0.00    -0.203 F 
ATOM     89  C   UNL A   1      46.328  27.617  35.817  1.00  0.00     0.198 A 
ATOM     90  C   UNL A   1      44.579  26.362  36.880  1.00  0.00     0.198 A 
ATOM     91  F   UNL A   1      42.328  26.883  36.452  1.00  0.00    -0.203 F 
ATOM     92  F   UNL A   1      47.631  27.819  35.579  1.00  0.00    -0.200 F 
ATOM     93  C   UNL A   1      45.929  26.591  36.661  1.00  0.00     0.200 A 
ATOM     94  F   UNL A   1      44.191  25.386  37.711  1.00  0.00    -0.200 F 
ATOM     95  F   UNL A   1      46.845  25.816  37.257  1.00  0.00    -0.200 F 
ENDBRANCH  62  85
ENDBRANCH  36  37
ENDBRANCH  29  31
ENDBRANCH  28  29
ENDBRANCH  27  28
ENDBRANCH  26  27
ENDBRANCH  25  26
ENDBRANCH  24  25
ENDBRANCH  23  24
ENDBRANCH  22  23
ENDBRANCH   1  22
TORSDOF 24
ENDMDL
