MODEL 1
REMARK VINA RESULT:      -9.8      0.000      0.000
REMARK SMILES CCC[C@]1(C(=O)OCCOCCOCCOCCOC(=O)c2ccc(-c3c4nc(c(-c5c(F)c(F)c(F)c(F)c5F)c5ccc([nH]5)c(-c5c(F)c(F)c(F)c(F)c5F)c5nc(c(-c6c(F)c(F)c(F)c(F)c6F)c6ccc3[nH]6)C=C5)C=C4)cc2)CCN(c2cncc(C(=O)OC)n2)C1
REMARK SMILES IDX 12 1 11 2 10 3 9 4 8 5 7 6 5 7 6 8 4 9 85 10 98 11 86 12
REMARK SMILES IDX 87 13 3 14 2 15 1 16 88 17 89 18 97 19 90 20 92 21 91 22
REMARK SMILES IDX 93 23 94 24 95 25 96 26 13 27 14 28 15 29 16 30 17 31 18 32
REMARK SMILES IDX 19 33 20 34 21 35 22 36 23 37 84 38 24 39 83 40 25 41 26 42
REMARK SMILES IDX 27 43 77 44 28 45 82 46 76 47 78 48 29 49 81 50 75 51 74 52
REMARK SMILES IDX 30 54 62 55 42 56 61 57 43 58 46 59 60 60 79 61 44 62 45 63
REMARK SMILES IDX 59 65 80 66 47 67 31 68 32 69 40 70 33 71 34 72 38 73 41 74
REMARK SMILES IDX 35 75 36 76 39 77 37 78 63 79 64 80 72 81 65 82 66 83 70 84
REMARK SMILES IDX 73 85 67 86 68 87 71 88 69 89 48 90 49 91 57 92 50 93 51 94
REMARK SMILES IDX 55 95 58 96 52 97 53 98 56 99 54 100
REMARK H PARENT 78 53 46 64
REMARK Flexibility Score: inf
ROOT
ATOM      1  C   UNL A   1      39.402  22.018  26.481  1.00  0.00     0.188 C 
ENDROOT
BRANCH   1   2
ATOM      2  C   UNL A   1      39.242  23.544  26.582  1.00  0.00     0.188 C 
BRANCH   2   3
ATOM      3  O   UNL A   1      37.995  24.155  26.297  1.00  0.00    -0.376 OA
BRANCH   3   4
ATOM      4  C   UNL A   1      36.826  23.362  26.152  1.00  0.00     0.202 C 
BRANCH   4   5
ATOM      5  C   UNL A   1      36.065  23.300  24.812  1.00  0.00     0.261 C 
BRANCH   5   6
ATOM      6  O   UNL A   1      35.275  22.116  24.576  1.00  0.00    -0.463 OA
BRANCH   6   7
ATOM      7  C   UNL A   1      34.386  21.768  25.538  1.00  0.00     0.314 C 
ATOM      8  O   UNL A   1      34.715  21.319  26.632  1.00  0.00    -0.252 OA
BRANCH   7   9
ATOM      9  C   UNL A   1      32.910  21.961  25.140  1.00  0.00     0.087 C 
ATOM     10  C   UNL A   1      31.972  22.671  26.143  1.00  0.00     0.042 C 
ATOM     11  C   UNL A   1      33.001  23.045  24.020  1.00  0.00     0.137 C 
ATOM     12  C   UNL A   1      30.957  23.365  25.257  1.00  0.00     0.119 C 
ATOM     13  N   UNL A   1      31.788  23.846  24.187  1.00  0.00    -0.354 N 
BRANCH   9  14
ATOM     14  C   UNL A   1      32.344  20.624  24.546  1.00  0.00     0.020 C 
BRANCH  14  15
ATOM     15  C   UNL A   1      33.258  19.408  24.300  1.00  0.00    -0.002 C 
ATOM     16  C   UNL A   1      32.579  18.186  23.695  1.00  0.00     0.004 C 
ENDBRANCH  14  15
ENDBRANCH   9  14
BRANCH  13  17
ATOM     17  C   UNL A   1      31.780  25.132  23.727  1.00  0.00     0.148 A 
ATOM     18  C   UNL A   1      31.402  25.480  22.425  1.00  0.00     0.157 A 
ATOM     19  N   UNL A   1      32.150  26.091  24.593  1.00  0.00    -0.221 NA
ATOM     20  N   UNL A   1      31.409  26.746  21.936  1.00  0.00    -0.258 NA
ATOM     21  C   UNL A   1      32.204  27.361  24.111  1.00  0.00     0.169 A 
ATOM     22  C   UNL A   1      31.837  27.680  22.814  1.00  0.00     0.147 A 
BRANCH  21  23
ATOM     23  C   UNL A   1      32.732  28.428  24.991  1.00  0.00     0.358 C 
ATOM     24  O   UNL A   1      33.904  28.770  25.014  1.00  0.00    -0.244 OA
BRANCH  23  25
ATOM     25  O   UNL A   1      31.736  28.928  25.767  1.00  0.00    -0.464 OA
ATOM     26  C   UNL A   1      31.559  30.338  25.667  1.00  0.00     0.282 C 
ENDBRANCH  23  25
ENDBRANCH  21  23
ENDBRANCH  13  17
ENDBRANCH   7   9
ENDBRANCH   6   7
ENDBRANCH   5   6
ENDBRANCH   4   5
ENDBRANCH   3   4
ENDBRANCH   2   3
ENDBRANCH   1   2
BRANCH   1  27
ATOM     27  O   UNL A   1      40.614  21.484  26.968  1.00  0.00    -0.377 OA
BRANCH  27  28
ATOM     28  C   UNL A   1      41.734  21.580  26.103  1.00  0.00     0.188 C 
BRANCH  28  29
ATOM     29  C   UNL A   1      42.637  20.340  25.979  1.00  0.00     0.188 C 
BRANCH  29  30
ATOM     30  O   UNL A   1      43.576  20.418  24.913  1.00  0.00    -0.376 OA
BRANCH  30  31
ATOM     31  C   UNL A   1      44.539  21.461  24.913  1.00  0.00     0.202 C 
BRANCH  31  32
ATOM     32  C   UNL A   1      44.341  22.630  23.931  1.00  0.00     0.261 C 
BRANCH  32  33
ATOM     33  O   UNL A   1      44.019  23.908  24.502  1.00  0.00    -0.460 OA
BRANCH  33  34
ATOM     34  C   UNL A   1      44.832  24.403  25.457  1.00  0.00     0.338 C 
ATOM     35  O   UNL A   1      46.048  24.326  25.503  1.00  0.00    -0.246 OA
BRANCH  34  36
ATOM     36  C   UNL A   1      44.014  25.254  26.348  1.00  0.00     0.060 A 
ATOM     37  C   UNL A   1      44.190  26.643  26.302  1.00  0.00     0.016 A 
ATOM     38  C   UNL A   1      43.071  24.689  27.211  1.00  0.00     0.016 A 
ATOM     39  C   UNL A   1      43.450  27.471  27.146  1.00  0.00     0.010 A 
ATOM     40  C   UNL A   1      42.352  25.518  28.076  1.00  0.00     0.010 A 
ATOM     41  C   UNL A   1      42.565  26.908  28.073  1.00  0.00    -0.014 A 
BRANCH  41  42
ATOM     42  C   UNL A   1      42.036  27.743  29.178  1.00  0.00     0.031 A 
ATOM     43  C   UNL A   1      42.771  27.726  30.491  1.00  0.00     0.074 A 
ATOM     44  C   UNL A   1      40.948  28.516  29.022  1.00  0.00     0.049 A 
ATOM     45  N   UNL A   1      42.479  28.319  31.618  1.00  0.00    -0.248 NA
ATOM     46  C   UNL A   1      44.003  26.923  30.533  1.00  0.00     0.031 C 
ATOM     47  C   UNL A   1      40.179  28.654  27.788  1.00  0.00     0.029 A 
ATOM     48  N   UNL A   1      40.295  29.323  29.921  1.00  0.00    -0.354 N 
ATOM     49  C   UNL A   1      43.482  27.951  32.507  1.00  0.00     0.074 A 
ATOM     50  C   UNL A   1      44.374  27.062  31.796  1.00  0.00     0.031 C 
ATOM     51  C   UNL A   1      39.143  29.482  28.012  1.00  0.00     0.029 A 
ATOM     52  C   UNL A   1      39.158  29.901  29.414  1.00  0.00     0.049 A 
ATOM     53  H   UNL A   1      40.612  29.471  30.841  1.00  0.00     0.167 HD
ATOM     54  C   UNL A   1      43.645  28.326  33.797  1.00  0.00     0.037 A 
ATOM     55  C   UNL A   1      38.223  30.657  30.023  1.00  0.00     0.037 A 
ATOM     56  C   UNL A   1      42.754  29.211  34.499  1.00  0.00     0.049 A 
ATOM     57  C   UNL A   1      38.387  31.002  31.484  1.00  0.00     0.074 A 
ATOM     58  C   UNL A   1      42.847  29.674  35.798  1.00  0.00     0.029 A 
ATOM     59  N   UNL A   1      41.597  29.756  33.961  1.00  0.00    -0.354 N 
ATOM     60  N   UNL A   1      39.353  30.677  32.310  1.00  0.00    -0.248 NA
ATOM     61  C   UNL A   1      37.331  31.824  32.095  1.00  0.00     0.031 C 
ATOM     62  C   UNL A   1      41.711  30.443  36.070  1.00  0.00     0.029 A 
ATOM     63  C   UNL A   1      40.947  30.521  34.915  1.00  0.00     0.049 A 
ATOM     64  H   UNL A   1      41.284  29.618  33.037  1.00  0.00     0.167 HD
ATOM     65  C   UNL A   1      39.038  31.278  33.524  1.00  0.00     0.074 A 
ATOM     66  C   UNL A   1      37.799  31.998  33.323  1.00  0.00     0.031 C 
ATOM     67  C   UNL A   1      39.716  31.238  34.699  1.00  0.00     0.037 A 
BRANCH  54  68
ATOM     68  C   UNL A   1      44.811  27.744  34.545  1.00  0.00     0.064 A 
ATOM     69  C   UNL A   1      46.057  28.387  34.598  1.00  0.00     0.173 A 
ATOM     70  C   UNL A   1      44.668  26.532  35.238  1.00  0.00     0.173 A 
ATOM     71  F   UNL A   1      46.252  29.539  33.939  1.00  0.00    -0.203 F 
ATOM     72  C   UNL A   1      47.125  27.822  35.292  1.00  0.00     0.198 A 
ATOM     73  C   UNL A   1      45.728  25.989  35.959  1.00  0.00     0.198 A 
ATOM     74  F   UNL A   1      43.499  25.876  35.221  1.00  0.00    -0.203 F 
ATOM     75  F   UNL A   1      48.322  28.426  35.282  1.00  0.00    -0.200 F 
ATOM     76  C   UNL A   1      46.957  26.629  35.978  1.00  0.00     0.200 A 
ATOM     77  F   UNL A   1      45.559  24.843  36.632  1.00  0.00    -0.200 F 
ATOM     78  F   UNL A   1      47.984  26.090  36.651  1.00  0.00    -0.200 F 
ENDBRANCH  54  68
BRANCH  55  79
ATOM     79  C   UNL A   1      37.031  31.122  29.263  1.00  0.00     0.064 A 
ATOM     80  C   UNL A   1      35.961  30.260  28.989  1.00  0.00     0.173 A 
ATOM     81  C   UNL A   1      36.949  32.436  28.778  1.00  0.00     0.173 A 
ATOM     82  F   UNL A   1      36.003  28.986  29.407  1.00  0.00    -0.203 F 
ATOM     83  C   UNL A   1      34.864  30.687  28.242  1.00  0.00     0.198 A 
ATOM     84  C   UNL A   1      35.837  32.872  28.060  1.00  0.00     0.198 A 
ATOM     85  F   UNL A   1      37.948  33.301  29.009  1.00  0.00    -0.203 F 
ATOM     86  F   UNL A   1      33.879  29.828  27.951  1.00  0.00    -0.200 F 
ATOM     87  C   UNL A   1      34.799  31.995  27.785  1.00  0.00     0.200 A 
ATOM     88  F   UNL A   1      35.775  34.140  27.631  1.00  0.00    -0.200 F 
ATOM     89  F   UNL A   1      33.743  32.407  27.072  1.00  0.00    -0.200 F 
ENDBRANCH  55  79
BRANCH  67  90
ATOM     90  C   UNL A   1      39.160  32.029  35.851  1.00  0.00     0.064 A 
ATOM     91  C   UNL A   1      38.290  31.459  36.791  1.00  0.00     0.173 A 
ATOM     92  C   UNL A   1      39.546  33.366  36.042  1.00  0.00     0.173 A 
ATOM     93  F   UNL A   1      37.880  30.190  36.649  1.00  0.00    -0.203 F 
ATOM     94  C   UNL A   1      37.805  32.205  37.864  1.00  0.00     0.198 A 
ATOM     95  C   UNL A   1      39.089  34.097  37.134  1.00  0.00     0.198 A 
ATOM     96  F   UNL A   1      40.385  33.958  35.178  1.00  0.00    -0.203 F 
ATOM     97  F   UNL A   1      36.934  31.655  38.721  1.00  0.00    -0.200 F 
ATOM     98  C   UNL A   1      38.212  33.519  38.039  1.00  0.00     0.200 A 
ATOM     99  F   UNL A   1      39.499  35.360  37.312  1.00  0.00    -0.200 F 
ATOM    100  F   UNL A   1      37.753  34.232  39.078  1.00  0.00    -0.200 F 
ENDBRANCH  67  90
ENDBRANCH  41  42
ENDBRANCH  34  36
ENDBRANCH  33  34
ENDBRANCH  32  33
ENDBRANCH  31  32
ENDBRANCH  30  31
ENDBRANCH  29  30
ENDBRANCH  28  29
ENDBRANCH  27  28
ENDBRANCH   1  27
TORSDOF 25
ENDMDL
MODEL 2
REMARK VINA RESULT:      -9.3      0.825      2.076
REMARK SMILES CCC[C@]1(C(=O)OCCOCCOCCOCCOC(=O)c2ccc(-c3c4nc(c(-c5c(F)c(F)c(F)c(F)c5F)c5ccc([nH]5)c(-c5c(F)c(F)c(F)c(F)c5F)c5nc(c(-c6c(F)c(F)c(F)c(F)c6F)c6ccc3[nH]6)C=C5)C=C4)cc2)CCN(c2cncc(C(=O)OC)n2)C1
REMARK SMILES IDX 12 1 11 2 10 3 9 4 8 5 7 6 5 7 6 8 4 9 85 10 98 11 86 12
REMARK SMILES IDX 87 13 3 14 2 15 1 16 88 17 89 18 97 19 90 20 92 21 91 22
REMARK SMILES IDX 93 23 94 24 95 25 96 26 13 27 14 28 15 29 16 30 17 31 18 32
REMARK SMILES IDX 19 33 20 34 21 35 22 36 23 37 84 38 24 39 83 40 25 41 26 42
REMARK SMILES IDX 27 43 77 44 28 45 82 46 76 47 78 48 29 49 81 50 75 51 74 52
REMARK SMILES IDX 30 54 62 55 42 56 61 57 43 58 46 59 60 60 79 61 44 62 45 63
REMARK SMILES IDX 59 65 80 66 47 67 31 68 32 69 40 70 33 71 34 72 38 73 41 74
REMARK SMILES IDX 35 75 36 76 39 77 37 78 63 79 64 80 72 81 65 82 66 83 70 84
REMARK SMILES IDX 73 85 67 86 68 87 71 88 69 89 48 90 49 91 57 92 50 93 51 94
REMARK SMILES IDX 55 95 58 96 52 97 53 98 56 99 54 100
REMARK H PARENT 78 53 46 64
REMARK Flexibility Score: inf
ROOT
ATOM      1  C   UNL A   1      39.731  22.272  26.493  1.00  0.00     0.188 C 
ENDROOT
BRANCH   1   2
ATOM      2  C   UNL A   1      39.237  23.680  26.865  1.00  0.00     0.188 C 
BRANCH   2   3
ATOM      3  O   UNL A   1      37.935  24.104  26.496  1.00  0.00    -0.376 OA
BRANCH   3   4
ATOM      4  C   UNL A   1      36.997  23.171  25.983  1.00  0.00     0.202 C 
BRANCH   4   5
ATOM      5  C   UNL A   1      36.295  23.405  24.631  1.00  0.00     0.261 C 
BRANCH   5   6
ATOM      6  O   UNL A   1      35.823  22.230  23.939  1.00  0.00    -0.463 OA
BRANCH   6   7
ATOM      7  C   UNL A   1      35.016  21.390  24.633  1.00  0.00     0.314 C 
ATOM      8  O   UNL A   1      35.438  20.516  25.385  1.00  0.00    -0.252 OA
BRANCH   7   9
ATOM      9  C   UNL A   1      33.511  21.606  24.386  1.00  0.00     0.087 C 
ATOM     10  C   UNL A   1      32.711  22.416  25.432  1.00  0.00     0.042 C 
ATOM     11  C   UNL A   1      33.504  22.606  23.187  1.00  0.00     0.137 C 
ATOM     12  C   UNL A   1      31.621  23.081  24.616  1.00  0.00     0.119 C 
ATOM     13  N   UNL A   1      32.339  23.458  23.429  1.00  0.00    -0.354 N 
BRANCH   9  14
ATOM     14  C   UNL A   1      32.847  20.251  23.957  1.00  0.00     0.020 C 
BRANCH  14  15
ATOM     15  C   UNL A   1      32.894  19.012  24.872  1.00  0.00    -0.002 C 
ATOM     16  C   UNL A   1      33.882  17.928  24.461  1.00  0.00     0.004 C 
ENDBRANCH  14  15
ENDBRANCH   9  14
BRANCH  13  17
ATOM     17  C   UNL A   1      32.314  24.709  22.881  1.00  0.00     0.148 A 
ATOM     18  C   UNL A   1      33.082  25.076  21.769  1.00  0.00     0.157 A 
ATOM     19  N   UNL A   1      31.496  25.609  23.453  1.00  0.00    -0.221 NA
ATOM     20  N   UNL A   1      33.094  26.318  21.220  1.00  0.00    -0.258 NA
ATOM     21  C   UNL A   1      31.525  26.870  22.945  1.00  0.00     0.169 A 
ATOM     22  C   UNL A   1      32.302  27.213  21.851  1.00  0.00     0.147 A 
BRANCH  21  23
ATOM     23  C   UNL A   1      30.740  27.923  23.627  1.00  0.00     0.358 C 
ATOM     24  O   UNL A   1      29.521  27.908  23.717  1.00  0.00    -0.244 OA
BRANCH  23  25
ATOM     25  O   UNL A   1      31.566  28.893  24.094  1.00  0.00    -0.464 OA
ATOM     26  C   UNL A   1      31.622  28.990  25.514  1.00  0.00     0.282 C 
ENDBRANCH  23  25
ENDBRANCH  21  23
ENDBRANCH  13  17
ENDBRANCH   7   9
ENDBRANCH   6   7
ENDBRANCH   5   6
ENDBRANCH   4   5
ENDBRANCH   3   4
ENDBRANCH   2   3
ENDBRANCH   1   2
BRANCH   1  27
ATOM     27  O   UNL A   1      41.003  21.909  26.984  1.00  0.00    -0.377 OA
BRANCH  27  28
ATOM     28  C   UNL A   1      42.059  21.892  26.037  1.00  0.00     0.188 C 
BRANCH  28  29
ATOM     29  C   UNL A   1      43.104  20.770  26.166  1.00  0.00     0.188 C 
BRANCH  29  30
ATOM     30  O   UNL A   1      44.055  20.745  25.108  1.00  0.00    -0.376 OA
BRANCH  30  31
ATOM     31  C   UNL A   1      45.009  21.792  25.009  1.00  0.00     0.202 C 
BRANCH  31  32
ATOM     32  C   UNL A   1      44.845  22.817  23.872  1.00  0.00     0.261 C 
BRANCH  32  33
ATOM     33  O   UNL A   1      44.788  24.200  24.250  1.00  0.00    -0.460 OA
BRANCH  33  34
ATOM     34  C   UNL A   1      45.538  24.608  25.294  1.00  0.00     0.338 C 
ATOM     35  O   UNL A   1      46.745  24.494  25.424  1.00  0.00    -0.246 OA
BRANCH  34  36
ATOM     36  C   UNL A   1      44.675  25.419  26.179  1.00  0.00     0.060 A 
ATOM     37  C   UNL A   1      44.784  26.815  26.133  1.00  0.00     0.016 A 
ATOM     38  C   UNL A   1      43.754  24.810  27.037  1.00  0.00     0.016 A 
ATOM     39  C   UNL A   1      44.000  27.607  26.972  1.00  0.00     0.010 A 
ATOM     40  C   UNL A   1      42.991  25.604  27.897  1.00  0.00     0.010 A 
ATOM     41  C   UNL A   1      43.137  27.003  27.894  1.00  0.00    -0.014 A 
BRANCH  41  42
ATOM     42  C   UNL A   1      42.562  27.812  28.995  1.00  0.00     0.031 A 
ATOM     43  C   UNL A   1      43.308  27.861  30.300  1.00  0.00     0.074 A 
ATOM     44  C   UNL A   1      41.421  28.506  28.842  1.00  0.00     0.049 A 
ATOM     45  N   UNL A   1      42.986  28.445  31.424  1.00  0.00    -0.248 NA
ATOM     46  C   UNL A   1      44.593  27.145  30.339  1.00  0.00     0.031 C 
ATOM     47  C   UNL A   1      40.633  28.576  27.614  1.00  0.00     0.029 A 
ATOM     48  N   UNL A   1      40.722  29.276  29.738  1.00  0.00    -0.354 N 
ATOM     49  C   UNL A   1      44.021  28.158  32.306  1.00  0.00     0.074 A 
ATOM     50  C   UNL A   1      44.965  27.324  31.597  1.00  0.00     0.031 C 
ATOM     51  C   UNL A   1      39.545  29.332  27.840  1.00  0.00     0.029 A 
ATOM     52  C   UNL A   1      39.543  29.768  29.237  1.00  0.00     0.049 A 
ATOM     53  H   UNL A   1      41.037  29.457  30.653  1.00  0.00     0.167 HD
ATOM     54  C   UNL A   1      44.170  28.558  33.590  1.00  0.00     0.037 A 
ATOM     55  C   UNL A   1      38.564  30.464  29.847  1.00  0.00     0.037 A 
ATOM     56  C   UNL A   1      43.226  29.388  34.292  1.00  0.00     0.049 A 
ATOM     57  C   UNL A   1      38.717  30.837  31.302  1.00  0.00     0.074 A 
ATOM     58  C   UNL A   1      43.299  29.871  35.585  1.00  0.00     0.029 A 
ATOM     59  N   UNL A   1      42.029  29.845  33.759  1.00  0.00    -0.354 N 
ATOM     60  N   UNL A   1      39.711  30.589  32.122  1.00  0.00    -0.248 NA
ATOM     61  C   UNL A   1      37.613  31.591  31.914  1.00  0.00     0.031 C 
ATOM     62  C   UNL A   1      42.115  30.562  35.860  1.00  0.00     0.029 A 
ATOM     63  C   UNL A   1      41.337  30.574  34.712  1.00  0.00     0.049 A 
ATOM     64  H   UNL A   1      41.717  29.675  32.841  1.00  0.00     0.167 HD
ATOM     65  C   UNL A   1      39.367  31.180  33.332  1.00  0.00     0.074 A 
ATOM     66  C   UNL A   1      38.078  31.811  33.136  1.00  0.00     0.031 C 
ATOM     67  C   UNL A   1      40.057  31.202  34.500  1.00  0.00     0.037 A 
BRANCH  54  68
ATOM     68  C   UNL A   1      45.380  28.067  34.333  1.00  0.00     0.064 A 
ATOM     69  C   UNL A   1      45.367  26.873  35.070  1.00  0.00     0.173 A 
ATOM     70  C   UNL A   1      46.578  28.796  34.286  1.00  0.00     0.173 A 
ATOM     71  F   UNL A   1      44.243  26.147  35.162  1.00  0.00    -0.203 F 
ATOM     72  C   UNL A   1      46.500  26.444  35.757  1.00  0.00     0.198 A 
ATOM     73  C   UNL A   1      47.719  28.345  34.946  1.00  0.00     0.198 A 
ATOM     74  F   UNL A   1      46.646  29.943  33.596  1.00  0.00    -0.203 F 
ATOM     75  F   UNL A   1      46.448  25.330  36.501  1.00  0.00    -0.200 F 
ATOM     76  C   UNL A   1      47.676  27.176  35.688  1.00  0.00     0.200 A 
ATOM     77  F   UNL A   1      48.857  29.047  34.866  1.00  0.00    -0.200 F 
ATOM     78  F   UNL A   1      48.768  26.758  36.344  1.00  0.00    -0.200 F 
ENDBRANCH  54  68
BRANCH  55  79
ATOM     79  C   UNL A   1      37.336  30.837  29.094  1.00  0.00     0.064 A 
ATOM     80  C   UNL A   1      37.123  32.151  28.656  1.00  0.00     0.173 A 
ATOM     81  C   UNL A   1      36.341  29.889  28.814  1.00  0.00     0.173 A 
ATOM     82  F   UNL A   1      38.030  33.103  28.922  1.00  0.00    -0.203 F 
ATOM     83  C   UNL A   1      35.953  32.507  27.986  1.00  0.00     0.198 A 
ATOM     84  C   UNL A   1      35.187  30.237  28.115  1.00  0.00     0.198 A 
ATOM     85  F   UNL A   1      36.493  28.618  29.215  1.00  0.00    -0.203 F 
ATOM     86  F   UNL A   1      35.751  33.780  27.623  1.00  0.00    -0.200 F 
ATOM     87  C   UNL A   1      34.990  31.548  27.709  1.00  0.00     0.200 A 
ATOM     88  F   UNL A   1      34.266  29.304  27.841  1.00  0.00    -0.200 F 
ATOM     89  F   UNL A   1      33.868  31.889  27.061  1.00  0.00    -0.200 F 
ENDBRANCH  55  79
BRANCH  67  90
ATOM     90  C   UNL A   1      39.458  31.966  35.649  1.00  0.00     0.064 A 
ATOM     91  C   UNL A   1      39.764  33.315  35.882  1.00  0.00     0.173 A 
ATOM     92  C   UNL A   1      38.525  31.350  36.498  1.00  0.00     0.173 A 
ATOM     93  F   UNL A   1      40.658  33.948  35.109  1.00  0.00    -0.203 F 
ATOM     94  C   UNL A   1      39.179  34.009  36.940  1.00  0.00     0.198 A 
ATOM     95  C   UNL A   1      37.916  32.057  37.530  1.00  0.00     0.198 A 
ATOM     96  F   UNL A   1      38.188  30.064  36.313  1.00  0.00    -0.203 F 
ATOM     97  F   UNL A   1      39.526  35.283  37.175  1.00  0.00    -0.200 F 
ATOM     98  C   UNL A   1      38.250  33.383  37.756  1.00  0.00     0.200 A 
ATOM     99  F   UNL A   1      37.003  31.455  38.305  1.00  0.00    -0.200 F 
ATOM    100  F   UNL A   1      37.680  34.056  38.766  1.00  0.00    -0.200 F 
ENDBRANCH  67  90
ENDBRANCH  41  42
ENDBRANCH  34  36
ENDBRANCH  33  34
ENDBRANCH  32  33
ENDBRANCH  31  32
ENDBRANCH  30  31
ENDBRANCH  29  30
ENDBRANCH  28  29
ENDBRANCH  27  28
ENDBRANCH   1  27
TORSDOF 25
ENDMDL
MODEL 3
REMARK VINA RESULT:      -8.7      1.713      2.816
REMARK SMILES CCC[C@]1(C(=O)OCCOCCOCCOCCOC(=O)c2ccc(-c3c4nc(c(-c5c(F)c(F)c(F)c(F)c5F)c5ccc([nH]5)c(-c5c(F)c(F)c(F)c(F)c5F)c5nc(c(-c6c(F)c(F)c(F)c(F)c6F)c6ccc3[nH]6)C=C5)C=C4)cc2)CCN(c2cncc(C(=O)OC)n2)C1
REMARK SMILES IDX 12 1 11 2 10 3 9 4 8 5 7 6 5 7 6 8 4 9 85 10 98 11 86 12
REMARK SMILES IDX 87 13 3 14 2 15 1 16 88 17 89 18 97 19 90 20 92 21 91 22
REMARK SMILES IDX 93 23 94 24 95 25 96 26 13 27 14 28 15 29 16 30 17 31 18 32
REMARK SMILES IDX 19 33 20 34 21 35 22 36 23 37 84 38 24 39 83 40 25 41 26 42
REMARK SMILES IDX 27 43 77 44 28 45 82 46 76 47 78 48 29 49 81 50 75 51 74 52
REMARK SMILES IDX 30 54 62 55 42 56 61 57 43 58 46 59 60 60 79 61 44 62 45 63
REMARK SMILES IDX 59 65 80 66 47 67 31 68 32 69 40 70 33 71 34 72 38 73 41 74
REMARK SMILES IDX 35 75 36 76 39 77 37 78 63 79 64 80 72 81 65 82 66 83 70 84
REMARK SMILES IDX 73 85 67 86 68 87 71 88 69 89 48 90 49 91 57 92 50 93 51 94
REMARK SMILES IDX 55 95 58 96 52 97 53 98 56 99 54 100
REMARK H PARENT 78 53 46 64
REMARK Flexibility Score: inf
ROOT
ATOM      1  C   UNL A   1      37.050  23.057  24.698  1.00  0.00     0.188 C 
ENDROOT
BRANCH   1   2
ATOM      2  C   UNL A   1      35.637  22.889  24.115  1.00  0.00     0.188 C 
BRANCH   2   3
ATOM      3  O   UNL A   1      34.765  21.894  24.625  1.00  0.00    -0.376 OA
BRANCH   3   4
ATOM      4  C   UNL A   1      33.656  21.452  23.857  1.00  0.00     0.202 C 
BRANCH   4   5
ATOM      5  C   UNL A   1      32.347  20.997  24.533  1.00  0.00     0.261 C 
BRANCH   5   6
ATOM      6  O   UNL A   1      31.216  21.883  24.407  1.00  0.00    -0.463 OA
BRANCH   6   7
ATOM      7  C   UNL A   1      31.483  23.204  24.256  1.00  0.00     0.314 C 
ATOM      8  O   UNL A   1      31.661  23.737  23.165  1.00  0.00    -0.252 OA
BRANCH   7   9
ATOM      9  C   UNL A   1      31.568  23.989  25.579  1.00  0.00     0.087 C 
ATOM     10  C   UNL A   1      32.938  24.579  25.988  1.00  0.00     0.042 C 
ATOM     11  C   UNL A   1      30.784  25.298  25.247  1.00  0.00     0.137 C 
ATOM     12  C   UNL A   1      32.574  25.823  26.774  1.00  0.00     0.119 C 
ATOM     13  N   UNL A   1      31.477  26.342  26.002  1.00  0.00    -0.354 N 
BRANCH   9  14
ATOM     14  C   UNL A   1      30.831  23.196  26.713  1.00  0.00     0.020 C 
BRANCH  14  15
ATOM     15  C   UNL A   1      29.319  23.366  26.956  1.00  0.00    -0.002 C 
ATOM     16  C   UNL A   1      28.622  22.189  27.624  1.00  0.00     0.004 C 
ENDBRANCH  14  15
ENDBRANCH   9  14
BRANCH  13  17
ATOM     17  C   UNL A   1      31.383  27.635  25.575  1.00  0.00     0.148 A 
ATOM     18  C   UNL A   1      31.935  28.717  26.272  1.00  0.00     0.157 A 
ATOM     19  N   UNL A   1      30.730  27.851  24.420  1.00  0.00    -0.221 NA
ATOM     20  N   UNL A   1      31.835  30.013  25.883  1.00  0.00    -0.258 NA
ATOM     21  C   UNL A   1      30.582  29.146  24.034  1.00  0.00     0.169 A 
ATOM     22  C   UNL A   1      31.127  30.201  24.747  1.00  0.00     0.147 A 
BRANCH  21  23
ATOM     23  C   UNL A   1      29.757  29.436  22.840  1.00  0.00     0.358 C 
ATOM     24  O   UNL A   1      30.051  29.076  21.710  1.00  0.00    -0.244 OA
BRANCH  23  25
ATOM     25  O   UNL A   1      28.671  30.171  23.189  1.00  0.00    -0.464 OA
ATOM     26  C   UNL A   1      27.714  30.346  22.149  1.00  0.00     0.282 C 
ENDBRANCH  23  25
ENDBRANCH  21  23
ENDBRANCH  13  17
ENDBRANCH   7   9
ENDBRANCH   6   7
ENDBRANCH   5   6
ENDBRANCH   4   5
ENDBRANCH   3   4
ENDBRANCH   2   3
ENDBRANCH   1   2
BRANCH   1  27
ATOM     27  O   UNL A   1      37.885  21.920  24.645  1.00  0.00    -0.377 OA
BRANCH  27  28
ATOM     28  C   UNL A   1      38.526  21.556  25.856  1.00  0.00     0.188 C 
BRANCH  28  29
ATOM     29  C   UNL A   1      39.445  22.603  26.510  1.00  0.00     0.188 C 
BRANCH  29  30
ATOM     30  O   UNL A   1      40.425  22.045  27.378  1.00  0.00    -0.376 OA
BRANCH  30  31
ATOM     31  C   UNL A   1      41.452  21.231  26.832  1.00  0.00     0.202 C 
BRANCH  31  32
ATOM     32  C   UNL A   1      42.308  21.813  25.692  1.00  0.00     0.261 C 
BRANCH  32  33
ATOM     33  O   UNL A   1      43.583  22.364  26.057  1.00  0.00    -0.460 OA
BRANCH  33  34
ATOM     34  C   UNL A   1      43.887  23.605  25.629  1.00  0.00     0.338 C 
ATOM     35  O   UNL A   1      44.423  23.913  24.578  1.00  0.00    -0.246 OA
BRANCH  34  36
ATOM     36  C   UNL A   1      43.264  24.569  26.563  1.00  0.00     0.060 A 
ATOM     37  C   UNL A   1      42.771  25.778  26.056  1.00  0.00     0.016 A 
ATOM     38  C   UNL A   1      43.154  24.277  27.926  1.00  0.00     0.016 A 
ATOM     39  C   UNL A   1      42.199  26.716  26.915  1.00  0.00     0.010 A 
ATOM     40  C   UNL A   1      42.607  25.230  28.789  1.00  0.00     0.010 A 
ATOM     41  C   UNL A   1      42.161  26.468  28.291  1.00  0.00    -0.014 A 
BRANCH  41  42
ATOM     42  C   UNL A   1      41.866  27.580  29.226  1.00  0.00     0.031 A 
ATOM     43  C   UNL A   1      42.801  27.797  30.385  1.00  0.00     0.074 A 
ATOM     44  C   UNL A   1      40.813  28.395  29.046  1.00  0.00     0.049 A 
ATOM     45  N   UNL A   1      42.729  28.658  31.366  1.00  0.00    -0.248 NA
ATOM     46  C   UNL A   1      43.976  26.913  30.443  1.00  0.00     0.031 C 
ATOM     47  C   UNL A   1      39.863  28.317  27.939  1.00  0.00     0.029 A 
ATOM     48  N   UNL A   1      40.360  29.444  29.807  1.00  0.00    -0.354 N 
ATOM     49  C   UNL A   1      43.840  28.412  32.163  1.00  0.00     0.074 A 
ATOM     50  C   UNL A   1      44.554  27.304  31.569  1.00  0.00     0.031 C 
ATOM     51  C   UNL A   1      38.927  29.267  28.103  1.00  0.00     0.029 A 
ATOM     52  C   UNL A   1      39.191  29.994  29.345  1.00  0.00     0.049 A 
ATOM     53  H   UNL A   1      40.830  29.770  30.609  1.00  0.00     0.167 HD
ATOM     54  C   UNL A   1      44.231  29.056  33.287  1.00  0.00     0.037 A 
ATOM     55  C   UNL A   1      38.412  30.954  29.881  1.00  0.00     0.037 A 
ATOM     56  C   UNL A   1      43.517  30.159  33.875  1.00  0.00     0.049 A 
ATOM     57  C   UNL A   1      38.829  31.609  31.176  1.00  0.00     0.074 A 
ATOM     58  C   UNL A   1      43.845  30.897  34.997  1.00  0.00     0.029 A 
ATOM     59  N   UNL A   1      42.321  30.670  33.393  1.00  0.00    -0.354 N 
ATOM     60  N   UNL A   1      39.895  31.394  31.909  1.00  0.00    -0.248 NA
ATOM     61  C   UNL A   1      37.934  32.644  31.715  1.00  0.00     0.031 C 
ATOM     62  C   UNL A   1      42.813  31.810  35.235  1.00  0.00     0.029 A 
ATOM     63  C   UNL A   1      41.879  31.692  34.218  1.00  0.00     0.049 A 
ATOM     64  H   UNL A   1      41.855  30.354  32.585  1.00  0.00     0.167 HD
ATOM     65  C   UNL A   1      39.816  32.284  32.974  1.00  0.00     0.074 A 
ATOM     66  C   UNL A   1      38.603  33.051  32.785  1.00  0.00     0.031 C 
ATOM     67  C   UNL A   1      40.672  32.452  34.013  1.00  0.00     0.037 A 
BRANCH  54  68
ATOM     68  C   UNL A   1      45.468  28.555  33.979  1.00  0.00     0.064 A 
ATOM     69  C   UNL A   1      46.742  29.065  33.687  1.00  0.00     0.173 A 
ATOM     70  C   UNL A   1      45.369  27.563  34.966  1.00  0.00     0.173 A 
ATOM     71  F   UNL A   1      46.895  30.003  32.739  1.00  0.00    -0.203 F 
ATOM     72  C   UNL A   1      47.874  28.578  34.336  1.00  0.00     0.198 A 
ATOM     73  C   UNL A   1      46.499  27.104  35.638  1.00  0.00     0.198 A 
ATOM     74  F   UNL A   1      44.175  27.042  35.285  1.00  0.00    -0.203 F 
ATOM     75  F   UNL A   1      49.087  29.039  34.001  1.00  0.00    -0.200 F 
ATOM     76  C   UNL A   1      47.750  27.604  35.316  1.00  0.00     0.200 A 
ATOM     77  F   UNL A   1      46.375  26.173  36.593  1.00  0.00    -0.200 F 
ATOM     78  F   UNL A   1      48.840  27.141  35.944  1.00  0.00    -0.200 F 
ENDBRANCH  54  68
BRANCH  55  79
ATOM     79  C   UNL A   1      37.141  31.342  29.210  1.00  0.00     0.064 A 
ATOM     80  C   UNL A   1      36.057  30.456  29.139  1.00  0.00     0.173 A 
ATOM     81  C   UNL A   1      36.994  32.601  28.609  1.00  0.00     0.173 A 
ATOM     82  F   UNL A   1      36.156  29.230  29.673  1.00  0.00    -0.203 F 
ATOM     83  C   UNL A   1      34.882  30.808  28.474  1.00  0.00     0.198 A 
ATOM     84  C   UNL A   1      35.808  32.963  27.974  1.00  0.00     0.198 A 
ATOM     85  F   UNL A   1      38.003  33.484  28.645  1.00  0.00    -0.203 F 
ATOM     86  F   UNL A   1      33.881  29.924  28.376  1.00  0.00    -0.200 F 
ATOM     87  C   UNL A   1      34.756  32.063  27.900  1.00  0.00     0.200 A 
ATOM     88  F   UNL A   1      35.687  34.182  27.431  1.00  0.00    -0.200 F 
ATOM     89  F   UNL A   1      33.625  32.402  27.266  1.00  0.00    -0.200 F 
ENDBRANCH  55  79
BRANCH  67  90
ATOM     90  C   UNL A   1      40.355  33.535  35.007  1.00  0.00     0.064 A 
ATOM     91  C   UNL A   1      40.701  34.876  34.779  1.00  0.00     0.173 A 
ATOM     92  C   UNL A   1      39.649  33.232  36.183  1.00  0.00     0.173 A 
ATOM     93  F   UNL A   1      41.386  35.219  33.679  1.00  0.00    -0.203 F 
ATOM     94  C   UNL A   1      40.376  35.866  35.705  1.00  0.00     0.198 A 
ATOM     95  C   UNL A   1      39.296  34.229  37.086  1.00  0.00     0.198 A 
ATOM     96  F   UNL A   1      39.284  31.968  36.445  1.00  0.00    -0.203 F 
ATOM     97  F   UNL A   1      40.762  37.132  35.490  1.00  0.00    -0.200 F 
ATOM     98  C   UNL A   1      39.667  35.544  36.851  1.00  0.00     0.200 A 
ATOM     99  F   UNL A   1      38.592  33.919  38.184  1.00  0.00    -0.200 F 
ATOM    100  F   UNL A   1      39.346  36.500  37.735  1.00  0.00    -0.200 F 
ENDBRANCH  67  90
ENDBRANCH  41  42
ENDBRANCH  34  36
ENDBRANCH  33  34
ENDBRANCH  32  33
ENDBRANCH  31  32
ENDBRANCH  30  31
ENDBRANCH  29  30
ENDBRANCH  28  29
ENDBRANCH  27  28
ENDBRANCH   1  27
TORSDOF 25
ENDMDL
