MODEL 1
REMARK VINA RESULT:     -10.2      0.000      0.000
REMARK SMILES O=C(OCCOCCOCCOCCOC(=O)[C@@H]1C[C@H]1C(=O)N[C@@H]1CONC1=O)c1ccc(-c2c3nc(c(-c4c(F)c(F)c(F)c(F)c4F)c4ccc([nH]4)c(-c4c(F)c(F)c(F)c(F)c4F)c4nc(c(-c5c(F)c(F)c(F)c(F)c5F)c5ccc2[nH]5)C=C4)C=C3)cc1
REMARK SMILES IDX 9 1 8 2 7 3 6 4 5 5 4 6 3 7 2 8 1 9 30 10 31 11 92 12 32 13
REMARK SMILES IDX 91 14 33 15 34 16 35 17 85 18 36 19 90 20 84 21 86 22 37 23
REMARK SMILES IDX 89 24 83 25 82 26 38 28 70 29 50 30 69 31 51 32 54 33 68 34
REMARK SMILES IDX 87 35 52 36 53 37 67 39 88 40 55 41 39 42 40 43 48 44 41 45
REMARK SMILES IDX 42 46 46 47 49 48 43 49 44 50 47 51 45 52 71 53 72 54 80 55
REMARK SMILES IDX 73 56 74 57 78 58 81 59 75 60 76 61 79 62 77 63 56 64 57 65
REMARK SMILES IDX 65 66 58 67 59 68 63 69 66 70 60 71 61 72 64 73 62 74 10 75
REMARK SMILES IDX 11 76 12 77 13 78 14 79 15 80 16 81 17 82 18 83 19 84 20 85
REMARK SMILES IDX 21 86 22 87 23 88 24 90 25 91 28 92 26 93 27 94 29 95
REMARK H PARENT 86 27 54 38 23 89 27 96
REMARK Flexibility Score: inf
ROOT
ATOM      1  O   UNL A   1      32.038  24.391  25.793  1.00  0.00    -0.377 OA
ENDROOT
BRANCH   1   2
ATOM      2  C   UNL A   1      32.369  25.635  26.386  1.00  0.00     0.188 C 
BRANCH   2   3
ATOM      3  C   UNL A   1      31.287  26.703  26.508  1.00  0.00     0.188 C 
BRANCH   3   4
ATOM      4  O   UNL A   1      31.519  27.605  27.586  1.00  0.00    -0.376 OA
BRANCH   4   5
ATOM      5  C   UNL A   1      31.658  28.989  27.255  1.00  0.00     0.202 C 
BRANCH   5   6
ATOM      6  C   UNL A   1      32.709  29.339  26.203  1.00  0.00     0.261 C 
BRANCH   6   7
ATOM      7  O   UNL A   1      33.229  30.675  26.277  1.00  0.00    -0.460 OA
BRANCH   7   8
ATOM      8  C   UNL A   1      33.774  31.347  27.316  1.00  0.00     0.338 C 
ATOM      9  O   UNL A   1      33.200  32.360  27.715  1.00  0.00    -0.246 OA
BRANCH   8  10
ATOM     10  C   UNL A   1      35.043  30.968  28.002  1.00  0.00     0.060 A 
ATOM     11  C   UNL A   1      35.379  29.690  28.439  1.00  0.00     0.016 A 
ATOM     12  C   UNL A   1      36.019  31.972  28.116  1.00  0.00     0.016 A 
ATOM     13  C   UNL A   1      36.607  29.392  28.990  1.00  0.00     0.010 A 
ATOM     14  C   UNL A   1      37.266  31.693  28.677  1.00  0.00     0.010 A 
ATOM     15  C   UNL A   1      37.542  30.401  29.133  1.00  0.00    -0.014 A 
BRANCH  15  16
ATOM     16  C   UNL A   1      38.688  30.113  29.996  1.00  0.00     0.031 A 
ATOM     17  C   UNL A   1      39.751  29.240  29.423  1.00  0.00     0.074 A 
ATOM     18  C   UNL A   1      38.818  30.742  31.172  1.00  0.00     0.049 A 
ATOM     19  N   UNL A   1      40.777  28.688  30.003  1.00  0.00    -0.248 NA
ATOM     20  C   UNL A   1      39.642  28.949  27.981  1.00  0.00     0.031 C 
ATOM     21  C   UNL A   1      37.907  31.766  31.688  1.00  0.00     0.029 A 
ATOM     22  N   UNL A   1      39.772  30.616  32.141  1.00  0.00    -0.354 N 
ATOM     23  C   UNL A   1      41.393  27.933  29.017  1.00  0.00     0.074 A 
ATOM     24  C   UNL A   1      40.641  28.106  27.797  1.00  0.00     0.031 C 
ATOM     25  C   UNL A   1      38.332  32.154  32.901  1.00  0.00     0.029 A 
ATOM     26  C   UNL A   1      39.484  31.340  33.270  1.00  0.00     0.049 A 
ATOM     27  H   UNL A   1      40.581  30.064  32.040  1.00  0.00     0.167 HD
ATOM     28  C   UNL A   1      42.482  27.145  29.153  1.00  0.00     0.037 A 
ATOM     29  C   UNL A   1      40.053  31.271  34.486  1.00  0.00     0.037 A 
ATOM     30  C   UNL A   1      43.178  27.021  30.403  1.00  0.00     0.049 A 
ATOM     31  C   UNL A   1      41.192  30.303  34.658  1.00  0.00     0.074 A 
ATOM     32  C   UNL A   1      44.258  26.226  30.722  1.00  0.00     0.029 A 
ATOM     33  N   UNL A   1      42.834  27.726  31.554  1.00  0.00    -0.354 N 
ATOM     34  N   UNL A   1      41.735  29.505  33.765  1.00  0.00    -0.248 NA
ATOM     35  C   UNL A   1      41.790  30.209  35.992  1.00  0.00     0.031 C 
ATOM     36  C   UNL A   1      44.523  26.398  32.085  1.00  0.00     0.029 A 
ATOM     37  C   UNL A   1      43.661  27.362  32.597  1.00  0.00     0.049 A 
ATOM     38  H   UNL A   1      42.107  28.386  31.615  1.00  0.00     0.167 HD
ATOM     39  C   UNL A   1      42.753  28.830  34.418  1.00  0.00     0.074 A 
ATOM     40  C   UNL A   1      42.751  29.317  35.786  1.00  0.00     0.031 C 
ATOM     41  C   UNL A   1      43.616  27.899  33.938  1.00  0.00     0.037 A 
BRANCH  28  42
ATOM     42  C   UNL A   1      42.858  26.300  27.971  1.00  0.00     0.064 A 
ATOM     43  C   UNL A   1      43.787  26.718  27.006  1.00  0.00     0.173 A 
ATOM     44  C   UNL A   1      42.192  25.084  27.750  1.00  0.00     0.173 A 
ATOM     45  F   UNL A   1      44.428  27.889  27.146  1.00  0.00    -0.203 F 
ATOM     46  C   UNL A   1      43.990  25.983  25.838  1.00  0.00     0.198 A 
ATOM     47  C   UNL A   1      42.425  24.333  26.602  1.00  0.00     0.198 A 
ATOM     48  F   UNL A   1      41.284  24.640  28.632  1.00  0.00    -0.203 F 
ATOM     49  F   UNL A   1      44.806  26.453  24.885  1.00  0.00    -0.200 F 
ATOM     50  C   UNL A   1      43.310  24.791  25.638  1.00  0.00     0.200 A 
ATOM     51  F   UNL A   1      41.768  23.179  26.413  1.00  0.00    -0.200 F 
ATOM     52  F   UNL A   1      43.488  24.097  24.506  1.00  0.00    -0.200 F 
ENDBRANCH  28  42
BRANCH  29  53
ATOM     53  C   UNL A   1      39.491  32.070  35.606  1.00  0.00     0.064 A 
ATOM     54  C   UNL A   1      38.559  31.527  36.497  1.00  0.00     0.173 A 
ATOM     55  C   UNL A   1      39.921  33.389  35.839  1.00  0.00     0.173 A 
ATOM     56  F   UNL A   1      38.106  30.278  36.312  1.00  0.00    -0.203 F 
ATOM     57  C   UNL A   1      38.076  32.268  37.576  1.00  0.00     0.198 A 
ATOM     58  C   UNL A   1      39.461  34.118  36.933  1.00  0.00     0.198 A 
ATOM     59  F   UNL A   1      40.817  33.959  35.020  1.00  0.00    -0.203 F 
ATOM     60  F   UNL A   1      37.165  31.733  38.399  1.00  0.00    -0.200 F 
ATOM     61  C   UNL A   1      38.535  33.559  37.798  1.00  0.00     0.200 A 
ATOM     62  F   UNL A   1      39.925  35.356  37.154  1.00  0.00    -0.200 F 
ATOM     63  F   UNL A   1      38.083  34.263  38.845  1.00  0.00    -0.200 F 
ENDBRANCH  29  53
BRANCH  41  64
ATOM     64  C   UNL A   1      44.665  27.394  34.880  1.00  0.00     0.064 A 
ATOM     65  C   UNL A   1      44.473  26.235  35.643  1.00  0.00     0.173 A 
ATOM     66  C   UNL A   1      45.920  28.020  34.922  1.00  0.00     0.173 A 
ATOM     67  F   UNL A   1      43.285  25.613  35.643  1.00  0.00    -0.203 F 
ATOM     68  C   UNL A   1      45.505  25.720  36.420  1.00  0.00     0.198 A 
ATOM     69  C   UNL A   1      46.958  27.483  35.672  1.00  0.00     0.198 A 
ATOM     70  F   UNL A   1      46.147  29.127  34.200  1.00  0.00    -0.203 F 
ATOM     71  F   UNL A   1      45.299  24.625  37.164  1.00  0.00    -0.200 F 
ATOM     72  C   UNL A   1      46.750  26.335  36.421  1.00  0.00     0.200 A 
ATOM     73  F   UNL A   1      48.165  28.064  35.653  1.00  0.00    -0.200 F 
ATOM     74  F   UNL A   1      47.753  25.817  37.143  1.00  0.00    -0.200 F 
ENDBRANCH  41  64
ENDBRANCH  15  16
ENDBRANCH   8  10
ENDBRANCH   7   8
ENDBRANCH   6   7
ENDBRANCH   5   6
ENDBRANCH   4   5
ENDBRANCH   3   4
ENDBRANCH   2   3
ENDBRANCH   1   2
BRANCH   1  75
ATOM     75  C   UNL A   1      32.354  23.208  26.495  1.00  0.00     0.188 C 
BRANCH  75  76
ATOM     76  C   UNL A   1      33.645  22.436  26.171  1.00  0.00     0.188 C 
BRANCH  76  77
ATOM     77  O   UNL A   1      33.765  21.660  24.999  1.00  0.00    -0.376 OA
BRANCH  77  78
ATOM     78  C   UNL A   1      33.219  22.094  23.761  1.00  0.00     0.202 C 
BRANCH  78  79
ATOM     79  C   UNL A   1      33.949  22.990  22.737  1.00  0.00     0.261 C 
BRANCH  79  80
ATOM     80  O   UNL A   1      33.866  24.394  22.974  1.00  0.00    -0.463 OA
BRANCH  80  81
ATOM     81  C   UNL A   1      33.221  25.168  22.067  1.00  0.00     0.309 C 
ATOM     82  O   UNL A   1      33.025  24.899  20.887  1.00  0.00    -0.252 OA
BRANCH  81  83
ATOM     83  C   UNL A   1      32.558  26.301  22.754  1.00  0.00     0.112 C 
ATOM     84  C   UNL A   1      31.040  26.301  22.796  1.00  0.00     0.030 C 
ATOM     85  C   UNL A   1      31.772  27.429  22.137  1.00  0.00     0.093 C 
BRANCH  85  86
ATOM     86  C   UNL A   1      32.074  28.791  22.665  1.00  0.00     0.224 C 
ATOM     87  O   UNL A   1      33.257  29.087  22.818  1.00  0.00    -0.275 OA
ATOM     88  N   UNL A   1      31.142  29.731  23.027  1.00  0.00    -0.342 N 
ATOM     89  H   UNL A   1      31.537  30.565  23.373  1.00  0.00     0.164 HD
BRANCH  88  90
ATOM     90  C   UNL A   1      29.691  29.740  23.001  1.00  0.00     0.202 C 
ATOM     91  C   UNL A   1      29.055  29.939  21.628  1.00  0.00     0.228 C 
ATOM     92  C   UNL A   1      29.013  30.934  23.636  1.00  0.00     0.268 C 
ATOM     93  O   UNL A   1      27.673  30.235  21.922  1.00  0.00    -0.271 OA
ATOM     94  N   UNL A   1      27.737  30.992  23.119  1.00  0.00    -0.233 N 
ATOM     95  O   UNL A   1      29.473  31.711  24.451  1.00  0.00    -0.270 OA
ATOM     96  H   UNL A   1      26.984  31.485  23.520  1.00  0.00     0.199 HD
ENDBRANCH  88  90
ENDBRANCH  85  86
ENDBRANCH  81  83
ENDBRANCH  80  81
ENDBRANCH  79  80
ENDBRANCH  78  79
ENDBRANCH  77  78
ENDBRANCH  76  77
ENDBRANCH  75  76
ENDBRANCH   1  75
TORSDOF 22
ENDMDL
MODEL 2
REMARK VINA RESULT:     -10.0      3.095      8.000
REMARK SMILES O=C(OCCOCCOCCOCCOC(=O)[C@@H]1C[C@H]1C(=O)N[C@@H]1CONC1=O)c1ccc(-c2c3nc(c(-c4c(F)c(F)c(F)c(F)c4F)c4ccc([nH]4)c(-c4c(F)c(F)c(F)c(F)c4F)c4nc(c(-c5c(F)c(F)c(F)c(F)c5F)c5ccc2[nH]5)C=C4)C=C3)cc1
REMARK SMILES IDX 9 1 8 2 7 3 6 4 5 5 4 6 3 7 2 8 1 9 30 10 31 11 92 12 32 13
REMARK SMILES IDX 91 14 33 15 34 16 35 17 85 18 36 19 90 20 84 21 86 22 37 23
REMARK SMILES IDX 89 24 83 25 82 26 38 28 70 29 50 30 69 31 51 32 54 33 68 34
REMARK SMILES IDX 87 35 52 36 53 37 67 39 88 40 55 41 39 42 40 43 48 44 41 45
REMARK SMILES IDX 42 46 46 47 49 48 43 49 44 50 47 51 45 52 71 53 72 54 80 55
REMARK SMILES IDX 73 56 74 57 78 58 81 59 75 60 76 61 79 62 77 63 56 64 57 65
REMARK SMILES IDX 65 66 58 67 59 68 63 69 66 70 60 71 61 72 64 73 62 74 10 75
REMARK SMILES IDX 11 76 12 77 13 78 14 79 15 80 16 81 17 82 18 83 19 84 20 85
REMARK SMILES IDX 21 86 22 87 23 88 24 90 25 91 28 92 26 93 27 94 29 95
REMARK H PARENT 86 27 54 38 23 89 27 96
REMARK Flexibility Score: inf
ROOT
ATOM      1  O   UNL A   1      37.938  21.754  25.004  1.00  0.00    -0.377 OA
ENDROOT
BRANCH   1   2
ATOM      2  C   UNL A   1      38.317  22.497  26.150  1.00  0.00     0.188 C 
BRANCH   2   3
ATOM      3  C   UNL A   1      39.701  22.271  26.749  1.00  0.00     0.188 C 
BRANCH   3   4
ATOM      4  O   UNL A   1      40.431  21.246  26.083  1.00  0.00    -0.376 OA
BRANCH   4   5
ATOM      5  C   UNL A   1      41.725  20.929  26.602  1.00  0.00     0.202 C 
BRANCH   5   6
ATOM      6  C   UNL A   1      42.926  21.437  25.805  1.00  0.00     0.261 C 
BRANCH   6   7
ATOM      7  O   UNL A   1      42.729  22.689  25.132  1.00  0.00    -0.460 OA
BRANCH   7   8
ATOM      8  C   UNL A   1      43.309  23.893  25.333  1.00  0.00     0.338 C 
ATOM      9  O   UNL A   1      44.178  24.257  24.540  1.00  0.00    -0.246 OA
BRANCH   8  10
ATOM     10  C   UNL A   1      42.996  24.809  26.468  1.00  0.00     0.060 A 
ATOM     11  C   UNL A   1      42.313  24.458  27.629  1.00  0.00     0.016 A 
ATOM     12  C   UNL A   1      43.532  26.105  26.396  1.00  0.00     0.016 A 
ATOM     13  C   UNL A   1      42.132  25.334  28.679  1.00  0.00     0.010 A 
ATOM     14  C   UNL A   1      43.353  27.010  27.443  1.00  0.00     0.010 A 
ATOM     15  C   UNL A   1      42.630  26.620  28.574  1.00  0.00    -0.014 A 
BRANCH  15  16
ATOM     16  C   UNL A   1      42.147  27.590  29.557  1.00  0.00     0.031 A 
ATOM     17  C   UNL A   1      42.967  27.753  30.791  1.00  0.00     0.074 A 
ATOM     18  C   UNL A   1      41.109  28.384  29.262  1.00  0.00     0.049 A 
ATOM     19  N   UNL A   1      42.699  28.400  31.887  1.00  0.00    -0.248 NA
ATOM     20  C   UNL A   1      44.284  27.089  30.785  1.00  0.00     0.031 C 
ATOM     21  C   UNL A   1      40.399  28.408  27.981  1.00  0.00     0.029 A 
ATOM     22  N   UNL A   1      40.476  29.329  30.019  1.00  0.00    -0.354 N 
ATOM     23  C   UNL A   1      43.780  28.165  32.724  1.00  0.00     0.074 A 
ATOM     24  C   UNL A   1      44.716  27.332  32.008  1.00  0.00     0.031 C 
ATOM     25  C   UNL A   1      39.403  29.305  28.053  1.00  0.00     0.029 A 
ATOM     26  C   UNL A   1      39.359  29.840  29.408  1.00  0.00     0.049 A 
ATOM     27  H   UNL A   1      40.788  29.613  30.908  1.00  0.00     0.167 HD
ATOM     28  C   UNL A   1      43.939  28.600  33.993  1.00  0.00     0.037 A 
ATOM     29  C   UNL A   1      38.376  30.591  29.936  1.00  0.00     0.037 A 
ATOM     30  C   UNL A   1      42.960  29.426  34.642  1.00  0.00     0.049 A 
ATOM     31  C   UNL A   1      38.506  30.972  31.386  1.00  0.00     0.074 A 
ATOM     32  C   UNL A   1      42.942  29.902  35.935  1.00  0.00     0.029 A 
ATOM     33  N   UNL A   1      41.803  29.890  34.019  1.00  0.00    -0.354 N 
ATOM     34  N   UNL A   1      39.472  30.683  32.229  1.00  0.00    -0.248 NA
ATOM     35  C   UNL A   1      37.419  31.764  31.965  1.00  0.00     0.031 C 
ATOM     36  C   UNL A   1      41.740  30.596  36.115  1.00  0.00     0.029 A 
ATOM     37  C   UNL A   1      41.046  30.623  34.910  1.00  0.00     0.049 A 
ATOM     38  H   UNL A   1      41.561  29.719  33.080  1.00  0.00     0.167 HD
ATOM     39  C   UNL A   1      39.126  31.275  33.433  1.00  0.00     0.074 A 
ATOM     40  C   UNL A   1      37.856  31.942  33.205  1.00  0.00     0.031 C 
ATOM     41  C   UNL A   1      39.792  31.278  34.615  1.00  0.00     0.037 A 
BRANCH  28  42
ATOM     42  C   UNL A   1      45.125  28.072  34.746  1.00  0.00     0.064 A 
ATOM     43  C   UNL A   1      46.361  28.737  34.774  1.00  0.00     0.173 A 
ATOM     44  C   UNL A   1      45.047  26.816  35.369  1.00  0.00     0.173 A 
ATOM     45  F   UNL A   1      46.505  29.925  34.165  1.00  0.00    -0.203 F 
ATOM     46  C   UNL A   1      47.485  28.140  35.343  1.00  0.00     0.198 A 
ATOM     47  C   UNL A   1      46.163  26.240  35.970  1.00  0.00     0.198 A 
ATOM     48  F   UNL A   1      43.897  26.128  35.362  1.00  0.00    -0.203 F 
ATOM     49  F   UNL A   1      48.676  28.750  35.269  1.00  0.00    -0.200 F 
ATOM     50  C   UNL A   1      47.385  26.893  35.942  1.00  0.00     0.200 A 
ATOM     51  F   UNL A   1      46.061  25.035  36.550  1.00  0.00    -0.200 F 
ATOM     52  F   UNL A   1      48.471  26.311  36.467  1.00  0.00    -0.200 F 
ENDBRANCH  28  42
BRANCH  29  53
ATOM     53  C   UNL A   1      37.188  30.930  29.111  1.00  0.00     0.064 A 
ATOM     54  C   UNL A   1      36.214  29.974  28.801  1.00  0.00     0.173 A 
ATOM     55  C   UNL A   1      36.976  32.244  28.656  1.00  0.00     0.173 A 
ATOM     56  F   UNL A   1      36.375  28.704  29.198  1.00  0.00    -0.203 F 
ATOM     57  C   UNL A   1      35.077  30.315  28.069  1.00  0.00     0.198 A 
ATOM     58  C   UNL A   1      35.825  32.590  27.952  1.00  0.00     0.198 A 
ATOM     59  F   UNL A   1      37.874  33.203  28.928  1.00  0.00    -0.203 F 
ATOM     60  F   UNL A   1      34.173  29.374  27.764  1.00  0.00    -0.200 F 
ATOM     61  C   UNL A   1      34.879  31.624  27.654  1.00  0.00     0.200 A 
ATOM     62  F   UNL A   1      35.631  33.861  27.573  1.00  0.00    -0.200 F 
ATOM     63  F   UNL A   1      33.777  31.953  26.966  1.00  0.00    -0.200 F 
ENDBRANCH  29  53
BRANCH  41  64
ATOM     64  C   UNL A   1      39.191  32.072  35.733  1.00  0.00     0.064 A 
ATOM     65  C   UNL A   1      38.371  31.478  36.701  1.00  0.00     0.173 A 
ATOM     66  C   UNL A   1      39.543  33.421  35.892  1.00  0.00     0.173 A 
ATOM     67  F   UNL A   1      37.999  30.196  36.579  1.00  0.00    -0.203 F 
ATOM     68  C   UNL A   1      37.923  32.212  37.794  1.00  0.00     0.198 A 
ATOM     69  C   UNL A   1      39.122  34.140  37.004  1.00  0.00     0.198 A 
ATOM     70  F   UNL A   1      40.334  34.025  34.992  1.00  0.00    -0.203 F 
ATOM     71  F   UNL A   1      37.119  31.637  38.699  1.00  0.00    -0.200 F 
ATOM     72  C   UNL A   1      38.311  33.536  37.953  1.00  0.00     0.200 A 
ATOM     73  F   UNL A   1      39.517  35.409  37.167  1.00  0.00    -0.200 F 
ATOM     74  F   UNL A   1      37.906  34.230  39.025  1.00  0.00    -0.200 F 
ENDBRANCH  41  64
ENDBRANCH  15  16
ENDBRANCH   8  10
ENDBRANCH   7   8
ENDBRANCH   6   7
ENDBRANCH   5   6
ENDBRANCH   4   5
ENDBRANCH   3   4
ENDBRANCH   2   3
ENDBRANCH   1   2
BRANCH   1  75
ATOM     75  C   UNL A   1      36.776  22.144  24.304  1.00  0.00     0.188 C 
BRANCH  75  76
ATOM     76  C   UNL A   1      35.641  22.879  25.038  1.00  0.00     0.188 C 
BRANCH  76  77
ATOM     77  O   UNL A   1      34.974  23.976  24.453  1.00  0.00    -0.376 OA
BRANCH  77  78
ATOM     78  C   UNL A   1      34.491  25.056  25.239  1.00  0.00     0.202 C 
BRANCH  78  79
ATOM     79  C   UNL A   1      34.037  26.423  24.683  1.00  0.00     0.261 C 
BRANCH  79  80
ATOM     80  O   UNL A   1      33.422  26.394  23.396  1.00  0.00    -0.463 OA
BRANCH  80  81
ATOM     81  C   UNL A   1      32.809  27.515  22.943  1.00  0.00     0.309 C 
ATOM     82  O   UNL A   1      33.310  28.386  22.240  1.00  0.00    -0.252 OA
BRANCH  81  83
ATOM     83  C   UNL A   1      31.355  27.435  23.211  1.00  0.00     0.112 C 
ATOM     84  C   UNL A   1      30.700  28.632  23.880  1.00  0.00     0.030 C 
ATOM     85  C   UNL A   1      30.662  27.289  24.541  1.00  0.00     0.093 C 
BRANCH  85  86
ATOM     86  C   UNL A   1      29.552  26.292  24.585  1.00  0.00     0.224 C 
ATOM     87  O   UNL A   1      28.454  26.652  24.168  1.00  0.00    -0.275 OA
ATOM     88  N   UNL A   1      29.645  25.017  25.084  1.00  0.00    -0.342 N 
ATOM     89  H   UNL A   1      28.798  24.516  25.045  1.00  0.00     0.164 HD
BRANCH  88  90
ATOM     90  C   UNL A   1      30.744  24.262  25.657  1.00  0.00     0.202 C 
ATOM     91  C   UNL A   1      31.349  23.187  24.757  1.00  0.00     0.228 C 
ATOM     92  C   UNL A   1      30.394  23.312  26.781  1.00  0.00     0.268 C 
ATOM     93  O   UNL A   1      32.158  22.395  25.653  1.00  0.00    -0.271 OA
ATOM     94  N   UNL A   1      31.418  22.393  26.862  1.00  0.00    -0.233 N 
ATOM     95  O   UNL A   1      29.411  23.329  27.498  1.00  0.00    -0.270 OA
ATOM     96  H   UNL A   1      31.608  21.822  27.642  1.00  0.00     0.199 HD
ENDBRANCH  88  90
ENDBRANCH  85  86
ENDBRANCH  81  83
ENDBRANCH  80  81
ENDBRANCH  79  80
ENDBRANCH  78  79
ENDBRANCH  77  78
ENDBRANCH  76  77
ENDBRANCH  75  76
ENDBRANCH   1  75
TORSDOF 22
ENDMDL
MODEL 3
REMARK VINA RESULT:      -9.9      0.595      2.021
REMARK SMILES O=C(OCCOCCOCCOCCOC(=O)[C@@H]1C[C@H]1C(=O)N[C@@H]1CONC1=O)c1ccc(-c2c3nc(c(-c4c(F)c(F)c(F)c(F)c4F)c4ccc([nH]4)c(-c4c(F)c(F)c(F)c(F)c4F)c4nc(c(-c5c(F)c(F)c(F)c(F)c5F)c5ccc2[nH]5)C=C4)C=C3)cc1
REMARK SMILES IDX 9 1 8 2 7 3 6 4 5 5 4 6 3 7 2 8 1 9 30 10 31 11 92 12 32 13
REMARK SMILES IDX 91 14 33 15 34 16 35 17 85 18 36 19 90 20 84 21 86 22 37 23
REMARK SMILES IDX 89 24 83 25 82 26 38 28 70 29 50 30 69 31 51 32 54 33 68 34
REMARK SMILES IDX 87 35 52 36 53 37 67 39 88 40 55 41 39 42 40 43 48 44 41 45
REMARK SMILES IDX 42 46 46 47 49 48 43 49 44 50 47 51 45 52 71 53 72 54 80 55
REMARK SMILES IDX 73 56 74 57 78 58 81 59 75 60 76 61 79 62 77 63 56 64 57 65
REMARK SMILES IDX 65 66 58 67 59 68 63 69 66 70 60 71 61 72 64 73 62 74 10 75
REMARK SMILES IDX 11 76 12 77 13 78 14 79 15 80 16 81 17 82 18 83 19 84 20 85
REMARK SMILES IDX 21 86 22 87 23 88 24 90 25 91 28 92 26 93 27 94 29 95
REMARK H PARENT 86 27 54 38 23 89 27 96
REMARK Flexibility Score: inf
ROOT
ATOM      1  O   UNL A   1      32.078  24.510  25.708  1.00  0.00    -0.377 OA
ENDROOT
BRANCH   1   2
ATOM      2  C   UNL A   1      32.462  25.861  25.898  1.00  0.00     0.188 C 
BRANCH   2   3
ATOM      3  C   UNL A   1      31.515  26.798  26.640  1.00  0.00     0.188 C 
BRANCH   3   4
ATOM      4  O   UNL A   1      32.200  27.744  27.456  1.00  0.00    -0.376 OA
BRANCH   4   5
ATOM      5  C   UNL A   1      31.908  29.126  27.231  1.00  0.00     0.202 C 
BRANCH   5   6
ATOM      6  C   UNL A   1      32.600  29.786  26.039  1.00  0.00     0.261 C 
BRANCH   6   7
ATOM      7  O   UNL A   1      33.141  31.091  26.291  1.00  0.00    -0.460 OA
BRANCH   7   8
ATOM      8  C   UNL A   1      33.673  31.618  27.418  1.00  0.00     0.338 C 
ATOM      9  O   UNL A   1      33.078  32.550  27.957  1.00  0.00    -0.246 OA
BRANCH   8  10
ATOM     10  C   UNL A   1      34.950  31.171  28.044  1.00  0.00     0.060 A 
ATOM     11  C   UNL A   1      35.209  29.895  28.538  1.00  0.00     0.016 A 
ATOM     12  C   UNL A   1      36.011  32.091  28.033  1.00  0.00     0.016 A 
ATOM     13  C   UNL A   1      36.444  29.523  29.028  1.00  0.00     0.010 A 
ATOM     14  C   UNL A   1      37.266  31.739  28.531  1.00  0.00     0.010 A 
ATOM     15  C   UNL A   1      37.466  30.455  29.048  1.00  0.00    -0.014 A 
BRANCH  15  16
ATOM     16  C   UNL A   1      38.640  30.119  29.853  1.00  0.00     0.031 A 
ATOM     17  C   UNL A   1      39.654  29.232  29.214  1.00  0.00     0.074 A 
ATOM     18  C   UNL A   1      38.838  30.717  31.036  1.00  0.00     0.049 A 
ATOM     19  N   UNL A   1      40.689  28.642  29.737  1.00  0.00    -0.248 NA
ATOM     20  C   UNL A   1      39.474  28.978  27.773  1.00  0.00     0.031 C 
ATOM     21  C   UNL A   1      37.977  31.752  31.613  1.00  0.00     0.029 A 
ATOM     22  N   UNL A   1      39.830  30.546  31.958  1.00  0.00    -0.354 N 
ATOM     23  C   UNL A   1      41.242  27.895  28.708  1.00  0.00     0.074 A 
ATOM     24  C   UNL A   1      40.442  28.114  27.527  1.00  0.00     0.031 C 
ATOM     25  C   UNL A   1      38.465  32.101  32.814  1.00  0.00     0.029 A 
ATOM     26  C   UNL A   1      39.610  31.250  33.114  1.00  0.00     0.049 A 
ATOM     27  H   UNL A   1      40.619  29.976  31.810  1.00  0.00     0.167 HD
ATOM     28  C   UNL A   1      42.315  27.077  28.779  1.00  0.00     0.037 A 
ATOM     29  C   UNL A   1      40.230  31.140  34.302  1.00  0.00     0.037 A 
ATOM     30  C   UNL A   1      43.062  26.906  29.994  1.00  0.00     0.049 A 
ATOM     31  C   UNL A   1      41.349  30.140  34.402  1.00  0.00     0.074 A 
ATOM     32  C   UNL A   1      44.133  26.077  30.248  1.00  0.00     0.029 A 
ATOM     33  N   UNL A   1      42.786  27.593  31.174  1.00  0.00    -0.354 N 
ATOM     34  N   UNL A   1      41.832  29.349  33.470  1.00  0.00    -0.248 NA
ATOM     35  C   UNL A   1      42.002  30.001  35.706  1.00  0.00     0.031 C 
ATOM     36  C   UNL A   1      44.462  26.212  31.601  1.00  0.00     0.029 A 
ATOM     37  C   UNL A   1      43.649  27.185  32.171  1.00  0.00     0.049 A 
ATOM     38  H   UNL A   1      42.080  28.270  31.282  1.00  0.00     0.167 HD
ATOM     39  C   UNL A   1      42.860  28.634  34.062  1.00  0.00     0.074 A 
ATOM     40  C   UNL A   1      42.930  29.090  35.439  1.00  0.00     0.031 C 
ATOM     41  C   UNL A   1      43.677  27.693  33.525  1.00  0.00     0.037 A 
BRANCH  28  42
ATOM     42  C   UNL A   1      42.617  26.249  27.564  1.00  0.00     0.064 A 
ATOM     43  C   UNL A   1      42.013  25.005  27.326  1.00  0.00     0.173 A 
ATOM     44  C   UNL A   1      43.615  26.670  26.670  1.00  0.00     0.173 A 
ATOM     45  F   UNL A   1      41.078  24.535  28.167  1.00  0.00    -0.203 F 
ATOM     46  C   UNL A   1      42.436  24.190  26.277  1.00  0.00     0.198 A 
ATOM     47  C   UNL A   1      44.008  25.870  25.600  1.00  0.00     0.198 A 
ATOM     48  F   UNL A   1      44.237  27.843  26.854  1.00  0.00    -0.203 F 
ATOM     49  F   UNL A   1      41.914  22.964  26.130  1.00  0.00    -0.200 F 
ATOM     50  C   UNL A   1      43.432  24.623  25.414  1.00  0.00     0.200 A 
ATOM     51  F   UNL A   1      44.970  26.294  24.768  1.00  0.00    -0.200 F 
ATOM     52  F   UNL A   1      43.853  23.829  24.421  1.00  0.00    -0.200 F 
ENDBRANCH  28  42
BRANCH  29  53
ATOM     53  C   UNL A   1      39.739  31.927  35.462  1.00  0.00     0.064 A 
ATOM     54  C   UNL A   1      40.249  33.197  35.755  1.00  0.00     0.173 A 
ATOM     55  C   UNL A   1      38.701  31.441  36.279  1.00  0.00     0.173 A 
ATOM     56  F   UNL A   1      41.248  33.702  35.016  1.00  0.00    -0.203 F 
ATOM     57  C   UNL A   1      39.745  33.950  36.816  1.00  0.00     0.198 A 
ATOM     58  C   UNL A   1      38.178  32.206  37.319  1.00  0.00     0.198 A 
ATOM     59  F   UNL A   1      38.171  30.231  36.043  1.00  0.00    -0.203 F 
ATOM     60  F   UNL A   1      40.269  35.152  37.088  1.00  0.00    -0.200 F 
ATOM     61  C   UNL A   1      38.704  33.458  37.590  1.00  0.00     0.200 A 
ATOM     62  F   UNL A   1      37.159  31.732  38.049  1.00  0.00    -0.200 F 
ATOM     63  F   UNL A   1      38.210  34.190  38.597  1.00  0.00    -0.200 F 
ENDBRANCH  29  53
BRANCH  41  64
ATOM     64  C   UNL A   1      44.752  27.140  34.408  1.00  0.00     0.064 A 
ATOM     65  C   UNL A   1      46.016  27.738  34.493  1.00  0.00     0.173 A 
ATOM     66  C   UNL A   1      44.462  26.067  35.265  1.00  0.00     0.173 A 
ATOM     67  F   UNL A   1      46.338  28.757  33.683  1.00  0.00    -0.203 F 
ATOM     68  C   UNL A   1      46.956  27.277  35.408  1.00  0.00     0.198 A 
ATOM     69  C   UNL A   1      45.391  25.633  36.201  1.00  0.00     0.198 A 
ATOM     70  F   UNL A   1      43.260  25.472  35.221  1.00  0.00    -0.203 F 
ATOM     71  F   UNL A   1      48.169  27.843  35.461  1.00  0.00    -0.200 F 
ATOM     72  C   UNL A   1      46.637  26.237  36.272  1.00  0.00     0.200 A 
ATOM     73  F   UNL A   1      45.074  24.645  37.049  1.00  0.00    -0.200 F 
ATOM     74  F   UNL A   1      47.533  25.818  37.176  1.00  0.00    -0.200 F 
ENDBRANCH  41  64
ENDBRANCH  15  16
ENDBRANCH   8  10
ENDBRANCH   7   8
ENDBRANCH   6   7
ENDBRANCH   5   6
ENDBRANCH   4   5
ENDBRANCH   3   4
ENDBRANCH   2   3
ENDBRANCH   1   2
BRANCH   1  75
ATOM     75  C   UNL A   1      32.607  23.533  26.578  1.00  0.00     0.188 C 
BRANCH  75  76
ATOM     76  C   UNL A   1      33.536  22.433  26.035  1.00  0.00     0.188 C 
BRANCH  76  77
ATOM     77  O   UNL A   1      33.325  21.850  24.767  1.00  0.00    -0.376 OA
BRANCH  77  78
ATOM     78  C   UNL A   1      32.632  22.542  23.738  1.00  0.00     0.202 C 
BRANCH  78  79
ATOM     79  C   UNL A   1      33.239  22.941  22.375  1.00  0.00     0.261 C 
BRANCH  79  80
ATOM     80  O   UNL A   1      33.820  24.243  22.314  1.00  0.00    -0.463 OA
BRANCH  80  81
ATOM     81  C   UNL A   1      33.244  25.175  21.517  1.00  0.00     0.309 C 
ATOM     82  O   UNL A   1      33.100  25.106  20.301  1.00  0.00    -0.252 OA
BRANCH  81  83
ATOM     83  C   UNL A   1      32.578  26.204  22.349  1.00  0.00     0.112 C 
ATOM     84  C   UNL A   1      31.085  26.053  22.587  1.00  0.00     0.030 C 
ATOM     85  C   UNL A   1      31.615  27.276  21.906  1.00  0.00     0.093 C 
BRANCH  85  86
ATOM     86  C   UNL A   1      31.859  28.636  22.468  1.00  0.00     0.224 C 
ATOM     87  O   UNL A   1      32.935  28.829  23.029  1.00  0.00    -0.275 OA
ATOM     88  N   UNL A   1      30.970  29.681  22.444  1.00  0.00    -0.342 N 
ATOM     89  H   UNL A   1      31.306  30.495  22.886  1.00  0.00     0.164 HD
BRANCH  88  90
ATOM     90  C   UNL A   1      29.633  29.823  21.895  1.00  0.00     0.202 C 
ATOM     91  C   UNL A   1      29.025  31.220  21.987  1.00  0.00     0.228 C 
ATOM     92  C   UNL A   1      28.517  29.142  22.657  1.00  0.00     0.268 C 
ATOM     93  O   UNL A   1      27.627  31.013  21.693  1.00  0.00    -0.271 OA
ATOM     94  N   UNL A   1      27.342  29.753  22.277  1.00  0.00    -0.233 N 
ATOM     95  O   UNL A   1      28.603  28.227  23.454  1.00  0.00    -0.270 OA
ATOM     96  H   UNL A   1      26.441  29.372  22.393  1.00  0.00     0.199 HD
ENDBRANCH  88  90
ENDBRANCH  85  86
ENDBRANCH  81  83
ENDBRANCH  80  81
ENDBRANCH  79  80
ENDBRANCH  78  79
ENDBRANCH  77  78
ENDBRANCH  76  77
ENDBRANCH  75  76
ENDBRANCH   1  75
TORSDOF 22
ENDMDL
