MODEL 1
REMARK VINA RESULT:      -9.6      0.000      0.000
REMARK SMILES COc1cc(/C=C/C(=O)OCCOCCOCCOCCOC(=O)c2ccc(-c3c4nc(c(-c5c(F)c(F)c(F)c(F)c5F)c5ccc([nH]5)c(-c5c(F)c(F)c(F)c(F)c5F)c5nc(c(-c6c(F)c(F)c(F)c(F)c6F)c6ccc3[nH]6)C=C5)C=C4)cc2)cc(OC)c1O
REMARK SMILES IDX 16 1 15 2 14 3 13 4 12 5 11 6 10 7 8 8 9 9 7 10 6 11 5 12
REMARK SMILES IDX 3 13 4 14 92 15 89 16 88 17 2 18 1 19 93 20 90 22 91 23
REMARK SMILES IDX 17 24 18 25 19 26 20 27 21 28 22 29 23 30 24 31 25 32 26 33
REMARK SMILES IDX 87 34 27 35 86 36 28 37 29 38 30 39 80 40 31 41 85 42 79 43
REMARK SMILES IDX 81 44 32 45 84 46 78 47 77 48 33 50 65 51 45 52 64 53 46 54
REMARK SMILES IDX 49 55 63 56 82 57 47 58 48 59 62 61 83 62 50 63 34 64 35 65
REMARK SMILES IDX 43 66 36 67 37 68 41 69 44 70 38 71 39 72 42 73 40 74 66 75
REMARK SMILES IDX 67 76 75 77 68 78 69 79 73 80 76 81 70 82 71 83 74 84 72 85
REMARK SMILES IDX 51 86 52 87 60 88 53 89 54 90 58 91 61 92 55 93 56 94 59 95
REMARK SMILES IDX 57 96
REMARK H PARENT 93 21 81 49 49 60
REMARK Flexibility Score: inf
ROOT
ATOM      1  O   UNL A   1      44.109  18.364  25.026  1.00  0.00    -0.377 OA
ENDROOT
BRANCH   1   2
ATOM      2  C   UNL A   1      42.922  18.556  25.783  1.00  0.00     0.188 C 
BRANCH   2   3
ATOM      3  C   UNL A   1      42.470  20.000  26.079  1.00  0.00     0.188 C 
BRANCH   3   4
ATOM      4  O   UNL A   1      41.361  20.075  26.958  1.00  0.00    -0.376 OA
BRANCH   4   5
ATOM      5  C   UNL A   1      40.792  21.337  27.249  1.00  0.00     0.202 C 
BRANCH   5   6
ATOM      6  C   UNL A   1      40.146  22.160  26.122  1.00  0.00     0.261 C 
BRANCH   6   7
ATOM      7  O   UNL A   1      38.800  22.601  26.345  1.00  0.00    -0.460 OA
BRANCH   7   8
ATOM      8  C   UNL A   1      37.833  21.965  25.652  1.00  0.00     0.330 C 
ATOM      9  O   UNL A   1      37.949  20.892  25.079  1.00  0.00    -0.247 OA
BRANCH   8  10
ATOM     10  C   UNL A   1      36.530  22.657  25.781  1.00  0.00     0.094 C 
ATOM     11  C   UNL A   1      36.109  23.675  25.012  1.00  0.00     0.016 C 
BRANCH  11  12
ATOM     12  C   UNL A   1      34.799  24.328  25.187  1.00  0.00    -0.018 A 
ATOM     13  C   UNL A   1      33.178  26.077  24.664  1.00  0.00     0.165 A 
ATOM     14  C   UNL A   1      34.415  25.456  24.451  1.00  0.00     0.058 A 
ATOM     15  C   UNL A   1      32.279  25.535  25.595  1.00  0.00     0.200 A 
ATOM     16  C   UNL A   1      32.631  24.391  26.325  1.00  0.00     0.165 A 
ATOM     17  C   UNL A   1      33.880  23.790  26.096  1.00  0.00     0.058 A 
BRANCH  13  18
ATOM     18  O   UNL A   1      32.941  27.150  23.842  1.00  0.00    -0.493 OA
ATOM     19  C   UNL A   1      33.856  28.239  23.913  1.00  0.00     0.278 C 
ENDBRANCH  13  18
BRANCH  15  20
ATOM     20  O   UNL A   1      31.028  26.072  25.727  1.00  0.00    -0.502 OA
ATOM     21  H   UNL A   1      30.486  25.824  26.448  1.00  0.00     0.293 HD
ENDBRANCH  15  20
BRANCH  16  22
ATOM     22  O   UNL A   1      31.874  23.705  27.240  1.00  0.00    -0.493 OA
ATOM     23  C   UNL A   1      30.970  22.719  26.760  1.00  0.00     0.278 C 
ENDBRANCH  16  22
ENDBRANCH  11  12
ENDBRANCH   8  10
ENDBRANCH   7   8
ENDBRANCH   6   7
ENDBRANCH   5   6
ENDBRANCH   4   5
ENDBRANCH   3   4
ENDBRANCH   2   3
ENDBRANCH   1   2
BRANCH   1  24
ATOM     24  C   UNL A   1      45.386  18.511  25.648  1.00  0.00     0.188 C 
BRANCH  24  25
ATOM     25  C   UNL A   1      46.506  19.400  25.054  1.00  0.00     0.188 C 
BRANCH  25  26
ATOM     26  O   UNL A   1      46.374  20.783  25.324  1.00  0.00    -0.376 OA
BRANCH  26  27
ATOM     27  C   UNL A   1      45.723  21.583  24.354  1.00  0.00     0.202 C 
BRANCH  27  28
ATOM     28  C   UNL A   1      45.755  23.101  24.584  1.00  0.00     0.261 C 
BRANCH  28  29
ATOM     29  O   UNL A   1      45.096  23.572  25.771  1.00  0.00    -0.460 OA
BRANCH  29  30
ATOM     30  C   UNL A   1      43.831  24.023  25.639  1.00  0.00     0.338 C 
ATOM     31  O   UNL A   1      43.011  23.691  24.799  1.00  0.00    -0.246 OA
BRANCH  30  32
ATOM     32  C   UNL A   1      43.532  24.869  26.812  1.00  0.00     0.060 A 
ATOM     33  C   UNL A   1      42.651  24.392  27.791  1.00  0.00     0.016 A 
ATOM     34  C   UNL A   1      44.127  26.125  26.948  1.00  0.00     0.016 A 
ATOM     35  C   UNL A   1      42.340  25.185  28.897  1.00  0.00     0.010 A 
ATOM     36  C   UNL A   1      43.801  26.926  28.047  1.00  0.00     0.010 A 
ATOM     37  C   UNL A   1      42.881  26.472  29.010  1.00  0.00    -0.014 A 
BRANCH  37  38
ATOM     38  C   UNL A   1      42.358  27.404  30.039  1.00  0.00     0.031 A 
ATOM     39  C   UNL A   1      43.038  27.452  31.379  1.00  0.00     0.074 A 
ATOM     40  C   UNL A   1      41.314  28.212  29.785  1.00  0.00     0.049 A 
ATOM     41  N   UNL A   1      42.744  28.159  32.440  1.00  0.00    -0.248 NA
ATOM     42  C   UNL A   1      44.209  26.576  31.545  1.00  0.00     0.031 C 
ATOM     43  C   UNL A   1      40.592  28.284  28.517  1.00  0.00     0.029 A 
ATOM     44  N   UNL A   1      40.673  29.121  30.592  1.00  0.00    -0.354 N 
ATOM     45  C   UNL A   1      43.687  27.811  33.399  1.00  0.00     0.074 A 
ATOM     46  C   UNL A   1      44.541  26.803  32.807  1.00  0.00     0.031 C 
ATOM     47  C   UNL A   1      39.601  29.185  28.633  1.00  0.00     0.029 A 
ATOM     48  C   UNL A   1      39.597  29.725  29.991  1.00  0.00     0.049 A 
ATOM     49  H   UNL A   1      40.960  29.321  31.512  1.00  0.00     0.167 HD
ATOM     50  C   UNL A   1      43.835  28.296  34.654  1.00  0.00     0.037 A 
ATOM     51  C   UNL A   1      38.698  30.596  30.493  1.00  0.00     0.037 A 
ATOM     52  C   UNL A   1      42.979  29.293  35.242  1.00  0.00     0.049 A 
ATOM     53  C   UNL A   1      38.836  31.062  31.920  1.00  0.00     0.074 A 
ATOM     54  C   UNL A   1      43.060  29.867  36.498  1.00  0.00     0.029 A 
ATOM     55  N   UNL A   1      41.875  29.856  34.617  1.00  0.00    -0.354 N 
ATOM     56  N   UNL A   1      39.751  30.758  32.810  1.00  0.00    -0.248 NA
ATOM     57  C   UNL A   1      37.815  31.999  32.413  1.00  0.00     0.031 C 
ATOM     58  C   UNL A   1      41.966  30.724  36.659  1.00  0.00     0.029 A 
ATOM     59  C   UNL A   1      41.245  30.741  35.476  1.00  0.00     0.049 A 
ATOM     60  H   UNL A   1      41.583  29.653  33.699  1.00  0.00     0.167 HD
ATOM     61  C   UNL A   1      39.434  31.484  33.951  1.00  0.00     0.074 A 
ATOM     62  C   UNL A   1      38.253  32.258  33.637  1.00  0.00     0.031 C 
ATOM     63  C   UNL A   1      40.068  31.509  35.151  1.00  0.00     0.037 A 
BRANCH  50  64
ATOM     64  C   UNL A   1      44.944  27.722  35.492  1.00  0.00     0.064 A 
ATOM     65  C   UNL A   1      46.266  28.179  35.387  1.00  0.00     0.173 A 
ATOM     66  C   UNL A   1      44.672  26.713  36.429  1.00  0.00     0.173 A 
ATOM     67  F   UNL A   1      46.584  29.131  34.498  1.00  0.00    -0.203 F 
ATOM     68  C   UNL A   1      47.281  27.623  36.164  1.00  0.00     0.198 A 
ATOM     69  C   UNL A   1      45.682  26.186  37.229  1.00  0.00     0.198 A 
ATOM     70  F   UNL A   1      43.424  26.242  36.575  1.00  0.00    -0.203 F 
ATOM     71  F   UNL A   1      48.546  28.035  36.005  1.00  0.00    -0.200 F 
ATOM     72  C   UNL A   1      46.987  26.634  37.089  1.00  0.00     0.200 A 
ATOM     73  F   UNL A   1      45.393  25.240  38.133  1.00  0.00    -0.200 F 
ATOM     74  F   UNL A   1      47.963  26.105  37.839  1.00  0.00    -0.200 F 
ENDBRANCH  50  64
BRANCH  51  75
ATOM     75  C   UNL A   1      37.577  31.078  29.642  1.00  0.00     0.064 A 
ATOM     76  C   UNL A   1      37.545  32.393  29.159  1.00  0.00     0.173 A 
ATOM     77  C   UNL A   1      36.503  30.236  29.309  1.00  0.00     0.173 A 
ATOM     78  F   UNL A   1      38.532  33.245  29.473  1.00  0.00    -0.203 F 
ATOM     79  C   UNL A   1      36.476  32.853  28.391  1.00  0.00     0.198 A 
ATOM     80  C   UNL A   1      35.452  30.688  28.515  1.00  0.00     0.198 A 
ATOM     81  F   UNL A   1      36.481  28.970  29.749  1.00  0.00    -0.203 F 
ATOM     82  F   UNL A   1      36.448  34.131  27.985  1.00  0.00    -0.200 F 
ATOM     83  C   UNL A   1      35.435  31.999  28.063  1.00  0.00     0.200 A 
ATOM     84  F   UNL A   1      34.454  29.855  28.190  1.00  0.00    -0.200 F 
ATOM     85  F   UNL A   1      34.412  32.441  27.320  1.00  0.00    -0.200 F 
ENDBRANCH  51  75
BRANCH  63  86
ATOM     86  C   UNL A   1      39.517  32.429  36.207  1.00  0.00     0.064 A 
ATOM     87  C   UNL A   1      38.469  32.041  37.056  1.00  0.00     0.173 A 
ATOM     88  C   UNL A   1      40.070  33.706  36.393  1.00  0.00     0.173 A 
ATOM     89  F   UNL A   1      37.896  30.836  36.915  1.00  0.00    -0.203 F 
ATOM     90  C   UNL A   1      37.975  32.909  38.027  1.00  0.00     0.198 A 
ATOM     91  C   UNL A   1      39.598  34.556  37.389  1.00  0.00     0.198 A 
ATOM     92  F   UNL A   1      41.080  34.126  35.616  1.00  0.00    -0.203 F 
ATOM     93  F   UNL A   1      36.935  32.537  38.788  1.00  0.00    -0.200 F 
ATOM     94  C   UNL A   1      38.544  34.162  38.199  1.00  0.00     0.200 A 
ATOM     95  F   UNL A   1      40.164  35.758  37.565  1.00  0.00    -0.200 F 
ATOM     96  F   UNL A   1      38.072  34.992  39.138  1.00  0.00    -0.200 F 
ENDBRANCH  63  86
ENDBRANCH  37  38
ENDBRANCH  30  32
ENDBRANCH  29  30
ENDBRANCH  28  29
ENDBRANCH  27  28
ENDBRANCH  26  27
ENDBRANCH  25  26
ENDBRANCH  24  25
ENDBRANCH   1  24
TORSDOF 24
ENDMDL
MODEL 2
REMARK VINA RESULT:      -9.6      1.481      2.675
REMARK SMILES COc1cc(/C=C/C(=O)OCCOCCOCCOCCOC(=O)c2ccc(-c3c4nc(c(-c5c(F)c(F)c(F)c(F)c5F)c5ccc([nH]5)c(-c5c(F)c(F)c(F)c(F)c5F)c5nc(c(-c6c(F)c(F)c(F)c(F)c6F)c6ccc3[nH]6)C=C5)C=C4)cc2)cc(OC)c1O
REMARK SMILES IDX 16 1 15 2 14 3 13 4 12 5 11 6 10 7 8 8 9 9 7 10 6 11 5 12
REMARK SMILES IDX 3 13 4 14 92 15 89 16 88 17 2 18 1 19 93 20 90 22 91 23
REMARK SMILES IDX 17 24 18 25 19 26 20 27 21 28 22 29 23 30 24 31 25 32 26 33
REMARK SMILES IDX 87 34 27 35 86 36 28 37 29 38 30 39 80 40 31 41 85 42 79 43
REMARK SMILES IDX 81 44 32 45 84 46 78 47 77 48 33 50 65 51 45 52 64 53 46 54
REMARK SMILES IDX 49 55 63 56 82 57 47 58 48 59 62 61 83 62 50 63 34 64 35 65
REMARK SMILES IDX 43 66 36 67 37 68 41 69 44 70 38 71 39 72 42 73 40 74 66 75
REMARK SMILES IDX 67 76 75 77 68 78 69 79 73 80 76 81 70 82 71 83 74 84 72 85
REMARK SMILES IDX 51 86 52 87 60 88 53 89 54 90 58 91 61 92 55 93 56 94 59 95
REMARK SMILES IDX 57 96
REMARK H PARENT 93 21 81 49 49 60
REMARK Flexibility Score: inf
ROOT
ATOM      1  O   UNL A   1      43.668  19.066  24.807  1.00  0.00    -0.377 OA
ENDROOT
BRANCH   1   2
ATOM      2  C   UNL A   1      42.816  19.425  25.885  1.00  0.00     0.188 C 
BRANCH   2   3
ATOM      3  C   UNL A   1      42.304  20.877  25.959  1.00  0.00     0.188 C 
BRANCH   3   4
ATOM      4  O   UNL A   1      42.497  21.479  27.227  1.00  0.00    -0.376 OA
BRANCH   4   5
ATOM      5  C   UNL A   1      41.374  21.941  27.953  1.00  0.00     0.202 C 
BRANCH   5   6
ATOM      6  C   UNL A   1      40.086  22.321  27.204  1.00  0.00     0.261 C 
BRANCH   6   7
ATOM      7  O   UNL A   1      39.440  23.531  27.620  1.00  0.00    -0.460 OA
BRANCH   7   8
ATOM      8  C   UNL A   1      39.136  24.419  26.650  1.00  0.00     0.330 C 
ATOM      9  O   UNL A   1      39.761  25.434  26.387  1.00  0.00    -0.247 OA
BRANCH   8  10
ATOM     10  C   UNL A   1      38.009  23.942  25.815  1.00  0.00     0.094 C 
ATOM     11  C   UNL A   1      36.775  23.657  26.262  1.00  0.00     0.016 C 
BRANCH  11  12
ATOM     12  C   UNL A   1      35.689  23.185  25.384  1.00  0.00    -0.018 A 
ATOM     13  C   UNL A   1      33.967  21.568  24.767  1.00  0.00     0.165 A 
ATOM     14  C   UNL A   1      34.969  22.011  25.639  1.00  0.00     0.058 A 
ATOM     15  C   UNL A   1      33.636  22.336  23.640  1.00  0.00     0.200 A 
ATOM     16  C   UNL A   1      34.326  23.528  23.378  1.00  0.00     0.165 A 
ATOM     17  C   UNL A   1      35.330  23.948  24.266  1.00  0.00     0.058 A 
BRANCH  13  18
ATOM     18  O   UNL A   1      33.337  20.419  25.176  1.00  0.00    -0.493 OA
ATOM     19  C   UNL A   1      33.824  19.187  24.651  1.00  0.00     0.278 C 
ENDBRANCH  13  18
BRANCH  15  20
ATOM     20  O   UNL A   1      32.586  21.965  22.848  1.00  0.00    -0.502 OA
ATOM     21  H   UNL A   1      32.737  21.451  22.080  1.00  0.00     0.293 HD
ENDBRANCH  15  20
BRANCH  16  22
ATOM     22  O   UNL A   1      34.116  24.420  22.358  1.00  0.00    -0.493 OA
ATOM     23  C   UNL A   1      33.647  25.720  22.687  1.00  0.00     0.278 C 
ENDBRANCH  16  22
ENDBRANCH  11  12
ENDBRANCH   8  10
ENDBRANCH   7   8
ENDBRANCH   6   7
ENDBRANCH   5   6
ENDBRANCH   4   5
ENDBRANCH   3   4
ENDBRANCH   2   3
ENDBRANCH   1   2
BRANCH   1  24
ATOM     24  C   UNL A   1      45.006  18.636  25.064  1.00  0.00     0.188 C 
BRANCH  24  25
ATOM     25  C   UNL A   1      46.241  19.510  24.735  1.00  0.00     0.188 C 
BRANCH  25  26
ATOM     26  O   UNL A   1      46.317  20.727  25.453  1.00  0.00    -0.376 OA
BRANCH  26  27
ATOM     27  C   UNL A   1      45.879  21.904  24.799  1.00  0.00     0.202 C 
BRANCH  27  28
ATOM     28  C   UNL A   1      45.976  23.210  25.601  1.00  0.00     0.261 C 
BRANCH  28  29
ATOM     29  O   UNL A   1      44.954  24.186  25.341  1.00  0.00    -0.460 OA
BRANCH  29  30
ATOM     30  C   UNL A   1      45.328  25.481  25.307  1.00  0.00     0.338 C 
ATOM     31  O   UNL A   1      46.097  26.009  24.519  1.00  0.00    -0.246 OA
BRANCH  30  32
ATOM     32  C   UNL A   1      44.499  26.214  26.285  1.00  0.00     0.060 A 
ATOM     33  C   UNL A   1      44.615  27.608  26.370  1.00  0.00     0.016 A 
ATOM     34  C   UNL A   1      43.604  25.527  27.109  1.00  0.00     0.016 A 
ATOM     35  C   UNL A   1      43.855  28.316  27.302  1.00  0.00     0.010 A 
ATOM     36  C   UNL A   1      42.857  26.236  28.054  1.00  0.00     0.010 A 
ATOM     37  C   UNL A   1      43.003  27.630  28.177  1.00  0.00    -0.014 A 
BRANCH  37  38
ATOM     38  C   UNL A   1      42.394  28.345  29.326  1.00  0.00     0.031 A 
ATOM     39  C   UNL A   1      43.108  28.319  30.649  1.00  0.00     0.074 A 
ATOM     40  C   UNL A   1      41.243  29.026  29.195  1.00  0.00     0.049 A 
ATOM     41  N   UNL A   1      42.759  28.842  31.797  1.00  0.00    -0.248 NA
ATOM     42  C   UNL A   1      44.391  27.599  30.681  1.00  0.00     0.031 C 
ATOM     43  C   UNL A   1      40.474  29.156  27.960  1.00  0.00     0.029 A 
ATOM     44  N   UNL A   1      40.514  29.730  30.123  1.00  0.00    -0.354 N 
ATOM     45  C   UNL A   1      43.773  28.510  32.687  1.00  0.00     0.074 A 
ATOM     46  C   UNL A   1      44.733  27.712  31.956  1.00  0.00     0.031 C 
ATOM     47  C   UNL A   1      39.376  29.890  28.207  1.00  0.00     0.029 A 
ATOM     48  C   UNL A   1      39.346  30.250  29.624  1.00  0.00     0.049 A 
ATOM     49  H   UNL A   1      40.803  29.852  31.056  1.00  0.00     0.167 HD
ATOM     50  C   UNL A   1      43.897  28.850  33.991  1.00  0.00     0.037 A 
ATOM     51  C   UNL A   1      38.356  30.919  30.248  1.00  0.00     0.037 A 
ATOM     52  C   UNL A   1      42.936  29.640  34.717  1.00  0.00     0.049 A 
ATOM     53  C   UNL A   1      38.479  31.218  31.721  1.00  0.00     0.074 A 
ATOM     54  C   UNL A   1      42.982  30.058  36.034  1.00  0.00     0.029 A 
ATOM     55  N   UNL A   1      41.745  30.117  34.188  1.00  0.00    -0.354 N 
ATOM     56  N   UNL A   1      39.457  30.935  32.548  1.00  0.00    -0.248 NA
ATOM     57  C   UNL A   1      37.359  31.937  32.347  1.00  0.00     0.031 C 
ATOM     58  C   UNL A   1      41.789  30.729  36.322  1.00  0.00     0.029 A 
ATOM     59  C   UNL A   1      41.031  30.794  35.164  1.00  0.00     0.049 A 
ATOM     60  H   UNL A   1      41.451  29.993  33.256  1.00  0.00     0.167 HD
ATOM     61  C   UNL A   1      39.085  31.463  33.779  1.00  0.00     0.074 A 
ATOM     62  C   UNL A   1      37.800  32.100  33.586  1.00  0.00     0.031 C 
ATOM     63  C   UNL A   1      39.751  31.426  34.961  1.00  0.00     0.037 A 
BRANCH  50  64
ATOM     64  C   UNL A   1      45.101  28.335  34.729  1.00  0.00     0.064 A 
ATOM     65  C   UNL A   1      45.094  27.097  35.390  1.00  0.00     0.173 A 
ATOM     66  C   UNL A   1      46.288  29.084  34.754  1.00  0.00     0.173 A 
ATOM     67  F   UNL A   1      43.982  26.348  35.409  1.00  0.00    -0.203 F 
ATOM     68  C   UNL A   1      46.218  26.646  36.079  1.00  0.00     0.198 A 
ATOM     69  C   UNL A   1      47.420  28.612  35.413  1.00  0.00     0.198 A 
ATOM     70  F   UNL A   1      46.353  30.272  34.135  1.00  0.00    -0.203 F 
ATOM     71  F   UNL A   1      46.168  25.488  36.752  1.00  0.00    -0.200 F 
ATOM     72  C   UNL A   1      47.381  27.399  36.083  1.00  0.00     0.200 A 
ATOM     73  F   UNL A   1      48.549  29.335  35.404  1.00  0.00    -0.200 F 
ATOM     74  F   UNL A   1      48.463  26.960  36.741  1.00  0.00    -0.200 F 
ENDBRANCH  50  64
BRANCH  51  75
ATOM     75  C   UNL A   1      37.151  31.344  29.486  1.00  0.00     0.064 A 
ATOM     76  C   UNL A   1      36.972  32.678  29.095  1.00  0.00     0.173 A 
ATOM     77  C   UNL A   1      36.144  30.427  29.147  1.00  0.00     0.173 A 
ATOM     78  F   UNL A   1      37.891  33.599  29.418  1.00  0.00    -0.203 F 
ATOM     79  C   UNL A   1      35.826  33.081  28.411  1.00  0.00     0.198 A 
ATOM     80  C   UNL A   1      35.015  30.825  28.436  1.00  0.00     0.198 A 
ATOM     81  F   UNL A   1      36.263  29.139  29.501  1.00  0.00    -0.203 F 
ATOM     82  F   UNL A   1      35.657  34.373  28.094  1.00  0.00    -0.200 F 
ATOM     83  C   UNL A   1      34.852  32.153  28.075  1.00  0.00     0.200 A 
ATOM     84  F   UNL A   1      34.083  29.921  28.102  1.00  0.00    -0.200 F 
ATOM     85  F   UNL A   1      33.754  32.541  27.412  1.00  0.00    -0.200 F 
ENDBRANCH  51  75
BRANCH  63  86
ATOM     86  C   UNL A   1      39.118  32.123  36.134  1.00  0.00     0.064 A 
ATOM     87  C   UNL A   1      39.384  33.468  36.430  1.00  0.00     0.173 A 
ATOM     88  C   UNL A   1      38.204  31.443  36.954  1.00  0.00     0.173 A 
ATOM     89  F   UNL A   1      40.258  34.164  35.686  1.00  0.00    -0.203 F 
ATOM     90  C   UNL A   1      38.786  34.094  37.521  1.00  0.00     0.198 A 
ATOM     91  C   UNL A   1      37.580  32.083  38.021  1.00  0.00     0.198 A 
ATOM     92  F   UNL A   1      37.903  30.157  36.713  1.00  0.00    -0.203 F 
ATOM     93  F   UNL A   1      39.101  35.364  37.817  1.00  0.00    -0.200 F 
ATOM     94  C   UNL A   1      37.879  33.404  38.312  1.00  0.00     0.200 A 
ATOM     95  F   UNL A   1      36.689  31.418  38.771  1.00  0.00    -0.200 F 
ATOM     96  F   UNL A   1      37.299  34.011  39.356  1.00  0.00    -0.200 F 
ENDBRANCH  63  86
ENDBRANCH  37  38
ENDBRANCH  30  32
ENDBRANCH  29  30
ENDBRANCH  28  29
ENDBRANCH  27  28
ENDBRANCH  26  27
ENDBRANCH  25  26
ENDBRANCH  24  25
ENDBRANCH   1  24
TORSDOF 24
ENDMDL
MODEL 3
REMARK VINA RESULT:      -9.4      4.480      7.622
REMARK SMILES COc1cc(/C=C/C(=O)OCCOCCOCCOCCOC(=O)c2ccc(-c3c4nc(c(-c5c(F)c(F)c(F)c(F)c5F)c5ccc([nH]5)c(-c5c(F)c(F)c(F)c(F)c5F)c5nc(c(-c6c(F)c(F)c(F)c(F)c6F)c6ccc3[nH]6)C=C5)C=C4)cc2)cc(OC)c1O
REMARK SMILES IDX 16 1 15 2 14 3 13 4 12 5 11 6 10 7 8 8 9 9 7 10 6 11 5 12
REMARK SMILES IDX 3 13 4 14 92 15 89 16 88 17 2 18 1 19 93 20 90 22 91 23
REMARK SMILES IDX 17 24 18 25 19 26 20 27 21 28 22 29 23 30 24 31 25 32 26 33
REMARK SMILES IDX 87 34 27 35 86 36 28 37 29 38 30 39 80 40 31 41 85 42 79 43
REMARK SMILES IDX 81 44 32 45 84 46 78 47 77 48 33 50 65 51 45 52 64 53 46 54
REMARK SMILES IDX 49 55 63 56 82 57 47 58 48 59 62 61 83 62 50 63 34 64 35 65
REMARK SMILES IDX 43 66 36 67 37 68 41 69 44 70 38 71 39 72 42 73 40 74 66 75
REMARK SMILES IDX 67 76 75 77 68 78 69 79 73 80 76 81 70 82 71 83 74 84 72 85
REMARK SMILES IDX 51 86 52 87 60 88 53 89 54 90 58 91 61 92 55 93 56 94 59 95
REMARK SMILES IDX 57 96
REMARK H PARENT 93 21 81 49 49 60
REMARK Flexibility Score: inf
ROOT
ATOM      1  O   UNL A   1      32.810  18.668  24.598  1.00  0.00    -0.377 OA
ENDROOT
BRANCH   1   2
ATOM      2  C   UNL A   1      32.722  20.054  24.896  1.00  0.00     0.188 C 
BRANCH   2   3
ATOM      3  C   UNL A   1      32.347  21.024  23.757  1.00  0.00     0.188 C 
BRANCH   3   4
ATOM      4  O   UNL A   1      31.746  22.223  24.213  1.00  0.00    -0.376 OA
BRANCH   4   5
ATOM      5  C   UNL A   1      31.459  22.375  25.590  1.00  0.00     0.202 C 
BRANCH   5   6
ATOM      6  C   UNL A   1      32.293  23.349  26.440  1.00  0.00     0.261 C 
BRANCH   6   7
ATOM      7  O   UNL A   1      33.717  23.205  26.362  1.00  0.00    -0.460 OA
BRANCH   7   8
ATOM      8  C   UNL A   1      34.389  24.185  25.722  1.00  0.00     0.330 C 
ATOM      9  O   UNL A   1      35.484  24.074  25.193  1.00  0.00    -0.247 OA
BRANCH   8  10
ATOM     10  C   UNL A   1      33.570  25.412  25.600  1.00  0.00     0.094 C 
ATOM     11  C   UNL A   1      34.007  26.665  25.812  1.00  0.00     0.016 C 
BRANCH  11  12
ATOM     12  C   UNL A   1      33.145  27.853  25.675  1.00  0.00    -0.018 A 
ATOM     13  C   UNL A   1      32.497  30.126  26.287  1.00  0.00     0.165 A 
ATOM     14  C   UNL A   1      33.355  29.026  26.411  1.00  0.00     0.058 A 
ATOM     15  C   UNL A   1      31.435  30.079  25.372  1.00  0.00     0.200 A 
ATOM     16  C   UNL A   1      31.220  28.925  24.605  1.00  0.00     0.165 A 
ATOM     17  C   UNL A   1      32.092  27.833  24.752  1.00  0.00     0.058 A 
BRANCH  13  18
ATOM     18  O   UNL A   1      32.859  31.206  27.052  1.00  0.00    -0.493 OA
ATOM     19  C   UNL A   1      34.189  31.226  27.564  1.00  0.00     0.278 C 
ENDBRANCH  13  18
BRANCH  15  20
ATOM     20  O   UNL A   1      30.663  31.189  25.167  1.00  0.00    -0.502 OA
ATOM     21  H   UNL A   1      30.831  31.973  25.652  1.00  0.00     0.293 HD
ENDBRANCH  15  20
BRANCH  16  22
ATOM     22  O   UNL A   1      30.266  28.714  23.643  1.00  0.00    -0.493 OA
ATOM     23  C   UNL A   1      30.454  29.312  22.368  1.00  0.00     0.278 C 
ENDBRANCH  16  22
ENDBRANCH  11  12
ENDBRANCH   8  10
ENDBRANCH   7   8
ENDBRANCH   6   7
ENDBRANCH   5   6
ENDBRANCH   4   5
ENDBRANCH   3   4
ENDBRANCH   2   3
ENDBRANCH   1   2
BRANCH   1  24
ATOM     24  C   UNL A   1      34.066  18.092  24.237  1.00  0.00     0.188 C 
BRANCH  24  25
ATOM     25  C   UNL A   1      35.420  18.700  24.676  1.00  0.00     0.188 C 
BRANCH  25  26
ATOM     26  O   UNL A   1      35.483  20.113  24.626  1.00  0.00    -0.376 OA
BRANCH  26  27
ATOM     27  C   UNL A   1      36.497  20.753  25.378  1.00  0.00     0.202 C 
BRANCH  27  28
ATOM     28  C   UNL A   1      37.917  20.186  25.236  1.00  0.00     0.261 C 
BRANCH  28  29
ATOM     29  O   UNL A   1      38.990  21.132  25.378  1.00  0.00    -0.460 OA
BRANCH  29  30
ATOM     30  C   UNL A   1      39.794  21.000  26.452  1.00  0.00     0.338 C 
ATOM     31  O   UNL A   1      40.276  19.968  26.893  1.00  0.00    -0.246 OA
BRANCH  30  32
ATOM     32  C   UNL A   1      40.156  22.355  26.913  1.00  0.00     0.060 A 
ATOM     33  C   UNL A   1      39.481  23.461  26.379  1.00  0.00     0.016 A 
ATOM     34  C   UNL A   1      41.152  22.532  27.875  1.00  0.00     0.016 A 
ATOM     35  C   UNL A   1      39.822  24.751  26.788  1.00  0.00     0.010 A 
ATOM     36  C   UNL A   1      41.506  23.826  28.270  1.00  0.00     0.010 A 
ATOM     37  C   UNL A   1      40.864  24.943  27.704  1.00  0.00    -0.014 A 
BRANCH  37  38
ATOM     38  C   UNL A   1      41.395  26.308  27.943  1.00  0.00     0.031 A 
ATOM     39  C   UNL A   1      42.779  26.637  27.457  1.00  0.00     0.074 A 
ATOM     40  C   UNL A   1      40.655  27.248  28.557  1.00  0.00     0.049 A 
ATOM     41  N   UNL A   1      43.464  27.746  27.575  1.00  0.00    -0.248 NA
ATOM     42  C   UNL A   1      43.489  25.564  26.743  1.00  0.00     0.031 C 
ATOM     43  C   UNL A   1      39.291  27.064  29.043  1.00  0.00     0.029 A 
ATOM     44  N   UNL A   1      40.960  28.546  28.886  1.00  0.00    -0.354 N 
ATOM     45  C   UNL A   1      44.684  27.503  26.957  1.00  0.00     0.074 A 
ATOM     46  C   UNL A   1      44.660  26.131  26.497  1.00  0.00     0.031 C 
ATOM     47  C   UNL A   1      38.876  28.207  29.615  1.00  0.00     0.029 A 
ATOM     48  C   UNL A   1      39.958  29.190  29.568  1.00  0.00     0.049 A 
ATOM     49  H   UNL A   1      41.815  28.975  28.652  1.00  0.00     0.167 HD
ATOM     50  C   UNL A   1      45.726  28.350  26.780  1.00  0.00     0.037 A 
ATOM     51  C   UNL A   1      39.930  30.422  30.113  1.00  0.00     0.037 A 
ATOM     52  C   UNL A   1      45.749  29.712  27.246  1.00  0.00     0.049 A 
ATOM     53  C   UNL A   1      41.132  31.321  29.972  1.00  0.00     0.074 A 
ATOM     54  C   UNL A   1      46.746  30.658  27.096  1.00  0.00     0.029 A 
ATOM     55  N   UNL A   1      44.729  30.318  27.968  1.00  0.00    -0.354 N 
ATOM     56  N   UNL A   1      42.269  31.100  29.354  1.00  0.00    -0.248 NA
ATOM     57  C   UNL A   1      41.046  32.648  30.601  1.00  0.00     0.031 C 
ATOM     58  C   UNL A   1      46.361  31.813  27.785  1.00  0.00     0.029 A 
ATOM     59  C   UNL A   1      45.092  31.613  28.302  1.00  0.00     0.049 A 
ATOM     60  H   UNL A   1      43.876  29.889  28.207  1.00  0.00     0.167 HD
ATOM     61  C   UNL A   1      43.016  32.262  29.496  1.00  0.00     0.074 A 
ATOM     62  C   UNL A   1      42.198  33.195  30.242  1.00  0.00     0.031 C 
ATOM     63  C   UNL A   1      44.267  32.534  29.045  1.00  0.00     0.037 A 
BRANCH  50  64
ATOM     64  C   UNL A   1      46.945  27.812  26.084  1.00  0.00     0.064 A 
ATOM     65  C   UNL A   1      47.048  27.783  24.684  1.00  0.00     0.173 A 
ATOM     66  C   UNL A   1      48.035  27.340  26.831  1.00  0.00     0.173 A 
ATOM     67  F   UNL A   1      46.030  28.208  23.923  1.00  0.00    -0.203 F 
ATOM     68  C   UNL A   1      48.182  27.267  24.060  1.00  0.00     0.198 A 
ATOM     69  C   UNL A   1      49.181  26.860  26.203  1.00  0.00     0.198 A 
ATOM     70  F   UNL A   1      47.993  27.350  28.172  1.00  0.00    -0.203 F 
ATOM     71  F   UNL A   1      48.234  27.195  22.723  1.00  0.00    -0.200 F 
ATOM     72  C   UNL A   1      49.249  26.814  24.819  1.00  0.00     0.200 A 
ATOM     73  F   UNL A   1      50.218  26.436  26.938  1.00  0.00    -0.200 F 
ATOM     74  F   UNL A   1      50.342  26.325  24.217  1.00  0.00    -0.200 F 
ENDBRANCH  50  64
BRANCH  51  75
ATOM     75  C   UNL A   1      38.724  30.879  30.855  1.00  0.00     0.064 A 
ATOM     76  C   UNL A   1      38.665  30.816  32.254  1.00  0.00     0.173 A 
ATOM     77  C   UNL A   1      37.597  31.373  30.178  1.00  0.00     0.173 A 
ATOM     78  F   UNL A   1      39.703  30.326  32.946  1.00  0.00    -0.203 F 
ATOM     79  C   UNL A   1      37.521  31.212  32.945  1.00  0.00     0.198 A 
ATOM     80  C   UNL A   1      36.468  31.799  30.872  1.00  0.00     0.198 A 
ATOM     81  F   UNL A   1      37.599  31.451  28.839  1.00  0.00    -0.203 F 
ATOM     82  F   UNL A   1      37.473  31.093  34.280  1.00  0.00    -0.200 F 
ATOM     83  C   UNL A   1      36.427  31.710  32.255  1.00  0.00     0.200 A 
ATOM     84  F   UNL A   1      35.418  32.292  30.201  1.00  0.00    -0.200 F 
ATOM     85  F   UNL A   1      35.330  32.097  32.921  1.00  0.00    -0.200 F 
ENDBRANCH  51  75
BRANCH  63  86
ATOM     86  C   UNL A   1      44.818  33.907  29.316  1.00  0.00     0.064 A 
ATOM     87  C   UNL A   1      45.583  34.188  30.459  1.00  0.00     0.173 A 
ATOM     88  C   UNL A   1      44.607  34.950  28.400  1.00  0.00     0.173 A 
ATOM     89  F   UNL A   1      45.807  33.232  31.374  1.00  0.00    -0.203 F 
ATOM     90  C   UNL A   1      46.085  35.467  30.690  1.00  0.00     0.198 A 
ATOM     91  C   UNL A   1      45.142  36.217  28.616  1.00  0.00     0.198 A 
ATOM     92  F   UNL A   1      43.892  34.737  27.285  1.00  0.00    -0.203 F 
ATOM     93  F   UNL A   1      46.763  35.724  31.817  1.00  0.00    -0.200 F 
ATOM     94  C   UNL A   1      45.871  36.478  29.765  1.00  0.00     0.200 A 
ATOM     95  F   UNL A   1      44.949  37.187  27.710  1.00  0.00    -0.200 F 
ATOM     96  F   UNL A   1      46.361  37.705  29.986  1.00  0.00    -0.200 F 
ENDBRANCH  63  86
ENDBRANCH  37  38
ENDBRANCH  30  32
ENDBRANCH  29  30
ENDBRANCH  28  29
ENDBRANCH  27  28
ENDBRANCH  26  27
ENDBRANCH  25  26
ENDBRANCH  24  25
ENDBRANCH   1  24
TORSDOF 24
ENDMDL
