MODEL 1
REMARK VINA RESULT:      -8.9      0.000      0.000
REMARK SMILES Cc1ccc(C)c(S(=O)(=O)N[C@@H](CC2=c3ccccc3=NC2)C(=O)OCCOCCOCCOCCOC(=O)c2ccc(-c3c4nc(c(-c5c(F)c(F)c(F)c(F)c5F)c5ccc([nH]5)c(-c5c(F)c(F)c(F)c(F)c5F)c5nc(c(-c6c(F)c(F)c(F)c(F)c6F)c6ccc3[nH]6)C=C5)C=C4)cc2)c1
REMARK SMILES IDX 30 1 29 2 28 3 27 4 26 5 25 6 23 7 24 8 12 9 11 10 8 12 9 13
REMARK SMILES IDX 10 14 7 15 1 16 2 17 3 18 103 19 4 20 5 21 6 22 13 23 14 24
REMARK SMILES IDX 15 25 22 26 16 27 20 28 21 29 17 30 19 31 18 32 31 33 32 34
REMARK SMILES IDX 33 35 34 36 35 37 36 38 37 39 38 40 39 41 40 42 41 43 102 44
REMARK SMILES IDX 42 45 101 46 43 47 44 48 45 49 95 50 46 51 100 52 94 53
REMARK SMILES IDX 96 54 47 55 99 56 93 57 92 58 48 60 80 61 60 62 79 63 61 64
REMARK SMILES IDX 64 65 78 66 97 67 62 68 63 69 77 71 98 72 65 73 49 74 50 75
REMARK SMILES IDX 58 76 51 77 52 78 56 79 59 80 53 81 54 82 57 83 55 84 81 85
REMARK SMILES IDX 82 86 90 87 83 88 84 89 88 90 91 91 85 92 86 93 89 94 87 95
REMARK SMILES IDX 66 96 67 97 75 98 68 99 69 100 73 101 76 102 70 103 71 104
REMARK SMILES IDX 74 105 72 106
REMARK H PARENT 11 11 96 59 64 70
REMARK Flexibility Score: inf
ROOT
ATOM      1  C   UNL A   1      41.194  29.372  27.181  1.00  0.00     0.188 C 
ENDROOT
BRANCH   1   2
ATOM      2  C   UNL A   1      39.853  28.909  27.668  1.00  0.00     0.188 C 
BRANCH   2   3
ATOM      3  O   UNL A   1      39.363  27.582  27.770  1.00  0.00    -0.376 OA
BRANCH   3   4
ATOM      4  C   UNL A   1      40.259  26.480  27.759  1.00  0.00     0.202 C 
BRANCH   4   5
ATOM      5  C   UNL A   1      40.297  25.602  26.465  1.00  0.00     0.261 C 
BRANCH   5   6
ATOM      6  O   UNL A   1      41.020  24.333  26.461  1.00  0.00    -0.462 OA
BRANCH   6   7
ATOM      7  C   UNL A   1      40.378  23.345  27.087  1.00  0.00     0.324 C 
ATOM      8  O   UNL A   1      40.211  23.318  28.285  1.00  0.00    -0.250 OA
BRANCH   7   9
ATOM      9  C   UNL A   1      39.843  22.214  26.324  1.00  0.00     0.183 C 
BRANCH   9  10
ATOM     10  N   UNL A   1      40.158  20.800  26.990  1.00  0.00    -0.197 NA
ATOM     11  H   UNL A   1      40.238  20.953  27.995  1.00  0.00     0.142 HD
BRANCH  10  12
ATOM     12  S   UNL A   1      41.807  19.806  26.409  1.00  0.00     0.241 S 
ATOM     13  O   UNL A   1      41.277  18.856  25.553  1.00  0.00    -0.207 OA
ATOM     14  O   UNL A   1      42.258  19.328  27.740  1.00  0.00    -0.207 OA
BRANCH  12  15
ATOM     15  C   UNL A   1      43.488  21.161  25.410  1.00  0.00     0.085 A 
ATOM     16  C   UNL A   1      44.939  24.371  27.322  1.00  0.00     0.044 C 
ATOM     17  C   UNL A   1      44.967  23.366  26.168  1.00  0.00    -0.050 A 
ATOM     18  C   UNL A   1      46.010  22.587  25.909  1.00  0.00     0.004 A 
ATOM     19  C   UNL A   1      43.850  22.769  25.585  1.00  0.00     0.025 A 
ATOM     20  C   UNL A   1      45.738  21.294  25.285  1.00  0.00     0.005 A 
ATOM     21  C   UNL A   1      44.553  20.536  25.094  1.00  0.00    -0.031 A 
ATOM     22  C   UNL A   1      44.293  19.139  25.199  1.00  0.00     0.046 C 
ENDBRANCH  12  15
ENDBRANCH  10  12
ENDBRANCH   9  10
BRANCH   9  23
ATOM     23  C   UNL A   1      38.228  22.547  26.034  1.00  0.00     0.065 C 
BRANCH  23  24
ATOM     24  C   UNL A   1      37.105  21.450  25.747  1.00  0.00    -0.037 C 
ATOM     25  C   UNL A   1      35.757  21.562  25.821  1.00  0.00     0.001 A 
ATOM     26  C   UNL A   1      37.414  20.135  25.042  1.00  0.00     0.174 C 
ATOM     27  C   UNL A   1      34.817  22.579  26.226  1.00  0.00     0.010 A 
ATOM     28  C   UNL A   1      35.251  20.397  25.038  1.00  0.00     0.065 A 
ATOM     29  N   UNL A   1      36.119  19.506  24.675  1.00  0.00    -0.280 NA
ATOM     30  C   UNL A   1      33.534  22.522  25.810  1.00  0.00     0.001 A 
ATOM     31  C   UNL A   1      33.815  20.399  24.633  1.00  0.00     0.028 A 
ATOM     32  C   UNL A   1      33.046  21.450  24.958  1.00  0.00     0.002 A 
ENDBRANCH  23  24
ENDBRANCH   9  23
ENDBRANCH   7   9
ENDBRANCH   6   7
ENDBRANCH   5   6
ENDBRANCH   4   5
ENDBRANCH   3   4
ENDBRANCH   2   3
ENDBRANCH   1   2
BRANCH   1  33
ATOM     33  O   UNL A   1      42.183  29.424  28.173  1.00  0.00    -0.377 OA
BRANCH  33  34
ATOM     34  C   UNL A   1      43.345  28.674  27.852  1.00  0.00     0.188 C 
BRANCH  34  35
ATOM     35  C   UNL A   1      43.398  28.256  26.378  1.00  0.00     0.188 C 
BRANCH  35  36
ATOM     36  O   UNL A   1      44.583  28.747  25.763  1.00  0.00    -0.376 OA
BRANCH  36  37
ATOM     37  C   UNL A   1      45.731  27.934  25.891  1.00  0.00     0.202 C 
BRANCH  37  38
ATOM     38  C   UNL A   1      46.697  28.193  24.741  1.00  0.00     0.261 C 
BRANCH  38  39
ATOM     39  O   UNL A   1      48.079  27.756  24.871  1.00  0.00    -0.460 OA
BRANCH  39  40
ATOM     40  C   UNL A   1      48.368  26.442  25.033  1.00  0.00     0.338 C 
ATOM     41  O   UNL A   1      48.142  25.577  24.202  1.00  0.00    -0.246 OA
BRANCH  40  42
ATOM     42  C   UNL A   1      49.000  26.205  26.364  1.00  0.00     0.060 A 
ATOM     43  C   UNL A   1      48.610  25.095  27.056  1.00  0.00     0.016 A 
ATOM     44  C   UNL A   1      49.695  27.219  27.055  1.00  0.00     0.016 A 
ATOM     45  C   UNL A   1      48.606  25.227  28.444  1.00  0.00     0.010 A 
ATOM     46  C   UNL A   1      49.604  27.375  28.474  1.00  0.00     0.010 A 
ATOM     47  C   UNL A   1      48.917  26.437  29.242  1.00  0.00    -0.014 A 
BRANCH  47  48
ATOM     48  C   UNL A   1      49.050  26.148  30.852  1.00  0.00     0.031 A 
ATOM     49  C   UNL A   1      47.438  27.275  30.917  1.00  0.00     0.074 A 
ATOM     50  C   UNL A   1      49.699  25.185  32.099  1.00  0.00     0.049 A 
ATOM     51  N   UNL A   1      47.088  28.291  31.710  1.00  0.00    -0.248 NA
ATOM     52  C   UNL A   1      46.231  27.009  30.018  1.00  0.00     0.031 C 
ATOM     53  C   UNL A   1      50.461  23.865  32.393  1.00  0.00     0.029 A 
ATOM     54  N   UNL A   1      49.430  25.192  33.780  1.00  0.00    -0.354 N 
ATOM     55  C   UNL A   1      45.749  28.630  31.536  1.00  0.00     0.074 A 
ATOM     56  C   UNL A   1      45.372  27.986  30.316  1.00  0.00     0.031 C 
ATOM     57  C   UNL A   1      50.163  23.223  33.649  1.00  0.00     0.029 A 
ATOM     58  C   UNL A   1      49.254  23.970  34.648  1.00  0.00     0.049 A 
ATOM     59  H   UNL A   1      49.384  26.070  34.224  1.00  0.00     0.167 HD
ATOM     60  C   UNL A   1      44.947  29.239  32.472  1.00  0.00     0.037 A 
ATOM     61  C   UNL A   1      48.312  23.681  35.898  1.00  0.00     0.037 A 
ATOM     62  C   UNL A   1      45.613  29.692  33.679  1.00  0.00     0.049 A 
ATOM     63  C   UNL A   1      47.284  24.866  36.904  1.00  0.00     0.074 A 
ATOM     64  C   UNL A   1      46.439  30.752  33.949  1.00  0.00     0.029 A 
ATOM     65  N   UNL A   1      45.449  28.993  34.881  1.00  0.00    -0.354 N 
ATOM     66  N   UNL A   1      47.651  25.995  37.538  1.00  0.00    -0.248 NA
ATOM     67  C   UNL A   1      45.794  24.987  36.600  1.00  0.00     0.031 C 
ATOM     68  C   UNL A   1      46.954  30.520  35.256  1.00  0.00     0.029 A 
ATOM     69  C   UNL A   1      46.448  29.312  35.807  1.00  0.00     0.049 A 
ATOM     70  H   UNL A   1      44.719  28.355  35.055  1.00  0.00     0.167 HD
ATOM     71  C   UNL A   1      46.681  27.053  37.224  1.00  0.00     0.074 A 
ATOM     72  C   UNL A   1      45.507  26.299  36.774  1.00  0.00     0.031 C 
ATOM     73  C   UNL A   1      47.040  28.385  36.917  1.00  0.00     0.037 A 
BRANCH  60  74
ATOM     74  C   UNL A   1      43.420  29.291  32.448  1.00  0.00     0.064 A 
ATOM     75  C   UNL A   1      42.754  30.514  32.188  1.00  0.00     0.173 A 
ATOM     76  C   UNL A   1      42.606  28.266  32.968  1.00  0.00     0.173 A 
ATOM     77  F   UNL A   1      43.403  31.548  31.630  1.00  0.00    -0.203 F 
ATOM     78  C   UNL A   1      41.424  30.731  32.569  1.00  0.00     0.198 A 
ATOM     79  C   UNL A   1      41.264  28.469  33.289  1.00  0.00     0.198 A 
ATOM     80  F   UNL A   1      43.095  27.067  33.294  1.00  0.00    -0.203 F 
ATOM     81  F   UNL A   1      40.879  31.949  32.444  1.00  0.00    -0.200 F 
ATOM     82  C   UNL A   1      40.688  29.712  33.143  1.00  0.00     0.200 A 
ATOM     83  F   UNL A   1      40.564  27.463  33.832  1.00  0.00    -0.200 F 
ATOM     84  F   UNL A   1      39.450  29.936  33.600  1.00  0.00    -0.200 F 
ENDBRANCH  60  74
BRANCH  61  85
ATOM     85  C   UNL A   1      47.480  22.203  36.207  1.00  0.00     0.064 A 
ATOM     86  C   UNL A   1      46.435  21.694  35.412  1.00  0.00     0.173 A 
ATOM     87  C   UNL A   1      47.995  21.101  36.998  1.00  0.00     0.173 A 
ATOM     88  F   UNL A   1      46.038  22.353  34.315  1.00  0.00    -0.203 F 
ATOM     89  C   UNL A   1      45.843  20.397  35.643  1.00  0.00     0.198 A 
ATOM     90  C   UNL A   1      47.324  19.951  37.401  1.00  0.00     0.198 A 
ATOM     91  F   UNL A   1      49.296  20.756  36.993  1.00  0.00    -0.203 F 
ATOM     92  F   UNL A   1      44.936  19.905  34.787  1.00  0.00    -0.200 F 
ATOM     93  C   UNL A   1      46.231  19.578  36.696  1.00  0.00     0.200 A 
ATOM     94  F   UNL A   1      47.941  19.101  38.239  1.00  0.00    -0.200 F 
ATOM     95  F   UNL A   1      45.686  18.375  36.923  1.00  0.00    -0.200 F 
ENDBRANCH  61  85
BRANCH  73  96
ATOM     96  C   UNL A   1      48.400  28.905  37.411  1.00  0.00     0.064 A 
ATOM     97  C   UNL A   1      49.586  28.781  36.668  1.00  0.00     0.173 A 
ATOM     98  C   UNL A   1      48.442  29.843  38.472  1.00  0.00     0.173 A 
ATOM     99  F   UNL A   1      49.696  27.968  35.611  1.00  0.00    -0.203 F 
ATOM    100  C   UNL A   1      50.690  29.599  36.896  1.00  0.00     0.198 A 
ATOM    101  C   UNL A   1      49.535  30.698  38.661  1.00  0.00     0.198 A 
ATOM    102  F   UNL A   1      47.359  30.050  39.241  1.00  0.00    -0.203 F 
ATOM    103  F   UNL A   1      51.758  29.486  36.091  1.00  0.00    -0.200 F 
ATOM    104  C   UNL A   1      50.653  30.584  37.860  1.00  0.00     0.200 A 
ATOM    105  F   UNL A   1      49.467  31.689  39.563  1.00  0.00    -0.200 F 
ATOM    106  F   UNL A   1      51.676  31.440  37.981  1.00  0.00    -0.200 F 
ENDBRANCH  73  96
ENDBRANCH  47  48
ENDBRANCH  40  42
ENDBRANCH  39  40
ENDBRANCH  38  39
ENDBRANCH  37  38
ENDBRANCH  36  37
ENDBRANCH  35  36
ENDBRANCH  34  35
ENDBRANCH  33  34
ENDBRANCH   1  33
TORSDOF 25
ENDMDL
MODEL 2
REMARK VINA RESULT:      -8.8      4.680      9.368
REMARK SMILES Cc1ccc(C)c(S(=O)(=O)N[C@@H](CC2=c3ccccc3=NC2)C(=O)OCCOCCOCCOCCOC(=O)c2ccc(-c3c4nc(c(-c5c(F)c(F)c(F)c(F)c5F)c5ccc([nH]5)c(-c5c(F)c(F)c(F)c(F)c5F)c5nc(c(-c6c(F)c(F)c(F)c(F)c6F)c6ccc3[nH]6)C=C5)C=C4)cc2)c1
REMARK SMILES IDX 30 1 29 2 28 3 27 4 26 5 25 6 23 7 24 8 12 9 11 10 8 12 9 13
REMARK SMILES IDX 10 14 7 15 1 16 2 17 3 18 103 19 4 20 5 21 6 22 13 23 14 24
REMARK SMILES IDX 15 25 22 26 16 27 20 28 21 29 17 30 19 31 18 32 31 33 32 34
REMARK SMILES IDX 33 35 34 36 35 37 36 38 37 39 38 40 39 41 40 42 41 43 102 44
REMARK SMILES IDX 42 45 101 46 43 47 44 48 45 49 95 50 46 51 100 52 94 53
REMARK SMILES IDX 96 54 47 55 99 56 93 57 92 58 48 60 80 61 60 62 79 63 61 64
REMARK SMILES IDX 64 65 78 66 97 67 62 68 63 69 77 71 98 72 65 73 49 74 50 75
REMARK SMILES IDX 58 76 51 77 52 78 56 79 59 80 53 81 54 82 57 83 55 84 81 85
REMARK SMILES IDX 82 86 90 87 83 88 84 89 88 90 91 91 85 92 86 93 89 94 87 95
REMARK SMILES IDX 66 96 67 97 75 98 68 99 69 100 73 101 76 102 70 103 71 104
REMARK SMILES IDX 74 105 72 106
REMARK H PARENT 11 11 96 59 64 70
REMARK Flexibility Score: inf
ROOT
ATOM      1  C   UNL A   1      49.100  33.899  27.060  1.00  0.00     0.188 C 
ENDROOT
BRANCH   1   2
ATOM      2  C   UNL A   1      47.794  33.411  26.507  1.00  0.00     0.188 C 
BRANCH   2   3
ATOM      3  O   UNL A   1      47.419  32.086  26.172  1.00  0.00    -0.376 OA
BRANCH   3   4
ATOM      4  C   UNL A   1      47.613  31.026  27.098  1.00  0.00     0.202 C 
BRANCH   4   5
ATOM      5  C   UNL A   1      47.494  29.567  26.549  1.00  0.00     0.261 C 
BRANCH   5   6
ATOM      6  O   UNL A   1      46.833  29.315  25.271  1.00  0.00    -0.462 OA
BRANCH   6   7
ATOM      7  C   UNL A   1      46.791  28.026  24.930  1.00  0.00     0.324 C 
ATOM      8  O   UNL A   1      46.332  27.632  23.883  1.00  0.00    -0.250 OA
BRANCH   7   9
ATOM      9  C   UNL A   1      47.306  27.005  25.847  1.00  0.00     0.183 C 
BRANCH   9  10
ATOM     10  N   UNL A   1      46.157  26.158  26.556  1.00  0.00    -0.197 NA
ATOM     11  H   UNL A   1      46.409  26.076  27.541  1.00  0.00     0.142 HD
BRANCH  10  12
ATOM     12  S   UNL A   1      45.773  24.301  25.886  1.00  0.00     0.241 S 
ATOM     13  O   UNL A   1      46.774  23.567  26.501  1.00  0.00    -0.207 OA
ATOM     14  O   UNL A   1      45.928  24.553  24.431  1.00  0.00    -0.207 OA
BRANCH  12  15
ATOM     15  C   UNL A   1      43.581  23.505  26.353  1.00  0.00     0.085 A 
ATOM     16  C   UNL A   1      42.653  19.639  25.845  1.00  0.00     0.044 C 
ATOM     17  C   UNL A   1      42.319  21.048  26.338  1.00  0.00    -0.050 A 
ATOM     18  C   UNL A   1      42.051  21.330  27.607  1.00  0.00     0.004 A 
ATOM     19  C   UNL A   1      42.717  22.237  25.726  1.00  0.00     0.025 A 
ATOM     20  C   UNL A   1      42.388  22.671  28.079  1.00  0.00     0.005 A 
ATOM     21  C   UNL A   1      43.183  23.719  27.545  1.00  0.00    -0.031 A 
ATOM     22  C   UNL A   1      44.095  24.625  28.160  1.00  0.00     0.046 C 
ENDBRANCH  12  15
ENDBRANCH  10  12
ENDBRANCH   9  10
BRANCH   9  23
ATOM     23  C   UNL A   1      48.451  26.127  24.999  1.00  0.00     0.065 C 
BRANCH  23  24
ATOM     24  C   UNL A   1      49.898  26.663  24.590  1.00  0.00    -0.037 C 
ATOM     25  C   UNL A   1      51.119  26.208  24.963  1.00  0.00     0.001 A 
ATOM     26  C   UNL A   1      50.108  27.639  23.439  1.00  0.00     0.174 C 
ATOM     27  C   UNL A   1      51.625  25.201  25.863  1.00  0.00     0.010 A 
ATOM     28  C   UNL A   1      52.048  26.791  23.952  1.00  0.00     0.065 A 
ATOM     29  N   UNL A   1      51.564  27.683  23.147  1.00  0.00    -0.280 NA
ATOM     30  C   UNL A   1      52.880  24.727  25.715  1.00  0.00     0.001 A 
ATOM     31  C   UNL A   1      53.426  26.226  23.864  1.00  0.00     0.028 A 
ATOM     32  C   UNL A   1      53.766  25.206  24.669  1.00  0.00     0.002 A 
ENDBRANCH  23  24
ENDBRANCH   9  23
ENDBRANCH   7   9
ENDBRANCH   6   7
ENDBRANCH   5   6
ENDBRANCH   4   5
ENDBRANCH   3   4
ENDBRANCH   2   3
ENDBRANCH   1   2
BRANCH   1  33
ATOM     33  O   UNL A   1      49.598  35.052  26.438  1.00  0.00    -0.377 OA
BRANCH  33  34
ATOM     34  C   UNL A   1      48.978  36.249  26.884  1.00  0.00     0.188 C 
BRANCH  34  35
ATOM     35  C   UNL A   1      48.297  37.027  25.752  1.00  0.00     0.188 C 
BRANCH  35  36
ATOM     36  O   UNL A   1      47.986  38.350  26.173  1.00  0.00    -0.376 OA
BRANCH  36  37
ATOM     37  C   UNL A   1      46.749  38.867  25.730  1.00  0.00     0.202 C 
BRANCH  37  38
ATOM     38  C   UNL A   1      45.600  38.238  26.511  1.00  0.00     0.261 C 
BRANCH  38  39
ATOM     39  O   UNL A   1      45.620  38.304  27.966  1.00  0.00    -0.460 OA
BRANCH  39  40
ATOM     40  C   UNL A   1      44.631  37.726  28.689  1.00  0.00     0.338 C 
ATOM     41  O   UNL A   1      43.441  37.947  28.531  1.00  0.00    -0.246 OA
BRANCH  40  42
ATOM     42  C   UNL A   1      45.200  36.789  29.700  1.00  0.00     0.060 A 
ATOM     43  C   UNL A   1      46.431  36.258  29.441  1.00  0.00     0.016 A 
ATOM     44  C   UNL A   1      44.406  36.188  30.698  1.00  0.00     0.016 A 
ATOM     45  C   UNL A   1      46.637  34.964  29.919  1.00  0.00     0.010 A 
ATOM     46  C   UNL A   1      44.593  34.831  31.108  1.00  0.00     0.010 A 
ATOM     47  C   UNL A   1      45.664  34.089  30.617  1.00  0.00    -0.014 A 
BRANCH  47  48
ATOM     48  C   UNL A   1      46.336  32.732  31.250  1.00  0.00     0.031 A 
ATOM     49  C   UNL A   1      44.847  31.870  30.293  1.00  0.00     0.074 A 
ATOM     50  C   UNL A   1      47.699  31.983  31.947  1.00  0.00     0.049 A 
ATOM     51  N   UNL A   1      43.981  30.921  30.655  1.00  0.00    -0.248 NA
ATOM     52  C   UNL A   1      44.554  32.168  28.822  1.00  0.00     0.031 C 
ATOM     53  C   UNL A   1      49.210  32.167  32.249  1.00  0.00     0.029 A 
ATOM     54  N   UNL A   1      47.997  30.361  32.367  1.00  0.00    -0.354 N 
ATOM     55  C   UNL A   1      43.250  30.460  29.564  1.00  0.00     0.074 A 
ATOM     56  C   UNL A   1      43.469  31.441  28.546  1.00  0.00     0.031 C 
ATOM     57  C   UNL A   1      50.010  30.968  32.254  1.00  0.00     0.029 A 
ATOM     58  C   UNL A   1      49.285  29.611  32.124  1.00  0.00     0.049 A 
ATOM     59  H   UNL A   1      47.266  29.868  32.807  1.00  0.00     0.167 HD
ATOM     60  C   UNL A   1      42.669  29.218  29.452  1.00  0.00     0.037 A 
ATOM     61  C   UNL A   1      49.573  28.104  31.700  1.00  0.00     0.037 A 
ATOM     62  C   UNL A   1      42.707  28.392  30.644  1.00  0.00     0.049 A 
ATOM     63  C   UNL A   1      48.408  26.653  31.624  1.00  0.00     0.074 A 
ATOM     64  C   UNL A   1      42.011  28.423  31.824  1.00  0.00     0.029 A 
ATOM     65  N   UNL A   1      43.585  27.305  30.722  1.00  0.00    -0.354 N 
ATOM     66  N   UNL A   1      47.600  26.150  32.577  1.00  0.00    -0.248 NA
ATOM     67  C   UNL A   1      47.809  26.260  30.277  1.00  0.00     0.031 C 
ATOM     68  C   UNL A   1      42.668  27.499  32.686  1.00  0.00     0.029 A 
ATOM     69  C   UNL A   1      43.777  26.887  32.044  1.00  0.00     0.049 A 
ATOM     70  H   UNL A   1      44.015  26.884  29.943  1.00  0.00     0.167 HD
ATOM     71  C   UNL A   1      46.271  25.915  31.998  1.00  0.00     0.074 A 
ATOM     72  C   UNL A   1      46.544  25.867  30.558  1.00  0.00     0.031 C 
ATOM     73  C   UNL A   1      45.059  26.233  32.652  1.00  0.00     0.037 A 
BRANCH  60  74
ATOM     74  C   UNL A   1      42.188  28.566  28.157  1.00  0.00     0.064 A 
ATOM     75  C   UNL A   1      40.915  27.946  28.104  1.00  0.00     0.173 A 
ATOM     76  C   UNL A   1      43.045  28.263  27.082  1.00  0.00     0.173 A 
ATOM     77  F   UNL A   1      39.982  28.205  29.034  1.00  0.00    -0.203 F 
ATOM     78  C   UNL A   1      40.597  26.985  27.137  1.00  0.00     0.198 A 
ATOM     79  C   UNL A   1      42.700  27.350  26.086  1.00  0.00     0.198 A 
ATOM     80  F   UNL A   1      44.289  28.744  27.006  1.00  0.00    -0.203 F 
ATOM     81  F   UNL A   1      39.440  26.313  27.213  1.00  0.00    -0.200 F 
ATOM     82  C   UNL A   1      41.503  26.670  26.142  1.00  0.00     0.200 A 
ATOM     83  F   UNL A   1      43.587  27.069  25.122  1.00  0.00    -0.200 F 
ATOM     84  F   UNL A   1      41.249  25.684  25.273  1.00  0.00    -0.200 F 
ENDBRANCH  60  74
BRANCH  61  85
ATOM     85  C   UNL A   1      50.789  27.589  30.591  1.00  0.00     0.064 A 
ATOM     86  C   UNL A   1      50.935  28.084  29.280  1.00  0.00     0.173 A 
ATOM     87  C   UNL A   1      52.045  26.962  30.957  1.00  0.00     0.173 A 
ATOM     88  F   UNL A   1      50.113  29.038  28.823  1.00  0.00    -0.203 F 
ATOM     89  C   UNL A   1      52.036  27.706  28.426  1.00  0.00     0.198 A 
ATOM     90  C   UNL A   1      52.996  26.397  30.113  1.00  0.00     0.198 A 
ATOM     91  F   UNL A   1      52.728  27.308  32.064  1.00  0.00    -0.203 F 
ATOM     92  F   UNL A   1      52.198  28.295  27.233  1.00  0.00    -0.200 F 
ATOM     93  C   UNL A   1      53.006  26.792  28.819  1.00  0.00     0.200 A 
ATOM     94  F   UNL A   1      54.042  25.751  30.656  1.00  0.00    -0.200 F 
ATOM     95  F   UNL A   1      54.029  26.431  28.033  1.00  0.00    -0.200 F 
ENDBRANCH  61  85
BRANCH  73  96
ATOM     96  C   UNL A   1      45.067  26.344  34.186  1.00  0.00     0.064 A 
ATOM     97  C   UNL A   1      45.204  27.564  34.868  1.00  0.00     0.173 A 
ATOM     98  C   UNL A   1      44.581  25.263  34.963  1.00  0.00     0.173 A 
ATOM     99  F   UNL A   1      45.612  28.687  34.267  1.00  0.00    -0.203 F 
ATOM    100  C   UNL A   1      44.791  27.724  36.189  1.00  0.00     0.198 A 
ATOM    101  C   UNL A   1      44.118  25.443  36.273  1.00  0.00     0.198 A 
ATOM    102  F   UNL A   1      44.402  24.052  34.408  1.00  0.00    -0.203 F 
ATOM    103  F   UNL A   1      44.868  28.939  36.750  1.00  0.00    -0.200 F 
ATOM    104  C   UNL A   1      44.210  26.680  36.878  1.00  0.00     0.200 A 
ATOM    105  F   UNL A   1      43.504  24.437  36.914  1.00  0.00    -0.200 F 
ATOM    106  F   UNL A   1      43.706  26.886  38.103  1.00  0.00    -0.200 F 
ENDBRANCH  73  96
ENDBRANCH  47  48
ENDBRANCH  40  42
ENDBRANCH  39  40
ENDBRANCH  38  39
ENDBRANCH  37  38
ENDBRANCH  36  37
ENDBRANCH  35  36
ENDBRANCH  34  35
ENDBRANCH  33  34
ENDBRANCH   1  33
TORSDOF 25
ENDMDL
MODEL 3
REMARK VINA RESULT:      -8.5      6.484     12.007
REMARK SMILES Cc1ccc(C)c(S(=O)(=O)N[C@@H](CC2=c3ccccc3=NC2)C(=O)OCCOCCOCCOCCOC(=O)c2ccc(-c3c4nc(c(-c5c(F)c(F)c(F)c(F)c5F)c5ccc([nH]5)c(-c5c(F)c(F)c(F)c(F)c5F)c5nc(c(-c6c(F)c(F)c(F)c(F)c6F)c6ccc3[nH]6)C=C5)C=C4)cc2)c1
REMARK SMILES IDX 30 1 29 2 28 3 27 4 26 5 25 6 23 7 24 8 12 9 11 10 8 12 9 13
REMARK SMILES IDX 10 14 7 15 1 16 2 17 3 18 103 19 4 20 5 21 6 22 13 23 14 24
REMARK SMILES IDX 15 25 22 26 16 27 20 28 21 29 17 30 19 31 18 32 31 33 32 34
REMARK SMILES IDX 33 35 34 36 35 37 36 38 37 39 38 40 39 41 40 42 41 43 102 44
REMARK SMILES IDX 42 45 101 46 43 47 44 48 45 49 95 50 46 51 100 52 94 53
REMARK SMILES IDX 96 54 47 55 99 56 93 57 92 58 48 60 80 61 60 62 79 63 61 64
REMARK SMILES IDX 64 65 78 66 97 67 62 68 63 69 77 71 98 72 65 73 49 74 50 75
REMARK SMILES IDX 58 76 51 77 52 78 56 79 59 80 53 81 54 82 57 83 55 84 81 85
REMARK SMILES IDX 82 86 90 87 83 88 84 89 88 90 91 91 85 92 86 93 89 94 87 95
REMARK SMILES IDX 66 96 67 97 75 98 68 99 69 100 73 101 76 102 70 103 71 104
REMARK SMILES IDX 74 105 72 106
REMARK H PARENT 11 11 96 59 64 70
REMARK Flexibility Score: inf
ROOT
ATOM      1  C   UNL A   1      45.340  24.047  34.996  1.00  0.00     0.188 C 
ENDROOT
BRANCH   1   2
ATOM      2  C   UNL A   1      45.524  23.893  33.515  1.00  0.00     0.188 C 
BRANCH   2   3
ATOM      3  O   UNL A   1      45.604  24.906  32.527  1.00  0.00    -0.376 OA
BRANCH   3   4
ATOM      4  C   UNL A   1      44.527  25.119  31.625  1.00  0.00     0.202 C 
BRANCH   4   5
ATOM      5  C   UNL A   1      44.676  24.534  30.183  1.00  0.00     0.261 C 
BRANCH   5   6
ATOM      6  O   UNL A   1      44.202  25.294  29.029  1.00  0.00    -0.462 OA
BRANCH   6   7
ATOM      7  C   UNL A   1      44.646  24.832  27.860  1.00  0.00     0.324 C 
ATOM      8  O   UNL A   1      45.714  24.278  27.728  1.00  0.00    -0.250 OA
BRANCH   7   9
ATOM      9  C   UNL A   1      43.836  24.991  26.649  1.00  0.00     0.183 C 
BRANCH   9  10
ATOM     10  N   UNL A   1      43.689  26.510  26.186  1.00  0.00    -0.197 NA
ATOM     11  H   UNL A   1      44.240  27.075  26.833  1.00  0.00     0.142 HD
BRANCH  10  12
ATOM     12  S   UNL A   1      41.852  27.322  26.106  1.00  0.00     0.241 S 
ATOM     13  O   UNL A   1      41.142  26.348  25.424  1.00  0.00    -0.207 OA
ATOM     14  O   UNL A   1      42.186  28.556  25.352  1.00  0.00    -0.207 OA
BRANCH  12  15
ATOM     15  C   UNL A   1      40.915  27.881  28.221  1.00  0.00     0.085 A 
ATOM     16  C   UNL A   1      37.963  30.576  28.507  1.00  0.00     0.044 C 
ATOM     17  C   UNL A   1      38.866  29.501  29.115  1.00  0.00    -0.050 A 
ATOM     18  C   UNL A   1      38.400  28.382  29.657  1.00  0.00     0.004 A 
ATOM     19  C   UNL A   1      40.197  29.270  28.770  1.00  0.00     0.025 A 
ATOM     20  C   UNL A   1      39.262  27.204  29.600  1.00  0.00     0.005 A 
ATOM     21  C   UNL A   1      40.436  26.892  28.866  1.00  0.00    -0.031 A 
ATOM     22  C   UNL A   1      40.860  25.695  28.218  1.00  0.00     0.046 C 
ENDBRANCH  12  15
ENDBRANCH  10  12
ENDBRANCH   9  10
BRANCH   9  23
ATOM     23  C   UNL A   1      44.452  23.931  25.510  1.00  0.00     0.065 C 
BRANCH  23  24
ATOM     24  C   UNL A   1      43.959  22.429  25.298  1.00  0.00    -0.037 C 
ATOM     25  C   UNL A   1      44.685  21.319  25.016  1.00  0.00     0.001 A 
ATOM     26  C   UNL A   1      42.558  21.970  25.681  1.00  0.00     0.174 C 
ATOM     27  C   UNL A   1      46.067  21.024  24.727  1.00  0.00     0.010 A 
ATOM     28  C   UNL A   1      43.774  20.190  25.366  1.00  0.00     0.065 A 
ATOM     29  N   UNL A   1      42.541  20.485  25.635  1.00  0.00    -0.280 NA
ATOM     30  C   UNL A   1      46.539  19.768  24.878  1.00  0.00     0.001 A 
ATOM     31  C   UNL A   1      44.369  18.828  25.495  1.00  0.00     0.028 A 
ATOM     32  C   UNL A   1      45.692  18.674  25.321  1.00  0.00     0.002 A 
ENDBRANCH  23  24
ENDBRANCH   9  23
ENDBRANCH   7   9
ENDBRANCH   6   7
ENDBRANCH   5   6
ENDBRANCH   4   5
ENDBRANCH   3   4
ENDBRANCH   2   3
ENDBRANCH   1   2
BRANCH   1  33
ATOM     33  O   UNL A   1      44.004  24.160  35.405  1.00  0.00    -0.377 OA
BRANCH  33  34
ATOM     34  C   UNL A   1      43.567  25.503  35.544  1.00  0.00     0.188 C 
BRANCH  34  35
ATOM     35  C   UNL A   1      42.157  25.615  36.137  1.00  0.00     0.188 C 
BRANCH  35  36
ATOM     36  O   UNL A   1      41.303  26.337  35.258  1.00  0.00    -0.376 OA
BRANCH  36  37
ATOM     37  C   UNL A   1      41.343  27.745  35.371  1.00  0.00     0.202 C 
BRANCH  37  38
ATOM     38  C   UNL A   1      41.322  28.389  33.990  1.00  0.00     0.261 C 
BRANCH  38  39
ATOM     39  O   UNL A   1      40.046  28.811  33.430  1.00  0.00    -0.460 OA
BRANCH  39  40
ATOM     40  C   UNL A   1      39.417  29.910  33.913  1.00  0.00     0.338 C 
ATOM     41  O   UNL A   1      38.766  29.936  34.945  1.00  0.00    -0.246 OA
BRANCH  40  42
ATOM     42  C   UNL A   1      39.635  31.076  33.009  1.00  0.00     0.060 A 
ATOM     43  C   UNL A   1      40.567  30.940  32.021  1.00  0.00     0.016 A 
ATOM     44  C   UNL A   1      39.185  32.373  33.335  1.00  0.00     0.016 A 
ATOM     45  C   UNL A   1      41.256  32.105  31.684  1.00  0.00     0.010 A 
ATOM     46  C   UNL A   1      39.956  33.542  33.046  1.00  0.00     0.010 A 
ATOM     47  C   UNL A   1      41.133  33.444  32.308  1.00  0.00    -0.014 A 
BRANCH  47  48
ATOM     48  C   UNL A   1      41.918  34.628  31.486  1.00  0.00     0.031 A 
ATOM     49  C   UNL A   1      42.963  34.723  33.150  1.00  0.00     0.074 A 
ATOM     50  C   UNL A   1      42.281  35.350  29.985  1.00  0.00     0.049 A 
ATOM     51  N   UNL A   1      43.375  35.755  33.891  1.00  0.00    -0.248 NA
ATOM     52  C   UNL A   1      43.568  33.476  33.795  1.00  0.00     0.031 C 
ATOM     53  C   UNL A   1      42.166  35.167  28.448  1.00  0.00     0.029 A 
ATOM     54  N   UNL A   1      43.351  36.608  29.573  1.00  0.00    -0.354 N 
ATOM     55  C   UNL A   1      44.290  35.351  34.859  1.00  0.00     0.074 A 
ATOM     56  C   UNL A   1      44.156  33.928  34.905  1.00  0.00     0.031 C 
ATOM     57  C   UNL A   1      43.220  35.748  27.655  1.00  0.00     0.029 A 
ATOM     58  C   UNL A   1      44.267  36.627  28.373  1.00  0.00     0.049 A 
ATOM     59  H   UNL A   1      43.375  37.392  30.169  1.00  0.00     0.167 HD
ATOM     60  C   UNL A   1      45.255  36.144  35.433  1.00  0.00     0.037 A 
ATOM     61  C   UNL A   1      45.750  37.172  28.177  1.00  0.00     0.037 A 
ATOM     62  C   UNL A   1      45.198  37.554  35.097  1.00  0.00     0.049 A 
ATOM     63  C   UNL A   1      46.778  38.238  29.307  1.00  0.00     0.074 A 
ATOM     64  C   UNL A   1      44.371  38.575  35.487  1.00  0.00     0.029 A 
ATOM     65  N   UNL A   1      46.132  38.108  34.212  1.00  0.00    -0.354 N 
ATOM     66  N   UNL A   1      46.491  39.435  29.853  1.00  0.00    -0.248 NA
ATOM     67  C   UNL A   1      47.811  37.570  30.210  1.00  0.00     0.031 C 
ATOM     68  C   UNL A   1      44.675  39.670  34.629  1.00  0.00     0.029 A 
ATOM     69  C   UNL A   1      45.696  39.335  33.700  1.00  0.00     0.049 A 
ATOM     70  H   UNL A   1      46.990  37.686  33.979  1.00  0.00     0.167 HD
ATOM     71  C   UNL A   1      46.838  39.401  31.281  1.00  0.00     0.074 A 
ATOM     72  C   UNL A   1      47.776  38.277  31.364  1.00  0.00     0.031 C 
ATOM     73  C   UNL A   1      46.027  39.947  32.301  1.00  0.00     0.037 A 
BRANCH  60  74
ATOM     74  C   UNL A   1      46.478  35.652  36.205  1.00  0.00     0.064 A 
ATOM     75  C   UNL A   1      47.566  35.065  35.514  1.00  0.00     0.173 A 
ATOM     76  C   UNL A   1      46.483  35.460  37.600  1.00  0.00     0.173 A 
ATOM     77  F   UNL A   1      47.714  35.232  34.190  1.00  0.00    -0.203 F 
ATOM     78  C   UNL A   1      48.487  34.226  36.154  1.00  0.00     0.198 A 
ATOM     79  C   UNL A   1      47.439  34.672  38.242  1.00  0.00     0.198 A 
ATOM     80  F   UNL A   1      45.508  35.924  38.385  1.00  0.00    -0.203 F 
ATOM     81  F   UNL A   1      49.410  33.570  35.437  1.00  0.00    -0.200 F 
ATOM     82  C   UNL A   1      48.405  34.012  37.516  1.00  0.00     0.200 A 
ATOM     83  F   UNL A   1      47.350  34.488  39.567  1.00  0.00    -0.200 F 
ATOM     84  F   UNL A   1      49.218  33.136  38.121  1.00  0.00    -0.200 F 
ENDBRANCH  60  74
BRANCH  61  85
ATOM     85  C   UNL A   1      46.989  36.400  27.260  1.00  0.00     0.064 A 
ATOM     86  C   UNL A   1      47.196  35.008  27.210  1.00  0.00     0.173 A 
ATOM     87  C   UNL A   1      47.665  36.977  26.113  1.00  0.00     0.173 A 
ATOM     88  F   UNL A   1      46.386  34.180  27.885  1.00  0.00    -0.203 F 
ATOM     89  C   UNL A   1      48.174  34.398  26.340  1.00  0.00     0.198 A 
ATOM     90  C   UNL A   1      48.762  36.471  25.423  1.00  0.00     0.198 A 
ATOM     91  F   UNL A   1      47.031  37.762  25.222  1.00  0.00    -0.203 F 
ATOM     92  F   UNL A   1      48.250  33.064  26.239  1.00  0.00    -0.200 F 
ATOM     93  C   UNL A   1      49.014  35.145  25.523  1.00  0.00     0.200 A 
ATOM     94  F   UNL A   1      49.322  37.219  24.458  1.00  0.00    -0.200 F 
ATOM     95  F   UNL A   1      49.928  34.590  24.716  1.00  0.00    -0.200 F 
ENDBRANCH  61  85
BRANCH  73  96
ATOM     96  C   UNL A   1      45.022  41.048  31.923  1.00  0.00     0.064 A 
ATOM     97  C   UNL A   1      43.681  40.787  31.600  1.00  0.00     0.173 A 
ATOM     98  C   UNL A   1      45.322  42.398  32.231  1.00  0.00     0.173 A 
ATOM     99  F   UNL A   1      43.228  39.558  31.324  1.00  0.00    -0.203 F 
ATOM    100  C   UNL A   1      42.696  41.769  31.681  1.00  0.00     0.198 A 
ATOM    101  C   UNL A   1      44.320  43.368  32.363  1.00  0.00     0.198 A 
ATOM    102  F   UNL A   1      46.574  42.758  32.565  1.00  0.00    -0.203 F 
ATOM    103  F   UNL A   1      41.420  41.428  31.445  1.00  0.00    -0.200 F 
ATOM    104  C   UNL A   1      43.004  43.045  32.102  1.00  0.00     0.200 A 
ATOM    105  F   UNL A   1      44.622  44.590  32.826  1.00  0.00    -0.200 F 
ATOM    106  F   UNL A   1      42.026  43.941  32.292  1.00  0.00    -0.200 F 
ENDBRANCH  73  96
ENDBRANCH  47  48
ENDBRANCH  40  42
ENDBRANCH  39  40
ENDBRANCH  38  39
ENDBRANCH  37  38
ENDBRANCH  36  37
ENDBRANCH  35  36
ENDBRANCH  34  35
ENDBRANCH  33  34
ENDBRANCH   1  33
TORSDOF 25
ENDMDL
