MODEL 1
REMARK VINA RESULT:      -9.0      0.000      0.000
REMARK SMILES C=CC[N@@H+](CC(=O)Nc1cc(C)on1)CC(=O)OCCOCCOCCOCCOC(=O)c1ccc(-c2c3nc(c(-c4c(F)c(F)c(F)c(F)c4F)c4ccc([nH]4)c(-c4c(F)c(F)c(F)c(F)c4F)c4nc(c(-c5c(F)c(F)c(F)c(F)c5F)c5ccc2[nH]5)C=C4)C=C3)cc1
REMARK SMILES IDX 23 1 22 2 21 3 20 4 19 5 18 6 16 7 17 8 15 9 4 10 3 12 2 13
REMARK SMILES IDX 1 14 5 15 6 16 7 17 8 18 9 20 10 21 14 22 11 23 13 24 12 25
REMARK SMILES IDX 24 26 25 27 26 28 27 29 28 30 29 31 30 32 31 33 32 34 33 35
REMARK SMILES IDX 34 36 95 37 35 38 94 39 36 40 37 41 38 42 88 43 39 44 93 45
REMARK SMILES IDX 87 46 89 47 40 48 92 49 86 50 85 51 41 53 73 54 53 55 72 56
REMARK SMILES IDX 54 57 57 58 71 59 90 60 55 61 56 62 70 64 91 65 58 66 42 67
REMARK SMILES IDX 43 68 51 69 44 70 45 71 49 72 52 73 46 74 47 75 50 76 48 77
REMARK SMILES IDX 74 78 75 79 83 80 76 81 77 82 81 83 84 84 78 85 79 86 82 87
REMARK SMILES IDX 80 88 59 89 60 90 68 91 61 92 62 93 66 94 69 95 63 96 64 97
REMARK SMILES IDX 67 98 65 99
REMARK H PARENT 4 11 8 19 89 52 57 63
REMARK Flexibility Score: inf
ROOT
ATOM      1  C   UNL A   1      33.804  30.834  27.705  1.00  0.00     0.188 C 
ENDROOT
BRANCH   1   2
ATOM      2  C   UNL A   1      32.923  29.912  26.849  1.00  0.00     0.188 C 
BRANCH   2   3
ATOM      3  O   UNL A   1      31.942  30.536  26.031  1.00  0.00    -0.376 OA
BRANCH   3   4
ATOM      4  C   UNL A   1      31.358  29.729  25.002  1.00  0.00     0.202 C 
BRANCH   4   5
ATOM      5  C   UNL A   1      32.359  28.939  24.165  1.00  0.00     0.261 C 
BRANCH   5   6
ATOM      6  O   UNL A   1      32.134  27.520  24.308  1.00  0.00    -0.459 OA
BRANCH   6   7
ATOM      7  C   UNL A   1      31.235  26.955  23.471  1.00  0.00     0.361 C 
ATOM      8  O   UNL A   1      31.001  27.357  22.336  1.00  0.00    -0.245 OA
BRANCH   7   9
ATOM      9  C   UNL A   1      30.400  25.873  24.135  1.00  0.00     0.387 C 
BRANCH   9  10
ATOM     10  N   UNL A   1      31.055  24.655  24.611  1.00  0.00    -0.315 N 
ATOM     11  H   UNL A   1      30.174  24.144  24.657  1.00  0.00     0.349 HD
BRANCH  10  12
ATOM     12  C   UNL A   1      31.786  23.837  23.682  1.00  0.00     0.291 C 
BRANCH  12  13
ATOM     13  C   UNL A   1      33.245  24.097  23.490  1.00  0.00     0.025 C 
ATOM     14  C   UNL A   1      34.034  23.313  22.739  1.00  0.00     0.010 C 
ENDBRANCH  12  13
ENDBRANCH  10  12
BRANCH  10  15
ATOM     15  C   UNL A   1      31.498  24.574  26.012  1.00  0.00     0.364 C 
BRANCH  15  16
ATOM     16  C   UNL A   1      30.998  23.410  26.895  1.00  0.00     0.280 C 
ATOM     17  O   UNL A   1      29.848  23.411  27.351  1.00  0.00    -0.268 OA
ATOM     18  N   UNL A   1      31.724  22.255  27.033  1.00  0.00    -0.303 N 
ATOM     19  H   UNL A   1      31.239  21.493  27.424  1.00  0.00     0.171 HD
BRANCH  18  20
ATOM     20  C   UNL A   1      33.033  22.017  26.702  1.00  0.00     0.176 A 
ATOM     21  C   UNL A   1      33.475  21.144  25.689  1.00  0.00     0.095 A 
ATOM     22  N   UNL A   1      34.053  22.753  27.155  1.00  0.00    -0.062 NA
ATOM     23  C   UNL A   1      34.840  21.230  25.710  1.00  0.00     0.135 A 
ATOM     24  O   UNL A   1      35.199  22.204  26.588  1.00  0.00    -0.360 OA
ATOM     25  C   UNL A   1      35.906  20.496  25.003  1.00  0.00     0.091 C 
ENDBRANCH  18  20
ENDBRANCH  15  16
ENDBRANCH  10  15
ENDBRANCH   9  10
ENDBRANCH   7   9
ENDBRANCH   6   7
ENDBRANCH   5   6
ENDBRANCH   4   5
ENDBRANCH   3   4
ENDBRANCH   2   3
ENDBRANCH   1   2
BRANCH   1  26
ATOM     26  O   UNL A   1      35.193  30.834  27.395  1.00  0.00    -0.377 OA
BRANCH  26  27
ATOM     27  C   UNL A   1      35.868  31.943  27.995  1.00  0.00     0.188 C 
BRANCH  27  28
ATOM     28  C   UNL A   1      34.886  32.935  28.614  1.00  0.00     0.188 C 
BRANCH  28  29
ATOM     29  O   UNL A   1      35.322  34.293  28.628  1.00  0.00    -0.376 OA
BRANCH  29  30
ATOM     30  C   UNL A   1      34.293  35.274  28.456  1.00  0.00     0.202 C 
BRANCH  30  31
ATOM     31  C   UNL A   1      33.128  35.177  29.452  1.00  0.00     0.261 C 
BRANCH  31  32
ATOM     32  O   UNL A   1      33.387  35.982  30.622  1.00  0.00    -0.460 OA
BRANCH  32  33
ATOM     33  C   UNL A   1      32.918  35.478  31.784  1.00  0.00     0.338 C 
ATOM     34  O   UNL A   1      31.749  35.333  32.116  1.00  0.00    -0.246 OA
BRANCH  33  35
ATOM     35  C   UNL A   1      34.025  34.918  32.577  1.00  0.00     0.060 A 
ATOM     36  C   UNL A   1      35.254  35.590  32.540  1.00  0.00     0.016 A 
ATOM     37  C   UNL A   1      33.909  33.681  33.213  1.00  0.00     0.016 A 
ATOM     38  C   UNL A   1      36.392  34.994  33.073  1.00  0.00     0.010 A 
ATOM     39  C   UNL A   1      35.059  33.072  33.732  1.00  0.00     0.010 A 
ATOM     40  C   UNL A   1      36.312  33.705  33.615  1.00  0.00    -0.014 A 
BRANCH  40  41
ATOM     41  C   UNL A   1      37.566  32.942  33.830  1.00  0.00     0.031 A 
ATOM     42  C   UNL A   1      38.350  33.192  35.093  1.00  0.00     0.074 A 
ATOM     43  C   UNL A   1      37.974  32.004  32.959  1.00  0.00     0.049 A 
ATOM     44  N   UNL A   1      39.470  32.651  35.500  1.00  0.00    -0.248 NA
ATOM     45  C   UNL A   1      37.787  34.183  36.025  1.00  0.00     0.031 C 
ATOM     46  C   UNL A   1      37.274  31.627  31.734  1.00  0.00     0.029 A 
ATOM     47  N   UNL A   1      39.084  31.197  32.980  1.00  0.00    -0.354 N 
ATOM     48  C   UNL A   1      39.746  33.236  36.729  1.00  0.00     0.074 A 
ATOM     49  C   UNL A   1      38.693  34.192  36.991  1.00  0.00     0.031 C 
ATOM     50  C   UNL A   1      37.979  30.666  31.111  1.00  0.00     0.029 A 
ATOM     51  C   UNL A   1      39.191  30.383  31.880  1.00  0.00     0.049 A 
ATOM     52  H   UNL A   1      39.741  31.202  33.713  1.00  0.00     0.167 HD
ATOM     53  C   UNL A   1      40.782  32.995  37.567  1.00  0.00     0.037 A 
ATOM     54  C   UNL A   1      40.168  29.523  31.530  1.00  0.00     0.037 A 
ATOM     55  C   UNL A   1      41.830  32.045  37.308  1.00  0.00     0.049 A 
ATOM     56  C   UNL A   1      41.355  29.336  32.439  1.00  0.00     0.074 A 
ATOM     57  C   UNL A   1      42.914  31.716  38.105  1.00  0.00     0.029 A 
ATOM     58  N   UNL A   1      41.931  31.275  36.158  1.00  0.00    -0.354 N 
ATOM     59  N   UNL A   1      41.597  29.874  33.609  1.00  0.00    -0.248 NA
ATOM     60  C   UNL A   1      42.405  28.416  31.977  1.00  0.00     0.031 C 
ATOM     61  C   UNL A   1      43.697  30.786  37.415  1.00  0.00     0.029 A 
ATOM     62  C   UNL A   1      43.074  30.495  36.211  1.00  0.00     0.049 A 
ATOM     63  H   UNL A   1      41.286  31.283  35.416  1.00  0.00     0.167 HD
ATOM     64  C   UNL A   1      42.808  29.339  34.036  1.00  0.00     0.074 A 
ATOM     65  C   UNL A   1      43.245  28.424  33.003  1.00  0.00     0.031 C 
ATOM     66  C   UNL A   1      43.492  29.581  35.180  1.00  0.00     0.037 A 
BRANCH  53  67
ATOM     67  C   UNL A   1      40.849  33.794  38.833  1.00  0.00     0.064 A 
ATOM     68  C   UNL A   1      40.182  33.388  39.999  1.00  0.00     0.173 A 
ATOM     69  C   UNL A   1      41.618  34.968  38.889  1.00  0.00     0.173 A 
ATOM     70  F   UNL A   1      39.423  32.284  39.992  1.00  0.00    -0.203 F 
ATOM     71  C   UNL A   1      40.268  34.139  41.170  1.00  0.00     0.198 A 
ATOM     72  C   UNL A   1      41.722  35.701  40.067  1.00  0.00     0.198 A 
ATOM     73  F   UNL A   1      42.275  35.397  37.803  1.00  0.00    -0.203 F 
ATOM     74  F   UNL A   1      39.591  33.754  42.261  1.00  0.00    -0.200 F 
ATOM     75  C   UNL A   1      41.042  35.289  41.205  1.00  0.00     0.200 A 
ATOM     76  F   UNL A   1      42.478  36.805  40.104  1.00  0.00    -0.200 F 
ATOM     77  F   UNL A   1      41.129  36.005  42.334  1.00  0.00    -0.200 F 
ENDBRANCH  53  67
BRANCH  54  78
ATOM     78  C   UNL A   1      40.076  28.780  30.247  1.00  0.00     0.064 A 
ATOM     79  C   UNL A   1      39.485  27.510  30.186  1.00  0.00     0.173 A 
ATOM     80  C   UNL A   1      40.607  29.309  29.061  1.00  0.00     0.173 A 
ATOM     81  F   UNL A   1      38.991  26.949  31.299  1.00  0.00    -0.203 F 
ATOM     82  C   UNL A   1      39.442  26.792  28.993  1.00  0.00     0.198 A 
ATOM     83  C   UNL A   1      40.541  28.603  27.863  1.00  0.00     0.198 A 
ATOM     84  F   UNL A   1      41.192  30.516  29.068  1.00  0.00    -0.203 F 
ATOM     85  F   UNL A   1      38.916  25.560  28.972  1.00  0.00    -0.200 F 
ATOM     86  C   UNL A   1      39.966  27.341  27.831  1.00  0.00     0.200 A 
ATOM     87  F   UNL A   1      41.041  29.139  26.742  1.00  0.00    -0.200 F 
ATOM     88  F   UNL A   1      39.927  26.650  26.684  1.00  0.00    -0.200 F 
ENDBRANCH  54  78
BRANCH  66  89
ATOM     89  C   UNL A   1      44.768  28.820  35.398  1.00  0.00     0.064 A 
ATOM     90  C   UNL A   1      44.779  27.563  36.017  1.00  0.00     0.173 A 
ATOM     91  C   UNL A   1      45.989  29.337  34.938  1.00  0.00     0.173 A 
ATOM     92  F   UNL A   1      43.640  27.031  36.485  1.00  0.00    -0.203 F 
ATOM     93  C   UNL A   1      45.969  26.859  36.188  1.00  0.00     0.198 A 
ATOM     94  C   UNL A   1      47.173  28.619  35.085  1.00  0.00     0.198 A 
ATOM     95  F   UNL A   1      46.032  30.533  34.331  1.00  0.00    -0.203 F 
ATOM     96  F   UNL A   1      45.962  25.678  36.821  1.00  0.00    -0.200 F 
ATOM     97  C   UNL A   1      47.163  27.385  35.715  1.00  0.00     0.200 A 
ATOM     98  F   UNL A   1      48.322  29.122  34.614  1.00  0.00    -0.200 F 
ATOM     99  F   UNL A   1      48.306  26.703  35.873  1.00  0.00    -0.200 F 
ENDBRANCH  66  89
ENDBRANCH  40  41
ENDBRANCH  33  35
ENDBRANCH  32  33
ENDBRANCH  31  32
ENDBRANCH  30  31
ENDBRANCH  29  30
ENDBRANCH  28  29
ENDBRANCH  27  28
ENDBRANCH  26  27
ENDBRANCH   1  26
TORSDOF 26
ENDMDL
MODEL 2
REMARK VINA RESULT:      -8.7      1.182      7.417
REMARK SMILES C=CC[N@@H+](CC(=O)Nc1cc(C)on1)CC(=O)OCCOCCOCCOCCOC(=O)c1ccc(-c2c3nc(c(-c4c(F)c(F)c(F)c(F)c4F)c4ccc([nH]4)c(-c4c(F)c(F)c(F)c(F)c4F)c4nc(c(-c5c(F)c(F)c(F)c(F)c5F)c5ccc2[nH]5)C=C4)C=C3)cc1
REMARK SMILES IDX 23 1 22 2 21 3 20 4 19 5 18 6 16 7 17 8 15 9 4 10 3 12 2 13
REMARK SMILES IDX 1 14 5 15 6 16 7 17 8 18 9 20 10 21 14 22 11 23 13 24 12 25
REMARK SMILES IDX 24 26 25 27 26 28 27 29 28 30 29 31 30 32 31 33 32 34 33 35
REMARK SMILES IDX 34 36 95 37 35 38 94 39 36 40 37 41 38 42 88 43 39 44 93 45
REMARK SMILES IDX 87 46 89 47 40 48 92 49 86 50 85 51 41 53 73 54 53 55 72 56
REMARK SMILES IDX 54 57 57 58 71 59 90 60 55 61 56 62 70 64 91 65 58 66 42 67
REMARK SMILES IDX 43 68 51 69 44 70 45 71 49 72 52 73 46 74 47 75 50 76 48 77
REMARK SMILES IDX 74 78 75 79 83 80 76 81 77 82 81 83 84 84 78 85 79 86 82 87
REMARK SMILES IDX 80 88 59 89 60 90 68 91 61 92 62 93 66 94 69 95 63 96 64 97
REMARK SMILES IDX 67 98 65 99
REMARK H PARENT 4 11 8 19 89 52 57 63
REMARK Flexibility Score: inf
ROOT
ATOM      1  C   UNL A   1      33.449  31.884  27.678  1.00  0.00     0.188 C 
ENDROOT
BRANCH   1   2
ATOM      2  C   UNL A   1      33.347  30.513  26.994  1.00  0.00     0.188 C 
BRANCH   2   3
ATOM      3  O   UNL A   1      32.098  30.181  26.402  1.00  0.00    -0.376 OA
BRANCH   3   4
ATOM      4  C   UNL A   1      32.045  28.953  25.666  1.00  0.00     0.202 C 
BRANCH   4   5
ATOM      5  C   UNL A   1      32.842  28.953  24.364  1.00  0.00     0.261 C 
BRANCH   5   6
ATOM      6  O   UNL A   1      32.572  27.757  23.602  1.00  0.00    -0.459 OA
BRANCH   6   7
ATOM      7  C   UNL A   1      33.549  27.329  22.771  1.00  0.00     0.361 C 
ATOM      8  O   UNL A   1      33.967  27.966  21.810  1.00  0.00    -0.245 OA
BRANCH   7   9
ATOM      9  C   UNL A   1      33.963  25.890  23.030  1.00  0.00     0.387 C 
BRANCH   9  10
ATOM     10  N   UNL A   1      32.949  24.836  22.999  1.00  0.00    -0.315 N 
ATOM     11  H   UNL A   1      32.763  24.922  23.998  1.00  0.00     0.349 HD
BRANCH  10  12
ATOM     12  C   UNL A   1      31.647  25.126  22.463  1.00  0.00     0.291 C 
BRANCH  12  13
ATOM     13  C   UNL A   1      30.443  24.817  23.294  1.00  0.00     0.025 C 
ATOM     14  C   UNL A   1      29.812  25.740  24.036  1.00  0.00     0.010 C 
ENDBRANCH  12  13
ENDBRANCH  10  12
BRANCH  10  15
ATOM     15  C   UNL A   1      33.371  23.430  22.913  1.00  0.00     0.364 C 
BRANCH  15  16
ATOM     16  C   UNL A   1      34.291  22.850  24.011  1.00  0.00     0.280 C 
ATOM     17  O   UNL A   1      35.429  22.450  23.735  1.00  0.00    -0.268 OA
ATOM     18  N   UNL A   1      33.968  22.947  25.339  1.00  0.00    -0.303 N 
ATOM     19  H   UNL A   1      34.700  22.757  25.969  1.00  0.00     0.171 HD
BRANCH  18  20
ATOM     20  C   UNL A   1      32.765  23.273  25.911  1.00  0.00     0.176 A 
ATOM     21  C   UNL A   1      31.757  22.358  26.273  1.00  0.00     0.095 A 
ATOM     22  N   UNL A   1      32.486  24.485  26.400  1.00  0.00    -0.062 NA
ATOM     23  C   UNL A   1      30.755  23.120  26.808  1.00  0.00     0.135 A 
ATOM     24  O   UNL A   1      31.188  24.405  26.897  1.00  0.00    -0.360 OA
ATOM     25  C   UNL A   1      29.388  22.808  27.264  1.00  0.00     0.091 C 
ENDBRANCH  18  20
ENDBRANCH  15  16
ENDBRANCH  10  15
ENDBRANCH   9  10
ENDBRANCH   7   9
ENDBRANCH   6   7
ENDBRANCH   5   6
ENDBRANCH   4   5
ENDBRANCH   3   4
ENDBRANCH   2   3
ENDBRANCH   1   2
BRANCH   1  26
ATOM     26  O   UNL A   1      34.545  32.057  28.570  1.00  0.00    -0.377 OA
BRANCH  26  27
ATOM     27  C   UNL A   1      35.100  33.371  28.475  1.00  0.00     0.188 C 
BRANCH  27  28
ATOM     28  C   UNL A   1      34.029  34.418  28.178  1.00  0.00     0.188 C 
BRANCH  28  29
ATOM     29  O   UNL A   1      34.490  35.767  28.144  1.00  0.00    -0.376 OA
BRANCH  29  30
ATOM     30  C   UNL A   1      33.627  36.731  28.760  1.00  0.00     0.202 C 
BRANCH  30  31
ATOM     31  C   UNL A   1      32.621  36.154  29.766  1.00  0.00     0.261 C 
BRANCH  31  32
ATOM     32  O   UNL A   1      32.997  36.496  31.118  1.00  0.00    -0.460 OA
BRANCH  32  33
ATOM     33  C   UNL A   1      32.949  35.479  32.005  1.00  0.00     0.338 C 
ATOM     34  O   UNL A   1      31.998  35.137  32.695  1.00  0.00    -0.246 OA
BRANCH  33  35
ATOM     35  C   UNL A   1      34.172  34.665  31.911  1.00  0.00     0.060 A 
ATOM     36  C   UNL A   1      34.098  33.332  32.339  1.00  0.00     0.016 A 
ATOM     37  C   UNL A   1      35.398  35.233  31.561  1.00  0.00     0.016 A 
ATOM     38  C   UNL A   1      35.261  32.584  32.493  1.00  0.00     0.010 A 
ATOM     39  C   UNL A   1      36.569  34.485  31.735  1.00  0.00     0.010 A 
ATOM     40  C   UNL A   1      36.506  33.177  32.253  1.00  0.00    -0.014 A 
BRANCH  40  41
ATOM     41  C   UNL A   1      37.726  32.510  32.770  1.00  0.00     0.031 A 
ATOM     42  C   UNL A   1      38.372  31.442  31.926  1.00  0.00     0.074 A 
ATOM     43  C   UNL A   1      38.287  32.881  33.933  1.00  0.00     0.049 A 
ATOM     44  N   UNL A   1      39.438  30.721  32.165  1.00  0.00    -0.248 NA
ATOM     45  C   UNL A   1      37.730  31.154  30.633  1.00  0.00     0.031 C 
ATOM     46  C   UNL A   1      37.795  33.939  34.810  1.00  0.00     0.029 A 
ATOM     47  N   UNL A   1      39.403  32.400  34.573  1.00  0.00    -0.354 N 
ATOM     48  C   UNL A   1      39.591  29.896  31.059  1.00  0.00     0.074 A 
ATOM     49  C   UNL A   1      38.497  30.184  30.158  1.00  0.00     0.031 C 
ATOM     50  C   UNL A   1      38.600  34.022  35.883  1.00  0.00     0.029 A 
ATOM     51  C   UNL A   1      39.646  33.004  35.780  1.00  0.00     0.049 A 
ATOM     52  H   UNL A   1      39.974  31.690  34.200  1.00  0.00     0.167 HD
ATOM     53  C   UNL A   1      40.560  28.983  30.812  1.00  0.00     0.037 A 
ATOM     54  C   UNL A   1      40.594  32.748  36.703  1.00  0.00     0.037 A 
ATOM     55  C   UNL A   1      41.649  28.694  31.706  1.00  0.00     0.049 A 
ATOM     56  C   UNL A   1      41.611  31.666  36.443  1.00  0.00     0.074 A 
ATOM     57  C   UNL A   1      42.692  27.798  31.537  1.00  0.00     0.029 A 
ATOM     58  N   UNL A   1      41.832  29.292  32.945  1.00  0.00    -0.354 N 
ATOM     59  N   UNL A   1      41.764  30.908  35.385  1.00  0.00    -0.248 NA
ATOM     60  C   UNL A   1      42.591  31.408  37.508  1.00  0.00     0.031 C 
ATOM     61  C   UNL A   1      43.476  27.818  32.694  1.00  0.00     0.029 A 
ATOM     62  C   UNL A   1      42.953  28.762  33.563  1.00  0.00     0.049 A 
ATOM     63  H   UNL A   1      41.252  29.988  33.327  1.00  0.00     0.167 HD
ATOM     64  C   UNL A   1      42.870  30.106  35.644  1.00  0.00     0.074 A 
ATOM     65  C   UNL A   1      43.357  30.478  36.955  1.00  0.00     0.031 C 
ATOM     66  C   UNL A   1      43.432  29.150  34.865  1.00  0.00     0.037 A 
BRANCH  53  67
ATOM     67  C   UNL A   1      40.470  28.206  29.534  1.00  0.00     0.064 A 
ATOM     68  C   UNL A   1      41.172  28.594  28.382  1.00  0.00     0.173 A 
ATOM     69  C   UNL A   1      39.694  27.036  29.470  1.00  0.00     0.173 A 
ATOM     70  F   UNL A   1      41.912  29.711  28.388  1.00  0.00    -0.203 F 
ATOM     71  C   UNL A   1      41.085  27.851  27.207  1.00  0.00     0.198 A 
ATOM     72  C   UNL A   1      39.631  26.283  28.301  1.00  0.00     0.198 A 
ATOM     73  F   UNL A   1      39.008  26.622  30.542  1.00  0.00    -0.203 F 
ATOM     74  F   UNL A   1      41.731  28.261  26.108  1.00  0.00    -0.200 F 
ATOM     75  C   UNL A   1      40.321  26.693  27.170  1.00  0.00     0.200 A 
ATOM     76  F   UNL A   1      38.903  25.160  28.269  1.00  0.00    -0.200 F 
ATOM     77  F   UNL A   1      40.246  25.975  26.041  1.00  0.00    -0.200 F 
ENDBRANCH  53  67
BRANCH  54  78
ATOM     78  C   UNL A   1      40.622  33.519  37.972  1.00  0.00     0.064 A 
ATOM     79  C   UNL A   1      39.730  33.230  39.015  1.00  0.00     0.173 A 
ATOM     80  C   UNL A   1      41.519  34.581  38.158  1.00  0.00     0.173 A 
ATOM     81  F   UNL A   1      38.832  32.243  38.873  1.00  0.00    -0.203 F 
ATOM     82  C   UNL A   1      39.723  33.984  40.186  1.00  0.00     0.198 A 
ATOM     83  C   UNL A   1      41.530  35.318  39.339  1.00  0.00     0.198 A 
ATOM     84  F   UNL A   1      42.386  34.904  37.186  1.00  0.00    -0.203 F 
ATOM     85  F   UNL A   1      38.828  33.719  41.147  1.00  0.00    -0.200 F 
ATOM     86  C   UNL A   1      40.627  35.024  40.350  1.00  0.00     0.200 A 
ATOM     87  F   UNL A   1      42.409  36.317  39.496  1.00  0.00    -0.200 F 
ATOM     88  F   UNL A   1      40.619  35.751  41.476  1.00  0.00    -0.200 F 
ENDBRANCH  54  78
BRANCH  66  89
ATOM     89  C   UNL A   1      44.660  28.463  35.388  1.00  0.00     0.064 A 
ATOM     90  C   UNL A   1      45.944  28.980  35.166  1.00  0.00     0.173 A 
ATOM     91  C   UNL A   1      44.546  27.299  36.163  1.00  0.00     0.173 A 
ATOM     92  F   UNL A   1      46.108  30.084  34.420  1.00  0.00    -0.203 F 
ATOM     93  C   UNL A   1      47.071  28.343  35.681  1.00  0.00     0.198 A 
ATOM     94  C   UNL A   1      45.671  26.682  36.701  1.00  0.00     0.198 A 
ATOM     95  F   UNL A   1      43.339  26.769  36.413  1.00  0.00    -0.203 F 
ATOM     96  F   UNL A   1      48.292  28.831  35.419  1.00  0.00    -0.200 F 
ATOM     97  C   UNL A   1      46.933  27.200  36.454  1.00  0.00     0.200 A 
ATOM     98  F   UNL A   1      45.535  25.585  37.459  1.00  0.00    -0.200 F 
ATOM     99  F   UNL A   1      48.018  26.594  36.956  1.00  0.00    -0.200 F 
ENDBRANCH  66  89
ENDBRANCH  40  41
ENDBRANCH  33  35
ENDBRANCH  32  33
ENDBRANCH  31  32
ENDBRANCH  30  31
ENDBRANCH  29  30
ENDBRANCH  28  29
ENDBRANCH  27  28
ENDBRANCH  26  27
ENDBRANCH   1  26
TORSDOF 26
ENDMDL
MODEL 3
REMARK VINA RESULT:      -8.7      1.384      7.501
REMARK SMILES C=CC[N@@H+](CC(=O)Nc1cc(C)on1)CC(=O)OCCOCCOCCOCCOC(=O)c1ccc(-c2c3nc(c(-c4c(F)c(F)c(F)c(F)c4F)c4ccc([nH]4)c(-c4c(F)c(F)c(F)c(F)c4F)c4nc(c(-c5c(F)c(F)c(F)c(F)c5F)c5ccc2[nH]5)C=C4)C=C3)cc1
REMARK SMILES IDX 23 1 22 2 21 3 20 4 19 5 18 6 16 7 17 8 15 9 4 10 3 12 2 13
REMARK SMILES IDX 1 14 5 15 6 16 7 17 8 18 9 20 10 21 14 22 11 23 13 24 12 25
REMARK SMILES IDX 24 26 25 27 26 28 27 29 28 30 29 31 30 32 31 33 32 34 33 35
REMARK SMILES IDX 34 36 95 37 35 38 94 39 36 40 37 41 38 42 88 43 39 44 93 45
REMARK SMILES IDX 87 46 89 47 40 48 92 49 86 50 85 51 41 53 73 54 53 55 72 56
REMARK SMILES IDX 54 57 57 58 71 59 90 60 55 61 56 62 70 64 91 65 58 66 42 67
REMARK SMILES IDX 43 68 51 69 44 70 45 71 49 72 52 73 46 74 47 75 50 76 48 77
REMARK SMILES IDX 74 78 75 79 83 80 76 81 77 82 81 83 84 84 78 85 79 86 82 87
REMARK SMILES IDX 80 88 59 89 60 90 68 91 61 92 62 93 66 94 69 95 63 96 64 97
REMARK SMILES IDX 67 98 65 99
REMARK H PARENT 4 11 8 19 89 52 57 63
REMARK Flexibility Score: inf
ROOT
ATOM      1  C   UNL A   1      33.263  31.645  27.659  1.00  0.00     0.188 C 
ENDROOT
BRANCH   1   2
ATOM      2  C   UNL A   1      33.073  30.222  27.115  1.00  0.00     0.188 C 
BRANCH   2   3
ATOM      3  O   UNL A   1      31.780  29.649  27.250  1.00  0.00    -0.376 OA
BRANCH   3   4
ATOM      4  C   UNL A   1      31.727  28.262  27.606  1.00  0.00     0.202 C 
BRANCH   4   5
ATOM      5  C   UNL A   1      32.032  27.297  26.465  1.00  0.00     0.261 C 
BRANCH   5   6
ATOM      6  O   UNL A   1      31.728  25.939  26.851  1.00  0.00    -0.459 OA
BRANCH   6   7
ATOM      7  C   UNL A   1      31.136  25.157  25.921  1.00  0.00     0.361 C 
ATOM      8  O   UNL A   1      30.062  25.414  25.385  1.00  0.00    -0.245 OA
BRANCH   7   9
ATOM      9  C   UNL A   1      31.839  23.824  25.726  1.00  0.00     0.387 C 
BRANCH   9  10
ATOM     10  N   UNL A   1      33.293  23.800  25.565  1.00  0.00    -0.315 N 
ATOM     11  H   UNL A   1      33.361  24.817  25.608  1.00  0.00     0.349 HD
BRANCH  10  12
ATOM     12  C   UNL A   1      34.122  23.432  26.680  1.00  0.00     0.291 C 
BRANCH  12  13
ATOM     13  C   UNL A   1      33.592  22.451  27.676  1.00  0.00     0.025 C 
ATOM     14  C   UNL A   1      33.648  21.123  27.493  1.00  0.00     0.010 C 
ENDBRANCH  12  13
ENDBRANCH  10  12
BRANCH  10  15
ATOM     15  C   UNL A   1      33.867  23.540  24.235  1.00  0.00     0.364 C 
BRANCH  15  16
ATOM     16  C   UNL A   1      32.924  23.199  23.060  1.00  0.00     0.280 C 
ATOM     17  O   UNL A   1      32.433  22.068  22.951  1.00  0.00    -0.268 OA
ATOM     18  N   UNL A   1      32.439  24.173  22.227  1.00  0.00    -0.303 N 
ATOM     19  H   UNL A   1      31.684  23.906  21.655  1.00  0.00     0.171 HD
BRANCH  18  20
ATOM     20  C   UNL A   1      32.864  25.469  22.079  1.00  0.00     0.176 A 
ATOM     21  C   UNL A   1      33.137  26.365  23.131  1.00  0.00     0.095 A 
ATOM     22  N   UNL A   1      33.284  25.978  20.917  1.00  0.00    -0.062 NA
ATOM     23  C   UNL A   1      33.536  27.524  22.522  1.00  0.00     0.135 A 
ATOM     24  O   UNL A   1      33.635  27.298  21.185  1.00  0.00    -0.360 OA
ATOM     25  C   UNL A   1      33.844  28.873  23.030  1.00  0.00     0.091 C 
ENDBRANCH  18  20
ENDBRANCH  15  16
ENDBRANCH  10  15
ENDBRANCH   9  10
ENDBRANCH   7   9
ENDBRANCH   6   7
ENDBRANCH   5   6
ENDBRANCH   4   5
ENDBRANCH   3   4
ENDBRANCH   2   3
ENDBRANCH   1   2
BRANCH   1  26
ATOM     26  O   UNL A   1      34.459  31.878  28.396  1.00  0.00    -0.377 OA
BRANCH  26  27
ATOM     27  C   UNL A   1      35.013  33.165  28.111  1.00  0.00     0.188 C 
BRANCH  27  28
ATOM     28  C   UNL A   1      33.946  34.257  28.130  1.00  0.00     0.188 C 
BRANCH  28  29
ATOM     29  O   UNL A   1      34.440  35.592  28.040  1.00  0.00    -0.376 OA
BRANCH  29  30
ATOM     30  C   UNL A   1      33.597  36.602  28.606  1.00  0.00     0.202 C 
BRANCH  30  31
ATOM     31  C   UNL A   1      32.583  36.098  29.643  1.00  0.00     0.261 C 
BRANCH  31  32
ATOM     32  O   UNL A   1      32.948  36.535  30.970  1.00  0.00    -0.460 OA
BRANCH  32  33
ATOM     33  C   UNL A   1      32.844  35.597  31.936  1.00  0.00     0.338 C 
ATOM     34  O   UNL A   1      31.883  35.378  32.661  1.00  0.00    -0.246 OA
BRANCH  33  35
ATOM     35  C   UNL A   1      34.007  34.695  31.893  1.00  0.00     0.060 A 
ATOM     36  C   UNL A   1      33.915  33.486  32.596  1.00  0.00     0.016 A 
ATOM     37  C   UNL A   1      35.213  35.092  31.313  1.00  0.00     0.016 A 
ATOM     38  C   UNL A   1      35.049  32.703  32.787  1.00  0.00     0.010 A 
ATOM     39  C   UNL A   1      36.358  34.312  31.523  1.00  0.00     0.010 A 
ATOM     40  C   UNL A   1      36.288  33.144  32.306  1.00  0.00    -0.014 A 
BRANCH  40  41
ATOM     41  C   UNL A   1      37.523  32.509  32.828  1.00  0.00     0.031 A 
ATOM     42  C   UNL A   1      38.198  31.455  31.990  1.00  0.00     0.074 A 
ATOM     43  C   UNL A   1      38.072  32.899  33.991  1.00  0.00     0.049 A 
ATOM     44  N   UNL A   1      39.280  30.762  32.233  1.00  0.00    -0.248 NA
ATOM     45  C   UNL A   1      37.565  31.146  30.696  1.00  0.00     0.031 C 
ATOM     46  C   UNL A   1      37.552  33.948  34.862  1.00  0.00     0.029 A 
ATOM     47  N   UNL A   1      39.199  32.449  34.634  1.00  0.00    -0.354 N 
ATOM     48  C   UNL A   1      39.457  29.937  31.131  1.00  0.00     0.074 A 
ATOM     49  C   UNL A   1      38.358  30.194  30.227  1.00  0.00     0.031 C 
ATOM     50  C   UNL A   1      38.352  34.054  35.937  1.00  0.00     0.029 A 
ATOM     51  C   UNL A   1      39.424  33.063  35.840  1.00  0.00     0.049 A 
ATOM     52  H   UNL A   1      39.788  31.751  34.265  1.00  0.00     0.167 HD
ATOM     53  C   UNL A   1      40.449  29.047  30.889  1.00  0.00     0.037 A 
ATOM     54  C   UNL A   1      40.376  32.834  36.766  1.00  0.00     0.037 A 
ATOM     55  C   UNL A   1      41.543  28.789  31.786  1.00  0.00     0.049 A 
ATOM     56  C   UNL A   1      41.420  31.777  36.512  1.00  0.00     0.074 A 
ATOM     57  C   UNL A   1      42.608  27.920  31.622  1.00  0.00     0.029 A 
ATOM     58  N   UNL A   1      41.708  29.396  33.023  1.00  0.00    -0.354 N 
ATOM     59  N   UNL A   1      41.594  31.019  35.457  1.00  0.00    -0.248 NA
ATOM     60  C   UNL A   1      42.404  31.548  37.580  1.00  0.00     0.031 C 
ATOM     61  C   UNL A   1      43.389  27.963  32.781  1.00  0.00     0.029 A 
ATOM     62  C   UNL A   1      42.841  28.897  33.645  1.00  0.00     0.049 A 
ATOM     63  H   UNL A   1      41.110  30.079  33.401  1.00  0.00     0.167 HD
ATOM     64  C   UNL A   1      42.720  30.246  35.721  1.00  0.00     0.074 A 
ATOM     65  C   UNL A   1      43.194  30.635  37.032  1.00  0.00     0.031 C 
ATOM     66  C   UNL A   1      43.307  29.302  34.946  1.00  0.00     0.037 A 
BRANCH  53  67
ATOM     67  C   UNL A   1      40.381  28.264  29.613  1.00  0.00     0.064 A 
ATOM     68  C   UNL A   1      41.073  28.667  28.461  1.00  0.00     0.173 A 
ATOM     69  C   UNL A   1      39.637  27.073  29.553  1.00  0.00     0.173 A 
ATOM     70  F   UNL A   1      41.783  29.803  28.463  1.00  0.00    -0.203 F 
ATOM     71  C   UNL A   1      41.007  27.917  27.288  1.00  0.00     0.198 A 
ATOM     72  C   UNL A   1      39.595  26.314  28.387  1.00  0.00     0.198 A 
ATOM     73  F   UNL A   1      38.961  26.645  30.627  1.00  0.00    -0.203 F 
ATOM     74  F   UNL A   1      41.643  28.341  26.188  1.00  0.00    -0.200 F 
ATOM     75  C   UNL A   1      40.275  26.739  27.255  1.00  0.00     0.200 A 
ATOM     76  F   UNL A   1      38.898  25.172  28.359  1.00  0.00    -0.200 F 
ATOM     77  F   UNL A   1      40.220  26.015  26.128  1.00  0.00    -0.200 F 
ENDBRANCH  53  67
BRANCH  54  78
ATOM     78  C   UNL A   1      40.382  33.610  38.032  1.00  0.00     0.064 A 
ATOM     79  C   UNL A   1      39.479  33.319  39.064  1.00  0.00     0.173 A 
ATOM     80  C   UNL A   1      41.269  34.680  38.225  1.00  0.00     0.173 A 
ATOM     81  F   UNL A   1      38.590  32.326  38.915  1.00  0.00    -0.203 F 
ATOM     82  C   UNL A   1      39.451  34.078  40.232  1.00  0.00     0.198 A 
ATOM     83  C   UNL A   1      41.260  35.421  39.403  1.00  0.00     0.198 A 
ATOM     84  F   UNL A   1      42.146  35.004  37.264  1.00  0.00    -0.203 F 
ATOM     85  F   UNL A   1      38.545  33.810  41.183  1.00  0.00    -0.200 F 
ATOM     86  C   UNL A   1      40.346  35.125  40.404  1.00  0.00     0.200 A 
ATOM     87  F   UNL A   1      42.129  36.427  39.568  1.00  0.00    -0.200 F 
ATOM     88  F   UNL A   1      40.318  35.856  41.526  1.00  0.00    -0.200 F 
ENDBRANCH  54  78
BRANCH  66  89
ATOM     89  C   UNL A   1      44.551  28.648  35.475  1.00  0.00     0.064 A 
ATOM     90  C   UNL A   1      44.500  27.455  36.210  1.00  0.00     0.173 A 
ATOM     91  C   UNL A   1      45.813  29.196  35.198  1.00  0.00     0.173 A 
ATOM     92  F   UNL A   1      43.317  26.898  36.511  1.00  0.00    -0.203 F 
ATOM     93  C   UNL A   1      45.667  26.848  36.670  1.00  0.00     0.198 A 
ATOM     94  C   UNL A   1      46.978  28.571  35.635  1.00  0.00     0.198 A 
ATOM     95  F   UNL A   1      45.917  30.331  34.490  1.00  0.00    -0.203 F 
ATOM     96  F   UNL A   1      45.592  25.732  37.409  1.00  0.00    -0.200 F 
ATOM     97  C   UNL A   1      46.903  27.402  36.376  1.00  0.00     0.200 A 
ATOM     98  F   UNL A   1      48.172  29.101  35.337  1.00  0.00    -0.200 F 
ATOM     99  F   UNL A   1      48.024  26.812  36.813  1.00  0.00    -0.200 F 
ENDBRANCH  66  89
ENDBRANCH  40  41
ENDBRANCH  33  35
ENDBRANCH  32  33
ENDBRANCH  31  32
ENDBRANCH  30  31
ENDBRANCH  29  30
ENDBRANCH  28  29
ENDBRANCH  27  28
ENDBRANCH  26  27
ENDBRANCH   1  26
TORSDOF 26
ENDMDL
