MODEL 1
REMARK VINA RESULT:      -9.0      0.000      0.000
REMARK SMILES O=C(CC[N@@H+]1CCC[C@H](c2nccn2Cc2cscn2)C1)OCCOCCOCCOCCOC(=O)c1ccc(-c2c3nc(c(-c4c(F)c(F)c(F)c(F)c4F)c4ccc([nH]4)c(-c4c(F)c(F)c(F)c(F)c4F)c4nc(c(-c5c(F)c(F)c(F)c(F)c5F)c5ccc2[nH]5)C=C4)C=C3)cc1
REMARK SMILES IDX 26 1 25 2 24 3 23 4 22 5 2 6 1 7 3 8 4 9 5 10 6 11 21 12
REMARK SMILES IDX 7 14 9 15 8 16 10 17 11 18 14 19 12 20 13 21 15 22 16 23
REMARK SMILES IDX 17 24 20 25 18 26 19 27 27 28 28 29 29 30 30 31 31 32 32 33
REMARK SMILES IDX 33 34 34 35 35 36 36 37 37 38 38 39 99 40 39 41 98 42 40 43
REMARK SMILES IDX 41 44 42 45 92 46 43 47 97 48 91 49 93 50 44 51 96 52 90 53
REMARK SMILES IDX 89 54 45 56 77 57 57 58 76 59 58 60 61 61 75 62 94 63 59 64
REMARK SMILES IDX 60 65 74 67 95 68 62 69 46 70 47 71 55 72 48 73 49 74 53 75
REMARK SMILES IDX 56 76 50 77 51 78 54 79 52 80 78 81 79 82 87 83 80 84 81 85
REMARK SMILES IDX 85 86 88 87 82 88 83 89 86 90 84 91 63 92 64 93 72 94 65 95
REMARK SMILES IDX 66 96 70 97 73 98 67 99 68 100 71 101 69 102
REMARK H PARENT 5 13 93 55 61 66
REMARK Flexibility Score: inf
ROOT
ATOM      1  C   UNL A   1      45.242  24.003  25.585  1.00  0.00     0.188 C 
ENDROOT
BRANCH   1   2
ATOM      2  O   UNL A   1      44.229  23.096  25.988  1.00  0.00    -0.376 OA
BRANCH   2   3
ATOM      3  C   UNL A   1      42.970  23.099  25.336  1.00  0.00     0.202 C 
BRANCH   3   4
ATOM      4  C   UNL A   1      41.851  22.193  25.838  1.00  0.00     0.261 C 
BRANCH   4   5
ATOM      5  O   UNL A   1      40.985  22.681  26.879  1.00  0.00    -0.463 OA
BRANCH   5   6
ATOM      6  C   UNL A   1      39.695  23.041  26.674  1.00  0.00     0.311 C 
ATOM      7  O   UNL A   1      39.273  24.117  27.093  1.00  0.00    -0.252 OA
BRANCH   6   8
ATOM      8  C   UNL A   1      38.778  22.004  26.105  1.00  0.00     0.184 C 
BRANCH   8   9
ATOM      9  C   UNL A   1      37.489  22.491  25.444  1.00  0.00     0.274 C 
BRANCH   9  10
ATOM     10  N   UNL A   1      36.197  21.928  25.866  1.00  0.00    -0.334 N 
ATOM     11  C   UNL A   1      35.481  21.065  24.924  1.00  0.00     0.262 C 
ATOM     12  C   UNL A   1      35.351  22.957  26.501  1.00  0.00     0.273 C 
ATOM     13  H   UNL A   1      36.455  21.236  26.570  1.00  0.00     0.348 HD
ATOM     14  C   UNL A   1      34.245  20.382  25.544  1.00  0.00     0.062 C 
ATOM     15  C   UNL A   1      33.850  22.695  26.449  1.00  0.00     0.111 C 
ATOM     16  C   UNL A   1      33.635  21.189  26.688  1.00  0.00     0.023 C 
BRANCH  15  17
ATOM     17  C   UNL A   1      33.044  23.145  25.240  1.00  0.00     0.117 A 
ATOM     18  N   UNL A   1      31.899  22.518  24.995  1.00  0.00    -0.241 NA
ATOM     19  N   UNL A   1      33.288  24.076  24.231  1.00  0.00    -0.328 N 
ATOM     20  C   UNL A   1      31.415  22.992  23.821  1.00  0.00     0.131 A 
ATOM     21  C   UNL A   1      32.239  23.966  23.336  1.00  0.00     0.108 A 
BRANCH  19  22
ATOM     22  C   UNL A   1      34.289  25.137  24.075  1.00  0.00     0.180 C 
BRANCH  22  23
ATOM     23  C   UNL A   1      33.883  26.474  24.654  1.00  0.00     0.071 A 
ATOM     24  C   UNL A   1      33.602  27.657  23.993  1.00  0.00     0.092 A 
ATOM     25  N   UNL A   1      33.713  26.573  26.032  1.00  0.00    -0.248 NA
ATOM     26  S   UNL A   1      33.274  28.920  25.113  1.00  0.00    -0.130 S 
ATOM     27  C   UNL A   1      33.465  27.810  26.398  1.00  0.00     0.175 A 
ENDBRANCH  22  23
ENDBRANCH  19  22
ENDBRANCH  15  17
ENDBRANCH   9  10
ENDBRANCH   8   9
ENDBRANCH   6   8
ENDBRANCH   5   6
ENDBRANCH   4   5
ENDBRANCH   3   4
ENDBRANCH   2   3
ENDBRANCH   1   2
BRANCH   1  28
ATOM     28  C   UNL A   1      44.788  25.462  25.567  1.00  0.00     0.188 C 
BRANCH  28  29
ATOM     29  O   UNL A   1      45.874  26.383  25.657  1.00  0.00    -0.377 OA
BRANCH  29  30
ATOM     30  C   UNL A   1      45.520  27.760  25.675  1.00  0.00     0.188 C 
BRANCH  30  31
ATOM     31  C   UNL A   1      46.600  28.797  25.253  1.00  0.00     0.188 C 
BRANCH  31  32
ATOM     32  O   UNL A   1      46.707  30.132  25.736  1.00  0.00    -0.376 OA
BRANCH  32  33
ATOM     33  C   UNL A   1      47.636  30.480  26.744  1.00  0.00     0.202 C 
BRANCH  33  34
ATOM     34  C   UNL A   1      47.452  31.921  27.220  1.00  0.00     0.261 C 
BRANCH  34  35
ATOM     35  O   UNL A   1      47.208  32.797  26.125  1.00  0.00    -0.460 OA
BRANCH  35  36
ATOM     36  C   UNL A   1      47.012  34.084  26.460  1.00  0.00     0.338 C 
ATOM     37  O   UNL A   1      47.708  35.056  26.156  1.00  0.00    -0.246 OA
BRANCH  36  38
ATOM     38  C   UNL A   1      45.812  34.184  27.295  1.00  0.00     0.060 A 
ATOM     39  C   UNL A   1      46.002  34.435  28.653  1.00  0.00     0.016 A 
ATOM     40  C   UNL A   1      44.530  33.923  26.769  1.00  0.00     0.016 A 
ATOM     41  C   UNL A   1      44.980  34.115  29.513  1.00  0.00     0.010 A 
ATOM     42  C   UNL A   1      43.484  33.673  27.622  1.00  0.00     0.010 A 
ATOM     43  C   UNL A   1      43.800  33.590  28.970  1.00  0.00    -0.014 A 
BRANCH  43  44
ATOM     44  C   UNL A   1      43.132  32.602  29.793  1.00  0.00     0.031 A 
ATOM     45  C   UNL A   1      43.388  31.195  29.460  1.00  0.00     0.074 A 
ATOM     46  C   UNL A   1      42.247  33.005  30.728  1.00  0.00     0.049 A 
ATOM     47  N   UNL A   1      42.547  30.324  29.008  1.00  0.00    -0.248 NA
ATOM     48  C   UNL A   1      44.772  30.725  29.559  1.00  0.00     0.031 C 
ATOM     49  C   UNL A   1      42.061  34.347  31.299  1.00  0.00     0.029 A 
ATOM     50  N   UNL A   1      41.357  32.252  31.425  1.00  0.00    -0.354 N 
ATOM     51  C   UNL A   1      43.260  29.140  28.905  1.00  0.00     0.074 A 
ATOM     52  C   UNL A   1      44.645  29.463  29.150  1.00  0.00     0.031 C 
ATOM     53  C   UNL A   1      41.285  34.259  32.400  1.00  0.00     0.029 A 
ATOM     54  C   UNL A   1      40.812  32.894  32.521  1.00  0.00     0.049 A 
ATOM     55  H   UNL A   1      41.121  31.330  31.172  1.00  0.00     0.167 HD
ATOM     56  C   UNL A   1      42.637  27.937  28.815  1.00  0.00     0.037 A 
ATOM     57  C   UNL A   1      40.098  32.312  33.510  1.00  0.00     0.037 A 
ATOM     58  C   UNL A   1      41.277  28.057  28.371  1.00  0.00     0.049 A 
ATOM     59  C   UNL A   1      39.569  31.028  32.986  1.00  0.00     0.074 A 
ATOM     60  C   UNL A   1      40.681  28.502  27.206  1.00  0.00     0.029 A 
ATOM     61  N   UNL A   1      40.270  27.990  29.301  1.00  0.00    -0.354 N 
ATOM     62  N   UNL A   1      38.640  30.936  32.075  1.00  0.00    -0.248 NA
ATOM     63  C   UNL A   1      40.379  29.832  33.172  1.00  0.00     0.031 C 
ATOM     64  C   UNL A   1      39.455  29.102  27.614  1.00  0.00     0.029 A 
ATOM     65  C   UNL A   1      39.369  28.979  29.000  1.00  0.00     0.049 A 
ATOM     66  H   UNL A   1      40.207  27.350  30.047  1.00  0.00     0.167 HD
ATOM     67  C   UNL A   1      39.002  29.837  31.307  1.00  0.00     0.074 A 
ATOM     68  C   UNL A   1      40.013  29.139  32.091  1.00  0.00     0.031 C 
ATOM     69  C   UNL A   1      38.651  29.749  29.991  1.00  0.00     0.037 A 
BRANCH  56  70
ATOM     70  C   UNL A   1      43.200  26.686  29.418  1.00  0.00     0.064 A 
ATOM     71  C   UNL A   1      42.986  25.446  28.795  1.00  0.00     0.173 A 
ATOM     72  C   UNL A   1      43.723  26.639  30.728  1.00  0.00     0.173 A 
ATOM     73  F   UNL A   1      42.449  25.382  27.567  1.00  0.00    -0.203 F 
ATOM     74  C   UNL A   1      43.250  24.242  29.454  1.00  0.00     0.198 A 
ATOM     75  C   UNL A   1      44.037  25.441  31.361  1.00  0.00     0.198 A 
ATOM     76  F   UNL A   1      43.846  27.744  31.478  1.00  0.00    -0.203 F 
ATOM     77  F   UNL A   1      42.937  23.080  28.865  1.00  0.00    -0.200 F 
ATOM     78  C   UNL A   1      43.778  24.242  30.733  1.00  0.00     0.200 A 
ATOM     79  F   UNL A   1      44.527  25.462  32.609  1.00  0.00    -0.200 F 
ATOM     80  F   UNL A   1      43.990  23.089  31.381  1.00  0.00    -0.200 F 
ENDBRANCH  56  70
BRANCH  57  81
ATOM     81  C   UNL A   1      40.165  32.644  34.951  1.00  0.00     0.064 A 
ATOM     82  C   UNL A   1      41.380  32.599  35.647  1.00  0.00     0.173 A 
ATOM     83  C   UNL A   1      39.081  33.254  35.617  1.00  0.00     0.173 A 
ATOM     84  F   UNL A   1      42.471  32.080  35.064  1.00  0.00    -0.203 F 
ATOM     85  C   UNL A   1      41.508  33.144  36.928  1.00  0.00     0.198 A 
ATOM     86  C   UNL A   1      39.206  33.784  36.899  1.00  0.00     0.198 A 
ATOM     87  F   UNL A   1      37.902  33.432  35.003  1.00  0.00    -0.203 F 
ATOM     88  F   UNL A   1      42.701  33.138  37.540  1.00  0.00    -0.200 F 
ATOM     89  C   UNL A   1      40.423  33.742  37.550  1.00  0.00     0.200 A 
ATOM     90  F   UNL A   1      38.156  34.389  37.473  1.00  0.00    -0.200 F 
ATOM     91  F   UNL A   1      40.559  34.312  38.755  1.00  0.00    -0.200 F 
ENDBRANCH  57  81
BRANCH  69  92
ATOM     92  C   UNL A   1      37.636  30.729  29.476  1.00  0.00     0.064 A 
ATOM     93  C   UNL A   1      37.923  32.086  29.247  1.00  0.00     0.173 A 
ATOM     94  C   UNL A   1      36.387  30.252  29.060  1.00  0.00     0.173 A 
ATOM     95  F   UNL A   1      39.132  32.589  29.525  1.00  0.00    -0.203 F 
ATOM     96  C   UNL A   1      36.981  32.934  28.667  1.00  0.00     0.198 A 
ATOM     97  C   UNL A   1      35.460  31.094  28.448  1.00  0.00     0.198 A 
ATOM     98  F   UNL A   1      36.083  28.951  29.197  1.00  0.00    -0.203 F 
ATOM     99  F   UNL A   1      37.273  34.227  28.466  1.00  0.00    -0.200 F 
ATOM    100  C   UNL A   1      35.753  32.435  28.260  1.00  0.00     0.200 A 
ATOM    101  F   UNL A   1      34.294  30.597  28.011  1.00  0.00    -0.200 F 
ATOM    102  F   UNL A   1      34.863  33.240  27.663  1.00  0.00    -0.200 F 
ENDBRANCH  69  92
ENDBRANCH  43  44
ENDBRANCH  36  38
ENDBRANCH  35  36
ENDBRANCH  34  35
ENDBRANCH  33  34
ENDBRANCH  32  33
ENDBRANCH  31  32
ENDBRANCH  30  31
ENDBRANCH  29  30
ENDBRANCH  28  29
ENDBRANCH   1  28
TORSDOF 25
ENDMDL
MODEL 2
REMARK VINA RESULT:      -8.9      4.425      9.594
REMARK SMILES O=C(CC[N@@H+]1CCC[C@H](c2nccn2Cc2cscn2)C1)OCCOCCOCCOCCOC(=O)c1ccc(-c2c3nc(c(-c4c(F)c(F)c(F)c(F)c4F)c4ccc([nH]4)c(-c4c(F)c(F)c(F)c(F)c4F)c4nc(c(-c5c(F)c(F)c(F)c(F)c5F)c5ccc2[nH]5)C=C4)C=C3)cc1
REMARK SMILES IDX 26 1 25 2 24 3 23 4 22 5 2 6 1 7 3 8 4 9 5 10 6 11 21 12
REMARK SMILES IDX 7 14 9 15 8 16 10 17 11 18 14 19 12 20 13 21 15 22 16 23
REMARK SMILES IDX 17 24 20 25 18 26 19 27 27 28 28 29 29 30 30 31 31 32 32 33
REMARK SMILES IDX 33 34 34 35 35 36 36 37 37 38 38 39 99 40 39 41 98 42 40 43
REMARK SMILES IDX 41 44 42 45 92 46 43 47 97 48 91 49 93 50 44 51 96 52 90 53
REMARK SMILES IDX 89 54 45 56 77 57 57 58 76 59 58 60 61 61 75 62 94 63 59 64
REMARK SMILES IDX 60 65 74 67 95 68 62 69 46 70 47 71 55 72 48 73 49 74 53 75
REMARK SMILES IDX 56 76 50 77 51 78 54 79 52 80 78 81 79 82 87 83 80 84 81 85
REMARK SMILES IDX 85 86 88 87 82 88 83 89 86 90 84 91 63 92 64 93 72 94 65 95
REMARK SMILES IDX 66 96 70 97 73 98 67 99 68 100 71 101 69 102
REMARK H PARENT 5 13 93 55 61 66
REMARK Flexibility Score: inf
ROOT
ATOM      1  C   UNL A   1      37.328  31.628  29.578  1.00  0.00     0.188 C 
ENDROOT
BRANCH   1   2
ATOM      2  O   UNL A   1      36.922  30.715  28.572  1.00  0.00    -0.376 OA
BRANCH   2   3
ATOM      3  C   UNL A   1      35.891  31.068  27.664  1.00  0.00     0.202 C 
BRANCH   3   4
ATOM      4  C   UNL A   1      34.569  30.310  27.684  1.00  0.00     0.261 C 
BRANCH   4   5
ATOM      5  O   UNL A   1      33.362  31.021  27.349  1.00  0.00    -0.463 OA
BRANCH   5   6
ATOM      6  C   UNL A   1      32.272  30.432  26.803  1.00  0.00     0.311 C 
ATOM      7  O   UNL A   1      31.524  31.068  26.063  1.00  0.00    -0.252 OA
BRANCH   6   8
ATOM      8  C   UNL A   1      31.916  29.063  27.291  1.00  0.00     0.184 C 
BRANCH   8   9
ATOM      9  C   UNL A   1      31.312  28.090  26.281  1.00  0.00     0.274 C 
BRANCH   9  10
ATOM     10  N   UNL A   1      32.197  27.328  25.384  1.00  0.00    -0.334 N 
ATOM     11  C   UNL A   1      31.588  26.338  24.494  1.00  0.00     0.262 C 
ATOM     12  C   UNL A   1      33.388  26.839  26.104  1.00  0.00     0.273 C 
ATOM     13  H   UNL A   1      32.492  28.020  24.695  1.00  0.00     0.348 HD
ATOM     14  C   UNL A   1      32.582  25.748  23.471  1.00  0.00     0.062 C 
ATOM     15  C   UNL A   1      34.055  25.606  25.505  1.00  0.00     0.111 C 
ATOM     16  C   UNL A   1      34.024  25.761  23.973  1.00  0.00     0.023 C 
BRANCH  15  17
ATOM     17  C   UNL A   1      33.568  24.218  25.892  1.00  0.00     0.117 A 
ATOM     18  N   UNL A   1      32.530  24.139  26.717  1.00  0.00    -0.241 NA
ATOM     19  N   UNL A   1      34.038  22.936  25.615  1.00  0.00    -0.328 N 
ATOM     20  C   UNL A   1      32.345  22.831  27.018  1.00  0.00     0.131 A 
ATOM     21  C   UNL A   1      33.246  22.063  26.339  1.00  0.00     0.108 A 
BRANCH  19  22
ATOM     22  C   UNL A   1      35.028  22.423  24.661  1.00  0.00     0.180 C 
BRANCH  22  23
ATOM     23  C   UNL A   1      36.455  22.444  25.163  1.00  0.00     0.071 A 
ATOM     24  C   UNL A   1      37.389  21.423  25.170  1.00  0.00     0.092 A 
ATOM     25  N   UNL A   1      36.964  23.642  25.657  1.00  0.00    -0.248 NA
ATOM     26  S   UNL A   1      38.845  21.929  25.933  1.00  0.00    -0.130 S 
ATOM     27  C   UNL A   1      38.171  23.484  26.151  1.00  0.00     0.175 A 
ENDBRANCH  22  23
ENDBRANCH  19  22
ENDBRANCH  15  17
ENDBRANCH   9  10
ENDBRANCH   8   9
ENDBRANCH   6   8
ENDBRANCH   5   6
ENDBRANCH   4   5
ENDBRANCH   3   4
ENDBRANCH   2   3
ENDBRANCH   1   2
BRANCH   1  28
ATOM     28  C   UNL A   1      36.212  32.009  30.549  1.00  0.00     0.188 C 
BRANCH  28  29
ATOM     29  O   UNL A   1      35.363  33.039  30.044  1.00  0.00    -0.377 OA
BRANCH  29  30
ATOM     30  C   UNL A   1      35.183  34.166  30.891  1.00  0.00     0.188 C 
BRANCH  30  31
ATOM     31  C   UNL A   1      36.310  34.501  31.909  1.00  0.00     0.188 C 
BRANCH  31  32
ATOM     32  O   UNL A   1      36.127  35.093  33.191  1.00  0.00    -0.376 OA
BRANCH  32  33
ATOM     33  C   UNL A   1      35.878  34.306  34.340  1.00  0.00     0.202 C 
BRANCH  33  34
ATOM     34  C   UNL A   1      36.276  32.845  34.131  1.00  0.00     0.261 C 
BRANCH  34  35
ATOM     35  O   UNL A   1      37.691  32.703  34.062  1.00  0.00    -0.460 OA
BRANCH  35  36
ATOM     36  C   UNL A   1      38.154  31.479  34.371  1.00  0.00     0.338 C 
ATOM     37  O   UNL A   1      38.136  30.922  35.472  1.00  0.00    -0.246 OA
BRANCH  36  38
ATOM     38  C   UNL A   1      38.733  30.870  33.170  1.00  0.00     0.060 A 
ATOM     39  C   UNL A   1      38.273  29.601  32.818  1.00  0.00     0.016 A 
ATOM     40  C   UNL A   1      39.789  31.489  32.471  1.00  0.00     0.016 A 
ATOM     41  C   UNL A   1      39.065  28.841  31.992  1.00  0.00     0.010 A 
ATOM     42  C   UNL A   1      40.541  30.756  31.588  1.00  0.00     0.010 A 
ATOM     43  C   UNL A   1      40.264  29.398  31.530  1.00  0.00    -0.014 A 
BRANCH  43  44
ATOM     44  C   UNL A   1      41.358  28.459  31.375  1.00  0.00     0.031 A 
ATOM     45  C   UNL A   1      42.190  28.226  32.562  1.00  0.00     0.074 A 
ATOM     46  C   UNL A   1      41.622  27.942  30.158  1.00  0.00     0.049 A 
ATOM     47  N   UNL A   1      43.435  28.531  32.727  1.00  0.00    -0.248 NA
ATOM     48  C   UNL A   1      41.529  27.665  33.743  1.00  0.00     0.031 C 
ATOM     49  C   UNL A   1      40.766  27.920  28.963  1.00  0.00     0.029 A 
ATOM     50  N   UNL A   1      42.720  27.249  29.758  1.00  0.00    -0.354 N 
ATOM     51  C   UNL A   1      43.766  28.061  33.989  1.00  0.00     0.074 A 
ATOM     52  C   UNL A   1      42.537  27.637  34.614  1.00  0.00     0.031 C 
ATOM     53  C   UNL A   1      41.282  27.059  28.060  1.00  0.00     0.029 A 
ATOM     54  C   UNL A   1      42.562  26.590  28.553  1.00  0.00     0.049 A 
ATOM     55  H   UNL A   1      43.554  27.219  30.280  1.00  0.00     0.167 HD
ATOM     56  C   UNL A   1      45.058  27.873  34.363  1.00  0.00     0.037 A 
ATOM     57  C   UNL A   1      43.389  25.649  28.047  1.00  0.00     0.037 A 
ATOM     58  C   UNL A   1      45.977  28.625  33.557  1.00  0.00     0.049 A 
ATOM     59  C   UNL A   1      44.708  25.808  28.709  1.00  0.00     0.074 A 
ATOM     60  C   UNL A   1      46.190  29.974  33.344  1.00  0.00     0.029 A 
ATOM     61  N   UNL A   1      46.657  27.979  32.555  1.00  0.00    -0.354 N 
ATOM     62  N   UNL A   1      45.511  26.817  28.509  1.00  0.00    -0.248 NA
ATOM     63  C   UNL A   1      44.955  25.049  29.926  1.00  0.00     0.031 C 
ATOM     64  C   UNL A   1      46.604  30.081  31.985  1.00  0.00     0.029 A 
ATOM     65  C   UNL A   1      46.631  28.793  31.451  1.00  0.00     0.049 A 
ATOM     66  H   UNL A   1      47.084  27.094  32.617  1.00  0.00     0.167 HD
ATOM     67  C   UNL A   1      46.090  27.062  29.747  1.00  0.00     0.074 A 
ATOM     68  C   UNL A   1      45.793  25.882  30.548  1.00  0.00     0.031 C 
ATOM     69  C   UNL A   1      46.515  28.313  30.093  1.00  0.00     0.037 A 
BRANCH  56  70
ATOM     70  C   UNL A   1      45.481  26.770  35.285  1.00  0.00     0.064 A 
ATOM     71  C   UNL A   1      46.124  27.073  36.496  1.00  0.00     0.173 A 
ATOM     72  C   UNL A   1      45.507  25.415  34.890  1.00  0.00     0.173 A 
ATOM     73  F   UNL A   1      46.195  28.338  36.934  1.00  0.00    -0.203 F 
ATOM     74  C   UNL A   1      46.774  26.087  37.244  1.00  0.00     0.198 A 
ATOM     75  C   UNL A   1      46.106  24.427  35.665  1.00  0.00     0.198 A 
ATOM     76  F   UNL A   1      45.048  25.020  33.695  1.00  0.00    -0.203 F 
ATOM     77  F   UNL A   1      47.462  26.431  38.342  1.00  0.00    -0.200 F 
ATOM     78  C   UNL A   1      46.761  24.766  36.830  1.00  0.00     0.200 A 
ATOM     79  F   UNL A   1      46.101  23.157  35.234  1.00  0.00    -0.200 F 
ATOM     80  F   UNL A   1      47.420  23.829  37.523  1.00  0.00    -0.200 F 
ENDBRANCH  56  70
BRANCH  57  81
ATOM     81  C   UNL A   1      42.985  24.431  27.309  1.00  0.00     0.064 A 
ATOM     82  C   UNL A   1      43.337  24.252  25.964  1.00  0.00     0.173 A 
ATOM     83  C   UNL A   1      42.460  23.305  27.977  1.00  0.00     0.173 A 
ATOM     84  F   UNL A   1      43.889  25.260  25.272  1.00  0.00    -0.203 F 
ATOM     85  C   UNL A   1      43.186  23.016  25.329  1.00  0.00     0.198 A 
ATOM     86  C   UNL A   1      42.296  22.078  27.339  1.00  0.00     0.198 A 
ATOM     87  F   UNL A   1      42.180  23.345  29.288  1.00  0.00    -0.203 F 
ATOM     88  F   UNL A   1      43.590  22.864  24.060  1.00  0.00    -0.200 F 
ATOM     89  C   UNL A   1      42.672  21.928  26.018  1.00  0.00     0.200 A 
ATOM     90  F   UNL A   1      41.830  21.027  28.029  1.00  0.00    -0.200 F 
ATOM     91  F   UNL A   1      42.577  20.731  25.425  1.00  0.00    -0.200 F 
ENDBRANCH  57  81
BRANCH  69  92
ATOM     92  C   UNL A   1      46.593  29.344  29.005  1.00  0.00     0.064 A 
ATOM     93  C   UNL A   1      45.499  30.135  28.611  1.00  0.00     0.173 A 
ATOM     94  C   UNL A   1      47.843  29.648  28.451  1.00  0.00     0.173 A 
ATOM     95  F   UNL A   1      44.295  29.970  29.174  1.00  0.00    -0.203 F 
ATOM     96  C   UNL A   1      45.647  31.154  27.672  1.00  0.00     0.198 A 
ATOM     97  C   UNL A   1      47.995  30.690  27.538  1.00  0.00     0.198 A 
ATOM     98  F   UNL A   1      48.934  28.966  28.836  1.00  0.00    -0.203 F 
ATOM     99  F   UNL A   1      44.587  31.890  27.306  1.00  0.00    -0.200 F 
ATOM    100  C   UNL A   1      46.896  31.436  27.142  1.00  0.00     0.200 A 
ATOM    101  F   UNL A   1      49.212  30.992  27.066  1.00  0.00    -0.200 F 
ATOM    102  F   UNL A   1      47.046  32.444  26.272  1.00  0.00    -0.200 F 
ENDBRANCH  69  92
ENDBRANCH  43  44
ENDBRANCH  36  38
ENDBRANCH  35  36
ENDBRANCH  34  35
ENDBRANCH  33  34
ENDBRANCH  32  33
ENDBRANCH  31  32
ENDBRANCH  30  31
ENDBRANCH  29  30
ENDBRANCH  28  29
ENDBRANCH   1  28
TORSDOF 25
ENDMDL
MODEL 3
REMARK VINA RESULT:      -8.5      4.707     10.148
REMARK SMILES O=C(CC[N@@H+]1CCC[C@H](c2nccn2Cc2cscn2)C1)OCCOCCOCCOCCOC(=O)c1ccc(-c2c3nc(c(-c4c(F)c(F)c(F)c(F)c4F)c4ccc([nH]4)c(-c4c(F)c(F)c(F)c(F)c4F)c4nc(c(-c5c(F)c(F)c(F)c(F)c5F)c5ccc2[nH]5)C=C4)C=C3)cc1
REMARK SMILES IDX 26 1 25 2 24 3 23 4 22 5 2 6 1 7 3 8 4 9 5 10 6 11 21 12
REMARK SMILES IDX 7 14 9 15 8 16 10 17 11 18 14 19 12 20 13 21 15 22 16 23
REMARK SMILES IDX 17 24 20 25 18 26 19 27 27 28 28 29 29 30 30 31 31 32 32 33
REMARK SMILES IDX 33 34 34 35 35 36 36 37 37 38 38 39 99 40 39 41 98 42 40 43
REMARK SMILES IDX 41 44 42 45 92 46 43 47 97 48 91 49 93 50 44 51 96 52 90 53
REMARK SMILES IDX 89 54 45 56 77 57 57 58 76 59 58 60 61 61 75 62 94 63 59 64
REMARK SMILES IDX 60 65 74 67 95 68 62 69 46 70 47 71 55 72 48 73 49 74 53 75
REMARK SMILES IDX 56 76 50 77 51 78 54 79 52 80 78 81 79 82 87 83 80 84 81 85
REMARK SMILES IDX 85 86 88 87 82 88 83 89 86 90 84 91 63 92 64 93 72 94 65 95
REMARK SMILES IDX 66 96 70 97 73 98 67 99 68 100 71 101 69 102
REMARK H PARENT 5 13 93 55 61 66
REMARK Flexibility Score: inf
ROOT
ATOM      1  C   UNL A   1      33.155  36.576  30.985  1.00  0.00     0.188 C 
ENDROOT
BRANCH   1   2
ATOM      2  O   UNL A   1      32.610  35.603  30.110  1.00  0.00    -0.376 OA
BRANCH   2   3
ATOM      3  C   UNL A   1      33.224  35.348  28.857  1.00  0.00     0.202 C 
BRANCH   3   4
ATOM      4  C   UNL A   1      32.930  34.050  28.115  1.00  0.00     0.261 C 
BRANCH   4   5
ATOM      5  O   UNL A   1      33.537  32.834  28.589  1.00  0.00    -0.463 OA
BRANCH   5   6
ATOM      6  C   UNL A   1      34.431  32.112  27.871  1.00  0.00     0.311 C 
ATOM      7  O   UNL A   1      35.498  32.610  27.521  1.00  0.00    -0.252 OA
BRANCH   6   8
ATOM      8  C   UNL A   1      33.982  30.778  27.363  1.00  0.00     0.184 C 
BRANCH   8   9
ATOM      9  C   UNL A   1      32.603  30.701  26.709  1.00  0.00     0.274 C 
BRANCH   9  10
ATOM     10  N   UNL A   1      31.939  29.396  26.561  1.00  0.00    -0.334 N 
ATOM     11  C   UNL A   1      32.625  28.212  27.082  1.00  0.00     0.262 C 
ATOM     12  C   UNL A   1      31.399  29.227  25.198  1.00  0.00     0.273 C 
ATOM     13  H   UNL A   1      31.161  29.447  27.218  1.00  0.00     0.348 HD
ATOM     14  C   UNL A   1      31.752  26.939  27.046  1.00  0.00     0.062 C 
ATOM     15  C   UNL A   1      31.226  27.784  24.736  1.00  0.00     0.111 C 
ATOM     16  C   UNL A   1      30.704  26.973  25.936  1.00  0.00     0.023 C 
BRANCH  15  17
ATOM     17  C   UNL A   1      32.392  27.053  24.088  1.00  0.00     0.117 A 
ATOM     18  N   UNL A   1      33.101  27.710  23.177  1.00  0.00    -0.241 NA
ATOM     19  N   UNL A   1      32.866  25.746  24.190  1.00  0.00    -0.328 N 
ATOM     20  C   UNL A   1      33.999  26.842  22.652  1.00  0.00     0.131 A 
ATOM     21  C   UNL A   1      33.892  25.629  23.269  1.00  0.00     0.108 A 
BRANCH  19  22
ATOM     22  C   UNL A   1      32.580  24.653  25.126  1.00  0.00     0.180 C 
BRANCH  22  23
ATOM     23  C   UNL A   1      32.504  23.283  24.488  1.00  0.00     0.071 A 
ATOM     24  C   UNL A   1      33.056  22.091  24.922  1.00  0.00     0.092 A 
ATOM     25  N   UNL A   1      31.751  23.136  23.326  1.00  0.00    -0.248 NA
ATOM     26  S   UNL A   1      32.754  20.829  23.793  1.00  0.00    -0.130 S 
ATOM     27  C   UNL A   1      31.862  21.924  22.832  1.00  0.00     0.175 A 
ENDBRANCH  22  23
ENDBRANCH  19  22
ENDBRANCH  15  17
ENDBRANCH   9  10
ENDBRANCH   8   9
ENDBRANCH   6   8
ENDBRANCH   5   6
ENDBRANCH   4   5
ENDBRANCH   3   4
ENDBRANCH   2   3
ENDBRANCH   1   2
BRANCH   1  28
ATOM     28  C   UNL A   1      32.564  36.534  32.394  1.00  0.00     0.188 C 
BRANCH  28  29
ATOM     29  O   UNL A   1      33.558  36.434  33.412  1.00  0.00    -0.377 OA
BRANCH  29  30
ATOM     30  C   UNL A   1      34.658  35.581  33.124  1.00  0.00     0.188 C 
BRANCH  30  31
ATOM     31  C   UNL A   1      34.474  34.053  33.347  1.00  0.00     0.188 C 
BRANCH  31  32
ATOM     32  O   UNL A   1      34.033  33.114  32.372  1.00  0.00    -0.376 OA
BRANCH  32  33
ATOM     33  C   UNL A   1      34.943  32.266  31.698  1.00  0.00     0.202 C 
BRANCH  33  34
ATOM     34  C   UNL A   1      36.277  32.959  31.421  1.00  0.00     0.261 C 
BRANCH  34  35
ATOM     35  O   UNL A   1      37.178  32.089  30.746  1.00  0.00    -0.460 OA
BRANCH  35  36
ATOM     36  C   UNL A   1      38.476  32.417  30.861  1.00  0.00     0.338 C 
ATOM     37  O   UNL A   1      39.067  33.357  30.321  1.00  0.00    -0.246 OA
BRANCH  36  38
ATOM     38  C   UNL A   1      39.139  31.449  31.739  1.00  0.00     0.060 A 
ATOM     39  C   UNL A   1      40.408  31.785  32.211  1.00  0.00     0.016 A 
ATOM     40  C   UNL A   1      38.569  30.187  32.001  1.00  0.00     0.016 A 
ATOM     41  C   UNL A   1      41.214  30.767  32.659  1.00  0.00     0.010 A 
ATOM     42  C   UNL A   1      39.349  29.182  32.517  1.00  0.00     0.010 A 
ATOM     43  C   UNL A   1      40.701  29.463  32.646  1.00  0.00    -0.014 A 
BRANCH  43  44
ATOM     44  C   UNL A   1      41.670  28.426  32.354  1.00  0.00     0.031 A 
ATOM     45  C   UNL A   1      42.259  27.739  33.511  1.00  0.00     0.074 A 
ATOM     46  C   UNL A   1      42.058  28.219  31.080  1.00  0.00     0.049 A 
ATOM     47  N   UNL A   1      43.490  27.766  33.905  1.00  0.00    -0.248 NA
ATOM     48  C   UNL A   1      41.344  27.004  34.390  1.00  0.00     0.031 C 
ATOM     49  C   UNL A   1      41.413  28.669  29.838  1.00  0.00     0.029 A 
ATOM     50  N   UNL A   1      43.104  27.478  30.627  1.00  0.00    -0.354 N 
ATOM     51  C   UNL A   1      43.544  26.923  35.004  1.00  0.00     0.074 A 
ATOM     52  C   UNL A   1      42.184  26.567  35.327  1.00  0.00     0.031 C 
ATOM     53  C   UNL A   1      41.949  28.008  28.791  1.00  0.00     0.029 A 
ATOM     54  C   UNL A   1      43.058  27.207  29.272  1.00  0.00     0.049 A 
ATOM     55  H   UNL A   1      43.830  27.164  31.212  1.00  0.00     0.167 HD
ATOM     56  C   UNL A   1      44.721  26.418  35.457  1.00  0.00     0.037 A 
ATOM     57  C   UNL A   1      43.823  26.308  28.615  1.00  0.00     0.037 A 
ATOM     58  C   UNL A   1      45.851  27.188  35.020  1.00  0.00     0.049 A 
ATOM     59  C   UNL A   1      45.026  26.050  29.446  1.00  0.00     0.074 A 
ATOM     60  C   UNL A   1      46.274  28.485  35.238  1.00  0.00     0.029 A 
ATOM     61  N   UNL A   1      46.593  26.727  33.961  1.00  0.00    -0.354 N 
ATOM     62  N   UNL A   1      45.978  26.919  29.646  1.00  0.00    -0.248 NA
ATOM     63  C   UNL A   1      44.967  24.960  30.409  1.00  0.00     0.031 C 
ATOM     64  C   UNL A   1      46.915  28.882  34.029  1.00  0.00     0.029 A 
ATOM     65  C   UNL A   1      46.857  27.801  33.149  1.00  0.00     0.049 A 
ATOM     66  H   UNL A   1      46.883  25.798  33.812  1.00  0.00     0.167 HD
ATOM     67  C   UNL A   1      46.375  26.717  30.962  1.00  0.00     0.074 A 
ATOM     68  C   UNL A   1      45.796  25.434  31.342  1.00  0.00     0.031 C 
ATOM     69  C   UNL A   1      46.901  27.733  31.706  1.00  0.00     0.037 A 
BRANCH  56  70
ATOM     70  C   UNL A   1      44.837  25.051  36.059  1.00  0.00     0.064 A 
ATOM     71  C   UNL A   1      45.304  24.899  37.375  1.00  0.00     0.173 A 
ATOM     72  C   UNL A   1      44.750  23.870  35.291  1.00  0.00     0.173 A 
ATOM     73  F   UNL A   1      45.466  25.966  38.170  1.00  0.00    -0.203 F 
ATOM     74  C   UNL A   1      45.685  23.651  37.875  1.00  0.00     0.198 A 
ATOM     75  C   UNL A   1      45.078  22.621  35.809  1.00  0.00     0.198 A 
ATOM     76  F   UNL A   1      44.448  23.899  33.985  1.00  0.00    -0.203 F 
ATOM     77  F   UNL A   1      46.220  23.560  39.100  1.00  0.00    -0.200 F 
ATOM     78  C   UNL A   1      45.568  22.514  37.093  1.00  0.00     0.200 A 
ATOM     79  F   UNL A   1      44.978  21.536  35.028  1.00  0.00    -0.200 F 
ATOM     80  F   UNL A   1      45.974  21.325  37.556  1.00  0.00    -0.200 F 
ENDBRANCH  56  70
BRANCH  57  81
ATOM     81  C   UNL A   1      43.386  25.425  27.511  1.00  0.00     0.064 A 
ATOM     82  C   UNL A   1      44.158  25.286  26.349  1.00  0.00     0.173 A 
ATOM     83  C   UNL A   1      42.328  24.507  27.677  1.00  0.00     0.173 A 
ATOM     84  F   UNL A   1      45.212  26.088  26.141  1.00  0.00    -0.203 F 
ATOM     85  C   UNL A   1      43.895  24.279  25.416  1.00  0.00     0.198 A 
ATOM     86  C   UNL A   1      42.058  23.513  26.739  1.00  0.00     0.198 A 
ATOM     87  F   UNL A   1      41.590  24.495  28.797  1.00  0.00    -0.203 F 
ATOM     88  F   UNL A   1      44.690  24.136  24.346  1.00  0.00    -0.200 F 
ATOM     89  C   UNL A   1      42.850  23.390  25.614  1.00  0.00     0.200 A 
ATOM     90  F   UNL A   1      41.066  22.640  26.962  1.00  0.00    -0.200 F 
ATOM     91  F   UNL A   1      42.632  22.392  24.746  1.00  0.00    -0.200 F 
ENDBRANCH  57  81
BRANCH  69  92
ATOM     92  C   UNL A   1      47.293  28.990  30.984  1.00  0.00     0.064 A 
ATOM     93  C   UNL A   1      48.558  29.180  30.399  1.00  0.00     0.173 A 
ATOM     94  C   UNL A   1      46.316  29.965  30.745  1.00  0.00     0.173 A 
ATOM     95  F   UNL A   1      49.508  28.242  30.500  1.00  0.00    -0.203 F 
ATOM     96  C   UNL A   1      48.840  30.319  29.647  1.00  0.00     0.198 A 
ATOM     97  C   UNL A   1      46.591  31.085  29.963  1.00  0.00     0.198 A 
ATOM     98  F   UNL A   1      45.074  29.805  31.228  1.00  0.00    -0.203 F 
ATOM     99  F   UNL A   1      50.056  30.482  29.106  1.00  0.00    -0.200 F 
ATOM    100  C   UNL A   1      47.854  31.266  29.423  1.00  0.00     0.200 A 
ATOM    101  F   UNL A   1      45.621  31.975  29.708  1.00  0.00    -0.200 F 
ATOM    102  F   UNL A   1      48.112  32.340  28.663  1.00  0.00    -0.200 F 
ENDBRANCH  69  92
ENDBRANCH  43  44
ENDBRANCH  36  38
ENDBRANCH  35  36
ENDBRANCH  34  35
ENDBRANCH  33  34
ENDBRANCH  32  33
ENDBRANCH  31  32
ENDBRANCH  30  31
ENDBRANCH  29  30
ENDBRANCH  28  29
ENDBRANCH   1  28
TORSDOF 25
ENDMDL
