MODEL 1
REMARK VINA RESULT:     -10.4      0.000      0.000
REMARK SMILES CC[C@H](NC(=O)[C@H]1[C@@H](C(=O)OCCOCCOCCOCCOC(=O)c2ccc(-c3c4nc(c(-c5c(F)c(F)c(F)c(F)c5F)c5ccc([nH]5)c(-c5c(F)c(F)c(F)c(F)c5F)c5nc(c(-c6c(F)c(F)c(F)c(F)c6F)c6ccc3[nH]6)C=C5)C=C4)cc2)[C@@H]2C=C[C@H]1C2)c1ccccc1
REMARK SMILES IDX 16 1 15 2 14 3 13 4 12 5 11 6 9 7 10 8 8 9 7 10 92 11 89 12
REMARK SMILES IDX 91 13 93 14 90 15 5 16 4 17 6 19 3 20 2 21 1 22 94 23 95 24
REMARK SMILES IDX 99 25 96 26 98 27 97 28 17 29 18 30 19 31 20 32 21 33 22 34
REMARK SMILES IDX 23 35 24 36 25 37 26 38 27 39 88 40 28 41 87 42 29 43 30 44
REMARK SMILES IDX 31 45 81 46 32 47 86 48 80 49 82 50 33 51 85 52 79 53 78 54
REMARK SMILES IDX 34 56 66 57 46 58 65 59 47 60 50 61 64 62 83 63 48 64 49 65
REMARK SMILES IDX 63 67 84 68 51 69 35 70 36 71 44 72 37 73 38 74 42 75 45 76
REMARK SMILES IDX 39 77 40 78 43 79 41 80 67 81 68 82 76 83 69 84 70 85 74 86
REMARK SMILES IDX 77 87 71 88 72 89 75 90 73 91 52 92 53 93 61 94 54 95 55 96
REMARK SMILES IDX 59 97 62 98 56 99 57 100 60 101 58 102
REMARK H PARENT 4 18 82 55 50 66
REMARK Flexibility Score: inf
ROOT
ATOM      1  C   UNL A   1      39.085  23.449  26.621  1.00  0.00     0.188 C 
ENDROOT
BRANCH   1   2
ATOM      2  C   UNL A   1      37.805  23.279  25.781  1.00  0.00     0.188 C 
BRANCH   2   3
ATOM      3  O   UNL A   1      37.639  22.158  24.922  1.00  0.00    -0.376 OA
BRANCH   3   4
ATOM      4  C   UNL A   1      36.721  22.200  23.842  1.00  0.00     0.202 C 
BRANCH   4   5
ATOM      5  C   UNL A   1      35.915  23.462  23.512  1.00  0.00     0.261 C 
BRANCH   5   6
ATOM      6  O   UNL A   1      34.752  23.296  22.695  1.00  0.00    -0.463 OA
BRANCH   6   7
ATOM      7  C   UNL A   1      33.879  24.334  22.699  1.00  0.00     0.310 C 
ATOM      8  O   UNL A   1      33.370  24.823  21.698  1.00  0.00    -0.252 OA
BRANCH   7   9
ATOM      9  C   UNL A   1      33.584  24.832  24.104  1.00  0.00     0.119 C 
ATOM     10  C   UNL A   1      32.469  24.077  24.918  1.00  0.00     0.100 C 
ATOM     11  C   UNL A   1      31.540  25.257  25.326  1.00  0.00     0.025 C 
ATOM     12  C   UNL A   1      33.100  26.307  24.143  1.00  0.00     0.027 C 
ATOM     13  C   UNL A   1      32.288  26.153  26.286  1.00  0.00    -0.027 C 
ATOM     14  C   UNL A   1      31.577  26.154  24.099  1.00  0.00     0.017 C 
ATOM     15  C   UNL A   1      33.219  26.799  25.571  1.00  0.00    -0.027 C 
BRANCH  10  16
ATOM     16  C   UNL A   1      31.796  22.927  24.170  1.00  0.00     0.225 C 
ATOM     17  N   UNL A   1      32.022  21.634  24.524  1.00  0.00    -0.349 N 
ATOM     18  H   UNL A   1      31.255  21.021  24.469  1.00  0.00     0.164 HD
ATOM     19  O   UNL A   1      31.110  23.092  23.161  1.00  0.00    -0.275 OA
BRANCH  17  20
ATOM     20  C   UNL A   1      33.281  21.066  24.973  1.00  0.00     0.112 C 
BRANCH  20  21
ATOM     21  C   UNL A   1      33.346  21.097  26.515  1.00  0.00     0.026 C 
ATOM     22  C   UNL A   1      34.589  21.821  27.026  1.00  0.00     0.006 C 
ENDBRANCH  20  21
BRANCH  20  23
ATOM     23  C   UNL A   1      33.527  19.681  24.384  1.00  0.00    -0.026 A 
ATOM     24  C   UNL A   1      32.502  19.098  23.617  1.00  0.00     0.006 A 
ATOM     25  C   UNL A   1      34.674  18.914  24.648  1.00  0.00     0.006 A 
ATOM     26  C   UNL A   1      32.616  17.794  23.137  1.00  0.00     0.000 A 
ATOM     27  C   UNL A   1      34.784  17.606  24.170  1.00  0.00     0.000 A 
ATOM     28  C   UNL A   1      33.755  17.046  23.419  1.00  0.00     0.000 A 
ENDBRANCH  20  23
ENDBRANCH  17  20
ENDBRANCH  10  16
ENDBRANCH   7   9
ENDBRANCH   6   7
ENDBRANCH   5   6
ENDBRANCH   4   5
ENDBRANCH   3   4
ENDBRANCH   2   3
ENDBRANCH   1   2
BRANCH   1  29
ATOM     29  O   UNL A   1      39.788  22.249  26.887  1.00  0.00    -0.377 OA
BRANCH  29  30
ATOM     30  C   UNL A   1      40.975  22.406  27.651  1.00  0.00     0.188 C 
BRANCH  30  31
ATOM     31  C   UNL A   1      42.233  21.660  27.155  1.00  0.00     0.188 C 
BRANCH  31  32
ATOM     32  O   UNL A   1      41.959  20.637  26.205  1.00  0.00    -0.376 OA
BRANCH  32  33
ATOM     33  C   UNL A   1      42.223  19.286  26.546  1.00  0.00     0.202 C 
BRANCH  33  34
ATOM     34  C   UNL A   1      43.153  18.489  25.617  1.00  0.00     0.261 C 
BRANCH  34  35
ATOM     35  O   UNL A   1      44.461  19.040  25.404  1.00  0.00    -0.460 OA
BRANCH  35  36
ATOM     36  C   UNL A   1      44.674  19.709  24.252  1.00  0.00     0.338 C 
ATOM     37  O   UNL A   1      44.442  19.319  23.120  1.00  0.00    -0.246 OA
BRANCH  36  38
ATOM     38  C   UNL A   1      45.058  21.093  24.596  1.00  0.00     0.060 A 
ATOM     39  C   UNL A   1      45.625  21.343  25.853  1.00  0.00     0.016 A 
ATOM     40  C   UNL A   1      44.870  22.135  23.686  1.00  0.00     0.016 A 
ATOM     41  C   UNL A   1      45.971  22.644  26.218  1.00  0.00     0.010 A 
ATOM     42  C   UNL A   1      45.190  23.442  24.063  1.00  0.00     0.010 A 
ATOM     43  C   UNL A   1      45.706  23.705  25.345  1.00  0.00    -0.014 A 
BRANCH  43  44
ATOM     44  C   UNL A   1      45.752  25.096  25.853  1.00  0.00     0.031 A 
ATOM     45  C   UNL A   1      47.076  25.811  25.834  1.00  0.00     0.074 A 
ATOM     46  C   UNL A   1      44.649  25.724  26.295  1.00  0.00     0.049 A 
ATOM     47  N   UNL A   1      47.389  27.002  26.274  1.00  0.00    -0.248 NA
ATOM     48  C   UNL A   1      48.203  25.074  25.239  1.00  0.00     0.031 C 
ATOM     49  C   UNL A   1      43.303  25.157  26.313  1.00  0.00     0.029 A 
ATOM     50  N   UNL A   1      44.494  26.981  26.825  1.00  0.00    -0.354 N 
ATOM     51  C   UNL A   1      48.746  27.151  26.020  1.00  0.00     0.074 A 
ATOM     52  C   UNL A   1      49.205  25.920  25.415  1.00  0.00     0.031 C 
ATOM     53  C   UNL A   1      42.460  26.058  26.846  1.00  0.00     0.029 A 
ATOM     54  C   UNL A   1      43.213  27.249  27.238  1.00  0.00     0.049 A 
ATOM     55  H   UNL A   1      45.232  27.628  26.902  1.00  0.00     0.167 HD
ATOM     56  C   UNL A   1      49.537  28.222  26.262  1.00  0.00     0.037 A 
ATOM     57  C   UNL A   1      42.718  28.323  27.884  1.00  0.00     0.037 A 
ATOM     58  C   UNL A   1      49.075  29.444  26.865  1.00  0.00     0.049 A 
ATOM     59  C   UNL A   1      43.637  29.472  28.218  1.00  0.00     0.074 A 
ATOM     60  C   UNL A   1      49.791  30.596  27.136  1.00  0.00     0.029 A 
ATOM     61  N   UNL A   1      47.777  29.667  27.300  1.00  0.00    -0.354 N 
ATOM     62  N   UNL A   1      44.914  29.620  27.954  1.00  0.00    -0.248 NA
ATOM     63  C   UNL A   1      43.045  30.608  28.940  1.00  0.00     0.031 C 
ATOM     64  C   UNL A   1      48.943  31.490  27.797  1.00  0.00     0.029 A 
ATOM     65  C   UNL A   1      47.680  30.926  27.870  1.00  0.00     0.049 A 
ATOM     66  H   UNL A   1      47.034  29.025  27.217  1.00  0.00     0.167 HD
ATOM     67  C   UNL A   1      45.267  30.873  28.441  1.00  0.00     0.074 A 
ATOM     68  C   UNL A   1      44.066  31.450  29.007  1.00  0.00     0.031 C 
ATOM     69  C   UNL A   1      46.474  31.491  28.420  1.00  0.00     0.037 A 
BRANCH  56  70
ATOM     70  C   UNL A   1      50.993  28.104  25.913  1.00  0.00     0.064 A 
ATOM     71  C   UNL A   1      51.962  27.767  26.869  1.00  0.00     0.173 A 
ATOM     72  C   UNL A   1      51.419  28.303  24.591  1.00  0.00     0.173 A 
ATOM     73  F   UNL A   1      51.611  27.584  28.152  1.00  0.00    -0.203 F 
ATOM     74  C   UNL A   1      53.307  27.661  26.521  1.00  0.00     0.198 A 
ATOM     75  C   UNL A   1      52.758  28.162  24.239  1.00  0.00     0.198 A 
ATOM     76  F   UNL A   1      50.534  28.626  23.635  1.00  0.00    -0.203 F 
ATOM     77  F   UNL A   1      54.222  27.392  27.462  1.00  0.00    -0.200 F 
ATOM     78  C   UNL A   1      53.702  27.850  25.205  1.00  0.00     0.200 A 
ATOM     79  F   UNL A   1      53.135  28.331  22.964  1.00  0.00    -0.200 F 
ATOM     80  F   UNL A   1      54.995  27.738  24.869  1.00  0.00    -0.200 F 
ENDBRANCH  56  70
BRANCH  57  81
ATOM     81  C   UNL A   1      41.285  28.360  28.282  1.00  0.00     0.064 A 
ATOM     82  C   UNL A   1      40.310  28.915  27.441  1.00  0.00     0.173 A 
ATOM     83  C   UNL A   1      40.863  27.872  29.530  1.00  0.00     0.173 A 
ATOM     84  F   UNL A   1      40.664  29.419  26.250  1.00  0.00    -0.203 F 
ATOM     85  C   UNL A   1      38.978  29.001  27.839  1.00  0.00     0.198 A 
ATOM     86  C   UNL A   1      39.525  27.928  29.912  1.00  0.00     0.198 A 
ATOM     87  F   UNL A   1      41.754  27.335  30.377  1.00  0.00    -0.203 F 
ATOM     88  F   UNL A   1      38.078  29.588  27.038  1.00  0.00    -0.200 F 
ATOM     89  C   UNL A   1      38.584  28.502  29.071  1.00  0.00     0.200 A 
ATOM     90  F   UNL A   1      39.150  27.432  31.100  1.00  0.00    -0.200 F 
ATOM     91  F   UNL A   1      37.303  28.585  29.454  1.00  0.00    -0.200 F 
ENDBRANCH  57  81
BRANCH  69  92
ATOM     92  C   UNL A   1      46.552  32.884  28.981  1.00  0.00     0.064 A 
ATOM     93  C   UNL A   1      46.299  34.018  28.193  1.00  0.00     0.173 A 
ATOM     94  C   UNL A   1      46.838  33.084  30.341  1.00  0.00     0.173 A 
ATOM     95  F   UNL A   1      46.031  33.884  26.885  1.00  0.00    -0.203 F 
ATOM     96  C   UNL A   1      46.360  35.298  28.739  1.00  0.00     0.198 A 
ATOM     97  C   UNL A   1      46.862  34.362  30.891  1.00  0.00     0.198 A 
ATOM     98  F   UNL A   1      47.078  32.035  31.143  1.00  0.00    -0.203 F 
ATOM     99  F   UNL A   1      46.168  36.367  27.955  1.00  0.00    -0.200 F 
ATOM    100  C   UNL A   1      46.633  35.468  30.088  1.00  0.00     0.200 A 
ATOM    101  F   UNL A   1      47.106  34.523  32.199  1.00  0.00    -0.200 F 
ATOM    102  F   UNL A   1      46.680  36.700  30.613  1.00  0.00    -0.200 F 
ENDBRANCH  69  92
ENDBRANCH  43  44
ENDBRANCH  36  38
ENDBRANCH  35  36
ENDBRANCH  34  35
ENDBRANCH  33  34
ENDBRANCH  32  33
ENDBRANCH  31  32
ENDBRANCH  30  31
ENDBRANCH  29  30
ENDBRANCH   1  29
TORSDOF 24
ENDMDL
MODEL 2
REMARK VINA RESULT:     -10.1      4.230      9.560
REMARK SMILES CC[C@H](NC(=O)[C@H]1[C@@H](C(=O)OCCOCCOCCOCCOC(=O)c2ccc(-c3c4nc(c(-c5c(F)c(F)c(F)c(F)c5F)c5ccc([nH]5)c(-c5c(F)c(F)c(F)c(F)c5F)c5nc(c(-c6c(F)c(F)c(F)c(F)c6F)c6ccc3[nH]6)C=C5)C=C4)cc2)[C@@H]2C=C[C@H]1C2)c1ccccc1
REMARK SMILES IDX 16 1 15 2 14 3 13 4 12 5 11 6 9 7 10 8 8 9 7 10 92 11 89 12
REMARK SMILES IDX 91 13 93 14 90 15 5 16 4 17 6 19 3 20 2 21 1 22 94 23 95 24
REMARK SMILES IDX 99 25 96 26 98 27 97 28 17 29 18 30 19 31 20 32 21 33 22 34
REMARK SMILES IDX 23 35 24 36 25 37 26 38 27 39 88 40 28 41 87 42 29 43 30 44
REMARK SMILES IDX 31 45 81 46 32 47 86 48 80 49 82 50 33 51 85 52 79 53 78 54
REMARK SMILES IDX 34 56 66 57 46 58 65 59 47 60 50 61 64 62 83 63 48 64 49 65
REMARK SMILES IDX 63 67 84 68 51 69 35 70 36 71 44 72 37 73 38 74 42 75 45 76
REMARK SMILES IDX 39 77 40 78 43 79 41 80 67 81 68 82 76 83 69 84 70 85 74 86
REMARK SMILES IDX 77 87 71 88 72 89 75 90 73 91 52 92 53 93 61 94 54 95 55 96
REMARK SMILES IDX 59 97 62 98 56 99 57 100 60 101 58 102
REMARK H PARENT 4 18 82 55 50 66
REMARK Flexibility Score: inf
ROOT
ATOM      1  C   UNL A   1      32.511  33.237  27.638  1.00  0.00     0.188 C 
ENDROOT
BRANCH   1   2
ATOM      2  C   UNL A   1      31.880  32.132  26.769  1.00  0.00     0.188 C 
BRANCH   2   3
ATOM      3  O   UNL A   1      32.505  30.861  26.639  1.00  0.00    -0.376 OA
BRANCH   3   4
ATOM      4  C   UNL A   1      31.948  29.711  27.253  1.00  0.00     0.202 C 
BRANCH   4   5
ATOM      5  C   UNL A   1      32.293  28.293  26.781  1.00  0.00     0.261 C 
BRANCH   5   6
ATOM      6  O   UNL A   1      31.202  27.455  26.388  1.00  0.00    -0.463 OA
BRANCH   6   7
ATOM      7  C   UNL A   1      31.480  26.130  26.307  1.00  0.00     0.310 C 
ATOM      8  O   UNL A   1      30.802  25.242  26.808  1.00  0.00    -0.252 OA
BRANCH   7   9
ATOM      9  C   UNL A   1      32.739  25.855  25.502  1.00  0.00     0.119 C 
ATOM     10  C   UNL A   1      32.589  25.749  23.939  1.00  0.00     0.100 C 
ATOM     11  C   UNL A   1      33.251  24.368  23.665  1.00  0.00     0.025 C 
ATOM     12  C   UNL A   1      33.424  24.512  25.875  1.00  0.00     0.027 C 
ATOM     13  C   UNL A   1      34.725  24.465  23.983  1.00  0.00    -0.027 C 
ATOM     14  C   UNL A   1      32.812  23.540  24.862  1.00  0.00     0.017 C 
ATOM     15  C   UNL A   1      34.832  24.536  25.317  1.00  0.00    -0.027 C 
BRANCH  10  16
ATOM     16  C   UNL A   1      31.162  25.920  23.419  1.00  0.00     0.225 C 
ATOM     17  N   UNL A   1      30.756  27.091  22.862  1.00  0.00    -0.349 N 
ATOM     18  H   UNL A   1      30.143  27.025  22.095  1.00  0.00     0.164 HD
ATOM     19  O   UNL A   1      30.287  25.065  23.565  1.00  0.00    -0.275 OA
BRANCH  17  20
ATOM     20  C   UNL A   1      31.134  28.428  23.284  1.00  0.00     0.112 C 
BRANCH  20  21
ATOM     21  C   UNL A   1      32.332  28.921  22.445  1.00  0.00     0.026 C 
ATOM     22  C   UNL A   1      33.634  28.920  23.242  1.00  0.00     0.006 C 
ENDBRANCH  20  21
BRANCH  20  23
ATOM     23  C   UNL A   1      29.949  29.388  23.269  1.00  0.00    -0.026 A 
ATOM     24  C   UNL A   1      28.893  29.122  22.380  1.00  0.00     0.006 A 
ATOM     25  C   UNL A   1      29.900  30.577  24.018  1.00  0.00     0.006 A 
ATOM     26  C   UNL A   1      27.829  30.013  22.238  1.00  0.00     0.000 A 
ATOM     27  C   UNL A   1      28.836  31.470  23.871  1.00  0.00     0.000 A 
ATOM     28  C   UNL A   1      27.805  31.189  22.980  1.00  0.00     0.000 A 
ENDBRANCH  20  23
ENDBRANCH  17  20
ENDBRANCH  10  16
ENDBRANCH   7   9
ENDBRANCH   6   7
ENDBRANCH   5   6
ENDBRANCH   4   5
ENDBRANCH   3   4
ENDBRANCH   2   3
ENDBRANCH   1   2
BRANCH   1  29
ATOM     29  O   UNL A   1      33.867  33.024  27.984  1.00  0.00    -0.377 OA
BRANCH  29  30
ATOM     30  C   UNL A   1      34.507  34.130  28.606  1.00  0.00     0.188 C 
BRANCH  30  31
ATOM     31  C   UNL A   1      33.636  35.029  29.509  1.00  0.00     0.188 C 
BRANCH  31  32
ATOM     32  O   UNL A   1      33.578  34.601  30.864  1.00  0.00    -0.376 OA
BRANCH  32  33
ATOM     33  C   UNL A   1      34.475  35.164  31.807  1.00  0.00     0.202 C 
BRANCH  33  34
ATOM     34  C   UNL A   1      35.905  34.602  31.849  1.00  0.00     0.261 C 
BRANCH  34  35
ATOM     35  O   UNL A   1      36.101  33.425  32.646  1.00  0.00    -0.460 OA
BRANCH  35  36
ATOM     36  C   UNL A   1      35.560  32.273  32.199  1.00  0.00     0.338 C 
ATOM     37  O   UNL A   1      34.375  31.991  32.137  1.00  0.00    -0.246 OA
BRANCH  36  38
ATOM     38  C   UNL A   1      36.643  31.466  31.601  1.00  0.00     0.060 A 
ATOM     39  C   UNL A   1      37.717  31.073  32.411  1.00  0.00     0.016 A 
ATOM     40  C   UNL A   1      36.597  31.090  30.257  1.00  0.00     0.016 A 
ATOM     41  C   UNL A   1      38.769  30.335  31.868  1.00  0.00     0.010 A 
ATOM     42  C   UNL A   1      37.664  30.376  29.707  1.00  0.00     0.010 A 
ATOM     43  C   UNL A   1      38.772  30.029  30.503  1.00  0.00    -0.014 A 
BRANCH  43  44
ATOM     44  C   UNL A   1      40.022  29.556  29.864  1.00  0.00     0.031 A 
ATOM     45  C   UNL A   1      41.159  30.532  29.729  1.00  0.00     0.074 A 
ATOM     46  C   UNL A   1      40.162  28.288  29.438  1.00  0.00     0.049 A 
ATOM     47  N   UNL A   1      42.327  30.381  29.160  1.00  0.00    -0.248 NA
ATOM     48  C   UNL A   1      40.943  31.864  30.316  1.00  0.00     0.031 C 
ATOM     49  C   UNL A   1      39.155  27.239  29.561  1.00  0.00     0.029 A 
ATOM     50  N   UNL A   1      41.214  27.676  28.803  1.00  0.00    -0.354 N 
ATOM     51  C   UNL A   1      42.977  31.599  29.310  1.00  0.00     0.074 A 
ATOM     52  C   UNL A   1      42.066  32.488  29.996  1.00  0.00     0.031 C 
ATOM     53  C   UNL A   1      39.631  26.112  29.002  1.00  0.00     0.029 A 
ATOM     54  C   UNL A   1      40.961  26.373  28.452  1.00  0.00     0.049 A 
ATOM     55  H   UNL A   1      42.069  28.127  28.618  1.00  0.00     0.167 HD
ATOM     56  C   UNL A   1      44.226  31.943  28.916  1.00  0.00     0.037 A 
ATOM     57  C   UNL A   1      41.708  25.506  27.741  1.00  0.00     0.037 A 
ATOM     58  C   UNL A   1      45.128  31.054  28.233  1.00  0.00     0.049 A 
ATOM     59  C   UNL A   1      43.065  25.939  27.241  1.00  0.00     0.074 A 
ATOM     60  C   UNL A   1      46.422  31.298  27.809  1.00  0.00     0.029 A 
ATOM     61  N   UNL A   1      44.823  29.752  27.865  1.00  0.00    -0.354 N 
ATOM     62  N   UNL A   1      43.687  27.082  27.407  1.00  0.00    -0.248 NA
ATOM     63  C   UNL A   1      43.828  24.957  26.457  1.00  0.00     0.031 C 
ATOM     64  C   UNL A   1      46.876  30.166  27.124  1.00  0.00     0.029 A 
ATOM     65  C   UNL A   1      45.893  29.191  27.186  1.00  0.00     0.049 A 
ATOM     66  H   UNL A   1      43.972  29.294  28.056  1.00  0.00     0.167 HD
ATOM     67  C   UNL A   1      44.921  26.945  26.782  1.00  0.00     0.074 A 
ATOM     68  C   UNL A   1      44.966  25.602  26.244  1.00  0.00     0.031 C 
ATOM     69  C   UNL A   1      45.927  27.847  26.666  1.00  0.00     0.037 A 
BRANCH  56  70
ATOM     70  C   UNL A   1      44.674  33.352  29.179  1.00  0.00     0.064 A 
ATOM     71  C   UNL A   1      45.342  33.712  30.359  1.00  0.00     0.173 A 
ATOM     72  C   UNL A   1      44.458  34.351  28.218  1.00  0.00     0.173 A 
ATOM     73  F   UNL A   1      45.558  32.798  31.319  1.00  0.00    -0.203 F 
ATOM     74  C   UNL A   1      45.751  35.025  30.580  1.00  0.00     0.198 A 
ATOM     75  C   UNL A   1      44.899  35.655  28.427  1.00  0.00     0.198 A 
ATOM     76  F   UNL A   1      43.825  34.062  27.071  1.00  0.00    -0.203 F 
ATOM     77  F   UNL A   1      46.338  35.356  31.738  1.00  0.00    -0.200 F 
ATOM     78  C   UNL A   1      45.537  35.993  29.610  1.00  0.00     0.200 A 
ATOM     79  F   UNL A   1      44.703  36.585  27.482  1.00  0.00    -0.200 F 
ATOM     80  F   UNL A   1      45.940  37.254  29.819  1.00  0.00    -0.200 F 
ENDBRANCH  56  70
BRANCH  57  81
ATOM     81  C   UNL A   1      41.188  24.146  27.436  1.00  0.00     0.064 A 
ATOM     82  C   UNL A   1      40.104  23.960  26.567  1.00  0.00     0.173 A 
ATOM     83  C   UNL A   1      41.743  23.004  28.035  1.00  0.00     0.173 A 
ATOM     84  F   UNL A   1      39.521  25.020  25.989  1.00  0.00    -0.203 F 
ATOM     85  C   UNL A   1      39.582  22.690  26.326  1.00  0.00     0.198 A 
ATOM     86  C   UNL A   1      41.242  21.733  27.768  1.00  0.00     0.198 A 
ATOM     87  F   UNL A   1      42.779  23.124  28.879  1.00  0.00    -0.203 F 
ATOM     88  F   UNL A   1      38.510  22.548  25.535  1.00  0.00    -0.200 F 
ATOM     89  C   UNL A   1      40.154  21.577  26.922  1.00  0.00     0.200 A 
ATOM     90  F   UNL A   1      41.808  20.659  28.336  1.00  0.00    -0.200 F 
ATOM     91  F   UNL A   1      39.653  20.356  26.691  1.00  0.00    -0.200 F 
ENDBRANCH  57  81
BRANCH  69  92
ATOM     92  C   UNL A   1      47.185  27.402  25.973  1.00  0.00     0.064 A 
ATOM     93  C   UNL A   1      47.387  27.601  24.599  1.00  0.00     0.173 A 
ATOM     94  C   UNL A   1      48.225  26.810  26.708  1.00  0.00     0.173 A 
ATOM     95  F   UNL A   1      46.421  28.152  23.848  1.00  0.00    -0.203 F 
ATOM     96  C   UNL A   1      48.568  27.196  23.982  1.00  0.00     0.198 A 
ATOM     97  C   UNL A   1      49.418  26.440  26.095  1.00  0.00     0.198 A 
ATOM     98  F   UNL A   1      48.090  26.606  28.027  1.00  0.00    -0.203 F 
ATOM     99  F   UNL A   1      48.716  27.346  22.659  1.00  0.00    -0.200 F 
ATOM    100  C   UNL A   1      49.586  26.624  24.732  1.00  0.00     0.200 A 
ATOM    101  F   UNL A   1      50.408  25.907  26.826  1.00  0.00    -0.200 F 
ATOM    102  F   UNL A   1      50.726  26.245  24.138  1.00  0.00    -0.200 F 
ENDBRANCH  69  92
ENDBRANCH  43  44
ENDBRANCH  36  38
ENDBRANCH  35  36
ENDBRANCH  34  35
ENDBRANCH  33  34
ENDBRANCH  32  33
ENDBRANCH  31  32
ENDBRANCH  30  31
ENDBRANCH  29  30
ENDBRANCH   1  29
TORSDOF 24
ENDMDL
MODEL 3
REMARK VINA RESULT:     -10.0      6.687     12.104
REMARK SMILES CC[C@H](NC(=O)[C@H]1[C@@H](C(=O)OCCOCCOCCOCCOC(=O)c2ccc(-c3c4nc(c(-c5c(F)c(F)c(F)c(F)c5F)c5ccc([nH]5)c(-c5c(F)c(F)c(F)c(F)c5F)c5nc(c(-c6c(F)c(F)c(F)c(F)c6F)c6ccc3[nH]6)C=C5)C=C4)cc2)[C@@H]2C=C[C@H]1C2)c1ccccc1
REMARK SMILES IDX 16 1 15 2 14 3 13 4 12 5 11 6 9 7 10 8 8 9 7 10 92 11 89 12
REMARK SMILES IDX 91 13 93 14 90 15 5 16 4 17 6 19 3 20 2 21 1 22 94 23 95 24
REMARK SMILES IDX 99 25 96 26 98 27 97 28 17 29 18 30 19 31 20 32 21 33 22 34
REMARK SMILES IDX 23 35 24 36 25 37 26 38 27 39 88 40 28 41 87 42 29 43 30 44
REMARK SMILES IDX 31 45 81 46 32 47 86 48 80 49 82 50 33 51 85 52 79 53 78 54
REMARK SMILES IDX 34 56 66 57 46 58 65 59 47 60 50 61 64 62 83 63 48 64 49 65
REMARK SMILES IDX 63 67 84 68 51 69 35 70 36 71 44 72 37 73 38 74 42 75 45 76
REMARK SMILES IDX 39 77 40 78 43 79 41 80 67 81 68 82 76 83 69 84 70 85 74 86
REMARK SMILES IDX 77 87 71 88 72 89 75 90 73 91 52 92 53 93 61 94 54 95 55 96
REMARK SMILES IDX 59 97 62 98 56 99 57 100 60 101 58 102
REMARK H PARENT 4 18 82 55 50 66
REMARK Flexibility Score: inf
ROOT
ATOM      1  C   UNL A   1      33.220  30.293  26.382  1.00  0.00     0.188 C 
ENDROOT
BRANCH   1   2
ATOM      2  C   UNL A   1      31.931  29.584  25.925  1.00  0.00     0.188 C 
BRANCH   2   3
ATOM      3  O   UNL A   1      31.823  28.166  25.970  1.00  0.00    -0.376 OA
BRANCH   3   4
ATOM      4  C   UNL A   1      32.963  27.359  26.215  1.00  0.00     0.202 C 
BRANCH   4   5
ATOM      5  C   UNL A   1      32.839  25.896  26.657  1.00  0.00     0.261 C 
BRANCH   5   6
ATOM      6  O   UNL A   1      32.090  25.021  25.807  1.00  0.00    -0.463 OA
BRANCH   6   7
ATOM      7  C   UNL A   1      32.691  23.845  25.500  1.00  0.00     0.310 C 
ATOM      8  O   UNL A   1      32.138  22.752  25.513  1.00  0.00    -0.252 OA
BRANCH   7   9
ATOM      9  C   UNL A   1      34.152  24.027  25.119  1.00  0.00     0.119 C 
ATOM     10  C   UNL A   1      34.487  24.167  23.588  1.00  0.00     0.100 C 
ATOM     11  C   UNL A   1      35.561  23.056  23.411  1.00  0.00     0.025 C 
ATOM     12  C   UNL A   1      35.053  22.843  25.563  1.00  0.00     0.027 C 
ATOM     13  C   UNL A   1      36.795  23.446  24.193  1.00  0.00    -0.027 C 
ATOM     14  C   UNL A   1      35.055  21.948  24.320  1.00  0.00     0.017 C 
ATOM     15  C   UNL A   1      36.494  23.302  25.491  1.00  0.00    -0.027 C 
BRANCH  10  16
ATOM     16  C   UNL A   1      33.278  24.080  22.656  1.00  0.00     0.225 C 
ATOM     17  N   UNL A   1      32.729  25.200  22.118  1.00  0.00    -0.349 N 
ATOM     18  H   UNL A   1      32.402  25.130  21.191  1.00  0.00     0.164 HD
ATOM     19  O   UNL A   1      32.680  23.028  22.428  1.00  0.00    -0.275 OA
BRANCH  17  20
ATOM     20  C   UNL A   1      32.573  26.489  22.769  1.00  0.00     0.112 C 
BRANCH  20  21
ATOM     21  C   UNL A   1      33.412  27.552  22.029  1.00  0.00     0.026 C 
ATOM     22  C   UNL A   1      34.203  28.435  22.991  1.00  0.00     0.006 C 
ENDBRANCH  20  21
BRANCH  20  23
ATOM     23  C   UNL A   1      31.106  26.877  22.926  1.00  0.00    -0.026 A 
ATOM     24  C   UNL A   1      30.707  28.148  22.475  1.00  0.00     0.006 A 
ATOM     25  C   UNL A   1      30.155  26.080  23.586  1.00  0.00     0.006 A 
ATOM     26  C   UNL A   1      29.408  28.610  22.683  1.00  0.00     0.000 A 
ATOM     27  C   UNL A   1      28.856  26.547  23.797  1.00  0.00     0.000 A 
ATOM     28  C   UNL A   1      28.484  27.811  23.348  1.00  0.00     0.000 A 
ENDBRANCH  20  23
ENDBRANCH  17  20
ENDBRANCH  10  16
ENDBRANCH   7   9
ENDBRANCH   6   7
ENDBRANCH   5   6
ENDBRANCH   4   5
ENDBRANCH   3   4
ENDBRANCH   2   3
ENDBRANCH   1   2
BRANCH   1  29
ATOM     29  O   UNL A   1      33.148  30.897  27.660  1.00  0.00    -0.377 OA
BRANCH  29  30
ATOM     30  C   UNL A   1      33.888  32.102  27.797  1.00  0.00     0.188 C 
BRANCH  30  31
ATOM     31  C   UNL A   1      34.734  32.264  29.079  1.00  0.00     0.188 C 
BRANCH  31  32
ATOM     32  O   UNL A   1      34.837  33.608  29.534  1.00  0.00    -0.376 OA
BRANCH  32  33
ATOM     33  C   UNL A   1      34.122  34.627  28.854  1.00  0.00     0.202 C 
BRANCH  33  34
ATOM     34  C   UNL A   1      32.930  35.266  29.587  1.00  0.00     0.261 C 
BRANCH  34  35
ATOM     35  O   UNL A   1      33.244  36.050  30.747  1.00  0.00    -0.460 OA
BRANCH  35  36
ATOM     36  C   UNL A   1      32.882  35.556  31.948  1.00  0.00     0.338 C 
ATOM     37  O   UNL A   1      31.757  35.507  32.417  1.00  0.00    -0.246 OA
BRANCH  36  38
ATOM     38  C   UNL A   1      34.062  34.891  32.538  1.00  0.00     0.060 A 
ATOM     39  C   UNL A   1      35.314  35.506  32.416  1.00  0.00     0.016 A 
ATOM     40  C   UNL A   1      33.934  33.676  33.215  1.00  0.00     0.016 A 
ATOM     41  C   UNL A   1      36.451  34.889  32.937  1.00  0.00     0.010 A 
ATOM     42  C   UNL A   1      35.076  33.043  33.711  1.00  0.00     0.010 A 
ATOM     43  C   UNL A   1      36.344  33.630  33.540  1.00  0.00    -0.014 A 
BRANCH  43  44
ATOM     44  C   UNL A   1      37.568  32.831  33.782  1.00  0.00     0.031 A 
ATOM     45  C   UNL A   1      38.337  33.084  35.051  1.00  0.00     0.074 A 
ATOM     46  C   UNL A   1      37.978  31.887  32.917  1.00  0.00     0.049 A 
ATOM     47  N   UNL A   1      39.463  32.562  35.464  1.00  0.00    -0.248 NA
ATOM     48  C   UNL A   1      37.752  34.066  35.979  1.00  0.00     0.031 C 
ATOM     49  C   UNL A   1      37.291  31.514  31.684  1.00  0.00     0.029 A 
ATOM     50  N   UNL A   1      39.085  31.076  32.948  1.00  0.00    -0.354 N 
ATOM     51  C   UNL A   1      39.725  33.160  36.690  1.00  0.00     0.074 A 
ATOM     52  C   UNL A   1      38.659  34.105  36.941  1.00  0.00     0.031 C 
ATOM     53  C   UNL A   1      38.003  30.557  31.063  1.00  0.00     0.029 A 
ATOM     54  C   UNL A   1      39.211  30.277  31.839  1.00  0.00     0.049 A 
ATOM     55  H   UNL A   1      39.727  31.067  33.694  1.00  0.00     0.167 HD
ATOM     56  C   UNL A   1      40.759  32.935  37.533  1.00  0.00     0.037 A 
ATOM     57  C   UNL A   1      40.205  29.440  31.481  1.00  0.00     0.037 A 
ATOM     58  C   UNL A   1      41.817  31.994  37.277  1.00  0.00     0.049 A 
ATOM     59  C   UNL A   1      41.390  29.267  32.401  1.00  0.00     0.074 A 
ATOM     60  C   UNL A   1      42.901  31.677  38.076  1.00  0.00     0.029 A 
ATOM     61  N   UNL A   1      41.928  31.227  36.127  1.00  0.00    -0.354 N 
ATOM     62  N   UNL A   1      41.622  29.814  33.570  1.00  0.00    -0.248 NA
ATOM     63  C   UNL A   1      42.451  28.354  31.950  1.00  0.00     0.031 C 
ATOM     64  C   UNL A   1      43.704  30.768  37.380  1.00  0.00     0.029 A 
ATOM     65  C   UNL A   1      43.083  30.462  36.179  1.00  0.00     0.049 A 
ATOM     66  H   UNL A   1      41.283  31.226  35.382  1.00  0.00     0.167 HD
ATOM     67  C   UNL A   1      42.832  29.288  34.009  1.00  0.00     0.074 A 
ATOM     68  C   UNL A   1      43.279  28.368  32.985  1.00  0.00     0.031 C 
ATOM     69  C   UNL A   1      43.509  29.541  35.156  1.00  0.00     0.037 A 
BRANCH  56  70
ATOM     70  C   UNL A   1      40.818  33.750  38.793  1.00  0.00     0.064 A 
ATOM     71  C   UNL A   1      40.135  33.370  39.957  1.00  0.00     0.173 A 
ATOM     72  C   UNL A   1      41.598  34.916  38.843  1.00  0.00     0.173 A 
ATOM     73  F   UNL A   1      39.361  32.274  39.958  1.00  0.00    -0.203 F 
ATOM     74  C   UNL A   1      40.206  34.141  41.115  1.00  0.00     0.198 A 
ATOM     75  C   UNL A   1      41.696  35.665  40.012  1.00  0.00     0.198 A 
ATOM     76  F   UNL A   1      42.274  35.326  37.758  1.00  0.00    -0.203 F 
ATOM     77  F   UNL A   1      39.501  33.787  42.199  1.00  0.00    -0.200 F 
ATOM     78  C   UNL A   1      40.994  35.282  41.144  1.00  0.00     0.200 A 
ATOM     79  F   UNL A   1      42.468  36.760  40.041  1.00  0.00    -0.200 F 
ATOM     80  F   UNL A   1      41.070  36.017  42.262  1.00  0.00    -0.200 F 
ENDBRANCH  56  70
BRANCH  57  81
ATOM     81  C   UNL A   1      40.141  28.714  30.184  1.00  0.00     0.064 A 
ATOM     82  C   UNL A   1      39.509  27.467  30.079  1.00  0.00     0.173 A 
ATOM     83  C   UNL A   1      40.743  29.237  29.028  1.00  0.00     0.173 A 
ATOM     84  F   UNL A   1      38.942  26.911  31.159  1.00  0.00    -0.203 F 
ATOM     85  C   UNL A   1      39.499  26.763  28.877  1.00  0.00     0.198 A 
ATOM     86  C   UNL A   1      40.703  28.547  27.819  1.00  0.00     0.198 A 
ATOM     87  F   UNL A   1      41.366  30.424  29.073  1.00  0.00    -0.203 F 
ATOM     88  F   UNL A   1      38.937  25.547  28.819  1.00  0.00    -0.200 F 
ATOM     89  C   UNL A   1      40.091  27.305  27.746  1.00  0.00     0.200 A 
ATOM     90  F   UNL A   1      41.265  29.083  26.726  1.00  0.00    -0.200 F 
ATOM     91  F   UNL A   1      40.082  26.627  26.590  1.00  0.00    -0.200 F 
ENDBRANCH  57  81
BRANCH  69  92
ATOM     92  C   UNL A   1      44.783  28.779  35.395  1.00  0.00     0.064 A 
ATOM     93  C   UNL A   1      44.792  27.528  36.031  1.00  0.00     0.173 A 
ATOM     94  C   UNL A   1      46.008  29.288  34.936  1.00  0.00     0.173 A 
ATOM     95  F   UNL A   1      43.651  27.000  36.499  1.00  0.00    -0.203 F 
ATOM     96  C   UNL A   1      45.983  26.831  36.225  1.00  0.00     0.198 A 
ATOM     97  C   UNL A   1      47.191  28.573  35.099  1.00  0.00     0.198 A 
ATOM     98  F   UNL A   1      46.056  30.474  34.311  1.00  0.00    -0.203 F 
ATOM     99  F   UNL A   1      45.974  25.665  36.883  1.00  0.00    -0.200 F 
ATOM    100  C   UNL A   1      47.179  27.350  35.751  1.00  0.00     0.200 A 
ATOM    101  F   UNL A   1      48.342  29.067  34.622  1.00  0.00    -0.200 F 
ATOM    102  F   UNL A   1      48.322  26.673  35.929  1.00  0.00    -0.200 F 
ENDBRANCH  69  92
ENDBRANCH  43  44
ENDBRANCH  36  38
ENDBRANCH  35  36
ENDBRANCH  34  35
ENDBRANCH  33  34
ENDBRANCH  32  33
ENDBRANCH  31  32
ENDBRANCH  30  31
ENDBRANCH  29  30
ENDBRANCH   1  29
TORSDOF 24
ENDMDL
