MODEL 1
REMARK VINA RESULT:      -8.8      0.000      0.000
REMARK SMILES C[C@]1(c2ccccc2C(=O)OCCOCCOCCOCCOC(=O)c2ccc(-c3c4nc(c(-c5c(F)c(F)c(F)c(F)c5F)c5ccc([nH]5)c(-c5c(F)c(F)c(F)c(F)c5F)c5nc(c(-c6c(F)c(F)c(F)c(F)c6F)c6ccc3[nH]6)C=C5)C=C4)cc2)NN=C(c2ccccc2)S1
REMARK SMILES IDX 17 1 16 2 15 3 14 4 13 5 12 6 11 7 9 8 10 9 8 10 3 11 4 12
REMARK SMILES IDX 5 13 7 14 6 15 2 16 1 17 89 18 98 19 90 20 91 22 92 23 93 24
REMARK SMILES IDX 97 25 94 26 96 27 95 28 18 29 19 30 20 31 21 32 22 33 23 34
REMARK SMILES IDX 24 35 25 36 26 37 27 38 88 39 28 40 87 41 29 42 30 43 31 44
REMARK SMILES IDX 81 45 32 46 86 47 80 48 82 49 33 50 85 51 79 52 78 53 34 55
REMARK SMILES IDX 66 56 46 57 65 58 47 59 50 60 64 61 83 62 48 63 49 64 63 66
REMARK SMILES IDX 84 67 51 68 35 69 36 70 44 71 37 72 38 73 42 74 45 75 39 76
REMARK SMILES IDX 40 77 43 78 41 79 67 80 68 81 76 82 69 83 70 84 74 85 77 86
REMARK SMILES IDX 71 87 72 88 75 89 73 90 52 91 53 92 61 93 54 94 55 95 59 96
REMARK SMILES IDX 62 97 56 98 57 99 60 100 58 101
REMARK H PARENT 89 21 82 54 50 65
REMARK Flexibility Score: inf
ROOT
ATOM      1  O   UNL A   1      32.514  36.749  29.873  1.00  0.00    -0.377 OA
ENDROOT
BRANCH   1   2
ATOM      2  C   UNL A   1      33.119  36.924  31.148  1.00  0.00     0.188 C 
BRANCH   2   3
ATOM      3  C   UNL A   1      32.581  35.954  32.223  1.00  0.00     0.188 C 
BRANCH   3   4
ATOM      4  O   UNL A   1      33.596  35.273  32.943  1.00  0.00    -0.376 OA
BRANCH   4   5
ATOM      5  C   UNL A   1      34.226  34.162  32.333  1.00  0.00     0.202 C 
BRANCH   5   6
ATOM      6  C   UNL A   1      34.889  33.051  33.146  1.00  0.00     0.261 C 
BRANCH   6   7
ATOM      7  O   UNL A   1      36.302  33.110  33.354  1.00  0.00    -0.460 OA
BRANCH   7   8
ATOM      8  C   UNL A   1      37.070  32.038  33.100  1.00  0.00     0.338 C 
ATOM      9  O   UNL A   1      36.709  30.934  32.733  1.00  0.00    -0.246 OA
BRANCH   8  10
ATOM     10  C   UNL A   1      38.466  32.537  33.144  1.00  0.00     0.066 A 
ATOM     11  C   UNL A   1      39.463  32.068  34.037  1.00  0.00     0.004 A 
ATOM     12  C   UNL A   1      40.609  32.896  34.159  1.00  0.00     0.008 A 
ATOM     13  C   UNL A   1      40.800  34.039  33.371  1.00  0.00     0.000 A 
ATOM     14  C   UNL A   1      38.687  33.657  32.316  1.00  0.00     0.016 A 
ATOM     15  C   UNL A   1      39.855  34.402  32.425  1.00  0.00     0.001 A 
BRANCH  11  16
ATOM     16  C   UNL A   1      39.390  30.755  34.849  1.00  0.00     0.129 C 
ATOM     17  C   UNL A   1      38.314  30.806  35.960  1.00  0.00     0.054 C 
ATOM     18  N   UNL A   1      39.114  29.595  34.001  1.00  0.00    -0.288 NA
ATOM     19  S   UNL A   1      40.945  30.314  35.720  1.00  0.00    -0.070 SA
ATOM     20  N   UNL A   1      40.053  28.611  33.960  1.00  0.00    -0.171 NA
ATOM     21  H   UNL A   1      38.282  29.529  33.479  1.00  0.00     0.185 HD
ATOM     22  C   UNL A   1      41.099  28.919  34.670  1.00  0.00     0.126 C 
BRANCH  22  23
ATOM     23  C   UNL A   1      42.396  28.207  34.497  1.00  0.00     0.009 A 
ATOM     24  C   UNL A   1      42.656  27.628  33.243  1.00  0.00     0.011 A 
ATOM     25  C   UNL A   1      43.459  28.377  35.399  1.00  0.00     0.011 A 
ATOM     26  C   UNL A   1      43.961  27.311  32.861  1.00  0.00     0.001 A 
ATOM     27  C   UNL A   1      44.769  28.071  35.004  1.00  0.00     0.001 A 
ATOM     28  C   UNL A   1      45.020  27.560  33.731  1.00  0.00     0.000 A 
ENDBRANCH  22  23
ENDBRANCH  11  16
ENDBRANCH   8  10
ENDBRANCH   7   8
ENDBRANCH   6   7
ENDBRANCH   5   6
ENDBRANCH   4   5
ENDBRANCH   3   4
ENDBRANCH   2   3
ENDBRANCH   1   2
BRANCH   1  29
ATOM     29  C   UNL A   1      33.329  36.865  28.711  1.00  0.00     0.188 C 
BRANCH  29  30
ATOM     30  C   UNL A   1      34.435  35.828  28.425  1.00  0.00     0.188 C 
BRANCH  30  31
ATOM     31  O   UNL A   1      34.007  34.485  28.592  1.00  0.00    -0.376 OA
BRANCH  31  32
ATOM     32  C   UNL A   1      34.761  33.434  28.023  1.00  0.00     0.202 C 
BRANCH  32  33
ATOM     33  C   UNL A   1      34.072  32.074  27.861  1.00  0.00     0.261 C 
BRANCH  33  34
ATOM     34  O   UNL A   1      34.583  30.998  28.658  1.00  0.00    -0.460 OA
BRANCH  34  35
ATOM     35  C   UNL A   1      34.961  29.864  28.031  1.00  0.00     0.338 C 
ATOM     36  O   UNL A   1      34.320  29.207  27.234  1.00  0.00    -0.246 OA
BRANCH  35  37
ATOM     37  C   UNL A   1      36.386  29.648  28.366  1.00  0.00     0.060 A 
ATOM     38  C   UNL A   1      37.371  29.884  27.397  1.00  0.00     0.016 A 
ATOM     39  C   UNL A   1      36.740  29.236  29.651  1.00  0.00     0.016 A 
ATOM     40  C   UNL A   1      38.718  29.684  27.710  1.00  0.00     0.010 A 
ATOM     41  C   UNL A   1      38.084  29.015  29.956  1.00  0.00     0.010 A 
ATOM     42  C   UNL A   1      39.076  29.213  28.980  1.00  0.00    -0.014 A 
BRANCH  42  43
ATOM     43  C   UNL A   1      40.453  28.740  29.256  1.00  0.00     0.031 A 
ATOM     44  C   UNL A   1      41.386  29.668  29.982  1.00  0.00     0.074 A 
ATOM     45  C   UNL A   1      40.880  27.533  28.845  1.00  0.00     0.049 A 
ATOM     46  N   UNL A   1      42.671  29.560  30.200  1.00  0.00    -0.248 NA
ATOM     47  C   UNL A   1      40.782  30.894  30.531  1.00  0.00     0.031 C 
ATOM     48  C   UNL A   1      40.058  26.524  28.183  1.00  0.00     0.029 A 
ATOM     49  N   UNL A   1      42.130  26.967  28.904  1.00  0.00    -0.354 N 
ATOM     50  C   UNL A   1      43.029  30.701  30.905  1.00  0.00     0.074 A 
ATOM     51  C   UNL A   1      41.835  31.503  31.055  1.00  0.00     0.031 C 
ATOM     52  C   UNL A   1      40.830  25.467  27.876  1.00  0.00     0.029 A 
ATOM     53  C   UNL A   1      42.209  25.747  28.275  1.00  0.00     0.049 A 
ATOM     54  H   UNL A   1      42.895  27.392  29.353  1.00  0.00     0.167 HD
ATOM     55  C   UNL A   1      44.246  31.044  31.389  1.00  0.00     0.037 A 
ATOM     56  C   UNL A   1      43.283  24.974  28.018  1.00  0.00     0.037 A 
ATOM     57  C   UNL A   1      45.432  30.249  31.226  1.00  0.00     0.049 A 
ATOM     58  C   UNL A   1      44.650  25.439  28.461  1.00  0.00     0.074 A 
ATOM     59  C   UNL A   1      46.713  30.508  31.677  1.00  0.00     0.029 A 
ATOM     60  N   UNL A   1      45.480  29.039  30.549  1.00  0.00    -0.354 N 
ATOM     61  N   UNL A   1      44.985  26.510  29.138  1.00  0.00    -0.248 NA
ATOM     62  C   UNL A   1      45.793  24.589  28.091  1.00  0.00     0.031 C 
ATOM     63  C   UNL A   1      47.549  29.481  31.227  1.00  0.00     0.029 A 
ATOM     64  C   UNL A   1      46.778  28.553  30.544  1.00  0.00     0.049 A 
ATOM     65  H   UNL A   1      44.707  28.591  30.134  1.00  0.00     0.167 HD
ATOM     66  C   UNL A   1      46.364  26.447  29.301  1.00  0.00     0.074 A 
ATOM     67  C   UNL A   1      46.804  25.225  28.665  1.00  0.00     0.031 C 
ATOM     68  C   UNL A   1      47.194  27.323  29.920  1.00  0.00     0.037 A 
BRANCH  55  69
ATOM     69  C   UNL A   1      44.359  32.348  32.121  1.00  0.00     0.064 A 
ATOM     70  C   UNL A   1      44.530  33.562  31.438  1.00  0.00     0.173 A 
ATOM     71  C   UNL A   1      44.255  32.390  33.519  1.00  0.00     0.173 A 
ATOM     72  F   UNL A   1      44.652  33.574  30.102  1.00  0.00    -0.203 F 
ATOM     73  C   UNL A   1      44.611  34.767  32.130  1.00  0.00     0.198 A 
ATOM     74  C   UNL A   1      44.307  33.600  34.206  1.00  0.00     0.198 A 
ATOM     75  F   UNL A   1      44.090  31.257  34.219  1.00  0.00    -0.203 F 
ATOM     76  F   UNL A   1      44.816  35.910  31.461  1.00  0.00    -0.200 F 
ATOM     77  C   UNL A   1      44.491  34.786  33.512  1.00  0.00     0.200 A 
ATOM     78  F   UNL A   1      44.178  33.618  35.539  1.00  0.00    -0.200 F 
ATOM     79  F   UNL A   1      44.557  35.948  34.176  1.00  0.00    -0.200 F 
ENDBRANCH  55  69
BRANCH  56  80
ATOM     80  C   UNL A   1      43.131  23.694  27.274  1.00  0.00     0.064 A 
ATOM     81  C   UNL A   1      42.681  22.533  27.920  1.00  0.00     0.173 A 
ATOM     82  C   UNL A   1      43.482  23.589  25.920  1.00  0.00     0.173 A 
ATOM     83  F   UNL A   1      42.363  22.573  29.222  1.00  0.00    -0.203 F 
ATOM     84  C   UNL A   1      42.615  21.314  27.249  1.00  0.00     0.198 A 
ATOM     85  C   UNL A   1      43.384  22.375  25.240  1.00  0.00     0.198 A 
ATOM     86  F   UNL A   1      43.930  24.664  25.255  1.00  0.00    -0.203 F 
ATOM     87  F   UNL A   1      42.243  20.208  27.909  1.00  0.00    -0.200 F 
ATOM     88  C   UNL A   1      42.962  21.236  25.909  1.00  0.00     0.200 A 
ATOM     89  F   UNL A   1      43.715  22.307  23.944  1.00  0.00    -0.200 F 
ATOM     90  F   UNL A   1      42.906  20.062  25.266  1.00  0.00    -0.200 F 
ENDBRANCH  56  80
BRANCH  68  91
ATOM     91  C   UNL A   1      48.655  26.981  29.977  1.00  0.00     0.064 A 
ATOM     92  C   UNL A   1      49.172  26.126  30.960  1.00  0.00     0.173 A 
ATOM     93  C   UNL A   1      49.534  27.458  28.991  1.00  0.00     0.173 A 
ATOM     94  F   UNL A   1      48.376  25.654  31.931  1.00  0.00    -0.203 F 
ATOM     95  C   UNL A   1      50.520  25.775  30.965  1.00  0.00     0.198 A 
ATOM     96  C   UNL A   1      50.873  27.080  28.981  1.00  0.00     0.198 A 
ATOM     97  F   UNL A   1      49.087  28.272  28.023  1.00  0.00    -0.203 F 
ATOM     98  F   UNL A   1      51.001  24.987  31.936  1.00  0.00    -0.200 F 
ATOM     99  C   UNL A   1      51.366  26.242  29.970  1.00  0.00     0.200 A 
ATOM    100  F   UNL A   1      51.685  27.519  28.009  1.00  0.00    -0.200 F 
ATOM    101  F   UNL A   1      52.658  25.889  29.967  1.00  0.00    -0.200 F 
ENDBRANCH  68  91
ENDBRANCH  42  43
ENDBRANCH  35  37
ENDBRANCH  34  35
ENDBRANCH  33  34
ENDBRANCH  32  33
ENDBRANCH  31  32
ENDBRANCH  30  31
ENDBRANCH  29  30
ENDBRANCH   1  29
TORSDOF 22
ENDMDL
MODEL 2
REMARK VINA RESULT:      -8.5      0.913      2.158
REMARK SMILES C[C@]1(c2ccccc2C(=O)OCCOCCOCCOCCOC(=O)c2ccc(-c3c4nc(c(-c5c(F)c(F)c(F)c(F)c5F)c5ccc([nH]5)c(-c5c(F)c(F)c(F)c(F)c5F)c5nc(c(-c6c(F)c(F)c(F)c(F)c6F)c6ccc3[nH]6)C=C5)C=C4)cc2)NN=C(c2ccccc2)S1
REMARK SMILES IDX 17 1 16 2 15 3 14 4 13 5 12 6 11 7 9 8 10 9 8 10 3 11 4 12
REMARK SMILES IDX 5 13 7 14 6 15 2 16 1 17 89 18 98 19 90 20 91 22 92 23 93 24
REMARK SMILES IDX 97 25 94 26 96 27 95 28 18 29 19 30 20 31 21 32 22 33 23 34
REMARK SMILES IDX 24 35 25 36 26 37 27 38 88 39 28 40 87 41 29 42 30 43 31 44
REMARK SMILES IDX 81 45 32 46 86 47 80 48 82 49 33 50 85 51 79 52 78 53 34 55
REMARK SMILES IDX 66 56 46 57 65 58 47 59 50 60 64 61 83 62 48 63 49 64 63 66
REMARK SMILES IDX 84 67 51 68 35 69 36 70 44 71 37 72 38 73 42 74 45 75 39 76
REMARK SMILES IDX 40 77 43 78 41 79 67 80 68 81 76 82 69 83 70 84 74 85 77 86
REMARK SMILES IDX 71 87 72 88 75 89 73 90 52 91 53 92 61 93 54 94 55 95 59 96
REMARK SMILES IDX 62 97 56 98 57 99 60 100 58 101
REMARK H PARENT 89 21 82 54 50 65
REMARK Flexibility Score: inf
ROOT
ATOM      1  O   UNL A   1      32.561  36.862  29.963  1.00  0.00    -0.377 OA
ENDROOT
BRANCH   1   2
ATOM      2  C   UNL A   1      33.272  37.064  31.178  1.00  0.00     0.188 C 
BRANCH   2   3
ATOM      3  C   UNL A   1      32.674  36.297  32.377  1.00  0.00     0.188 C 
BRANCH   3   4
ATOM      4  O   UNL A   1      33.609  35.479  33.061  1.00  0.00    -0.376 OA
BRANCH   4   5
ATOM      5  C   UNL A   1      33.938  34.219  32.504  1.00  0.00     0.202 C 
BRANCH   5   6
ATOM      6  C   UNL A   1      34.540  33.089  33.338  1.00  0.00     0.261 C 
BRANCH   6   7
ATOM      7  O   UNL A   1      35.949  32.859  33.256  1.00  0.00    -0.460 OA
BRANCH   7   8
ATOM      8  C   UNL A   1      36.437  31.944  32.403  1.00  0.00     0.338 C 
ATOM      9  O   UNL A   1      35.929  30.886  32.075  1.00  0.00    -0.246 OA
BRANCH   8  10
ATOM     10  C   UNL A   1      37.615  32.587  31.771  1.00  0.00     0.066 A 
ATOM     11  C   UNL A   1      38.816  32.916  32.451  1.00  0.00     0.004 A 
ATOM     12  C   UNL A   1      39.670  33.823  31.773  1.00  0.00     0.008 A 
ATOM     13  C   UNL A   1      39.408  34.278  30.473  1.00  0.00     0.000 A 
ATOM     14  C   UNL A   1      37.382  33.004  30.444  1.00  0.00     0.016 A 
ATOM     15  C   UNL A   1      38.280  33.842  29.795  1.00  0.00     0.001 A 
BRANCH  11  16
ATOM     16  C   UNL A   1      39.243  32.362  33.829  1.00  0.00     0.129 C 
ATOM     17  C   UNL A   1      38.924  33.340  34.985  1.00  0.00     0.054 C 
ATOM     18  N   UNL A   1      38.609  31.078  34.130  1.00  0.00    -0.288 NA
ATOM     19  S   UNL A   1      41.041  32.020  33.985  1.00  0.00    -0.070 SA
ATOM     20  N   UNL A   1      39.423  30.002  34.308  1.00  0.00    -0.171 NA
ATOM     21  H   UNL A   1      37.630  30.995  34.200  1.00  0.00     0.185 HD
ATOM     22  C   UNL A   1      40.672  30.311  34.114  1.00  0.00     0.126 C 
BRANCH  22  23
ATOM     23  C   UNL A   1      41.707  29.266  33.880  1.00  0.00     0.009 A 
ATOM     24  C   UNL A   1      41.381  28.216  33.004  1.00  0.00     0.011 A 
ATOM     25  C   UNL A   1      43.053  29.466  34.229  1.00  0.00     0.011 A 
ATOM     26  C   UNL A   1      42.384  27.442  32.417  1.00  0.00     0.001 A 
ATOM     27  C   UNL A   1      44.055  28.695  33.625  1.00  0.00     0.001 A 
ATOM     28  C   UNL A   1      43.722  27.701  32.704  1.00  0.00     0.000 A 
ENDBRANCH  22  23
ENDBRANCH  11  16
ENDBRANCH   8  10
ENDBRANCH   7   8
ENDBRANCH   6   7
ENDBRANCH   5   6
ENDBRANCH   4   5
ENDBRANCH   3   4
ENDBRANCH   2   3
ENDBRANCH   1   2
BRANCH   1  29
ATOM     29  C   UNL A   1      33.299  36.750  28.751  1.00  0.00     0.188 C 
BRANCH  29  30
ATOM     30  C   UNL A   1      34.402  35.682  28.604  1.00  0.00     0.188 C 
BRANCH  30  31
ATOM     31  O   UNL A   1      33.896  34.359  28.494  1.00  0.00    -0.376 OA
BRANCH  31  32
ATOM     32  C   UNL A   1      34.728  33.330  27.997  1.00  0.00     0.202 C 
BRANCH  32  33
ATOM     33  C   UNL A   1      34.186  31.897  28.043  1.00  0.00     0.261 C 
BRANCH  33  34
ATOM     34  O   UNL A   1      34.919  30.960  28.842  1.00  0.00    -0.460 OA
BRANCH  34  35
ATOM     35  C   UNL A   1      35.256  29.776  28.288  1.00  0.00     0.338 C 
ATOM     36  O   UNL A   1      34.558  29.051  27.606  1.00  0.00    -0.246 OA
BRANCH  35  37
ATOM     37  C   UNL A   1      36.703  29.591  28.526  1.00  0.00     0.060 A 
ATOM     38  C   UNL A   1      37.618  29.880  27.505  1.00  0.00     0.016 A 
ATOM     39  C   UNL A   1      37.150  29.154  29.775  1.00  0.00     0.016 A 
ATOM     40  C   UNL A   1      38.987  29.710  27.726  1.00  0.00     0.010 A 
ATOM     41  C   UNL A   1      38.516  28.964  29.988  1.00  0.00     0.010 A 
ATOM     42  C   UNL A   1      39.438  29.215  28.958  1.00  0.00    -0.014 A 
BRANCH  42  43
ATOM     43  C   UNL A   1      40.842  28.774  29.133  1.00  0.00     0.031 A 
ATOM     44  C   UNL A   1      41.823  29.755  29.711  1.00  0.00     0.074 A 
ATOM     45  C   UNL A   1      41.248  27.548  28.757  1.00  0.00     0.049 A 
ATOM     46  N   UNL A   1      43.124  29.673  29.814  1.00  0.00    -0.248 NA
ATOM     47  C   UNL A   1      41.254  31.007  30.237  1.00  0.00     0.031 C 
ATOM     48  C   UNL A   1      40.384  26.492  28.238  1.00  0.00     0.029 A 
ATOM     49  N   UNL A   1      42.506  26.999  28.734  1.00  0.00    -0.354 N 
ATOM     50  C   UNL A   1      43.528  30.859  30.412  1.00  0.00     0.074 A 
ATOM     51  C   UNL A   1      42.341  31.658  30.623  1.00  0.00     0.031 C 
ATOM     52  C   UNL A   1      41.141  25.426  27.925  1.00  0.00     0.029 A 
ATOM     53  C   UNL A   1      42.546  25.744  28.177  1.00  0.00     0.049 A 
ATOM     54  H   UNL A   1      43.303  27.459  29.084  1.00  0.00     0.167 HD
ATOM     55  C   UNL A   1      44.779  31.244  30.759  1.00  0.00     0.037 A 
ATOM     56  C   UNL A   1      43.604  24.966  27.869  1.00  0.00     0.037 A 
ATOM     57  C   UNL A   1      45.957  30.451  30.535  1.00  0.00     0.049 A 
ATOM     58  C   UNL A   1      44.998  25.471  28.153  1.00  0.00     0.074 A 
ATOM     59  C   UNL A   1      47.270  30.751  30.848  1.00  0.00     0.029 A 
ATOM     60  N   UNL A   1      45.961  29.202  29.931  1.00  0.00    -0.354 N 
ATOM     61  N   UNL A   1      45.378  26.586  28.729  1.00  0.00    -0.248 NA
ATOM     62  C   UNL A   1      46.116  24.612  27.731  1.00  0.00     0.031 C 
ATOM     63  C   UNL A   1      48.077  29.706  30.385  1.00  0.00     0.029 A 
ATOM     64  C   UNL A   1      47.260  28.730  29.835  1.00  0.00     0.049 A 
ATOM     65  H   UNL A   1      45.161  28.722  29.618  1.00  0.00     0.167 HD
ATOM     66  C   UNL A   1      46.767  26.547  28.767  1.00  0.00     0.074 A 
ATOM     67  C   UNL A   1      47.166  25.292  28.168  1.00  0.00     0.031 C 
ATOM     68  C   UNL A   1      47.636  27.468  29.251  1.00  0.00     0.037 A 
BRANCH  55  69
ATOM     69  C   UNL A   1      44.939  32.592  31.396  1.00  0.00     0.064 A 
ATOM     70  C   UNL A   1      45.087  32.735  32.784  1.00  0.00     0.173 A 
ATOM     71  C   UNL A   1      44.985  33.751  30.607  1.00  0.00     0.173 A 
ATOM     72  F   UNL A   1      45.033  31.659  33.583  1.00  0.00    -0.203 F 
ATOM     73  C   UNL A   1      45.257  33.992  33.359  1.00  0.00     0.198 A 
ATOM     74  C   UNL A   1      45.184  35.002  31.183  1.00  0.00     0.198 A 
ATOM     75  F   UNL A   1      44.850  33.668  29.275  1.00  0.00    -0.203 F 
ATOM     76  F   UNL A   1      45.355  34.110  34.691  1.00  0.00    -0.200 F 
ATOM     77  C   UNL A   1      45.314  35.123  32.558  1.00  0.00     0.200 A 
ATOM     78  F   UNL A   1      45.252  36.092  30.407  1.00  0.00    -0.200 F 
ATOM     79  F   UNL A   1      45.490  36.330  33.112  1.00  0.00    -0.200 F 
ENDBRANCH  55  69
BRANCH  56  80
ATOM     80  C   UNL A   1      43.404  23.642  27.221  1.00  0.00     0.064 A 
ATOM     81  C   UNL A   1      43.672  23.459  25.856  1.00  0.00     0.173 A 
ATOM     82  C   UNL A   1      42.889  22.548  27.933  1.00  0.00     0.173 A 
ATOM     83  F   UNL A   1      44.134  24.482  25.122  1.00  0.00    -0.203 F 
ATOM     84  C   UNL A   1      43.408  22.245  25.225  1.00  0.00     0.198 A 
ATOM     85  C   UNL A   1      42.656  21.324  27.309  1.00  0.00     0.198 A 
ATOM     86  F   UNL A   1      42.603  22.670  29.238  1.00  0.00    -0.203 F 
ATOM     87  F   UNL A   1      43.612  22.118  23.906  1.00  0.00    -0.200 F 
ATOM     88  C   UNL A   1      42.905  21.177  25.952  1.00  0.00     0.200 A 
ATOM     89  F   UNL A   1      42.176  20.293  28.017  1.00  0.00    -0.200 F 
ATOM     90  F   UNL A   1      42.643  20.012  25.344  1.00  0.00    -0.200 F 
ENDBRANCH  56  80
BRANCH  68  91
ATOM     91  C   UNL A   1      49.101  27.144  29.193  1.00  0.00     0.064 A 
ATOM     92  C   UNL A   1      49.902  27.549  28.115  1.00  0.00     0.173 A 
ATOM     93  C   UNL A   1      49.725  26.484  30.263  1.00  0.00     0.173 A 
ATOM     94  F   UNL A   1      49.352  28.171  27.062  1.00  0.00    -0.203 F 
ATOM     95  C   UNL A   1      51.270  27.288  28.103  1.00  0.00     0.198 A 
ATOM     96  C   UNL A   1      51.097  26.254  30.262  1.00  0.00     0.198 A 
ATOM     97  F   UNL A   1      49.006  26.083  31.323  1.00  0.00    -0.203 F 
ATOM     98  F   UNL A   1      52.009  27.650  27.045  1.00  0.00    -0.200 F 
ATOM     99  C   UNL A   1      51.868  26.652  29.181  1.00  0.00     0.200 A 
ATOM    100  F   UNL A   1      51.677  25.654  31.312  1.00  0.00    -0.200 F 
ATOM    101  F   UNL A   1      53.188  26.418  29.174  1.00  0.00    -0.200 F 
ENDBRANCH  68  91
ENDBRANCH  42  43
ENDBRANCH  35  37
ENDBRANCH  34  35
ENDBRANCH  33  34
ENDBRANCH  32  33
ENDBRANCH  31  32
ENDBRANCH  30  31
ENDBRANCH  29  30
ENDBRANCH   1  29
TORSDOF 22
ENDMDL
MODEL 3
REMARK VINA RESULT:      -8.5      5.475      9.885
REMARK SMILES C[C@]1(c2ccccc2C(=O)OCCOCCOCCOCCOC(=O)c2ccc(-c3c4nc(c(-c5c(F)c(F)c(F)c(F)c5F)c5ccc([nH]5)c(-c5c(F)c(F)c(F)c(F)c5F)c5nc(c(-c6c(F)c(F)c(F)c(F)c6F)c6ccc3[nH]6)C=C5)C=C4)cc2)NN=C(c2ccccc2)S1
REMARK SMILES IDX 17 1 16 2 15 3 14 4 13 5 12 6 11 7 9 8 10 9 8 10 3 11 4 12
REMARK SMILES IDX 5 13 7 14 6 15 2 16 1 17 89 18 98 19 90 20 91 22 92 23 93 24
REMARK SMILES IDX 97 25 94 26 96 27 95 28 18 29 19 30 20 31 21 32 22 33 23 34
REMARK SMILES IDX 24 35 25 36 26 37 27 38 88 39 28 40 87 41 29 42 30 43 31 44
REMARK SMILES IDX 81 45 32 46 86 47 80 48 82 49 33 50 85 51 79 52 78 53 34 55
REMARK SMILES IDX 66 56 46 57 65 58 47 59 50 60 64 61 83 62 48 63 49 64 63 66
REMARK SMILES IDX 84 67 51 68 35 69 36 70 44 71 37 72 38 73 42 74 45 75 39 76
REMARK SMILES IDX 40 77 43 78 41 79 67 80 68 81 76 82 69 83 70 84 74 85 77 86
REMARK SMILES IDX 71 87 72 88 75 89 73 90 52 91 53 92 61 93 54 94 55 95 59 96
REMARK SMILES IDX 62 97 56 98 57 99 60 100 58 101
REMARK H PARENT 89 21 82 54 50 65
REMARK Flexibility Score: inf
ROOT
ATOM      1  O   UNL A   1      34.603  30.461  27.651  1.00  0.00    -0.377 OA
ENDROOT
BRANCH   1   2
ATOM      2  C   UNL A   1      33.312  30.523  27.057  1.00  0.00     0.188 C 
BRANCH   2   3
ATOM      3  C   UNL A   1      33.183  29.675  25.773  1.00  0.00     0.188 C 
BRANCH   3   4
ATOM      4  O   UNL A   1      31.909  29.074  25.606  1.00  0.00    -0.376 OA
BRANCH   4   5
ATOM      5  C   UNL A   1      31.676  28.299  24.444  1.00  0.00     0.202 C 
BRANCH   5   6
ATOM      6  C   UNL A   1      32.745  27.388  23.842  1.00  0.00     0.261 C 
BRANCH   6   7
ATOM      7  O   UNL A   1      32.620  25.976  24.029  1.00  0.00    -0.460 OA
BRANCH   7   8
ATOM      8  C   UNL A   1      33.342  25.126  23.280  1.00  0.00     0.338 C 
ATOM      9  O   UNL A   1      33.506  25.154  22.073  1.00  0.00    -0.246 OA
BRANCH   8  10
ATOM     10  C   UNL A   1      34.078  24.279  24.249  1.00  0.00     0.066 A 
ATOM     11  C   UNL A   1      33.553  23.112  24.862  1.00  0.00     0.004 A 
ATOM     12  C   UNL A   1      34.265  22.649  25.999  1.00  0.00     0.008 A 
ATOM     13  C   UNL A   1      35.467  23.232  26.425  1.00  0.00     0.000 A 
ATOM     14  C   UNL A   1      35.314  24.828  24.649  1.00  0.00     0.016 A 
ATOM     15  C   UNL A   1      36.009  24.301  25.730  1.00  0.00     0.001 A 
BRANCH  11  16
ATOM     16  C   UNL A   1      32.308  22.333  24.382  1.00  0.00     0.129 C 
ATOM     17  C   UNL A   1      31.019  23.187  24.436  1.00  0.00     0.054 C 
ATOM     18  N   UNL A   1      32.463  21.829  23.017  1.00  0.00    -0.288 NA
ATOM     19  S   UNL A   1      31.922  20.835  25.372  1.00  0.00    -0.070 SA
ATOM     20  N   UNL A   1      32.420  20.480  22.838  1.00  0.00    -0.171 NA
ATOM     21  H   UNL A   1      32.596  22.441  22.257  1.00  0.00     0.185 HD
ATOM     22  C   UNL A   1      32.300  19.851  23.971  1.00  0.00     0.126 C 
BRANCH  22  23
ATOM     23  C   UNL A   1      32.601  18.397  24.093  1.00  0.00     0.009 A 
ATOM     24  C   UNL A   1      33.273  17.783  23.022  1.00  0.00     0.011 A 
ATOM     25  C   UNL A   1      32.536  17.730  25.327  1.00  0.00     0.011 A 
ATOM     26  C   UNL A   1      33.944  16.572  23.203  1.00  0.00     0.001 A 
ATOM     27  C   UNL A   1      33.224  16.522  25.506  1.00  0.00     0.001 A 
ATOM     28  C   UNL A   1      33.944  15.957  24.453  1.00  0.00     0.000 A 
ENDBRANCH  22  23
ENDBRANCH  11  16
ENDBRANCH   8  10
ENDBRANCH   7   8
ENDBRANCH   6   7
ENDBRANCH   5   6
ENDBRANCH   4   5
ENDBRANCH   3   4
ENDBRANCH   2   3
ENDBRANCH   1   2
BRANCH   1  29
ATOM     29  C   UNL A   1      34.997  31.506  28.533  1.00  0.00     0.188 C 
BRANCH  29  30
ATOM     30  C   UNL A   1      35.015  32.971  28.052  1.00  0.00     0.188 C 
BRANCH  30  31
ATOM     31  O   UNL A   1      34.391  33.871  28.957  1.00  0.00    -0.376 OA
BRANCH  31  32
ATOM     32  C   UNL A   1      33.968  35.140  28.501  1.00  0.00     0.202 C 
BRANCH  32  33
ATOM     33  C   UNL A   1      32.966  35.907  29.373  1.00  0.00     0.261 C 
BRANCH  33  34
ATOM     34  O   UNL A   1      32.425  35.203  30.498  1.00  0.00    -0.460 OA
BRANCH  34  35
ATOM     35  C   UNL A   1      32.611  35.728  31.728  1.00  0.00     0.338 C 
ATOM     36  O   UNL A   1      31.903  36.525  32.310  1.00  0.00    -0.246 OA
BRANCH  35  37
ATOM     37  C   UNL A   1      33.768  35.022  32.320  1.00  0.00     0.060 A 
ATOM     38  C   UNL A   1      35.036  35.616  32.287  1.00  0.00     0.016 A 
ATOM     39  C   UNL A   1      33.583  33.780  32.930  1.00  0.00     0.016 A 
ATOM     40  C   UNL A   1      36.132  34.955  32.848  1.00  0.00     0.010 A 
ATOM     41  C   UNL A   1      34.681  33.110  33.471  1.00  0.00     0.010 A 
ATOM     42  C   UNL A   1      35.964  33.681  33.409  1.00  0.00    -0.014 A 
BRANCH  42  43
ATOM     43  C   UNL A   1      37.136  32.847  33.767  1.00  0.00     0.031 A 
ATOM     44  C   UNL A   1      37.836  33.135  35.065  1.00  0.00     0.074 A 
ATOM     45  C   UNL A   1      37.590  31.882  32.949  1.00  0.00     0.049 A 
ATOM     46  N   UNL A   1      38.965  32.664  35.527  1.00  0.00    -0.248 NA
ATOM     47  C   UNL A   1      37.171  34.095  35.962  1.00  0.00     0.031 C 
ATOM     48  C   UNL A   1      36.966  31.472  31.694  1.00  0.00     0.029 A 
ATOM     49  N   UNL A   1      38.707  31.089  33.047  1.00  0.00    -0.354 N 
ATOM     50  C   UNL A   1      39.147  33.271  36.762  1.00  0.00     0.074 A 
ATOM     51  C   UNL A   1      38.031  34.166  36.967  1.00  0.00     0.031 C 
ATOM     52  C   UNL A   1      37.722  30.517  31.125  1.00  0.00     0.029 A 
ATOM     53  C   UNL A   1      38.906  30.284  31.951  1.00  0.00     0.049 A 
ATOM     54  H   UNL A   1      39.308  31.096  33.827  1.00  0.00     0.167 HD
ATOM     55  C   UNL A   1      40.156  33.093  37.648  1.00  0.00     0.037 A 
ATOM     56  C   UNL A   1      39.948  29.488  31.639  1.00  0.00     0.037 A 
ATOM     57  C   UNL A   1      41.271  32.211  37.433  1.00  0.00     0.049 A 
ATOM     58  C   UNL A   1      41.119  29.400  32.589  1.00  0.00     0.074 A 
ATOM     59  C   UNL A   1      42.345  31.959  38.267  1.00  0.00     0.029 A 
ATOM     60  N   UNL A   1      41.457  31.443  36.293  1.00  0.00    -0.354 N 
ATOM     61  N   UNL A   1      41.284  29.965  33.760  1.00  0.00    -0.248 NA
ATOM     62  C   UNL A   1      42.259  28.572  32.164  1.00  0.00     0.031 C 
ATOM     63  C   UNL A   1      43.209  31.079  37.609  1.00  0.00     0.029 A 
ATOM     64  C   UNL A   1      42.646  30.738  36.390  1.00  0.00     0.049 A 
ATOM     65  H   UNL A   1      40.837  31.403  35.529  1.00  0.00     0.167 HD
ATOM     66  C   UNL A   1      42.523  29.537  34.223  1.00  0.00     0.074 A 
ATOM     67  C   UNL A   1      43.064  28.654  33.213  1.00  0.00     0.031 C 
ATOM     68  C   UNL A   1      43.159  29.848  35.379  1.00  0.00     0.037 A 
BRANCH  55  69
ATOM     69  C   UNL A   1      40.110  33.884  38.921  1.00  0.00     0.064 A 
ATOM     70  C   UNL A   1      39.504  33.376  40.080  1.00  0.00     0.173 A 
ATOM     71  C   UNL A   1      40.714  35.148  38.995  1.00  0.00     0.173 A 
ATOM     72  F   UNL A   1      38.898  32.179  40.056  1.00  0.00    -0.203 F 
ATOM     73  C   UNL A   1      39.489  34.113  41.261  1.00  0.00     0.198 A 
ATOM     74  C   UNL A   1      40.722  35.870  40.185  1.00  0.00     0.198 A 
ATOM     75  F   UNL A   1      41.307  35.678  37.915  1.00  0.00    -0.203 F 
ATOM     76  F   UNL A   1      38.868  33.627  42.345  1.00  0.00    -0.200 F 
ATOM     77  C   UNL A   1      40.105  35.355  41.315  1.00  0.00     0.200 A 
ATOM     78  F   UNL A   1      41.328  37.063  40.239  1.00  0.00    -0.200 F 
ATOM     79  F   UNL A   1      40.099  36.058  42.456  1.00  0.00    -0.200 F 
ENDBRANCH  55  69
BRANCH  56  80
ATOM     80  C   UNL A   1      39.964  28.732  30.357  1.00  0.00     0.064 A 
ATOM     81  C   UNL A   1      40.473  29.310  29.186  1.00  0.00     0.173 A 
ATOM     82  C   UNL A   1      39.421  27.442  30.261  1.00  0.00     0.173 A 
ATOM     83  F   UNL A   1      40.973  30.554  29.217  1.00  0.00    -0.203 F 
ATOM     84  C   UNL A   1      40.414  28.640  27.966  1.00  0.00     0.198 A 
ATOM     85  C   UNL A   1      39.393  26.758  29.046  1.00  0.00     0.198 A 
ATOM     86  F   UNL A   1      38.909  26.844  31.348  1.00  0.00    -0.203 F 
ATOM     87  F   UNL A   1      40.849  29.243  26.850  1.00  0.00    -0.200 F 
ATOM     88  C   UNL A   1      39.879  27.363  27.897  1.00  0.00     0.200 A 
ATOM     89  F   UNL A   1      38.880  25.522  28.987  1.00  0.00    -0.200 F 
ATOM     90  F   UNL A   1      39.815  26.722  26.723  1.00  0.00    -0.200 F 
ENDBRANCH  56  80
BRANCH  68  91
ATOM     91  C   UNL A   1      44.491  29.205  35.639  1.00  0.00     0.064 A 
ATOM     92  C   UNL A   1      45.692  29.824  35.264  1.00  0.00     0.173 A 
ATOM     93  C   UNL A   1      44.568  27.989  36.336  1.00  0.00     0.173 A 
ATOM     94  F   UNL A   1      45.673  30.980  34.585  1.00  0.00    -0.203 F 
ATOM     95  C   UNL A   1      46.921  29.240  35.563  1.00  0.00     0.198 A 
ATOM     96  C   UNL A   1      45.798  27.425  36.660  1.00  0.00     0.198 A 
ATOM     97  F   UNL A   1      43.448  27.360  36.725  1.00  0.00    -0.203 F 
ATOM     98  F   UNL A   1      48.055  29.830  35.161  1.00  0.00    -0.200 F 
ATOM     99  C   UNL A   1      46.973  28.047  36.270  1.00  0.00     0.200 A 
ATOM    100  F   UNL A   1      45.847  26.281  37.358  1.00  0.00    -0.200 F 
ATOM    101  F   UNL A   1      48.157  27.497  36.570  1.00  0.00    -0.200 F 
ENDBRANCH  68  91
ENDBRANCH  42  43
ENDBRANCH  35  37
ENDBRANCH  34  35
ENDBRANCH  33  34
ENDBRANCH  32  33
ENDBRANCH  31  32
ENDBRANCH  30  31
ENDBRANCH  29  30
ENDBRANCH   1  29
TORSDOF 22
ENDMDL
