MODEL 1
REMARK VINA RESULT:      -9.4      0.000      0.000
REMARK SMILES C=CCN(CC(=O)OCCOCCOCCOCCOC(=O)c1ccc(-c2c3nc(c(-c4c(F)c(F)c(F)c(F)c4F)c4ccc([nH]4)c(-c4c(F)c(F)c(F)c(F)c4F)c4nc(c(-c5c(F)c(F)c(F)c(F)c5F)c5ccc2[nH]5)C=C4)C=C3)cc1)c1ccc([N+](=O)[O-])cc1Br
REMARK SMILES IDX 13 1 12 2 11 3 10 4 9 5 8 6 6 7 7 8 5 9 4 10 3 11 2 12 1 13
REMARK SMILES IDX 86 14 87 15 94 16 88 17 93 18 95 19 89 20 90 21 91 22 92 23
REMARK SMILES IDX 14 24 15 25 16 26 17 27 18 28 19 29 20 30 21 31 22 32 23 33
REMARK SMILES IDX 24 34 85 35 25 36 84 37 26 38 27 39 28 40 78 41 29 42 83 43
REMARK SMILES IDX 77 44 79 45 30 46 82 47 76 48 75 49 31 51 63 52 43 53 62 54
REMARK SMILES IDX 44 55 47 56 61 57 80 58 45 59 46 60 60 62 81 63 48 64 32 65
REMARK SMILES IDX 33 66 41 67 34 68 35 69 39 70 42 71 36 72 37 73 40 74 38 75
REMARK SMILES IDX 64 76 65 77 73 78 66 79 67 80 71 81 74 82 68 83 69 84 72 85
REMARK SMILES IDX 70 86 49 87 50 88 58 89 51 90 52 91 56 92 59 93 53 94 54 95
REMARK SMILES IDX 57 96 55 97
REMARK H PARENT 79 50 47 61
REMARK Flexibility Score: inf
ROOT
ATOM      1  C   UNL A   1      39.519  21.430  26.064  1.00  0.00     0.188 C 
ENDROOT
BRANCH   1   2
ATOM      2  C   UNL A   1      38.241  22.301  25.987  1.00  0.00     0.188 C 
BRANCH   2   3
ATOM      3  O   UNL A   1      37.356  22.186  24.885  1.00  0.00    -0.376 OA
BRANCH   3   4
ATOM      4  C   UNL A   1      36.776  23.371  24.375  1.00  0.00     0.202 C 
BRANCH   4   5
ATOM      5  C   UNL A   1      35.630  24.071  25.149  1.00  0.00     0.261 C 
BRANCH   5   6
ATOM      6  O   UNL A   1      34.589  24.750  24.390  1.00  0.00    -0.462 OA
BRANCH   6   7
ATOM      7  C   UNL A   1      33.867  24.000  23.513  1.00  0.00     0.325 C 
ATOM      8  O   UNL A   1      34.246  23.792  22.361  1.00  0.00    -0.250 OA
BRANCH   7   9
ATOM      9  C   UNL A   1      32.499  23.445  23.998  1.00  0.00     0.239 C 
BRANCH   9  10
ATOM     10  N   UNL A   1      32.367  22.148  24.737  1.00  0.00    -0.356 N 
BRANCH  10  11
ATOM     11  C   UNL A   1      31.716  22.229  26.061  1.00  0.00     0.144 C 
BRANCH  11  12
ATOM     12  C   UNL A   1      32.525  23.022  27.040  1.00  0.00    -0.014 C 
ATOM     13  C   UNL A   1      33.439  22.493  27.870  1.00  0.00     0.006 C 
ENDBRANCH  11  12
ENDBRANCH  10  11
BRANCH  10  14
ATOM     14  C   UNL A   1      32.973  20.955  24.314  1.00  0.00     0.052 A 
ATOM     15  C   UNL A   1      34.160  20.499  24.912  1.00  0.00     0.034 A 
ATOM     16  C   UNL A   1      32.448  20.053  23.353  1.00  0.00     0.048 A 
ATOM     17  C   UNL A   1      34.598  19.163  24.827  1.00  0.00     0.088 A 
ATOM     18  C   UNL A   1      32.813  18.694  23.298  1.00  0.00     0.103 A 
ATOM     19  Br  UNL A   1      31.726  20.651  21.682  1.00  0.00    -0.048 Br
ATOM     20  C   UNL A   1      33.870  18.246  24.075  1.00  0.00     0.270 A 
BRANCH  20  21
ATOM     21  N   UNL A   1      34.242  16.828  24.056  1.00  0.00     0.062 N 
ATOM     22  O   UNL A   1      34.788  16.367  25.067  1.00  0.00    -0.258 OA
ATOM     23  O   UNL A   1      33.936  16.163  23.057  1.00  0.00    -0.258 OA
ENDBRANCH  20  21
ENDBRANCH  10  14
ENDBRANCH   9  10
ENDBRANCH   7   9
ENDBRANCH   6   7
ENDBRANCH   5   6
ENDBRANCH   4   5
ENDBRANCH   3   4
ENDBRANCH   2   3
ENDBRANCH   1   2
BRANCH   1  24
ATOM     24  O   UNL A   1      40.719  22.170  26.222  1.00  0.00    -0.377 OA
BRANCH  24  25
ATOM     25  C   UNL A   1      41.855  21.369  26.501  1.00  0.00     0.188 C 
BRANCH  25  26
ATOM     26  C   UNL A   1      41.739  19.898  26.062  1.00  0.00     0.188 C 
BRANCH  26  27
ATOM     27  O   UNL A   1      42.688  19.061  26.704  1.00  0.00    -0.376 OA
BRANCH  27  28
ATOM     28  C   UNL A   1      43.799  18.523  26.015  1.00  0.00     0.202 C 
BRANCH  28  29
ATOM     29  C   UNL A   1      43.837  18.547  24.480  1.00  0.00     0.261 C 
BRANCH  29  30
ATOM     30  O   UNL A   1      44.417  19.692  23.865  1.00  0.00    -0.460 OA
BRANCH  30  31
ATOM     31  C   UNL A   1      45.594  20.135  24.362  1.00  0.00     0.338 C 
ATOM     32  O   UNL A   1      46.689  19.652  24.220  1.00  0.00    -0.246 OA
BRANCH  31  33
ATOM     33  C   UNL A   1      45.298  21.471  24.923  1.00  0.00     0.060 A 
ATOM     34  C   UNL A   1      44.780  22.452  24.067  1.00  0.00     0.016 A 
ATOM     35  C   UNL A   1      45.441  21.712  26.292  1.00  0.00     0.016 A 
ATOM     36  C   UNL A   1      44.425  23.695  24.577  1.00  0.00     0.010 A 
ATOM     37  C   UNL A   1      45.122  22.968  26.798  1.00  0.00     0.010 A 
ATOM     38  C   UNL A   1      44.657  23.970  25.930  1.00  0.00    -0.014 A 
BRANCH  38  39
ATOM     39  C   UNL A   1      44.735  25.376  26.367  1.00  0.00     0.031 A 
ATOM     40  C   UNL A   1      46.086  26.025  26.307  1.00  0.00     0.074 A 
ATOM     41  C   UNL A   1      43.653  26.041  26.797  1.00  0.00     0.049 A 
ATOM     42  N   UNL A   1      46.467  27.204  26.717  1.00  0.00    -0.248 NA
ATOM     43  C   UNL A   1      47.164  25.216  25.709  1.00  0.00     0.031 C 
ATOM     44  C   UNL A   1      42.291  25.515  26.825  1.00  0.00     0.029 A 
ATOM     45  N   UNL A   1      43.541  27.309  27.302  1.00  0.00    -0.354 N 
ATOM     46  C   UNL A   1      47.828  27.268  26.444  1.00  0.00     0.074 A 
ATOM     47  C   UNL A   1      48.214  26.003  25.865  1.00  0.00     0.031 C 
ATOM     48  C   UNL A   1      41.476  26.454  27.337  1.00  0.00     0.029 A 
ATOM     49  C   UNL A   1      42.270  27.625  27.708  1.00  0.00     0.049 A 
ATOM     50  H   UNL A   1      44.300  27.933  27.368  1.00  0.00     0.167 HD
ATOM     51  C   UNL A   1      48.678  28.296  26.661  1.00  0.00     0.037 A 
ATOM     52  C   UNL A   1      41.820  28.730  28.333  1.00  0.00     0.037 A 
ATOM     53  C   UNL A   1      48.271  29.539  27.257  1.00  0.00     0.049 A 
ATOM     54  C   UNL A   1      42.802  29.830  28.652  1.00  0.00     0.074 A 
ATOM     55  C   UNL A   1      49.032  30.659  27.526  1.00  0.00     0.029 A 
ATOM     56  N   UNL A   1      46.979  29.811  27.690  1.00  0.00    -0.354 N 
ATOM     57  N   UNL A   1      44.086  29.898  28.387  1.00  0.00    -0.248 NA
ATOM     58  C   UNL A   1      42.273  31.004  29.358  1.00  0.00     0.031 C 
ATOM     59  C   UNL A   1      48.217  31.582  28.188  1.00  0.00     0.029 A 
ATOM     60  C   UNL A   1      46.929  31.073  28.256  1.00  0.00     0.049 A 
ATOM     61  H   UNL A   1      46.213  29.198  27.607  1.00  0.00     0.167 HD
ATOM     62  C   UNL A   1      44.509  31.137  28.850  1.00  0.00     0.074 A 
ATOM     63  C   UNL A   1      43.346  31.784  29.421  1.00  0.00     0.031 C 
ATOM     64  C   UNL A   1      45.744  31.696  28.795  1.00  0.00     0.037 A 
BRANCH  51  65
ATOM     65  C   UNL A   1      50.123  28.078  26.313  1.00  0.00     0.064 A 
ATOM     66  C   UNL A   1      50.578  28.070  24.984  1.00  0.00     0.173 A 
ATOM     67  C   UNL A   1      51.061  27.832  27.326  1.00  0.00     0.173 A 
ATOM     68  F   UNL A   1      49.719  28.277  23.974  1.00  0.00    -0.203 F 
ATOM     69  C   UNL A   1      51.905  27.775  24.682  1.00  0.00     0.198 A 
ATOM     70  C   UNL A   1      52.396  27.578  27.022  1.00  0.00     0.198 A 
ATOM     71  F   UNL A   1      50.682  27.824  28.612  1.00  0.00    -0.203 F 
ATOM     72  F   UNL A   1      52.297  27.691  23.404  1.00  0.00    -0.200 F 
ATOM     73  C   UNL A   1      52.814  27.534  25.701  1.00  0.00     0.200 A 
ATOM     74  F   UNL A   1      53.273  27.356  28.010  1.00  0.00    -0.200 F 
ATOM     75  F   UNL A   1      54.089  27.244  25.410  1.00  0.00    -0.200 F 
ENDBRANCH  51  65
BRANCH  52  76
ATOM     76  C   UNL A   1      40.381  28.849  28.681  1.00  0.00     0.064 A 
ATOM     77  C   UNL A   1      39.932  28.575  29.980  1.00  0.00     0.173 A 
ATOM     78  C   UNL A   1      39.430  29.260  27.736  1.00  0.00     0.173 A 
ATOM     79  F   UNL A   1      40.800  28.159  30.913  1.00  0.00    -0.203 F 
ATOM     80  C   UNL A   1      38.586  28.700  30.319  1.00  0.00     0.198 A 
ATOM     81  C   UNL A   1      38.088  29.411  28.083  1.00  0.00     0.198 A 
ATOM     82  F   UNL A   1      39.805  29.537  26.479  1.00  0.00    -0.203 F 
ATOM     83  F   UNL A   1      38.180  28.400  31.560  1.00  0.00    -0.200 F 
ATOM     84  C   UNL A   1      37.667  29.126  29.372  1.00  0.00     0.200 A 
ATOM     85  F   UNL A   1      37.205  29.838  27.169  1.00  0.00    -0.200 F 
ATOM     86  F   UNL A   1      36.375  29.258  29.702  1.00  0.00    -0.200 F 
ENDBRANCH  52  76
BRANCH  64  87
ATOM     87  C   UNL A   1      45.896  33.103  29.298  1.00  0.00     0.064 A 
ATOM     88  C   UNL A   1      45.662  34.216  28.481  1.00  0.00     0.173 A 
ATOM     89  C   UNL A   1      46.193  33.330  30.652  1.00  0.00     0.173 A 
ATOM     90  F   UNL A   1      45.387  34.051  27.178  1.00  0.00    -0.203 F 
ATOM     91  C   UNL A   1      45.733  35.508  28.997  1.00  0.00     0.198 A 
ATOM     92  C   UNL A   1      46.228  34.619  31.172  1.00  0.00     0.198 A 
ATOM     93  F   UNL A   1      46.415  32.296  31.478  1.00  0.00    -0.203 F 
ATOM     94  F   UNL A   1      45.542  36.560  28.190  1.00  0.00    -0.200 F 
ATOM     95  C   UNL A   1      46.003  35.707  30.343  1.00  0.00     0.200 A 
ATOM     96  F   UNL A   1      46.467  34.807  32.478  1.00  0.00    -0.200 F 
ATOM     97  F   UNL A   1      46.048  36.950  30.842  1.00  0.00    -0.200 F 
ENDBRANCH  64  87
ENDBRANCH  38  39
ENDBRANCH  31  33
ENDBRANCH  30  31
ENDBRANCH  29  30
ENDBRANCH  28  29
ENDBRANCH  27  28
ENDBRANCH  26  27
ENDBRANCH  25  26
ENDBRANCH  24  25
ENDBRANCH   1  24
TORSDOF 25
ENDMDL
MODEL 2
REMARK VINA RESULT:      -9.0      2.066      3.720
REMARK SMILES C=CCN(CC(=O)OCCOCCOCCOCCOC(=O)c1ccc(-c2c3nc(c(-c4c(F)c(F)c(F)c(F)c4F)c4ccc([nH]4)c(-c4c(F)c(F)c(F)c(F)c4F)c4nc(c(-c5c(F)c(F)c(F)c(F)c5F)c5ccc2[nH]5)C=C4)C=C3)cc1)c1ccc([N+](=O)[O-])cc1Br
REMARK SMILES IDX 13 1 12 2 11 3 10 4 9 5 8 6 6 7 7 8 5 9 4 10 3 11 2 12 1 13
REMARK SMILES IDX 86 14 87 15 94 16 88 17 93 18 95 19 89 20 90 21 91 22 92 23
REMARK SMILES IDX 14 24 15 25 16 26 17 27 18 28 19 29 20 30 21 31 22 32 23 33
REMARK SMILES IDX 24 34 85 35 25 36 84 37 26 38 27 39 28 40 78 41 29 42 83 43
REMARK SMILES IDX 77 44 79 45 30 46 82 47 76 48 75 49 31 51 63 52 43 53 62 54
REMARK SMILES IDX 44 55 47 56 61 57 80 58 45 59 46 60 60 62 81 63 48 64 32 65
REMARK SMILES IDX 33 66 41 67 34 68 35 69 39 70 42 71 36 72 37 73 40 74 38 75
REMARK SMILES IDX 64 76 65 77 73 78 66 79 67 80 71 81 74 82 68 83 69 84 72 85
REMARK SMILES IDX 70 86 49 87 50 88 58 89 51 90 52 91 56 92 59 93 53 94 54 95
REMARK SMILES IDX 57 96 55 97
REMARK H PARENT 79 50 47 61
REMARK Flexibility Score: inf
ROOT
ATOM      1  C   UNL A   1      38.800  21.042  25.656  1.00  0.00     0.188 C 
ENDROOT
BRANCH   1   2
ATOM      2  C   UNL A   1      37.387  21.587  25.331  1.00  0.00     0.188 C 
BRANCH   2   3
ATOM      3  O   UNL A   1      36.362  20.712  24.890  1.00  0.00    -0.376 OA
BRANCH   3   4
ATOM      4  C   UNL A   1      35.078  20.855  25.464  1.00  0.00     0.202 C 
BRANCH   4   5
ATOM      5  C   UNL A   1      33.837  20.259  24.752  1.00  0.00     0.261 C 
BRANCH   5   6
ATOM      6  O   UNL A   1      33.032  21.130  23.906  1.00  0.00    -0.462 OA
BRANCH   6   7
ATOM      7  C   UNL A   1      31.973  21.758  24.487  1.00  0.00     0.325 C 
ATOM      8  O   UNL A   1      31.500  21.389  25.561  1.00  0.00    -0.250 OA
BRANCH   7   9
ATOM      9  C   UNL A   1      31.331  22.945  23.717  1.00  0.00     0.239 C 
BRANCH   9  10
ATOM     10  N   UNL A   1      31.694  24.375  23.983  1.00  0.00    -0.356 N 
BRANCH  10  11
ATOM     11  C   UNL A   1      32.692  24.594  25.052  1.00  0.00     0.144 C 
BRANCH  11  12
ATOM     12  C   UNL A   1      34.095  24.445  24.551  1.00  0.00    -0.014 C 
ATOM     13  C   UNL A   1      35.189  24.554  25.324  1.00  0.00     0.006 C 
ENDBRANCH  11  12
ENDBRANCH  10  11
BRANCH  10  14
ATOM     14  C   UNL A   1      31.016  25.462  23.409  1.00  0.00     0.052 A 
ATOM     15  C   UNL A   1      29.726  25.814  23.838  1.00  0.00     0.034 A 
ATOM     16  C   UNL A   1      31.551  26.357  22.447  1.00  0.00     0.048 A 
ATOM     17  C   UNL A   1      29.160  27.084  23.606  1.00  0.00     0.088 A 
ATOM     18  C   UNL A   1      31.052  27.658  22.250  1.00  0.00     0.103 A 
ATOM     19  Br  UNL A   1      32.524  25.743  20.914  1.00  0.00    -0.048 Br
ATOM     20  C   UNL A   1      29.870  28.029  22.871  1.00  0.00     0.270 A 
BRANCH  20  21
ATOM     21  N   UNL A   1      29.352  29.391  22.706  1.00  0.00     0.062 N 
ATOM     22  O   UNL A   1      29.642  30.223  23.577  1.00  0.00    -0.258 OA
ATOM     23  O   UNL A   1      28.707  29.644  21.679  1.00  0.00    -0.258 OA
ENDBRANCH  20  21
ENDBRANCH  10  14
ENDBRANCH   9  10
ENDBRANCH   7   9
ENDBRANCH   6   7
ENDBRANCH   5   6
ENDBRANCH   4   5
ENDBRANCH   3   4
ENDBRANCH   2   3
ENDBRANCH   1   2
BRANCH   1  24
ATOM     24  O   UNL A   1      39.688  22.010  26.194  1.00  0.00    -0.377 OA
BRANCH  24  25
ATOM     25  C   UNL A   1      40.824  21.454  26.833  1.00  0.00     0.188 C 
BRANCH  25  26
ATOM     26  C   UNL A   1      41.177  20.018  26.404  1.00  0.00     0.188 C 
BRANCH  26  27
ATOM     27  O   UNL A   1      42.061  19.379  27.311  1.00  0.00    -0.376 OA
BRANCH  27  28
ATOM     28  C   UNL A   1      43.089  18.514  26.871  1.00  0.00     0.202 C 
BRANCH  28  29
ATOM     29  C   UNL A   1      43.289  18.259  25.370  1.00  0.00     0.261 C 
BRANCH  29  30
ATOM     30  O   UNL A   1      43.556  19.392  24.551  1.00  0.00    -0.460 OA
BRANCH  30  31
ATOM     31  C   UNL A   1      44.778  19.960  24.657  1.00  0.00     0.338 C 
ATOM     32  O   UNL A   1      45.830  19.542  24.244  1.00  0.00    -0.246 OA
BRANCH  31  33
ATOM     33  C   UNL A   1      44.527  21.321  25.180  1.00  0.00     0.060 A 
ATOM     34  C   UNL A   1      44.039  22.293  24.298  1.00  0.00     0.016 A 
ATOM     35  C   UNL A   1      44.681  21.595  26.543  1.00  0.00     0.016 A 
ATOM     36  C   UNL A   1      43.727  23.561  24.773  1.00  0.00     0.010 A 
ATOM     37  C   UNL A   1      44.405  22.874  27.013  1.00  0.00     0.010 A 
ATOM     38  C   UNL A   1      43.970  23.866  26.118  1.00  0.00    -0.014 A 
BRANCH  38  39
ATOM     39  C   UNL A   1      44.094  25.281  26.515  1.00  0.00     0.031 A 
ATOM     40  C   UNL A   1      45.457  25.897  26.388  1.00  0.00     0.074 A 
ATOM     41  C   UNL A   1      43.045  25.981  26.967  1.00  0.00     0.049 A 
ATOM     42  N   UNL A   1      45.878  27.077  26.752  1.00  0.00    -0.248 NA
ATOM     43  C   UNL A   1      46.493  25.050  25.771  1.00  0.00     0.031 C 
ATOM     44  C   UNL A   1      41.674  25.486  27.060  1.00  0.00     0.029 A 
ATOM     45  N   UNL A   1      42.979  27.263  27.443  1.00  0.00    -0.354 N 
ATOM     46  C   UNL A   1      47.228  27.104  26.427  1.00  0.00     0.074 A 
ATOM     47  C   UNL A   1      47.565  25.816  25.868  1.00  0.00     0.031 C 
ATOM     48  C   UNL A   1      40.899  26.456  27.577  1.00  0.00     0.029 A 
ATOM     49  C   UNL A   1      41.731  27.618  27.887  1.00  0.00     0.049 A 
ATOM     50  H   UNL A   1      43.753  27.871  27.464  1.00  0.00     0.167 HD
ATOM     51  C   UNL A   1      48.108  28.118  26.586  1.00  0.00     0.037 A 
ATOM     52  C   UNL A   1      41.329  28.748  28.499  1.00  0.00     0.037 A 
ATOM     53  C   UNL A   1      47.751  29.384  27.164  1.00  0.00     0.049 A 
ATOM     54  C   UNL A   1      42.346  29.833  28.754  1.00  0.00     0.074 A 
ATOM     55  C   UNL A   1      48.546  30.493  27.376  1.00  0.00     0.029 A 
ATOM     56  N   UNL A   1      46.483  29.696  27.637  1.00  0.00    -0.354 N 
ATOM     57  N   UNL A   1      43.620  29.866  28.439  1.00  0.00    -0.248 NA
ATOM     58  C   UNL A   1      41.870  31.036  29.447  1.00  0.00     0.031 C 
ATOM     59  C   UNL A   1      47.776  31.451  28.043  1.00  0.00     0.029 A 
ATOM     60  C   UNL A   1      46.481  30.972  28.171  1.00  0.00     0.049 A 
ATOM     61  H   UNL A   1      45.701  29.098  27.599  1.00  0.00     0.167 HD
ATOM     62  C   UNL A   1      44.087  31.106  28.853  1.00  0.00     0.074 A 
ATOM     63  C   UNL A   1      42.960  31.793  29.450  1.00  0.00     0.031 C 
ATOM     64  C   UNL A   1      45.331  31.636  28.738  1.00  0.00     0.037 A 
BRANCH  51  65
ATOM     65  C   UNL A   1      49.534  27.859  26.190  1.00  0.00     0.064 A 
ATOM     66  C   UNL A   1      49.943  27.833  24.847  1.00  0.00     0.173 A 
ATOM     67  C   UNL A   1      50.499  27.591  27.172  1.00  0.00     0.173 A 
ATOM     68  F   UNL A   1      49.057  28.060  23.865  1.00  0.00    -0.203 F 
ATOM     69  C   UNL A   1      51.251  27.500  24.501  1.00  0.00     0.198 A 
ATOM     70  C   UNL A   1      51.815  27.298  26.825  1.00  0.00     0.198 A 
ATOM     71  F   UNL A   1      50.164  27.598  28.471  1.00  0.00    -0.203 F 
ATOM     72  F   UNL A   1      51.597  27.401  23.211  1.00  0.00    -0.200 F 
ATOM     73  C   UNL A   1      52.187  27.238  25.490  1.00  0.00     0.200 A 
ATOM     74  F   UNL A   1      52.719  27.055  27.783  1.00  0.00    -0.200 F 
ATOM     75  F   UNL A   1      53.443  26.911  25.158  1.00  0.00    -0.200 F 
ENDBRANCH  51  65
BRANCH  52  76
ATOM     76  C   UNL A   1      39.907  28.908  28.898  1.00  0.00     0.064 A 
ATOM     77  C   UNL A   1      39.493  28.625  30.206  1.00  0.00     0.173 A 
ATOM     78  C   UNL A   1      38.940  29.368  27.992  1.00  0.00     0.173 A 
ATOM     79  F   UNL A   1      40.376  28.164  31.102  1.00  0.00    -0.203 F 
ATOM     80  C   UNL A   1      38.163  28.788  30.592  1.00  0.00     0.198 A 
ATOM     81  C   UNL A   1      37.616  29.557  28.387  1.00  0.00     0.198 A 
ATOM     82  F   UNL A   1      39.283  29.655  26.729  1.00  0.00    -0.203 F 
ATOM     83  F   UNL A   1      37.788  28.479  31.840  1.00  0.00    -0.200 F 
ATOM     84  C   UNL A   1      37.228  29.262  29.684  1.00  0.00     0.200 A 
ATOM     85  F   UNL A   1      36.718  30.029  27.510  1.00  0.00    -0.200 F 
ATOM     86  F   UNL A   1      35.953  29.431  30.059  1.00  0.00    -0.200 F 
ENDBRANCH  52  76
BRANCH  64  87
ATOM     87  C   UNL A   1      45.532  33.051  29.199  1.00  0.00     0.064 A 
ATOM     88  C   UNL A   1      46.014  33.357  30.477  1.00  0.00     0.173 A 
ATOM     89  C   UNL A   1      45.318  34.111  28.302  1.00  0.00     0.173 A 
ATOM     90  F   UNL A   1      46.222  32.380  31.374  1.00  0.00    -0.203 F 
ATOM     91  C   UNL A   1      46.264  34.676  30.848  1.00  0.00     0.198 A 
ATOM     92  C   UNL A   1      45.603  35.423  28.664  1.00  0.00     0.198 A 
ATOM     93  F   UNL A   1      44.866  33.868  27.063  1.00  0.00    -0.203 F 
ATOM     94  F   UNL A   1      46.692  34.952  32.088  1.00  0.00    -0.200 F 
ATOM     95  C   UNL A   1      46.071  35.705  29.938  1.00  0.00     0.200 A 
ATOM     96  F   UNL A   1      45.436  36.413  27.775  1.00  0.00    -0.200 F 
ATOM     97  F   UNL A   1      46.335  36.972  30.290  1.00  0.00    -0.200 F 
ENDBRANCH  64  87
ENDBRANCH  38  39
ENDBRANCH  31  33
ENDBRANCH  30  31
ENDBRANCH  29  30
ENDBRANCH  28  29
ENDBRANCH  27  28
ENDBRANCH  26  27
ENDBRANCH  25  26
ENDBRANCH  24  25
ENDBRANCH   1  24
TORSDOF 25
ENDMDL
MODEL 3
REMARK VINA RESULT:      -9.0      5.089      9.503
REMARK SMILES C=CCN(CC(=O)OCCOCCOCCOCCOC(=O)c1ccc(-c2c3nc(c(-c4c(F)c(F)c(F)c(F)c4F)c4ccc([nH]4)c(-c4c(F)c(F)c(F)c(F)c4F)c4nc(c(-c5c(F)c(F)c(F)c(F)c5F)c5ccc2[nH]5)C=C4)C=C3)cc1)c1ccc([N+](=O)[O-])cc1Br
REMARK SMILES IDX 13 1 12 2 11 3 10 4 9 5 8 6 6 7 7 8 5 9 4 10 3 11 2 12 1 13
REMARK SMILES IDX 86 14 87 15 94 16 88 17 93 18 95 19 89 20 90 21 91 22 92 23
REMARK SMILES IDX 14 24 15 25 16 26 17 27 18 28 19 29 20 30 21 31 22 32 23 33
REMARK SMILES IDX 24 34 85 35 25 36 84 37 26 38 27 39 28 40 78 41 29 42 83 43
REMARK SMILES IDX 77 44 79 45 30 46 82 47 76 48 75 49 31 51 63 52 43 53 62 54
REMARK SMILES IDX 44 55 47 56 61 57 80 58 45 59 46 60 60 62 81 63 48 64 32 65
REMARK SMILES IDX 33 66 41 67 34 68 35 69 39 70 42 71 36 72 37 73 40 74 38 75
REMARK SMILES IDX 64 76 65 77 73 78 66 79 67 80 71 81 74 82 68 83 69 84 72 85
REMARK SMILES IDX 70 86 49 87 50 88 58 89 51 90 52 91 56 92 59 93 53 94 54 95
REMARK SMILES IDX 57 96 55 97
REMARK H PARENT 79 50 47 61
REMARK Flexibility Score: inf
ROOT
ATOM      1  C   UNL A   1      38.285  21.397  25.356  1.00  0.00     0.188 C 
ENDROOT
BRANCH   1   2
ATOM      2  C   UNL A   1      36.986  22.240  25.376  1.00  0.00     0.188 C 
BRANCH   2   3
ATOM      3  O   UNL A   1      35.768  21.673  25.829  1.00  0.00    -0.376 OA
BRANCH   3   4
ATOM      4  C   UNL A   1      34.758  22.553  26.283  1.00  0.00     0.202 C 
BRANCH   4   5
ATOM      5  C   UNL A   1      33.265  22.215  26.039  1.00  0.00     0.261 C 
BRANCH   5   6
ATOM      6  O   UNL A   1      32.365  23.284  25.630  1.00  0.00    -0.462 OA
BRANCH   6   7
ATOM      7  C   UNL A   1      31.623  23.881  26.603  1.00  0.00     0.325 C 
ATOM      8  O   UNL A   1      31.291  23.290  27.630  1.00  0.00    -0.250 OA
BRANCH   7   9
ATOM      9  C   UNL A   1      31.153  25.341  26.355  1.00  0.00     0.239 C 
BRANCH   9  10
ATOM     10  N   UNL A   1      31.996  26.352  25.638  1.00  0.00    -0.356 N 
BRANCH  10  11
ATOM     11  C   UNL A   1      32.539  27.443  26.475  1.00  0.00     0.144 C 
BRANCH  11  12
ATOM     12  C   UNL A   1      31.720  28.692  26.374  1.00  0.00    -0.014 C 
ATOM     13  C   UNL A   1      32.030  29.739  25.591  1.00  0.00     0.006 C 
ENDBRANCH  11  12
ENDBRANCH  10  11
BRANCH  10  14
ATOM     14  C   UNL A   1      32.126  26.396  24.241  1.00  0.00     0.052 A 
ATOM     15  C   UNL A   1      33.383  26.249  23.630  1.00  0.00     0.034 A 
ATOM     16  C   UNL A   1      31.059  26.491  23.311  1.00  0.00     0.048 A 
ATOM     17  C   UNL A   1      33.540  25.892  22.276  1.00  0.00     0.088 A 
ATOM     18  C   UNL A   1      31.168  26.069  21.973  1.00  0.00     0.103 A 
ATOM     19  Br  UNL A   1      29.619  27.737  23.536  1.00  0.00    -0.048 Br
ATOM     20  C   UNL A   1      32.415  25.730  21.472  1.00  0.00     0.270 A 
BRANCH  20  21
ATOM     21  N   UNL A   1      32.544  25.256  20.090  1.00  0.00     0.062 N 
ATOM     22  O   UNL A   1      33.384  24.374  19.864  1.00  0.00    -0.258 OA
ATOM     23  O   UNL A   1      31.768  25.721  19.244  1.00  0.00    -0.258 OA
ENDBRANCH  20  21
ENDBRANCH  10  14
ENDBRANCH   9  10
ENDBRANCH   7   9
ENDBRANCH   6   7
ENDBRANCH   5   6
ENDBRANCH   4   5
ENDBRANCH   3   4
ENDBRANCH   2   3
ENDBRANCH   1   2
BRANCH   1  24
ATOM     24  O   UNL A   1      39.176  21.673  26.424  1.00  0.00    -0.377 OA
BRANCH  24  25
ATOM     25  C   UNL A   1      40.109  20.637  26.678  1.00  0.00     0.188 C 
BRANCH  25  26
ATOM     26  C   UNL A   1      41.450  20.770  25.933  1.00  0.00     0.188 C 
BRANCH  26  27
ATOM     27  O   UNL A   1      42.514  21.156  26.789  1.00  0.00    -0.376 OA
BRANCH  27  28
ATOM     28  C   UNL A   1      43.360  22.248  26.486  1.00  0.00     0.202 C 
BRANCH  28  29
ATOM     29  C   UNL A   1      43.369  22.844  25.071  1.00  0.00     0.261 C 
BRANCH  29  30
ATOM     30  O   UNL A   1      42.977  24.206  24.941  1.00  0.00    -0.460 OA
BRANCH  30  31
ATOM     31  C   UNL A   1      43.871  25.148  25.316  1.00  0.00     0.338 C 
ATOM     32  O   UNL A   1      44.915  25.435  24.786  1.00  0.00    -0.246 OA
BRANCH  31  33
ATOM     33  C   UNL A   1      43.193  25.923  26.378  1.00  0.00     0.060 A 
ATOM     34  C   UNL A   1      43.527  27.274  26.533  1.00  0.00     0.016 A 
ATOM     35  C   UNL A   1      42.175  25.340  27.139  1.00  0.00     0.016 A 
ATOM     36  C   UNL A   1      42.859  28.047  27.475  1.00  0.00     0.010 A 
ATOM     37  C   UNL A   1      41.531  26.102  28.108  1.00  0.00     0.010 A 
ATOM     38  C   UNL A   1      41.906  27.442  28.303  1.00  0.00    -0.014 A 
BRANCH  38  39
ATOM     39  C   UNL A   1      41.548  28.099  29.574  1.00  0.00     0.031 A 
ATOM     40  C   UNL A   1      40.341  28.990  29.554  1.00  0.00     0.074 A 
ATOM     41  C   UNL A   1      42.265  27.909  30.690  1.00  0.00     0.049 A 
ATOM     42  N   UNL A   1      39.857  29.764  30.487  1.00  0.00    -0.248 NA
ATOM     43  C   UNL A   1      39.581  29.018  28.291  1.00  0.00     0.031 C 
ATOM     44  C   UNL A   1      43.409  27.011  30.820  1.00  0.00     0.029 A 
ATOM     45  N   UNL A   1      42.134  28.478  31.929  1.00  0.00    -0.354 N 
ATOM     46  C   UNL A   1      38.752  30.382  29.916  1.00  0.00     0.074 A 
ATOM     47  C   UNL A   1      38.653  29.922  28.552  1.00  0.00     0.031 C 
ATOM     48  C   UNL A   1      43.887  27.098  32.074  1.00  0.00     0.029 A 
ATOM     49  C   UNL A   1      43.106  28.089  32.814  1.00  0.00     0.049 A 
ATOM     50  H   UNL A   1      41.412  29.106  32.161  1.00  0.00     0.167 HD
ATOM     51  C   UNL A   1      37.897  31.260  30.487  1.00  0.00     0.037 A 
ATOM     52  C   UNL A   1      43.342  28.516  34.069  1.00  0.00     0.037 A 
ATOM     53  C   UNL A   1      38.029  31.717  31.843  1.00  0.00     0.049 A 
ATOM     54  C   UNL A   1      42.433  29.567  34.659  1.00  0.00     0.074 A 
ATOM     55  C   UNL A   1      37.228  32.600  32.540  1.00  0.00     0.029 A 
ATOM     56  N   UNL A   1      39.050  31.329  32.701  1.00  0.00    -0.354 N 
ATOM     57  N   UNL A   1      41.382  30.146  34.127  1.00  0.00    -0.248 NA
ATOM     58  C   UNL A   1      42.743  30.022  36.020  1.00  0.00     0.031 C 
ATOM     59  C   UNL A   1      37.806  32.801  33.798  1.00  0.00     0.029 A 
ATOM     60  C   UNL A   1      38.918  31.980  33.915  1.00  0.00     0.049 A 
ATOM     61  H   UNL A   1      39.762  30.685  32.480  1.00  0.00     0.167 HD
ATOM     62  C   UNL A   1      40.878  30.998  35.100  1.00  0.00     0.074 A 
ATOM     63  C   UNL A   1      41.745  30.866  36.253  1.00  0.00     0.031 C 
ATOM     64  C   UNL A   1      39.789  31.806  35.052  1.00  0.00     0.037 A 
BRANCH  51  65
ATOM     65  C   UNL A   1      36.804  31.817  29.620  1.00  0.00     0.064 A 
ATOM     66  C   UNL A   1      36.727  33.182  29.299  1.00  0.00     0.173 A 
ATOM     67  C   UNL A   1      35.792  30.974  29.136  1.00  0.00     0.173 A 
ATOM     68  F   UNL A   1      37.656  34.037  29.755  1.00  0.00    -0.203 F 
ATOM     69  C   UNL A   1      35.654  33.688  28.570  1.00  0.00     0.198 A 
ATOM     70  C   UNL A   1      34.742  31.478  28.373  1.00  0.00     0.198 A 
ATOM     71  F   UNL A   1      35.812  29.662  29.414  1.00  0.00    -0.203 F 
ATOM     72  F   UNL A   1      35.559  35.006  28.348  1.00  0.00    -0.200 F 
ATOM     73  C   UNL A   1      34.665  32.836  28.103  1.00  0.00     0.200 A 
ATOM     74  F   UNL A   1      33.794  30.649  27.914  1.00  0.00    -0.200 F 
ATOM     75  F   UNL A   1      33.630  33.324  27.407  1.00  0.00    -0.200 F 
ENDBRANCH  51  65
BRANCH  52  76
ATOM     76  C   UNL A   1      44.472  27.944  34.846  1.00  0.00     0.064 A 
ATOM     77  C   UNL A   1      44.281  26.830  35.674  1.00  0.00     0.173 A 
ATOM     78  C   UNL A   1      45.765  28.479  34.760  1.00  0.00     0.173 A 
ATOM     79  F   UNL A   1      43.059  26.295  35.804  1.00  0.00    -0.203 F 
ATOM     80  C   UNL A   1      45.339  26.277  36.393  1.00  0.00     0.198 A 
ATOM     81  C   UNL A   1      46.828  27.908  35.459  1.00  0.00     0.198 A 
ATOM     82  F   UNL A   1      46.004  29.544  33.981  1.00  0.00    -0.203 F 
ATOM     83  F   UNL A   1      45.122  25.232  37.202  1.00  0.00    -0.200 F 
ATOM     84  C   UNL A   1      46.614  26.811  36.278  1.00  0.00     0.200 A 
ATOM     85  F   UNL A   1      48.062  28.419  35.333  1.00  0.00    -0.200 F 
ATOM     86  F   UNL A   1      47.633  26.272  36.960  1.00  0.00    -0.200 F 
ENDBRANCH  52  76
BRANCH  64  87
ATOM     87  C   UNL A   1      39.424  32.558  36.299  1.00  0.00     0.064 A 
ATOM     88  C   UNL A   1      39.911  33.845  36.563  1.00  0.00     0.173 A 
ATOM     89  C   UNL A   1      38.496  32.007  37.198  1.00  0.00     0.173 A 
ATOM     90  F   UNL A   1      40.808  34.410  35.741  1.00  0.00    -0.203 F 
ATOM     91  C   UNL A   1      39.492  34.549  37.690  1.00  0.00     0.198 A 
ATOM     92  C   UNL A   1      38.053  32.727  38.302  1.00  0.00     0.198 A 
ATOM     93  F   UNL A   1      37.993  30.782  36.984  1.00  0.00    -0.203 F 
ATOM     94  F   UNL A   1      39.996  35.764  37.944  1.00  0.00    -0.200 F 
ATOM     95  C   UNL A   1      38.555  33.995  38.550  1.00  0.00     0.200 A 
ATOM     96  F   UNL A   1      37.131  32.197  39.120  1.00  0.00    -0.200 F 
ATOM     97  F   UNL A   1      38.136  34.684  39.621  1.00  0.00    -0.200 F 
ENDBRANCH  64  87
ENDBRANCH  38  39
ENDBRANCH  31  33
ENDBRANCH  30  31
ENDBRANCH  29  30
ENDBRANCH  28  29
ENDBRANCH  27  28
ENDBRANCH  26  27
ENDBRANCH  25  26
ENDBRANCH  24  25
ENDBRANCH   1  24
TORSDOF 25
ENDMDL
