MODEL 1
REMARK VINA RESULT:     -10.3      0.000      0.000
REMARK SMILES O=C(OCCOCCOCCOCCOC(=O)c1ccccc1[C@@H]1SCC(=O)N1NC(=S)Nc1ccccc1)c1ccc(-c2c3nc(c(-c4c(F)c(F)c(F)c(F)c4F)c4ccc([nH]4)c(-c4c(F)c(F)c(F)c(F)c4F)c4nc(c(-c5c(F)c(F)c(F)c(F)c5F)c5ccc2[nH]5)C=C4)C=C3)cc1
REMARK SMILES IDX 10 1 9 2 8 3 7 4 6 5 5 6 4 7 3 8 2 9 1 10 40 11 41 12 102 13
REMARK SMILES IDX 42 14 101 15 43 16 44 17 45 18 95 19 46 20 100 21 94 22
REMARK SMILES IDX 96 23 47 24 99 25 93 26 92 27 48 29 80 30 60 31 79 32 61 33
REMARK SMILES IDX 64 34 78 35 97 36 62 37 63 38 77 40 98 41 65 42 49 43 50 44
REMARK SMILES IDX 58 45 51 46 52 47 56 48 59 49 53 50 54 51 57 52 55 53 81 54
REMARK SMILES IDX 82 55 90 56 83 57 84 58 88 59 91 60 85 61 86 62 89 63 87 64
REMARK SMILES IDX 66 65 67 66 75 67 68 68 69 69 73 70 76 71 70 72 71 73 74 74
REMARK SMILES IDX 72 75 11 76 12 77 13 78 14 79 15 80 16 81 17 82 18 83 19 84
REMARK SMILES IDX 23 85 20 86 22 87 21 88 24 89 25 90 29 91 26 92 27 93 28 94
REMARK SMILES IDX 30 95 31 97 32 98 33 99 34 101 35 102 39 103 36 104 38 105
REMARK SMILES IDX 37 106
REMARK H PARENT 96 28 64 39 30 96 33 100
REMARK Flexibility Score: inf
ROOT
ATOM      1  C   UNL A   1      39.576  23.842  27.453  1.00  0.00     0.188 C 
ENDROOT
BRANCH   1   2
ATOM      2  O   UNL A   1      40.651  22.927  27.318  1.00  0.00    -0.377 OA
BRANCH   2   3
ATOM      3  C   UNL A   1      40.467  21.830  26.427  1.00  0.00     0.188 C 
BRANCH   3   4
ATOM      4  C   UNL A   1      40.864  20.460  26.980  1.00  0.00     0.188 C 
BRANCH   4   5
ATOM      5  O   UNL A   1      41.566  19.687  26.010  1.00  0.00    -0.376 OA
BRANCH   5   6
ATOM      6  C   UNL A   1      42.279  18.542  26.467  1.00  0.00     0.202 C 
BRANCH   6   7
ATOM      7  C   UNL A   1      43.597  18.263  25.751  1.00  0.00     0.261 C 
BRANCH   7   8
ATOM      8  O   UNL A   1      43.828  19.109  24.618  1.00  0.00    -0.460 OA
BRANCH   8   9
ATOM      9  C   UNL A   1      44.877  19.927  24.369  1.00  0.00     0.338 C 
ATOM     10  O   UNL A   1      45.842  19.456  23.768  1.00  0.00    -0.246 OA
BRANCH   9  11
ATOM     11  C   UNL A   1      44.975  21.358  24.805  1.00  0.00     0.060 A 
ATOM     12  C   UNL A   1      44.749  22.475  24.003  1.00  0.00     0.016 A 
ATOM     13  C   UNL A   1      45.235  21.589  26.169  1.00  0.00     0.016 A 
ATOM     14  C   UNL A   1      44.753  23.763  24.506  1.00  0.00     0.010 A 
ATOM     15  C   UNL A   1      45.282  22.886  26.689  1.00  0.00     0.010 A 
ATOM     16  C   UNL A   1      45.054  23.974  25.842  1.00  0.00    -0.014 A 
BRANCH  16  17
ATOM     17  C   UNL A   1      45.391  25.355  26.208  1.00  0.00     0.031 A 
ATOM     18  C   UNL A   1      44.310  26.161  26.858  1.00  0.00     0.074 A 
ATOM     19  C   UNL A   1      46.669  25.765  26.169  1.00  0.00     0.049 A 
ATOM     20  N   UNL A   1      44.320  27.401  27.257  1.00  0.00    -0.248 NA
ATOM     21  C   UNL A   1      43.042  25.454  27.124  1.00  0.00     0.031 C 
ATOM     22  C   UNL A   1      47.806  24.946  25.740  1.00  0.00     0.029 A 
ATOM     23  N   UNL A   1      47.233  26.955  26.534  1.00  0.00    -0.354 N 
ATOM     24  C   UNL A   1      43.060  27.628  27.793  1.00  0.00     0.074 A 
ATOM     25  C   UNL A   1      42.303  26.407  27.666  1.00  0.00     0.031 C 
ATOM     26  C   UNL A   1      48.934  25.664  25.866  1.00  0.00     0.029 A 
ATOM     27  C   UNL A   1      48.587  27.007  26.310  1.00  0.00     0.049 A 
ATOM     28  H   UNL A   1      46.720  27.701  26.920  1.00  0.00     0.167 HD
ATOM     29  C   UNL A   1      42.588  28.770  28.338  1.00  0.00     0.037 A 
ATOM     30  C   UNL A   1      49.422  28.057  26.409  1.00  0.00     0.037 A 
ATOM     31  C   UNL A   1      43.381  29.963  28.434  1.00  0.00     0.049 A 
ATOM     32  C   UNL A   1      48.830  29.367  26.867  1.00  0.00     0.074 A 
ATOM     33  C   UNL A   1      43.011  31.223  28.857  1.00  0.00     0.029 A 
ATOM     34  N   UNL A   1      44.728  30.026  28.093  1.00  0.00    -0.354 N 
ATOM     35  N   UNL A   1      47.606  29.627  27.270  1.00  0.00    -0.248 NA
ATOM     36  C   UNL A   1      49.722  30.530  26.871  1.00  0.00     0.031 C 
ATOM     37  C   UNL A   1      44.123  32.062  28.720  1.00  0.00     0.029 A 
ATOM     38  C   UNL A   1      45.203  31.309  28.278  1.00  0.00     0.049 A 
ATOM     39  H   UNL A   1      45.264  29.267  27.767  1.00  0.00     0.167 HD
ATOM     40  C   UNL A   1      47.587  30.973  27.601  1.00  0.00     0.074 A 
ATOM     41  C   UNL A   1      48.932  31.469  27.371  1.00  0.00     0.031 C 
ATOM     42  C   UNL A   1      46.561  31.739  28.048  1.00  0.00     0.037 A 
BRANCH  29  43
ATOM     43  C   UNL A   1      41.151  28.779  28.767  1.00  0.00     0.064 A 
ATOM     44  C   UNL A   1      40.761  28.470  30.080  1.00  0.00     0.173 A 
ATOM     45  C   UNL A   1      40.141  29.045  27.830  1.00  0.00     0.173 A 
ATOM     46  F   UNL A   1      41.683  28.170  31.006  1.00  0.00    -0.203 F 
ATOM     47  C   UNL A   1      39.413  28.395  30.428  1.00  0.00     0.198 A 
ATOM     48  C   UNL A   1      38.796  28.998  28.189  1.00  0.00     0.198 A 
ATOM     49  F   UNL A   1      40.457  29.328  26.557  1.00  0.00    -0.203 F 
ATOM     50  F   UNL A   1      39.062  28.029  31.668  1.00  0.00    -0.200 F 
ATOM     51  C   UNL A   1      38.434  28.665  29.484  1.00  0.00     0.200 A 
ATOM     52  F   UNL A   1      37.852  29.257  27.274  1.00  0.00    -0.200 F 
ATOM     53  F   UNL A   1      37.137  28.582  29.818  1.00  0.00    -0.200 F 
ENDBRANCH  29  43
BRANCH  30  54
ATOM     54  C   UNL A   1      50.848  27.943  25.997  1.00  0.00     0.064 A 
ATOM     55  C   UNL A   1      51.231  28.002  24.649  1.00  0.00     0.173 A 
ATOM     56  C   UNL A   1      51.862  27.721  26.946  1.00  0.00     0.173 A 
ATOM     57  F   UNL A   1      50.306  28.193  23.698  1.00  0.00    -0.203 F 
ATOM     58  C   UNL A   1      52.558  27.808  24.266  1.00  0.00     0.198 A 
ATOM     59  C   UNL A   1      53.193  27.565  26.564  1.00  0.00     0.198 A 
ATOM     60  F   UNL A   1      51.559  27.651  28.250  1.00  0.00    -0.203 F 
ATOM     61  F   UNL A   1      52.883  27.803  22.966  1.00  0.00    -0.200 F 
ATOM     62  C   UNL A   1      53.539  27.594  25.223  1.00  0.00     0.200 A 
ATOM     63  F   UNL A   1      54.136  27.374  27.497  1.00  0.00    -0.200 F 
ATOM     64  F   UNL A   1      54.812  27.400  24.853  1.00  0.00    -0.200 F 
ENDBRANCH  30  54
BRANCH  42  65
ATOM     65  C   UNL A   1      46.878  33.170  28.364  1.00  0.00     0.064 A 
ATOM     66  C   UNL A   1      47.343  33.562  29.626  1.00  0.00     0.173 A 
ATOM     67  C   UNL A   1      46.759  34.150  27.367  1.00  0.00     0.173 A 
ATOM     68  F   UNL A   1      47.457  32.661  30.614  1.00  0.00    -0.203 F 
ATOM     69  C   UNL A   1      47.648  34.892  29.889  1.00  0.00     0.198 A 
ATOM     70  C   UNL A   1      47.104  35.472  27.622  1.00  0.00     0.198 A 
ATOM     71  F   UNL A   1      46.329  33.819  26.139  1.00  0.00    -0.203 F 
ATOM     72  F   UNL A   1      48.036  35.258  31.119  1.00  0.00    -0.200 F 
ATOM     73  C   UNL A   1      47.538  35.843  28.885  1.00  0.00     0.200 A 
ATOM     74  F   UNL A   1      47.018  36.385  26.645  1.00  0.00    -0.200 F 
ATOM     75  F   UNL A   1      47.846  37.123  29.137  1.00  0.00    -0.200 F 
ENDBRANCH  42  65
ENDBRANCH  16  17
ENDBRANCH   9  11
ENDBRANCH   8   9
ENDBRANCH   7   8
ENDBRANCH   6   7
ENDBRANCH   5   6
ENDBRANCH   4   5
ENDBRANCH   3   4
ENDBRANCH   2   3
ENDBRANCH   1   2
BRANCH   1  76
ATOM     76  C   UNL A   1      38.778  24.284  26.201  1.00  0.00     0.188 C 
BRANCH  76  77
ATOM     77  O   UNL A   1      37.372  24.334  26.388  1.00  0.00    -0.376 OA
BRANCH  77  78
ATOM     78  C   UNL A   1      36.623  23.304  25.760  1.00  0.00     0.202 C 
BRANCH  78  79
ATOM     79  C   UNL A   1      35.196  23.610  25.284  1.00  0.00     0.261 C 
BRANCH  79  80
ATOM     80  O   UNL A   1      34.617  24.843  25.766  1.00  0.00    -0.460 OA
BRANCH  80  81
ATOM     81  C   UNL A   1      33.939  25.655  24.923  1.00  0.00     0.338 C 
ATOM     82  O   UNL A   1      33.758  25.473  23.746  1.00  0.00    -0.246 OA
BRANCH  81  83
ATOM     83  C   UNL A   1      33.230  26.693  25.740  1.00  0.00     0.066 A 
ATOM     84  C   UNL A   1      34.015  27.850  25.966  1.00  0.00     0.016 A 
ATOM     85  C   UNL A   1      31.892  26.641  26.212  1.00  0.00     0.001 A 
ATOM     86  C   UNL A   1      33.486  28.970  26.605  1.00  0.00     0.001 A 
ATOM     87  C   UNL A   1      31.408  27.783  26.902  1.00  0.00     0.008 A 
ATOM     88  C   UNL A   1      32.185  28.931  27.083  1.00  0.00     0.000 A 
BRANCH  85  89
ATOM     89  C   UNL A   1      30.909  25.475  26.077  1.00  0.00     0.197 C 
ATOM     90  S   UNL A   1      31.655  23.890  26.502  1.00  0.00    -0.120 SA
ATOM     91  N   UNL A   1      30.305  25.319  24.770  1.00  0.00    -0.236 N 
ATOM     92  C   UNL A   1      31.623  23.316  24.792  1.00  0.00     0.174 C 
ATOM     93  C   UNL A   1      30.896  24.362  23.963  1.00  0.00     0.252 C 
ATOM     94  O   UNL A   1      30.879  24.310  22.742  1.00  0.00    -0.272 OA
BRANCH  91  95
ATOM     95  N   UNL A   1      29.433  26.352  24.360  1.00  0.00    -0.270 N 
ATOM     96  H   UNL A   1      28.498  26.198  24.629  1.00  0.00     0.191 HD
BRANCH  95  97
ATOM     97  C   UNL A   1      29.606  27.508  23.677  1.00  0.00     0.189 C 
ATOM     98  S   UNL A   1      31.093  27.682  22.896  1.00  0.00    -0.039 S 
BRANCH  97  99
ATOM     99  N   UNL A   1      28.699  28.477  23.461  1.00  0.00    -0.331 N 
ATOM    100  H   UNL A   1      27.777  28.215  23.685  1.00  0.00     0.169 HD
BRANCH  99 101
ATOM    101  C   UNL A   1      28.811  29.784  22.980  1.00  0.00     0.040 A 
ATOM    102  C   UNL A   1      28.504  30.005  21.629  1.00  0.00     0.026 A 
ATOM    103  C   UNL A   1      29.113  30.856  23.816  1.00  0.00     0.026 A 
ATOM    104  C   UNL A   1      28.317  31.309  21.171  1.00  0.00     0.002 A 
ATOM    105  C   UNL A   1      28.977  32.159  23.337  1.00  0.00     0.002 A 
ATOM    106  C   UNL A   1      28.535  32.385  22.032  1.00  0.00     0.000 A 
ENDBRANCH  99 101
ENDBRANCH  97  99
ENDBRANCH  95  97
ENDBRANCH  91  95
ENDBRANCH  85  89
ENDBRANCH  81  83
ENDBRANCH  80  81
ENDBRANCH  79  80
ENDBRANCH  78  79
ENDBRANCH  77  78
ENDBRANCH  76  77
ENDBRANCH   1  76
TORSDOF 25
ENDMDL
MODEL 2
REMARK VINA RESULT:     -10.1      6.009      9.141
REMARK SMILES O=C(OCCOCCOCCOCCOC(=O)c1ccccc1[C@@H]1SCC(=O)N1NC(=S)Nc1ccccc1)c1ccc(-c2c3nc(c(-c4c(F)c(F)c(F)c(F)c4F)c4ccc([nH]4)c(-c4c(F)c(F)c(F)c(F)c4F)c4nc(c(-c5c(F)c(F)c(F)c(F)c5F)c5ccc2[nH]5)C=C4)C=C3)cc1
REMARK SMILES IDX 10 1 9 2 8 3 7 4 6 5 5 6 4 7 3 8 2 9 1 10 40 11 41 12 102 13
REMARK SMILES IDX 42 14 101 15 43 16 44 17 45 18 95 19 46 20 100 21 94 22
REMARK SMILES IDX 96 23 47 24 99 25 93 26 92 27 48 29 80 30 60 31 79 32 61 33
REMARK SMILES IDX 64 34 78 35 97 36 62 37 63 38 77 40 98 41 65 42 49 43 50 44
REMARK SMILES IDX 58 45 51 46 52 47 56 48 59 49 53 50 54 51 57 52 55 53 81 54
REMARK SMILES IDX 82 55 90 56 83 57 84 58 88 59 91 60 85 61 86 62 89 63 87 64
REMARK SMILES IDX 66 65 67 66 75 67 68 68 69 69 73 70 76 71 70 72 71 73 74 74
REMARK SMILES IDX 72 75 11 76 12 77 13 78 14 79 15 80 16 81 17 82 18 83 19 84
REMARK SMILES IDX 23 85 20 86 22 87 21 88 24 89 25 90 29 91 26 92 27 93 28 94
REMARK SMILES IDX 30 95 31 97 32 98 33 99 34 101 35 102 39 103 36 104 38 105
REMARK SMILES IDX 37 106
REMARK H PARENT 96 28 64 39 30 96 33 100
REMARK Flexibility Score: inf
ROOT
ATOM      1  C   UNL A   1      41.313  25.016  28.346  1.00  0.00     0.188 C 
ENDROOT
BRANCH   1   2
ATOM      2  O   UNL A   1      42.113  24.150  27.558  1.00  0.00    -0.377 OA
BRANCH   2   3
ATOM      3  C   UNL A   1      41.535  23.637  26.361  1.00  0.00     0.188 C 
BRANCH   3   4
ATOM      4  C   UNL A   1      41.725  22.137  26.130  1.00  0.00     0.188 C 
BRANCH   4   5
ATOM      5  O   UNL A   1      42.771  21.878  25.197  1.00  0.00    -0.376 OA
BRANCH   5   6
ATOM      6  C   UNL A   1      44.113  21.967  25.665  1.00  0.00     0.202 C 
BRANCH   6   7
ATOM      7  C   UNL A   1      45.054  22.798  24.799  1.00  0.00     0.261 C 
BRANCH   7   8
ATOM      8  O   UNL A   1      44.749  24.198  24.796  1.00  0.00    -0.460 OA
BRANCH   8   9
ATOM      9  C   UNL A   1      45.571  25.247  25.037  1.00  0.00     0.338 C 
ATOM     10  O   UNL A   1      46.653  25.274  24.451  1.00  0.00    -0.246 OA
BRANCH   9  11
ATOM     11  C   UNL A   1      45.284  26.363  25.996  1.00  0.00     0.060 A 
ATOM     12  C   UNL A   1      46.225  27.037  26.772  1.00  0.00     0.016 A 
ATOM     13  C   UNL A   1      43.956  26.826  26.050  1.00  0.00     0.016 A 
ATOM     14  C   UNL A   1      45.897  28.130  27.553  1.00  0.00     0.010 A 
ATOM     15  C   UNL A   1      43.597  27.905  26.864  1.00  0.00     0.010 A 
ATOM     16  C   UNL A   1      44.577  28.544  27.628  1.00  0.00    -0.014 A 
BRANCH  16  17
ATOM     17  C   UNL A   1      44.259  29.456  28.734  1.00  0.00     0.031 A 
ATOM     18  C   UNL A   1      44.181  28.853  30.102  1.00  0.00     0.074 A 
ATOM     19  C   UNL A   1      44.279  30.784  28.533  1.00  0.00     0.049 A 
ATOM     20  N   UNL A   1      43.896  29.411  31.244  1.00  0.00    -0.248 NA
ATOM     21  C   UNL A   1      44.503  27.416  30.198  1.00  0.00     0.031 C 
ATOM     22  C   UNL A   1      44.560  31.441  27.254  1.00  0.00     0.029 A 
ATOM     23  N   UNL A   1      44.102  31.818  29.409  1.00  0.00    -0.354 N 
ATOM     24  C   UNL A   1      43.977  28.393  32.184  1.00  0.00     0.074 A 
ATOM     25  C   UNL A   1      44.330  27.180  31.487  1.00  0.00     0.031 C 
ATOM     26  C   UNL A   1      44.534  32.772  27.431  1.00  0.00     0.029 A 
ATOM     27  C   UNL A   1      44.163  33.053  28.811  1.00  0.00     0.049 A 
ATOM     28  H   UNL A   1      43.949  31.691  30.373  1.00  0.00     0.167 HD
ATOM     29  C   UNL A   1      43.767  28.479  33.515  1.00  0.00     0.037 A 
ATOM     30  C   UNL A   1      43.888  34.262  29.335  1.00  0.00     0.037 A 
ATOM     31  C   UNL A   1      43.409  29.712  34.160  1.00  0.00     0.049 A 
ATOM     32  C   UNL A   1      43.495  34.308  30.790  1.00  0.00     0.074 A 
ATOM     33  C   UNL A   1      43.056  29.936  35.475  1.00  0.00     0.029 A 
ATOM     34  N   UNL A   1      43.363  30.940  33.509  1.00  0.00    -0.354 N 
ATOM     35  N   UNL A   1      43.455  33.332  31.669  1.00  0.00    -0.248 NA
ATOM     36  C   UNL A   1      43.096  35.613  31.325  1.00  0.00     0.031 C 
ATOM     37  C   UNL A   1      42.745  31.293  35.607  1.00  0.00     0.029 A 
ATOM     38  C   UNL A   1      42.971  31.927  34.392  1.00  0.00     0.049 A 
ATOM     39  H   UNL A   1      43.579  31.084  32.560  1.00  0.00     0.167 HD
ATOM     40  C   UNL A   1      43.053  33.907  32.865  1.00  0.00     0.074 A 
ATOM     41  C   UNL A   1      42.884  35.324  32.601  1.00  0.00     0.031 C 
ATOM     42  C   UNL A   1      42.836  33.328  34.072  1.00  0.00     0.037 A 
BRANCH  29  43
ATOM     43  C   UNL A   1      43.831  27.204  34.301  1.00  0.00     0.064 A 
ATOM     44  C   UNL A   1      42.684  26.450  34.597  1.00  0.00     0.173 A 
ATOM     45  C   UNL A   1      45.057  26.760  34.820  1.00  0.00     0.173 A 
ATOM     46  F   UNL A   1      41.481  26.851  34.160  1.00  0.00    -0.203 F 
ATOM     47  C   UNL A   1      42.759  25.319  35.409  1.00  0.00     0.198 A 
ATOM     48  C   UNL A   1      45.133  25.613  35.606  1.00  0.00     0.198 A 
ATOM     49  F   UNL A   1      46.181  27.453  34.583  1.00  0.00    -0.203 F 
ATOM     50  F   UNL A   1      41.642  24.656  35.736  1.00  0.00    -0.200 F 
ATOM     51  C   UNL A   1      43.984  24.900  35.907  1.00  0.00     0.200 A 
ATOM     52  F   UNL A   1      46.317  25.211  36.087  1.00  0.00    -0.200 F 
ATOM     53  F   UNL A   1      44.053  23.817  36.696  1.00  0.00    -0.200 F 
ENDBRANCH  29  43
BRANCH  30  54
ATOM     54  C   UNL A   1      43.888  35.483  28.482  1.00  0.00     0.064 A 
ATOM     55  C   UNL A   1      45.070  36.186  28.206  1.00  0.00     0.173 A 
ATOM     56  C   UNL A   1      42.691  36.005  27.962  1.00  0.00     0.173 A 
ATOM     57  F   UNL A   1      46.240  35.745  28.690  1.00  0.00    -0.203 F 
ATOM     58  C   UNL A   1      45.049  37.376  27.478  1.00  0.00     0.198 A 
ATOM     59  C   UNL A   1      42.678  37.174  27.203  1.00  0.00     0.198 A 
ATOM     60  F   UNL A   1      41.527  35.381  28.194  1.00  0.00    -0.203 F 
ATOM     61  F   UNL A   1      46.185  38.060  27.286  1.00  0.00    -0.200 F 
ATOM     62  C   UNL A   1      43.854  37.866  26.973  1.00  0.00     0.200 A 
ATOM     63  F   UNL A   1      41.520  37.633  26.706  1.00  0.00    -0.200 F 
ATOM     64  F   UNL A   1      43.835  39.014  26.281  1.00  0.00    -0.200 F 
ENDBRANCH  30  54
BRANCH  42  65
ATOM     65  C   UNL A   1      42.447  34.241  35.196  1.00  0.00     0.064 A 
ATOM     66  C   UNL A   1      41.115  34.618  35.414  1.00  0.00     0.173 A 
ATOM     67  C   UNL A   1      43.422  34.701  36.094  1.00  0.00     0.173 A 
ATOM     68  F   UNL A   1      40.152  34.214  34.571  1.00  0.00    -0.203 F 
ATOM     69  C   UNL A   1      40.777  35.450  36.474  1.00  0.00     0.198 A 
ATOM     70  C   UNL A   1      43.074  35.499  37.177  1.00  0.00     0.198 A 
ATOM     71  F   UNL A   1      44.709  34.357  35.932  1.00  0.00    -0.203 F 
ATOM     72  F   UNL A   1      39.507  35.847  36.633  1.00  0.00    -0.200 F 
ATOM     73  C   UNL A   1      41.754  35.882  37.360  1.00  0.00     0.200 A 
ATOM     74  F   UNL A   1      44.015  35.898  38.042  1.00  0.00    -0.200 F 
ATOM     75  F   UNL A   1      41.423  36.673  38.390  1.00  0.00    -0.200 F 
ENDBRANCH  42  65
ENDBRANCH  16  17
ENDBRANCH   9  11
ENDBRANCH   8   9
ENDBRANCH   7   8
ENDBRANCH   6   7
ENDBRANCH   5   6
ENDBRANCH   4   5
ENDBRANCH   3   4
ENDBRANCH   2   3
ENDBRANCH   1   2
BRANCH   1  76
ATOM     76  C   UNL A   1      39.894  25.408  27.864  1.00  0.00     0.188 C 
BRANCH  76  77
ATOM     77  O   UNL A   1      39.850  26.573  27.055  1.00  0.00    -0.376 OA
BRANCH  77  78
ATOM     78  C   UNL A   1      40.003  27.811  27.735  1.00  0.00     0.202 C 
BRANCH  78  79
ATOM     79  C   UNL A   1      38.747  28.572  28.181  1.00  0.00     0.261 C 
BRANCH  79  80
ATOM     80  O   UNL A   1      38.970  29.876  28.762  1.00  0.00    -0.460 OA
BRANCH  80  81
ATOM     81  C   UNL A   1      38.030  30.438  29.558  1.00  0.00     0.338 C 
ATOM     82  O   UNL A   1      37.046  29.898  29.994  1.00  0.00    -0.246 OA
BRANCH  81  83
ATOM     83  C   UNL A   1      38.544  31.769  30.021  1.00  0.00     0.066 A 
ATOM     84  C   UNL A   1      38.101  32.844  29.213  1.00  0.00     0.016 A 
ATOM     85  C   UNL A   1      39.328  32.027  31.176  1.00  0.00     0.001 A 
ATOM     86  C   UNL A   1      38.379  34.167  29.552  1.00  0.00     0.001 A 
ATOM     87  C   UNL A   1      39.631  33.385  31.458  1.00  0.00     0.008 A 
ATOM     88  C   UNL A   1      39.153  34.436  30.669  1.00  0.00     0.000 A 
BRANCH  85  89
ATOM     89  C   UNL A   1      39.907  30.997  32.149  1.00  0.00     0.197 C 
ATOM     90  S   UNL A   1      40.583  29.554  31.308  1.00  0.00    -0.120 SA
ATOM     91  N   UNL A   1      38.986  30.505  33.154  1.00  0.00    -0.236 N 
ATOM     92  C   UNL A   1      39.266  28.477  31.906  1.00  0.00     0.174 C 
ATOM     93  C   UNL A   1      38.406  29.281  32.866  1.00  0.00     0.252 C 
ATOM     94  O   UNL A   1      37.343  28.849  33.286  1.00  0.00    -0.272 OA
BRANCH  91  95
ATOM     95  N   UNL A   1      38.547  31.446  34.111  1.00  0.00    -0.270 N 
ATOM     96  H   UNL A   1      39.268  31.759  34.705  1.00  0.00     0.191 HD
BRANCH  95  97
ATOM     97  C   UNL A   1      37.348  32.012  34.387  1.00  0.00     0.189 C 
ATOM     98  S   UNL A   1      37.340  33.138  35.645  1.00  0.00    -0.039 S 
BRANCH  97  99
ATOM     99  N   UNL A   1      36.196  31.863  33.709  1.00  0.00    -0.331 N 
ATOM    100  H   UNL A   1      35.675  31.074  33.981  1.00  0.00     0.169 HD
BRANCH  99 101
ATOM    101  C   UNL A   1      35.595  32.612  32.694  1.00  0.00     0.040 A 
ATOM    102  C   UNL A   1      35.592  34.008  32.834  1.00  0.00     0.026 A 
ATOM    103  C   UNL A   1      35.103  32.022  31.533  1.00  0.00     0.026 A 
ATOM    104  C   UNL A   1      35.275  34.809  31.737  1.00  0.00     0.002 A 
ATOM    105  C   UNL A   1      34.734  32.830  30.456  1.00  0.00     0.002 A 
ATOM    106  C   UNL A   1      34.864  34.218  30.542  1.00  0.00     0.000 A 
ENDBRANCH  99 101
ENDBRANCH  97  99
ENDBRANCH  95  97
ENDBRANCH  91  95
ENDBRANCH  85  89
ENDBRANCH  81  83
ENDBRANCH  80  81
ENDBRANCH  79  80
ENDBRANCH  78  79
ENDBRANCH  77  78
ENDBRANCH  76  77
ENDBRANCH   1  76
TORSDOF 25
ENDMDL
MODEL 3
REMARK VINA RESULT:     -10.1      5.100      8.525
REMARK SMILES O=C(OCCOCCOCCOCCOC(=O)c1ccccc1[C@@H]1SCC(=O)N1NC(=S)Nc1ccccc1)c1ccc(-c2c3nc(c(-c4c(F)c(F)c(F)c(F)c4F)c4ccc([nH]4)c(-c4c(F)c(F)c(F)c(F)c4F)c4nc(c(-c5c(F)c(F)c(F)c(F)c5F)c5ccc2[nH]5)C=C4)C=C3)cc1
REMARK SMILES IDX 10 1 9 2 8 3 7 4 6 5 5 6 4 7 3 8 2 9 1 10 40 11 41 12 102 13
REMARK SMILES IDX 42 14 101 15 43 16 44 17 45 18 95 19 46 20 100 21 94 22
REMARK SMILES IDX 96 23 47 24 99 25 93 26 92 27 48 29 80 30 60 31 79 32 61 33
REMARK SMILES IDX 64 34 78 35 97 36 62 37 63 38 77 40 98 41 65 42 49 43 50 44
REMARK SMILES IDX 58 45 51 46 52 47 56 48 59 49 53 50 54 51 57 52 55 53 81 54
REMARK SMILES IDX 82 55 90 56 83 57 84 58 88 59 91 60 85 61 86 62 89 63 87 64
REMARK SMILES IDX 66 65 67 66 75 67 68 68 69 69 73 70 76 71 70 72 71 73 74 74
REMARK SMILES IDX 72 75 11 76 12 77 13 78 14 79 15 80 16 81 17 82 18 83 19 84
REMARK SMILES IDX 23 85 20 86 22 87 21 88 24 89 25 90 29 91 26 92 27 93 28 94
REMARK SMILES IDX 30 95 31 97 32 98 33 99 34 101 35 102 39 103 36 104 38 105
REMARK SMILES IDX 37 106
REMARK H PARENT 96 28 64 39 30 96 33 100
REMARK Flexibility Score: inf
ROOT
ATOM      1  C   UNL A   1      41.633  25.245  28.032  1.00  0.00     0.188 C 
ENDROOT
BRANCH   1   2
ATOM      2  O   UNL A   1      41.938  24.604  26.805  1.00  0.00    -0.377 OA
BRANCH   2   3
ATOM      3  C   UNL A   1      41.299  23.358  26.543  1.00  0.00     0.188 C 
BRANCH   3   4
ATOM      4  C   UNL A   1      42.238  22.175  26.301  1.00  0.00     0.188 C 
BRANCH   4   5
ATOM      5  O   UNL A   1      42.825  22.228  25.003  1.00  0.00    -0.376 OA
BRANCH   5   6
ATOM      6  C   UNL A   1      44.223  21.978  24.898  1.00  0.00     0.202 C 
BRANCH   6   7
ATOM      7  C   UNL A   1      45.035  23.075  24.217  1.00  0.00     0.261 C 
BRANCH   7   8
ATOM      8  O   UNL A   1      44.749  24.391  24.705  1.00  0.00    -0.460 OA
BRANCH   8   9
ATOM      9  C   UNL A   1      45.610  25.392  25.004  1.00  0.00     0.338 C 
ATOM     10  O   UNL A   1      46.725  25.364  24.485  1.00  0.00    -0.246 OA
BRANCH   9  11
ATOM     11  C   UNL A   1      45.326  26.518  25.953  1.00  0.00     0.060 A 
ATOM     12  C   UNL A   1      46.246  27.112  26.815  1.00  0.00     0.016 A 
ATOM     13  C   UNL A   1      44.036  27.078  25.905  1.00  0.00     0.016 A 
ATOM     14  C   UNL A   1      45.934  28.219  27.583  1.00  0.00     0.010 A 
ATOM     15  C   UNL A   1      43.690  28.173  26.702  1.00  0.00     0.010 A 
ATOM     16  C   UNL A   1      44.646  28.730  27.556  1.00  0.00    -0.014 A 
BRANCH  16  17
ATOM     17  C   UNL A   1      44.304  29.652  28.645  1.00  0.00     0.031 A 
ATOM     18  C   UNL A   1      44.132  29.052  30.006  1.00  0.00     0.074 A 
ATOM     19  C   UNL A   1      44.385  30.979  28.449  1.00  0.00     0.049 A 
ATOM     20  N   UNL A   1      43.808  29.619  31.132  1.00  0.00    -0.248 NA
ATOM     21  C   UNL A   1      44.394  27.603  30.115  1.00  0.00     0.031 C 
ATOM     22  C   UNL A   1      44.759  31.625  27.189  1.00  0.00     0.029 A 
ATOM     23  N   UNL A   1      44.202  32.019  29.317  1.00  0.00    -0.354 N 
ATOM     24  C   UNL A   1      43.800  28.598  32.073  1.00  0.00     0.074 A 
ATOM     25  C   UNL A   1      44.144  27.373  31.392  1.00  0.00     0.031 C 
ATOM     26  C   UNL A   1      44.774  32.956  27.367  1.00  0.00     0.029 A 
ATOM     27  C   UNL A   1      44.340  33.251  28.727  1.00  0.00     0.049 A 
ATOM     28  H   UNL A   1      43.992  31.897  30.271  1.00  0.00     0.167 HD
ATOM     29  C   UNL A   1      43.523  28.692  33.391  1.00  0.00     0.037 A 
ATOM     30  C   UNL A   1      44.083  34.468  29.238  1.00  0.00     0.037 A 
ATOM     31  C   UNL A   1      43.178  29.936  34.019  1.00  0.00     0.049 A 
ATOM     32  C   UNL A   1      43.616  34.529  30.671  1.00  0.00     0.074 A 
ATOM     33  C   UNL A   1      42.764  30.173  35.314  1.00  0.00     0.029 A 
ATOM     34  N   UNL A   1      43.213  31.166  33.370  1.00  0.00    -0.354 N 
ATOM     35  N   UNL A   1      43.493  33.554  31.543  1.00  0.00    -0.248 NA
ATOM     36  C   UNL A   1      43.238  35.848  31.187  1.00  0.00     0.031 C 
ATOM     37  C   UNL A   1      42.498  31.541  35.433  1.00  0.00     0.029 A 
ATOM     38  C   UNL A   1      42.811  32.167  34.233  1.00  0.00     0.049 A 
ATOM     39  H   UNL A   1      43.484  31.303  32.434  1.00  0.00     0.167 HD
ATOM     40  C   UNL A   1      43.050  34.143  32.718  1.00  0.00     0.074 A 
ATOM     41  C   UNL A   1      42.948  35.565  32.449  1.00  0.00     0.031 C 
ATOM     42  C   UNL A   1      42.747  33.572  33.911  1.00  0.00     0.037 A 
BRANCH  29  43
ATOM     43  C   UNL A   1      43.497  27.415  34.176  1.00  0.00     0.064 A 
ATOM     44  C   UNL A   1      44.673  26.775  34.601  1.00  0.00     0.173 A 
ATOM     45  C   UNL A   1      42.274  26.787  34.456  1.00  0.00     0.173 A 
ATOM     46  F   UNL A   1      45.871  27.310  34.325  1.00  0.00    -0.203 F 
ATOM     47  C   UNL A   1      44.623  25.541  35.248  1.00  0.00     0.198 A 
ATOM     48  C   UNL A   1      42.227  25.569  35.129  1.00  0.00     0.198 A 
ATOM     49  F   UNL A   1      41.121  27.346  34.057  1.00  0.00    -0.203 F 
ATOM     50  F   UNL A   1      45.760  24.915  35.581  1.00  0.00    -0.200 F 
ATOM     51  C   UNL A   1      43.401  24.943  35.516  1.00  0.00     0.200 A 
ATOM     52  F   UNL A   1      41.045  24.993  35.385  1.00  0.00    -0.200 F 
ATOM     53  F   UNL A   1      43.356  23.751  36.129  1.00  0.00    -0.200 F 
ENDBRANCH  29  43
BRANCH  30  54
ATOM     54  C   UNL A   1      44.175  35.689  28.390  1.00  0.00     0.064 A 
ATOM     55  C   UNL A   1      45.377  36.397  28.249  1.00  0.00     0.173 A 
ATOM     56  C   UNL A   1      43.043  36.205  27.737  1.00  0.00     0.173 A 
ATOM     57  F   UNL A   1      46.486  35.963  28.864  1.00  0.00    -0.203 F 
ATOM     58  C   UNL A   1      45.434  37.587  27.523  1.00  0.00     0.198 A 
ATOM     59  C   UNL A   1      43.110  37.373  26.980  1.00  0.00     0.198 A 
ATOM     60  F   UNL A   1      41.863  35.575  27.835  1.00  0.00    -0.203 F 
ATOM     61  F   UNL A   1      46.581  38.277  27.461  1.00  0.00    -0.200 F 
ATOM     62  C   UNL A   1      44.302  38.072  26.885  1.00  0.00     0.200 A 
ATOM     63  F   UNL A   1      42.015  37.827  26.354  1.00  0.00    -0.200 F 
ATOM     64  F   UNL A   1      44.356  39.219  26.194  1.00  0.00    -0.200 F 
ENDBRANCH  30  54
BRANCH  42  65
ATOM     65  C   UNL A   1      42.334  34.498  35.015  1.00  0.00     0.064 A 
ATOM     66  C   UNL A   1      43.271  35.092  35.870  1.00  0.00     0.173 A 
ATOM     67  C   UNL A   1      40.981  34.830  35.180  1.00  0.00     0.173 A 
ATOM     68  F   UNL A   1      44.574  34.792  35.758  1.00  0.00    -0.203 F 
ATOM     69  C   UNL A   1      42.865  35.963  36.874  1.00  0.00     0.198 A 
ATOM     70  C   UNL A   1      40.583  35.733  36.159  1.00  0.00     0.198 A 
ATOM     71  F   UNL A   1      40.049  34.295  34.377  1.00  0.00    -0.203 F 
ATOM     72  F   UNL A   1      43.769  36.476  37.720  1.00  0.00    -0.200 F 
ATOM     73  C   UNL A   1      41.523  36.290  37.011  1.00  0.00     0.200 A 
ATOM     74  F   UNL A   1      39.290  36.064  36.276  1.00  0.00    -0.200 F 
ATOM     75  F   UNL A   1      41.135  37.141  37.971  1.00  0.00    -0.200 F 
ENDBRANCH  42  65
ENDBRANCH  16  17
ENDBRANCH   9  11
ENDBRANCH   8   9
ENDBRANCH   7   8
ENDBRANCH   6   7
ENDBRANCH   5   6
ENDBRANCH   4   5
ENDBRANCH   3   4
ENDBRANCH   2   3
ENDBRANCH   1   2
BRANCH   1  76
ATOM     76  C   UNL A   1      40.323  26.058  28.174  1.00  0.00     0.188 C 
BRANCH  76  77
ATOM     77  O   UNL A   1      40.483  27.461  28.028  1.00  0.00    -0.376 OA
BRANCH  77  78
ATOM     78  C   UNL A   1      40.748  28.186  29.219  1.00  0.00     0.202 C 
BRANCH  78  79
ATOM     79  C   UNL A   1      39.567  28.709  30.048  1.00  0.00     0.261 C 
BRANCH  79  80
ATOM     80  O   UNL A   1      39.417  30.145  30.104  1.00  0.00    -0.460 OA
BRANCH  80  81
ATOM     81  C   UNL A   1      39.804  30.830  31.205  1.00  0.00     0.338 C 
ATOM     82  O   UNL A   1      40.518  30.424  32.086  1.00  0.00    -0.246 OA
BRANCH  81  83
ATOM     83  C   UNL A   1      39.410  32.266  31.025  1.00  0.00     0.066 A 
ATOM     84  C   UNL A   1      40.340  33.002  30.254  1.00  0.00     0.016 A 
ATOM     85  C   UNL A   1      38.215  32.886  31.477  1.00  0.00     0.001 A 
ATOM     86  C   UNL A   1      40.089  34.322  29.882  1.00  0.00     0.001 A 
ATOM     87  C   UNL A   1      38.020  34.246  31.118  1.00  0.00     0.008 A 
ATOM     88  C   UNL A   1      38.933  34.946  30.324  1.00  0.00     0.000 A 
BRANCH  85  89
ATOM     89  C   UNL A   1      37.111  32.255  32.330  1.00  0.00     0.197 C 
ATOM     90  S   UNL A   1      37.749  31.506  33.840  1.00  0.00    -0.120 SA
ATOM     91  N   UNL A   1      36.310  31.247  31.666  1.00  0.00    -0.236 N 
ATOM     92  C   UNL A   1      37.411  29.832  33.258  1.00  0.00     0.174 C 
ATOM     93  C   UNL A   1      36.679  29.940  31.931  1.00  0.00     0.252 C 
ATOM     94  O   UNL A   1      36.480  28.958  31.230  1.00  0.00    -0.272 OA
BRANCH  91  95
ATOM     95  N   UNL A   1      35.495  31.700  30.605  1.00  0.00    -0.270 N 
ATOM     96  H   UNL A   1      34.755  32.276  30.904  1.00  0.00     0.191 HD
BRANCH  95  97
ATOM     97  C   UNL A   1      35.514  31.512  29.264  1.00  0.00     0.189 C 
ATOM     98  S   UNL A   1      36.111  32.801  28.351  1.00  0.00    -0.039 S 
BRANCH  97  99
ATOM     99  N   UNL A   1      35.217  30.387  28.589  1.00  0.00    -0.331 N 
ATOM    100  H   UNL A   1      35.768  29.614  28.845  1.00  0.00     0.169 HD
BRANCH  99 101
ATOM    101  C   UNL A   1      34.277  30.104  27.595  1.00  0.00     0.040 A 
ATOM    102  C   UNL A   1      34.403  28.884  26.913  1.00  0.00     0.026 A 
ATOM    103  C   UNL A   1      33.190  30.939  27.345  1.00  0.00     0.026 A 
ATOM    104  C   UNL A   1      33.345  28.422  26.130  1.00  0.00     0.002 A 
ATOM    105  C   UNL A   1      32.160  30.494  26.516  1.00  0.00     0.002 A 
ATOM    106  C   UNL A   1      32.216  29.220  25.948  1.00  0.00     0.000 A 
ENDBRANCH  99 101
ENDBRANCH  97  99
ENDBRANCH  95  97
ENDBRANCH  91  95
ENDBRANCH  85  89
ENDBRANCH  81  83
ENDBRANCH  80  81
ENDBRANCH  79  80
ENDBRANCH  78  79
ENDBRANCH  77  78
ENDBRANCH  76  77
ENDBRANCH   1  76
TORSDOF 25
ENDMDL
