MODEL 1
REMARK VINA RESULT:     -11.6      0.000      0.000
REMARK SMILES CC1(C)CCC[C@@H]1NC(=O)NC1(CC(=O)OCCOCCOCCOCCOC(=O)c2ccc(-c3c4nc(c(-c5c(F)c(F)c(F)c(F)c5F)c5ccc([nH]5)c(-c5c(F)c(F)c(F)c(F)c5F)c5nc(c(-c6c(F)c(F)c(F)c(F)c6F)c6ccc3[nH]6)C=C5)C=C4)cc2)CCCCC1
REMARK SMILES IDX 21 1 20 2 19 3 18 4 17 5 16 6 14 7 15 8 13 9 12 10 94 11
REMARK SMILES IDX 98 12 95 13 97 14 96 15 11 16 8 17 9 18 10 20 7 22 1 23 2 24
REMARK SMILES IDX 3 25 4 26 5 27 6 28 22 29 23 30 24 31 25 32 26 33 27 34
REMARK SMILES IDX 28 35 29 36 30 37 31 38 32 39 93 40 33 41 92 42 34 43 35 44
REMARK SMILES IDX 36 45 86 46 37 47 91 48 85 49 87 50 38 51 90 52 84 53 83 54
REMARK SMILES IDX 39 56 71 57 51 58 70 59 52 60 55 61 69 62 88 63 53 64 54 65
REMARK SMILES IDX 68 67 89 68 56 69 40 70 41 71 49 72 42 73 43 74 47 75 50 76
REMARK SMILES IDX 44 77 45 78 48 79 46 80 72 81 73 82 81 83 74 84 75 85 79 86
REMARK SMILES IDX 82 87 76 88 77 89 80 90 78 91 57 92 58 93 66 94 59 95 60 96
REMARK SMILES IDX 64 97 67 98 61 99 62 100 65 101 63 102
REMARK H PARENT 8 19 11 21 87 55 55 66
REMARK Flexibility Score: inf
ROOT
ATOM      1  C   UNL A   1      41.308  20.799  26.565  1.00  0.00     0.188 C 
ENDROOT
BRANCH   1   2
ATOM      2  C   UNL A   1      39.797  20.835  26.251  1.00  0.00     0.188 C 
BRANCH   2   3
ATOM      3  O   UNL A   1      39.094  22.064  26.054  1.00  0.00    -0.376 OA
BRANCH   3   4
ATOM      4  C   UNL A   1      37.917  22.073  25.265  1.00  0.00     0.202 C 
BRANCH   4   5
ATOM      5  C   UNL A   1      36.646  22.448  26.049  1.00  0.00     0.261 C 
BRANCH   5   6
ATOM      6  O   UNL A   1      35.669  21.388  26.148  1.00  0.00    -0.463 OA
BRANCH   6   7
ATOM      7  C   UNL A   1      34.438  21.754  26.556  1.00  0.00     0.308 C 
ATOM      8  O   UNL A   1      34.035  21.613  27.708  1.00  0.00    -0.252 OA
BRANCH   7   9
ATOM      9  C   UNL A   1      33.527  22.381  25.505  1.00  0.00     0.151 C 
BRANCH   9  10
ATOM     10  C   UNL A   1      32.053  21.998  25.062  1.00  0.00     0.052 C 
ATOM     11  C   UNL A   1      32.140  20.458  24.888  1.00  0.00     0.029 C 
ATOM     12  C   UNL A   1      31.587  22.740  23.789  1.00  0.00     0.029 C 
ATOM     13  C   UNL A   1      32.647  19.972  23.536  1.00  0.00     0.002 C 
ATOM     14  C   UNL A   1      32.211  22.224  22.505  1.00  0.00     0.002 C 
ATOM     15  C   UNL A   1      32.043  20.721  22.359  1.00  0.00     0.000 C 
BRANCH  10  16
ATOM     16  N   UNL A   1      31.066  22.238  26.182  1.00  0.00    -0.332 N 
ATOM     17  N   UNL A   1      30.446  24.549  26.478  1.00  0.00    -0.335 N 
ATOM     18  C   UNL A   1      30.440  23.250  26.806  1.00  0.00     0.315 C 
ATOM     19  H   UNL A   1      30.023  25.105  27.172  1.00  0.00     0.165 HD
ATOM     20  O   UNL A   1      29.781  22.940  27.807  1.00  0.00    -0.249 OA
ATOM     21  H   UNL A   1      30.798  21.380  26.582  1.00  0.00     0.165 HD
BRANCH  17  22
ATOM     22  C   UNL A   1      30.915  25.342  25.360  1.00  0.00     0.089 C 
ATOM     23  C   UNL A   1      33.321  25.885  26.107  1.00  0.00     0.013 C 
ATOM     24  C   UNL A   1      31.967  26.448  25.666  1.00  0.00    -0.015 C 
ATOM     25  C   UNL A   1      31.524  27.502  26.702  1.00  0.00     0.013 C 
ATOM     26  C   UNL A   1      32.056  27.114  24.274  1.00  0.00     0.008 C 
ATOM     27  C   UNL A   1      30.641  27.023  23.677  1.00  0.00     0.003 C 
ATOM     28  C   UNL A   1      29.831  26.146  24.635  1.00  0.00     0.025 C 
ENDBRANCH  17  22
ENDBRANCH  10  16
ENDBRANCH   9  10
ENDBRANCH   7   9
ENDBRANCH   6   7
ENDBRANCH   5   6
ENDBRANCH   4   5
ENDBRANCH   3   4
ENDBRANCH   2   3
ENDBRANCH   1   2
BRANCH   1  29
ATOM     29  O   UNL A   1      42.129  20.283  25.527  1.00  0.00    -0.377 OA
BRANCH  29  30
ATOM     30  C   UNL A   1      42.950  19.194  25.913  1.00  0.00     0.188 C 
BRANCH  30  31
ATOM     31  C   UNL A   1      44.101  18.913  24.937  1.00  0.00     0.188 C 
BRANCH  31  32
ATOM     32  O   UNL A   1      45.307  19.525  25.354  1.00  0.00    -0.376 OA
BRANCH  32  33
ATOM     33  C   UNL A   1      45.646  20.855  25.022  1.00  0.00     0.202 C 
BRANCH  33  34
ATOM     34  C   UNL A   1      45.514  22.038  25.999  1.00  0.00     0.261 C 
BRANCH  34  35
ATOM     35  O   UNL A   1      44.285  22.766  26.016  1.00  0.00    -0.460 OA
BRANCH  35  36
ATOM     36  C   UNL A   1      44.266  23.973  25.418  1.00  0.00     0.338 C 
ATOM     37  O   UNL A   1      44.640  24.247  24.290  1.00  0.00    -0.246 OA
BRANCH  36  38
ATOM     38  C   UNL A   1      43.509  24.888  26.300  1.00  0.00     0.060 A 
ATOM     39  C   UNL A   1      43.901  26.231  26.364  1.00  0.00     0.016 A 
ATOM     40  C   UNL A   1      42.405  24.437  27.028  1.00  0.00     0.016 A 
ATOM     41  C   UNL A   1      43.205  27.124  27.176  1.00  0.00     0.010 A 
ATOM     42  C   UNL A   1      41.731  25.324  27.873  1.00  0.00     0.010 A 
ATOM     43  C   UNL A   1      42.152  26.661  27.974  1.00  0.00    -0.014 A 
BRANCH  43  44
ATOM     44  C   UNL A   1      41.667  27.515  29.082  1.00  0.00     0.031 A 
ATOM     45  C   UNL A   1      42.420  27.464  30.383  1.00  0.00     0.074 A 
ATOM     46  C   UNL A   1      40.622  28.345  28.930  1.00  0.00     0.049 A 
ATOM     47  N   UNL A   1      42.189  28.090  31.507  1.00  0.00    -0.248 NA
ATOM     48  C   UNL A   1      43.601  26.584  30.415  1.00  0.00     0.031 C 
ATOM     49  C   UNL A   1      39.854  28.520  27.700  1.00  0.00     0.029 A 
ATOM     50  N   UNL A   1      40.027  29.196  29.826  1.00  0.00    -0.354 N 
ATOM     51  C   UNL A   1      43.189  27.677  32.378  1.00  0.00     0.074 A 
ATOM     52  C   UNL A   1      44.011  26.725  31.665  1.00  0.00     0.031 C 
ATOM     53  C   UNL A   1      38.875  29.416  27.924  1.00  0.00     0.029 A 
ATOM     54  C   UNL A   1      38.931  29.850  29.319  1.00  0.00     0.049 A 
ATOM     55  H   UNL A   1      40.354  29.327  30.746  1.00  0.00     0.167 HD
ATOM     56  C   UNL A   1      43.407  28.066  33.656  1.00  0.00     0.037 A 
ATOM     57  C   UNL A   1      38.063  30.684  29.926  1.00  0.00     0.037 A 
ATOM     58  C   UNL A   1      42.580  29.007  34.360  1.00  0.00     0.049 A 
ATOM     59  C   UNL A   1      38.276  31.033  31.379  1.00  0.00     0.074 A 
ATOM     60  C   UNL A   1      42.713  29.474  35.654  1.00  0.00     0.029 A 
ATOM     61  N   UNL A   1      41.452  29.616  33.828  1.00  0.00    -0.354 N 
ATOM     62  N   UNL A   1      39.234  30.657  32.193  1.00  0.00    -0.248 NA
ATOM     63  C   UNL A   1      37.286  31.926  31.998  1.00  0.00     0.031 C 
ATOM     64  C   UNL A   1      41.632  30.317  35.926  1.00  0.00     0.029 A 
ATOM     65  C   UNL A   1      40.862  30.432  34.779  1.00  0.00     0.049 A 
ATOM     66  H   UNL A   1      41.121  29.487  32.910  1.00  0.00     0.167 HD
ATOM     67  C   UNL A   1      38.983  31.291  33.403  1.00  0.00     0.074 A 
ATOM     68  C   UNL A   1      37.788  32.087  33.214  1.00  0.00     0.031 C 
ATOM     69  C   UNL A   1      39.677  31.224  34.567  1.00  0.00     0.037 A 
BRANCH  56  70
ATOM     70  C   UNL A   1      44.562  27.440  34.381  1.00  0.00     0.064 A 
ATOM     71  C   UNL A   1      44.437  26.217  35.059  1.00  0.00     0.173 A 
ATOM     72  C   UNL A   1      45.819  28.064  34.383  1.00  0.00     0.173 A 
ATOM     73  F   UNL A   1      43.253  25.588  35.105  1.00  0.00    -0.203 F 
ATOM     74  C   UNL A   1      45.520  25.659  35.734  1.00  0.00     0.198 A 
ATOM     75  C   UNL A   1      46.907  27.487  35.031  1.00  0.00     0.198 A 
ATOM     76  F   UNL A   1      45.993  29.236  33.752  1.00  0.00    -0.203 F 
ATOM     77  F   UNL A   1      45.363  24.519  36.421  1.00  0.00    -0.200 F 
ATOM     78  C   UNL A   1      46.755  26.290  35.713  1.00  0.00     0.200 A 
ATOM     79  F   UNL A   1      48.102  28.093  34.999  1.00  0.00    -0.200 F 
ATOM     80  F   UNL A   1      47.797  25.748  36.358  1.00  0.00    -0.200 F 
ENDBRANCH  56  70
BRANCH  57  81
ATOM     81  C   UNL A   1      36.905  31.234  29.173  1.00  0.00     0.064 A 
ATOM     82  C   UNL A   1      36.862  32.582  28.788  1.00  0.00     0.173 A 
ATOM     83  C   UNL A   1      35.802  30.430  28.850  1.00  0.00     0.173 A 
ATOM     84  F   UNL A   1      37.878  33.400  29.097  1.00  0.00    -0.203 F 
ATOM     85  C   UNL A   1      35.752  33.107  28.128  1.00  0.00     0.198 A 
ATOM     86  C   UNL A   1      34.706  30.950  28.161  1.00  0.00     0.198 A 
ATOM     87  F   UNL A   1      35.787  29.135  29.199  1.00  0.00    -0.203 F 
ATOM     88  F   UNL A   1      35.715  34.411  27.819  1.00  0.00    -0.200 F 
ATOM     89  C   UNL A   1      34.678  32.290  27.809  1.00  0.00     0.200 A 
ATOM     90  F   UNL A   1      33.676  30.153  27.846  1.00  0.00    -0.200 F 
ATOM     91  F   UNL A   1      33.613  32.796  27.173  1.00  0.00    -0.200 F 
ENDBRANCH  57  81
BRANCH  69  92
ATOM     92  C   UNL A   1      39.193  32.067  35.713  1.00  0.00     0.064 A 
ATOM     93  C   UNL A   1      38.357  31.549  36.713  1.00  0.00     0.173 A 
ATOM     94  C   UNL A   1      39.616  33.400  35.838  1.00  0.00     0.173 A 
ATOM     95  F   UNL A   1      37.915  30.284  36.636  1.00  0.00    -0.203 F 
ATOM     96  C   UNL A   1      37.938  32.342  37.778  1.00  0.00     0.198 A 
ATOM     97  C   UNL A   1      39.225  34.179  36.923  1.00  0.00     0.198 A 
ATOM     98  F   UNL A   1      40.426  33.943  34.917  1.00  0.00    -0.203 F 
ATOM     99  F   UNL A   1      37.097  31.841  38.692  1.00  0.00    -0.200 F 
ATOM    100  C   UNL A   1      38.379  33.653  37.887  1.00  0.00     0.200 A 
ATOM    101  F   UNL A   1      39.668  35.439  37.036  1.00  0.00    -0.200 F 
ATOM    102  F   UNL A   1      37.983  34.411  38.918  1.00  0.00    -0.200 F 
ENDBRANCH  69  92
ENDBRANCH  43  44
ENDBRANCH  36  38
ENDBRANCH  35  36
ENDBRANCH  34  35
ENDBRANCH  33  34
ENDBRANCH  32  33
ENDBRANCH  31  32
ENDBRANCH  30  31
ENDBRANCH  29  30
ENDBRANCH   1  29
TORSDOF 23
ENDMDL
MODEL 2
REMARK VINA RESULT:     -11.1      5.379     10.878
REMARK SMILES CC1(C)CCC[C@@H]1NC(=O)NC1(CC(=O)OCCOCCOCCOCCOC(=O)c2ccc(-c3c4nc(c(-c5c(F)c(F)c(F)c(F)c5F)c5ccc([nH]5)c(-c5c(F)c(F)c(F)c(F)c5F)c5nc(c(-c6c(F)c(F)c(F)c(F)c6F)c6ccc3[nH]6)C=C5)C=C4)cc2)CCCCC1
REMARK SMILES IDX 21 1 20 2 19 3 18 4 17 5 16 6 14 7 15 8 13 9 12 10 94 11
REMARK SMILES IDX 98 12 95 13 97 14 96 15 11 16 8 17 9 18 10 20 7 22 1 23 2 24
REMARK SMILES IDX 3 25 4 26 5 27 6 28 22 29 23 30 24 31 25 32 26 33 27 34
REMARK SMILES IDX 28 35 29 36 30 37 31 38 32 39 93 40 33 41 92 42 34 43 35 44
REMARK SMILES IDX 36 45 86 46 37 47 91 48 85 49 87 50 38 51 90 52 84 53 83 54
REMARK SMILES IDX 39 56 71 57 51 58 70 59 52 60 55 61 69 62 88 63 53 64 54 65
REMARK SMILES IDX 68 67 89 68 56 69 40 70 41 71 49 72 42 73 43 74 47 75 50 76
REMARK SMILES IDX 44 77 45 78 48 79 46 80 72 81 73 82 81 83 74 84 75 85 79 86
REMARK SMILES IDX 82 87 76 88 77 89 80 90 78 91 57 92 58 93 66 94 59 95 60 96
REMARK SMILES IDX 64 97 67 98 61 99 62 100 65 101 63 102
REMARK H PARENT 8 19 11 21 87 55 55 66
REMARK Flexibility Score: inf
ROOT
ATOM      1  C   UNL A   1      34.593  32.701  27.751  1.00  0.00     0.188 C 
ENDROOT
BRANCH   1   2
ATOM      2  C   UNL A   1      34.602  31.180  28.017  1.00  0.00     0.188 C 
BRANCH   2   3
ATOM      3  O   UNL A   1      33.824  30.271  27.235  1.00  0.00    -0.376 OA
BRANCH   3   4
ATOM      4  C   UNL A   1      32.613  30.717  26.650  1.00  0.00     0.202 C 
BRANCH   4   5
ATOM      5  C   UNL A   1      31.911  29.653  25.785  1.00  0.00     0.261 C 
BRANCH   5   6
ATOM      6  O   UNL A   1      32.701  28.471  25.532  1.00  0.00    -0.463 OA
BRANCH   6   7
ATOM      7  C   UNL A   1      33.089  28.281  24.256  1.00  0.00     0.308 C 
ATOM      8  O   UNL A   1      33.484  29.186  23.524  1.00  0.00    -0.252 OA
BRANCH   7   9
ATOM      9  C   UNL A   1      33.031  26.850  23.729  1.00  0.00     0.151 C 
BRANCH   9  10
ATOM     10  C   UNL A   1      31.844  26.058  23.037  1.00  0.00     0.052 C 
ATOM     11  C   UNL A   1      31.201  27.136  22.124  1.00  0.00     0.029 C 
ATOM     12  C   UNL A   1      30.856  25.435  24.050  1.00  0.00     0.029 C 
ATOM     13  C   UNL A   1      30.176  28.044  22.791  1.00  0.00     0.002 C 
ATOM     14  C   UNL A   1      29.929  26.439  24.712  1.00  0.00     0.002 C 
ATOM     15  C   UNL A   1      29.203  27.298  23.690  1.00  0.00     0.000 C 
BRANCH  10  16
ATOM     16  N   UNL A   1      32.369  24.984  22.112  1.00  0.00    -0.332 N 
ATOM     17  N   UNL A   1      33.714  23.306  23.203  1.00  0.00    -0.335 N 
ATOM     18  C   UNL A   1      33.158  23.897  22.136  1.00  0.00     0.315 C 
ATOM     19  H   UNL A   1      34.360  22.610  22.943  1.00  0.00     0.165 HD
ATOM     20  O   UNL A   1      33.402  23.383  21.037  1.00  0.00    -0.249 OA
ATOM     21  H   UNL A   1      32.023  25.127  21.202  1.00  0.00     0.165 HD
BRANCH  17  22
ATOM     22  C   UNL A   1      33.604  23.433  24.642  1.00  0.00     0.089 C 
ATOM     23  C   UNL A   1      36.024  24.051  25.277  1.00  0.00     0.013 C 
ATOM     24  C   UNL A   1      34.863  23.075  25.484  1.00  0.00    -0.015 C 
ATOM     25  C   UNL A   1      35.398  21.642  25.283  1.00  0.00     0.013 C 
ATOM     26  C   UNL A   1      34.267  23.196  26.906  1.00  0.00     0.008 C 
ATOM     27  C   UNL A   1      32.807  22.728  26.787  1.00  0.00     0.003 C 
ATOM     28  C   UNL A   1      32.540  22.541  25.292  1.00  0.00     0.025 C 
ENDBRANCH  17  22
ENDBRANCH  10  16
ENDBRANCH   9  10
ENDBRANCH   7   9
ENDBRANCH   6   7
ENDBRANCH   5   6
ENDBRANCH   4   5
ENDBRANCH   3   4
ENDBRANCH   2   3
ENDBRANCH   1   2
BRANCH   1  29
ATOM     29  O   UNL A   1      33.638  33.440  28.499  1.00  0.00    -0.377 OA
BRANCH  29  30
ATOM     30  C   UNL A   1      34.199  34.382  29.398  1.00  0.00     0.188 C 
BRANCH  30  31
ATOM     31  C   UNL A   1      33.162  35.321  30.032  1.00  0.00     0.188 C 
BRANCH  31  32
ATOM     32  O   UNL A   1      32.908  34.990  31.384  1.00  0.00    -0.376 OA
BRANCH  32  33
ATOM     33  C   UNL A   1      33.938  34.773  32.326  1.00  0.00     0.202 C 
BRANCH  33  34
ATOM     34  C   UNL A   1      34.255  33.397  32.942  1.00  0.00     0.261 C 
BRANCH  34  35
ATOM     35  O   UNL A   1      35.298  32.618  32.354  1.00  0.00    -0.460 OA
BRANCH  35  36
ATOM     36  C   UNL A   1      36.306  32.220  33.154  1.00  0.00     0.338 C 
ATOM     37  O   UNL A   1      36.360  32.291  34.370  1.00  0.00    -0.246 OA
BRANCH  36  38
ATOM     38  C   UNL A   1      37.269  31.479  32.310  1.00  0.00     0.060 A 
ATOM     39  C   UNL A   1      38.241  30.690  32.939  1.00  0.00     0.016 A 
ATOM     40  C   UNL A   1      37.193  31.531  30.916  1.00  0.00     0.016 A 
ATOM     41  C   UNL A   1      39.157  29.970  32.176  1.00  0.00     0.010 A 
ATOM     42  C   UNL A   1      38.138  30.840  30.151  1.00  0.00     0.010 A 
ATOM     43  C   UNL A   1      39.142  30.085  30.781  1.00  0.00    -0.014 A 
BRANCH  43  44
ATOM     44  C   UNL A   1      40.320  29.621  30.013  1.00  0.00     0.031 A 
ATOM     45  C   UNL A   1      41.439  30.602  29.791  1.00  0.00     0.074 A 
ATOM     46  C   UNL A   1      40.420  28.358  29.567  1.00  0.00     0.049 A 
ATOM     47  N   UNL A   1      42.561  30.455  29.136  1.00  0.00    -0.248 NA
ATOM     48  C   UNL A   1      41.264  31.933  30.396  1.00  0.00     0.031 C 
ATOM     49  C   UNL A   1      39.426  27.308  29.773  1.00  0.00     0.029 A 
ATOM     50  N   UNL A   1      41.413  27.749  28.841  1.00  0.00    -0.354 N 
ATOM     51  C   UNL A   1      43.220  31.672  29.247  1.00  0.00     0.074 A 
ATOM     52  C   UNL A   1      42.363  32.556  30.003  1.00  0.00     0.031 C 
ATOM     53  C   UNL A   1      39.854  26.182  29.172  1.00  0.00     0.029 A 
ATOM     54  C   UNL A   1      41.133  26.445  28.516  1.00  0.00     0.049 A 
ATOM     55  H   UNL A   1      42.246  28.203  28.579  1.00  0.00     0.167 HD
ATOM     56  C   UNL A   1      44.438  32.016  28.768  1.00  0.00     0.037 A 
ATOM     57  C   UNL A   1      41.827  25.577  27.752  1.00  0.00     0.037 A 
ATOM     58  C   UNL A   1      45.281  31.133  28.009  1.00  0.00     0.049 A 
ATOM     59  C   UNL A   1      43.141  26.014  27.153  1.00  0.00     0.074 A 
ATOM     60  C   UNL A   1      46.534  31.378  27.479  1.00  0.00     0.029 A 
ATOM     61  N   UNL A   1      44.946  29.832  27.660  1.00  0.00    -0.354 N 
ATOM     62  N   UNL A   1      43.772  27.158  27.277  1.00  0.00    -0.248 NA
ATOM     63  C   UNL A   1      43.843  25.036  26.309  1.00  0.00     0.031 C 
ATOM     64  C   UNL A   1      46.931  30.249  26.758  1.00  0.00     0.029 A 
ATOM     65  C   UNL A   1      45.956  29.273  26.896  1.00  0.00     0.049 A 
ATOM     66  H   UNL A   1      44.113  29.374  27.918  1.00  0.00     0.167 HD
ATOM     67  C   UNL A   1      44.953  27.027  26.558  1.00  0.00     0.074 A 
ATOM     68  C   UNL A   1      44.960  25.686  26.012  1.00  0.00     0.031 C 
ATOM     69  C   UNL A   1      45.947  27.931  26.369  1.00  0.00     0.037 A 
BRANCH  56  70
ATOM     70  C   UNL A   1      44.907  33.420  29.017  1.00  0.00     0.064 A 
ATOM     71  C   UNL A   1      45.681  33.754  30.140  1.00  0.00     0.173 A 
ATOM     72  C   UNL A   1      44.593  34.443  28.110  1.00  0.00     0.173 A 
ATOM     73  F   UNL A   1      45.993  32.818  31.049  1.00  0.00    -0.203 F 
ATOM     74  C   UNL A   1      46.097  35.065  30.358  1.00  0.00     0.198 A 
ATOM     75  C   UNL A   1      45.038  35.746  28.314  1.00  0.00     0.198 A 
ATOM     76  F   UNL A   1      43.854  34.178  27.021  1.00  0.00    -0.203 F 
ATOM     77  F   UNL A   1      46.788  35.373  31.464  1.00  0.00    -0.200 F 
ATOM     78  C   UNL A   1      45.783  36.058  29.441  1.00  0.00     0.200 A 
ATOM     79  F   UNL A   1      44.743  36.700  27.420  1.00  0.00    -0.200 F 
ATOM     80  F   UNL A   1      46.189  37.318  29.649  1.00  0.00    -0.200 F 
ENDBRANCH  56  70
BRANCH  57  81
ATOM     81  C   UNL A   1      41.289  24.215  27.494  1.00  0.00     0.064 A 
ATOM     82  C   UNL A   1      41.878  23.078  28.067  1.00  0.00     0.173 A 
ATOM     83  C   UNL A   1      40.192  24.017  26.643  1.00  0.00     0.173 A 
ATOM     84  F   UNL A   1      42.948  23.210  28.866  1.00  0.00    -0.203 F 
ATOM     85  C   UNL A   1      41.405  21.799  27.783  1.00  0.00     0.198 A 
ATOM     86  C   UNL A   1      39.699  22.739  26.384  1.00  0.00     0.198 A 
ATOM     87  F   UNL A   1      39.592  25.067  26.062  1.00  0.00    -0.203 F 
ATOM     88  F   UNL A   1      42.021  20.729  28.303  1.00  0.00    -0.200 F 
ATOM     89  C   UNL A   1      40.311  21.630  26.947  1.00  0.00     0.200 A 
ATOM     90  F   UNL A   1      38.634  22.582  25.585  1.00  0.00    -0.200 F 
ATOM     91  F   UNL A   1      39.856  20.399  26.675  1.00  0.00    -0.200 F 
ENDBRANCH  57  81
BRANCH  69  92
ATOM     92  C   UNL A   1      47.145  27.490  25.576  1.00  0.00     0.064 A 
ATOM     93  C   UNL A   1      47.239  27.704  24.193  1.00  0.00     0.173 A 
ATOM     94  C   UNL A   1      48.237  26.889  26.221  1.00  0.00     0.173 A 
ATOM     95  F   UNL A   1      46.218  28.264  23.526  1.00  0.00    -0.203 F 
ATOM     96  C   UNL A   1      48.368  27.306  23.481  1.00  0.00     0.198 A 
ATOM     97  C   UNL A   1      49.380  26.526  25.514  1.00  0.00     0.198 A 
ATOM     98  F   UNL A   1      48.206  26.671  27.545  1.00  0.00    -0.203 F 
ATOM     99  F   UNL A   1      48.412  27.473  22.153  1.00  0.00    -0.200 F 
ATOM    100  C   UNL A   1      49.440  26.727  24.143  1.00  0.00     0.200 A 
ATOM    101  F   UNL A   1      50.422  25.984  26.158  1.00  0.00    -0.200 F 
ATOM    102  F   UNL A   1      50.530  26.354  23.458  1.00  0.00    -0.200 F 
ENDBRANCH  69  92
ENDBRANCH  43  44
ENDBRANCH  36  38
ENDBRANCH  35  36
ENDBRANCH  34  35
ENDBRANCH  33  34
ENDBRANCH  32  33
ENDBRANCH  31  32
ENDBRANCH  30  31
ENDBRANCH  29  30
ENDBRANCH   1  29
TORSDOF 23
ENDMDL
MODEL 3
REMARK VINA RESULT:     -10.6      5.463     10.882
REMARK SMILES CC1(C)CCC[C@@H]1NC(=O)NC1(CC(=O)OCCOCCOCCOCCOC(=O)c2ccc(-c3c4nc(c(-c5c(F)c(F)c(F)c(F)c5F)c5ccc([nH]5)c(-c5c(F)c(F)c(F)c(F)c5F)c5nc(c(-c6c(F)c(F)c(F)c(F)c6F)c6ccc3[nH]6)C=C5)C=C4)cc2)CCCCC1
REMARK SMILES IDX 21 1 20 2 19 3 18 4 17 5 16 6 14 7 15 8 13 9 12 10 94 11
REMARK SMILES IDX 98 12 95 13 97 14 96 15 11 16 8 17 9 18 10 20 7 22 1 23 2 24
REMARK SMILES IDX 3 25 4 26 5 27 6 28 22 29 23 30 24 31 25 32 26 33 27 34
REMARK SMILES IDX 28 35 29 36 30 37 31 38 32 39 93 40 33 41 92 42 34 43 35 44
REMARK SMILES IDX 36 45 86 46 37 47 91 48 85 49 87 50 38 51 90 52 84 53 83 54
REMARK SMILES IDX 39 56 71 57 51 58 70 59 52 60 55 61 69 62 88 63 53 64 54 65
REMARK SMILES IDX 68 67 89 68 56 69 40 70 41 71 49 72 42 73 43 74 47 75 50 76
REMARK SMILES IDX 44 77 45 78 48 79 46 80 72 81 73 82 81 83 74 84 75 85 79 86
REMARK SMILES IDX 82 87 76 88 77 89 80 90 78 91 57 92 58 93 66 94 59 95 60 96
REMARK SMILES IDX 64 97 67 98 61 99 62 100 65 101 63 102
REMARK H PARENT 8 19 11 21 87 55 55 66
REMARK Flexibility Score: inf
ROOT
ATOM      1  C   UNL A   1      35.296  33.500  28.120  1.00  0.00     0.188 C 
ENDROOT
BRANCH   1   2
ATOM      2  C   UNL A   1      34.691  32.145  28.545  1.00  0.00     0.188 C 
BRANCH   2   3
ATOM      3  O   UNL A   1      35.284  30.900  28.169  1.00  0.00    -0.376 OA
BRANCH   3   4
ATOM      4  C   UNL A   1      34.566  30.013  27.328  1.00  0.00     0.202 C 
BRANCH   4   5
ATOM      5  C   UNL A   1      33.099  30.421  27.102  1.00  0.00     0.261 C 
BRANCH   5   6
ATOM      6  O   UNL A   1      32.712  30.518  25.714  1.00  0.00    -0.463 OA
BRANCH   6   7
ATOM      7  C   UNL A   1      31.527  29.965  25.389  1.00  0.00     0.308 C 
ATOM      8  O   UNL A   1      30.636  30.569  24.795  1.00  0.00    -0.252 OA
BRANCH   7   9
ATOM      9  C   UNL A   1      31.320  28.507  25.787  1.00  0.00     0.151 C 
BRANCH   9  10
ATOM     10  C   UNL A   1      31.547  27.174  24.958  1.00  0.00     0.052 C 
ATOM     11  C   UNL A   1      31.991  26.164  26.050  1.00  0.00     0.029 C 
ATOM     12  C   UNL A   1      32.571  27.337  23.812  1.00  0.00     0.029 C 
ATOM     13  C   UNL A   1      33.474  26.173  26.397  1.00  0.00     0.002 C 
ATOM     14  C   UNL A   1      34.016  27.409  24.274  1.00  0.00     0.002 C 
ATOM     15  C   UNL A   1      34.379  26.243  25.178  1.00  0.00     0.000 C 
BRANCH  10  16
ATOM     16  N   UNL A   1      30.243  26.646  24.404  1.00  0.00    -0.332 N 
ATOM     17  N   UNL A   1      30.278  24.300  23.849  1.00  0.00    -0.335 N 
ATOM     18  C   UNL A   1      29.716  25.515  23.906  1.00  0.00     0.315 C 
ATOM     19  H   UNL A   1      29.741  23.672  23.313  1.00  0.00     0.165 HD
ATOM     20  O   UNL A   1      28.572  25.613  23.442  1.00  0.00    -0.249 OA
ATOM     21  H   UNL A   1      29.564  27.359  24.409  1.00  0.00     0.165 HD
BRANCH  17  22
ATOM     22  C   UNL A   1      31.475  23.678  24.375  1.00  0.00     0.089 C 
ATOM     23  C   UNL A   1      33.117  24.012  22.418  1.00  0.00     0.013 C 
ATOM     24  C   UNL A   1      32.436  23.007  23.352  1.00  0.00    -0.015 C 
ATOM     25  C   UNL A   1      31.800  21.901  22.485  1.00  0.00     0.013 C 
ATOM     26  C   UNL A   1      33.449  22.364  24.328  1.00  0.00     0.008 C 
ATOM     27  C   UNL A   1      32.630  21.948  25.562  1.00  0.00     0.003 C 
ATOM     28  C   UNL A   1      31.228  22.528  25.358  1.00  0.00     0.025 C 
ENDBRANCH  17  22
ENDBRANCH  10  16
ENDBRANCH   9  10
ENDBRANCH   7   9
ENDBRANCH   6   7
ENDBRANCH   5   6
ENDBRANCH   4   5
ENDBRANCH   3   4
ENDBRANCH   2   3
ENDBRANCH   1   2
BRANCH   1  29
ATOM     29  O   UNL A   1      34.354  34.537  27.887  1.00  0.00    -0.377 OA
BRANCH  29  30
ATOM     30  C   UNL A   1      33.199  34.476  28.706  1.00  0.00     0.188 C 
BRANCH  30  31
ATOM     31  C   UNL A   1      33.117  35.607  29.741  1.00  0.00     0.188 C 
BRANCH  31  32
ATOM     32  O   UNL A   1      33.111  35.111  31.066  1.00  0.00    -0.376 OA
BRANCH  32  33
ATOM     33  C   UNL A   1      34.274  34.637  31.712  1.00  0.00     0.202 C 
BRANCH  33  34
ATOM     34  C   UNL A   1      34.286  33.436  32.676  1.00  0.00     0.261 C 
BRANCH  34  35
ATOM     35  O   UNL A   1      35.151  32.339  32.378  1.00  0.00    -0.460 OA
BRANCH  35  36
ATOM     36  C   UNL A   1      36.298  32.240  33.078  1.00  0.00     0.338 C 
ATOM     37  O   UNL A   1      36.482  32.540  34.246  1.00  0.00    -0.246 OA
BRANCH  36  38
ATOM     38  C   UNL A   1      37.263  31.499  32.237  1.00  0.00     0.060 A 
ATOM     39  C   UNL A   1      38.221  30.695  32.868  1.00  0.00     0.016 A 
ATOM     40  C   UNL A   1      37.202  31.566  30.843  1.00  0.00     0.016 A 
ATOM     41  C   UNL A   1      39.139  29.974  32.107  1.00  0.00     0.010 A 
ATOM     42  C   UNL A   1      38.148  30.874  30.080  1.00  0.00     0.010 A 
ATOM     43  C   UNL A   1      39.139  30.103  30.714  1.00  0.00    -0.014 A 
BRANCH  43  44
ATOM     44  C   UNL A   1      40.321  29.636  29.953  1.00  0.00     0.031 A 
ATOM     45  C   UNL A   1      41.446  30.612  29.744  1.00  0.00     0.074 A 
ATOM     46  C   UNL A   1      40.417  28.375  29.503  1.00  0.00     0.049 A 
ATOM     47  N   UNL A   1      42.572  30.461  29.097  1.00  0.00    -0.248 NA
ATOM     48  C   UNL A   1      41.274  31.941  30.352  1.00  0.00     0.031 C 
ATOM     49  C   UNL A   1      39.416  27.329  29.696  1.00  0.00     0.029 A 
ATOM     50  N   UNL A   1      41.413  27.763  28.782  1.00  0.00    -0.354 N 
ATOM     51  C   UNL A   1      43.238  31.675  29.218  1.00  0.00     0.074 A 
ATOM     52  C   UNL A   1      42.379  32.560  29.971  1.00  0.00     0.031 C 
ATOM     53  C   UNL A   1      39.843  26.203  29.094  1.00  0.00     0.029 A 
ATOM     54  C   UNL A   1      41.129  26.462  28.449  1.00  0.00     0.049 A 
ATOM     55  H   UNL A   1      42.250  28.214  28.529  1.00  0.00     0.167 HD
ATOM     56  C   UNL A   1      44.461  32.014  28.750  1.00  0.00     0.037 A 
ATOM     57  C   UNL A   1      41.824  25.593  27.688  1.00  0.00     0.037 A 
ATOM     58  C   UNL A   1      45.305  31.130  27.994  1.00  0.00     0.049 A 
ATOM     59  C   UNL A   1      43.146  26.026  27.101  1.00  0.00     0.074 A 
ATOM     60  C   UNL A   1      46.564  31.371  27.476  1.00  0.00     0.029 A 
ATOM     61  N   UNL A   1      44.966  29.832  27.637  1.00  0.00    -0.354 N 
ATOM     62  N   UNL A   1      43.781  27.166  27.234  1.00  0.00    -0.248 NA
ATOM     63  C   UNL A   1      43.849  25.048  26.259  1.00  0.00     0.031 C 
ATOM     64  C   UNL A   1      46.961  30.242  26.753  1.00  0.00     0.029 A 
ATOM     65  C   UNL A   1      45.979  29.270  26.879  1.00  0.00     0.049 A 
ATOM     66  H   UNL A   1      44.129  29.378  27.887  1.00  0.00     0.167 HD
ATOM     67  C   UNL A   1      44.968  27.031  26.524  1.00  0.00     0.074 A 
ATOM     68  C   UNL A   1      44.971  25.693  25.973  1.00  0.00     0.031 C 
ATOM     69  C   UNL A   1      45.967  27.931  26.347  1.00  0.00     0.037 A 
BRANCH  56  70
ATOM     70  C   UNL A   1      44.935  33.414  29.009  1.00  0.00     0.064 A 
ATOM     71  C   UNL A   1      45.839  33.712  30.042  1.00  0.00     0.173 A 
ATOM     72  C   UNL A   1      44.493  34.472  28.200  1.00  0.00     0.173 A 
ATOM     73  F   UNL A   1      46.277  32.741  30.856  1.00  0.00    -0.203 F 
ATOM     74  C   UNL A   1      46.257  35.020  30.271  1.00  0.00     0.198 A 
ATOM     75  C   UNL A   1      44.940  35.774  28.411  1.00  0.00     0.198 A 
ATOM     76  F   UNL A   1      43.629  34.243  27.200  1.00  0.00    -0.203 F 
ATOM     77  F   UNL A   1      47.077  35.290  31.297  1.00  0.00    -0.200 F 
ATOM     78  C   UNL A   1      45.815  36.048  29.451  1.00  0.00     0.200 A 
ATOM     79  F   UNL A   1      44.520  36.762  27.610  1.00  0.00    -0.200 F 
ATOM     80  F   UNL A   1      46.224  37.306  29.669  1.00  0.00    -0.200 F 
ENDBRANCH  56  70
BRANCH  57  81
ATOM     81  C   UNL A   1      41.281  24.235  27.419  1.00  0.00     0.064 A 
ATOM     82  C   UNL A   1      40.177  24.047  26.575  1.00  0.00     0.173 A 
ATOM     83  C   UNL A   1      41.836  23.098  28.026  1.00  0.00     0.173 A 
ATOM     84  F   UNL A   1      39.591  25.104  25.993  1.00  0.00    -0.203 F 
ATOM     85  C   UNL A   1      39.637  22.779  26.366  1.00  0.00     0.198 A 
ATOM     86  C   UNL A   1      41.315  21.826  27.791  1.00  0.00     0.198 A 
ATOM     87  F   UNL A   1      42.890  23.220  28.847  1.00  0.00    -0.203 F 
ATOM     88  F   UNL A   1      38.548  22.635  25.598  1.00  0.00    -0.200 F 
ATOM     89  C   UNL A   1      40.210  21.669  26.969  1.00  0.00     0.200 A 
ATOM     90  F   UNL A   1      41.880  20.756  28.366  1.00  0.00    -0.200 F 
ATOM     91  F   UNL A   1      39.691  20.450  26.766  1.00  0.00    -0.200 F 
ENDBRANCH  57  81
BRANCH  69  92
ATOM     92  C   UNL A   1      47.169  27.487  25.562  1.00  0.00     0.064 A 
ATOM     93  C   UNL A   1      47.265  27.685  24.177  1.00  0.00     0.173 A 
ATOM     94  C   UNL A   1      48.263  26.900  26.216  1.00  0.00     0.173 A 
ATOM     95  F   UNL A   1      46.243  28.232  23.500  1.00  0.00    -0.203 F 
ATOM     96  C   UNL A   1      48.398  27.285  23.472  1.00  0.00     0.198 A 
ATOM     97  C   UNL A   1      49.409  26.534  25.515  1.00  0.00     0.198 A 
ATOM     98  F   UNL A   1      48.230  26.697  27.542  1.00  0.00    -0.203 F 
ATOM     99  F   UNL A   1      48.444  27.436  22.142  1.00  0.00    -0.200 F 
ATOM    100  C   UNL A   1      49.472  26.718  24.143  1.00  0.00     0.200 A 
ATOM    101  F   UNL A   1      50.452  26.004  26.168  1.00  0.00    -0.200 F 
ATOM    102  F   UNL A   1      50.564  26.343  23.465  1.00  0.00    -0.200 F 
ENDBRANCH  69  92
ENDBRANCH  43  44
ENDBRANCH  36  38
ENDBRANCH  35  36
ENDBRANCH  34  35
ENDBRANCH  33  34
ENDBRANCH  32  33
ENDBRANCH  31  32
ENDBRANCH  30  31
ENDBRANCH  29  30
ENDBRANCH   1  29
TORSDOF 23
ENDMDL
