MODEL 1
REMARK VINA RESULT:     -10.4      0.000      0.000
REMARK SMILES Cc1ccc(Cl)c(Nc2ccccc2C(=O)OCCOCCOCCOCCOC(=O)c2ccc(-c3c4nc(c(-c5c(F)c(F)c(F)c(F)c5F)c5ccc([nH]5)c(-c5c(F)c(F)c(F)c(F)c5F)c5nc(c(-c6c(F)c(F)c(F)c(F)c6F)c6ccc3[nH]6)C=C5)C=C4)cc2)c1Cl
REMARK SMILES IDX 23 1 22 2 21 3 20 4 19 5 18 6 17 7 15 8 16 9 14 10 9 11
REMARK SMILES IDX 10 12 11 13 13 14 12 15 8 16 7 18 1 19 2 20 3 21 95 22 4 23
REMARK SMILES IDX 96 24 5 25 6 26 24 27 25 28 26 29 27 30 28 31 29 32 30 33
REMARK SMILES IDX 31 34 32 35 33 36 94 37 34 38 93 39 35 40 36 41 37 42 87 43
REMARK SMILES IDX 38 44 92 45 86 46 88 47 39 48 91 49 85 50 84 51 40 53 72 54
REMARK SMILES IDX 52 55 71 56 53 57 56 58 70 59 89 60 54 61 55 62 69 64 90 65
REMARK SMILES IDX 57 66 41 67 42 68 50 69 43 70 44 71 48 72 51 73 45 74 46 75
REMARK SMILES IDX 49 76 47 77 73 78 74 79 82 80 75 81 76 82 80 83 83 84 77 85
REMARK SMILES IDX 78 86 81 87 79 88 58 89 59 90 67 91 60 92 61 93 65 94 68 95
REMARK SMILES IDX 62 96 63 97 66 98 64 99
REMARK H PARENT 8 17 88 52 56 63
REMARK Flexibility Score: inf
ROOT
ATOM      1  O   UNL A   1      39.647  19.154  25.665  1.00  0.00    -0.377 OA
ENDROOT
BRANCH   1   2
ATOM      2  C   UNL A   1      38.454  19.738  25.166  1.00  0.00     0.188 C 
BRANCH   2   3
ATOM      3  C   UNL A   1      38.327  21.278  25.138  1.00  0.00     0.188 C 
BRANCH   3   4
ATOM      4  O   UNL A   1      37.409  21.811  26.071  1.00  0.00    -0.376 OA
BRANCH   4   5
ATOM      5  C   UNL A   1      36.116  22.215  25.674  1.00  0.00     0.202 C 
BRANCH   5   6
ATOM      6  C   UNL A   1      35.072  21.243  25.114  1.00  0.00     0.261 C 
BRANCH   6   7
ATOM      7  O   UNL A   1      33.811  21.198  25.777  1.00  0.00    -0.460 OA
BRANCH   7   8
ATOM      8  C   UNL A   1      32.708  21.359  25.014  1.00  0.00     0.340 C 
ATOM      9  O   UNL A   1      32.354  20.618  24.110  1.00  0.00    -0.246 OA
BRANCH   8  10
ATOM     10  C   UNL A   1      31.874  22.459  25.570  1.00  0.00     0.083 A 
ATOM     11  C   UNL A   1      32.264  23.816  25.668  1.00  0.00     0.053 A 
ATOM     12  C   UNL A   1      31.369  24.699  26.308  1.00  0.00     0.027 A 
ATOM     13  C   UNL A   1      30.146  24.263  26.830  1.00  0.00     0.002 A 
ATOM     14  C   UNL A   1      30.637  22.032  26.095  1.00  0.00     0.018 A 
ATOM     15  C   UNL A   1      29.781  22.928  26.726  1.00  0.00     0.001 A 
BRANCH  11  16
ATOM     16  N   UNL A   1      33.426  24.408  25.118  1.00  0.00    -0.352 N 
ATOM     17  H   UNL A   1      34.270  24.010  25.433  1.00  0.00     0.167 HD
BRANCH  16  18
ATOM     18  C   UNL A   1      33.592  25.470  24.194  1.00  0.00     0.077 A 
ATOM     19  C   UNL A   1      33.042  29.246  24.110  1.00  0.00     0.046 C 
ATOM     20  C   UNL A   1      33.393  27.854  23.655  1.00  0.00    -0.030 A 
ATOM     21  C   UNL A   1      33.299  27.536  22.294  1.00  0.00     0.006 A 
ATOM     22  C   UNL A   1      33.647  26.826  24.582  1.00  0.00     0.069 A 
ATOM     23  C   UNL A   1      33.420  26.215  21.868  1.00  0.00     0.023 A 
ATOM     24  Cl  UNL A   1      34.084  27.254  26.214  1.00  0.00    -0.082 Cl
ATOM     25  C   UNL A   1      33.527  25.192  22.811  1.00  0.00     0.066 A 
ATOM     26  Cl  UNL A   1      33.524  23.560  22.228  1.00  0.00    -0.082 Cl
ENDBRANCH  16  18
ENDBRANCH  11  16
ENDBRANCH   8  10
ENDBRANCH   7   8
ENDBRANCH   6   7
ENDBRANCH   5   6
ENDBRANCH   4   5
ENDBRANCH   3   4
ENDBRANCH   2   3
ENDBRANCH   1   2
BRANCH   1  27
ATOM     27  C   UNL A   1      40.703  19.974  26.154  1.00  0.00     0.188 C 
BRANCH  27  28
ATOM     28  C   UNL A   1      41.781  19.450  27.132  1.00  0.00     0.188 C 
BRANCH  28  29
ATOM     29  O   UNL A   1      43.045  19.195  26.549  1.00  0.00    -0.376 OA
BRANCH  29  30
ATOM     30  C   UNL A   1      43.394  19.873  25.358  1.00  0.00     0.202 C 
BRANCH  30  31
ATOM     31  C   UNL A   1      44.195  21.175  25.493  1.00  0.00     0.261 C 
BRANCH  31  32
ATOM     32  O   UNL A   1      43.482  22.307  26.011  1.00  0.00    -0.460 OA
BRANCH  32  33
ATOM     33  C   UNL A   1      43.715  23.502  25.432  1.00  0.00     0.338 C 
ATOM     34  O   UNL A   1      44.196  23.714  24.330  1.00  0.00    -0.246 OA
BRANCH  33  35
ATOM     35  C   UNL A   1      43.112  24.534  26.297  1.00  0.00     0.060 A 
ATOM     36  C   UNL A   1      43.675  25.817  26.328  1.00  0.00     0.016 A 
ATOM     37  C   UNL A   1      41.983  24.235  27.061  1.00  0.00     0.016 A 
ATOM     38  C   UNL A   1      43.126  26.799  27.151  1.00  0.00     0.010 A 
ATOM     39  C   UNL A   1      41.448  25.211  27.903  1.00  0.00     0.010 A 
ATOM     40  C   UNL A   1      42.037  26.486  27.976  1.00  0.00    -0.014 A 
BRANCH  40  41
ATOM     41  C   UNL A   1      41.639  27.421  29.054  1.00  0.00     0.031 A 
ATOM     42  C   UNL A   1      42.423  27.405  30.335  1.00  0.00     0.074 A 
ATOM     43  C   UNL A   1      40.608  28.268  28.900  1.00  0.00     0.049 A 
ATOM     44  N   UNL A   1      42.230  28.078  31.441  1.00  0.00    -0.248 NA
ATOM     45  C   UNL A   1      43.582  26.499  30.375  1.00  0.00     0.031 C 
ATOM     46  C   UNL A   1      39.795  28.396  27.693  1.00  0.00     0.029 A 
ATOM     47  N   UNL A   1      40.060  29.169  29.777  1.00  0.00    -0.354 N 
ATOM     48  C   UNL A   1      43.232  27.665  32.310  1.00  0.00     0.074 A 
ATOM     49  C   UNL A   1      44.011  26.664  31.616  1.00  0.00     0.031 C 
ATOM     50  C   UNL A   1      38.837  29.313  27.912  1.00  0.00     0.029 A 
ATOM     51  C   UNL A   1      38.948  29.806  29.286  1.00  0.00     0.049 A 
ATOM     52  H   UNL A   1      40.430  29.343  30.673  1.00  0.00     0.167 HD
ATOM     53  C   UNL A   1      43.479  28.087  33.572  1.00  0.00     0.037 A 
ATOM     54  C   UNL A   1      38.101  30.662  29.890  1.00  0.00     0.037 A 
ATOM     55  C   UNL A   1      42.694  29.080  34.258  1.00  0.00     0.049 A 
ATOM     56  C   UNL A   1      38.355  31.068  31.320  1.00  0.00     0.074 A 
ATOM     57  C   UNL A   1      42.881  29.604  35.524  1.00  0.00     0.029 A 
ATOM     58  N   UNL A   1      41.559  29.686  33.737  1.00  0.00    -0.354 N 
ATOM     59  N   UNL A   1      39.324  30.706  32.126  1.00  0.00    -0.248 NA
ATOM     60  C   UNL A   1      37.396  32.005  31.923  1.00  0.00     0.031 C 
ATOM     61  C   UNL A   1      41.818  30.471  35.798  1.00  0.00     0.029 A 
ATOM     62  C   UNL A   1      41.010  30.548  34.674  1.00  0.00     0.049 A 
ATOM     63  H   UNL A   1      41.196  29.527  32.836  1.00  0.00     0.167 HD
ATOM     64  C   UNL A   1      39.108  31.386  33.318  1.00  0.00     0.074 A 
ATOM     65  C   UNL A   1      37.924  32.197  33.124  1.00  0.00     0.031 C 
ATOM     66  C   UNL A   1      39.827  31.346  34.469  1.00  0.00     0.037 A 
BRANCH  53  67
ATOM     67  C   UNL A   1      44.617  27.438  34.307  1.00  0.00     0.064 A 
ATOM     68  C   UNL A   1      45.911  27.982  34.312  1.00  0.00     0.173 A 
ATOM     69  C   UNL A   1      44.406  26.250  35.025  1.00  0.00     0.173 A 
ATOM     70  F   UNL A   1      46.172  29.108  33.631  1.00  0.00    -0.203 F 
ATOM     71  C   UNL A   1      46.957  27.343  34.973  1.00  0.00     0.198 A 
ATOM     72  C   UNL A   1      45.445  25.633  35.715  1.00  0.00     0.198 A 
ATOM     73  F   UNL A   1      43.190  25.685  35.058  1.00  0.00    -0.203 F 
ATOM     74  F   UNL A   1      48.196  27.848  34.910  1.00  0.00    -0.200 F 
ATOM     75  C   UNL A   1      46.722  26.172  35.680  1.00  0.00     0.200 A 
ATOM     76  F   UNL A   1      45.213  24.510  36.410  1.00  0.00    -0.200 F 
ATOM     77  F   UNL A   1      47.728  25.559  36.318  1.00  0.00    -0.200 F 
ENDBRANCH  53  67
BRANCH  54  78
ATOM     78  C   UNL A   1      36.923  31.179  29.145  1.00  0.00     0.064 A 
ATOM     79  C   UNL A   1      35.820  30.359  28.873  1.00  0.00     0.173 A 
ATOM     80  C   UNL A   1      36.876  32.507  28.694  1.00  0.00     0.173 A 
ATOM     81  F   UNL A   1      35.827  29.075  29.260  1.00  0.00    -0.203 F 
ATOM     82  C   UNL A   1      34.719  30.845  28.170  1.00  0.00     0.198 A 
ATOM     83  C   UNL A   1      35.761  33.000  28.019  1.00  0.00     0.198 A 
ATOM     84  F   UNL A   1      37.906  33.332  28.926  1.00  0.00    -0.203 F 
ATOM     85  F   UNL A   1      33.693  30.029  27.890  1.00  0.00    -0.200 F 
ATOM     86  C   UNL A   1      34.685  32.166  27.753  1.00  0.00     0.200 A 
ATOM     87  F   UNL A   1      35.727  34.282  27.633  1.00  0.00    -0.200 F 
ATOM     88  F   UNL A   1      33.619  32.637  27.091  1.00  0.00    -0.200 F 
ENDBRANCH  54  78
BRANCH  66  89
ATOM     89  C   UNL A   1      39.374  32.226  35.602  1.00  0.00     0.064 A 
ATOM     90  C   UNL A   1      38.510  31.760  36.603  1.00  0.00     0.173 A 
ATOM     91  C   UNL A   1      39.849  33.543  35.710  1.00  0.00     0.173 A 
ATOM     92  F   UNL A   1      38.016  30.514  36.542  1.00  0.00    -0.203 F 
ATOM     93  C   UNL A   1      38.117  32.587  37.653  1.00  0.00     0.198 A 
ATOM     94  C   UNL A   1      39.484  34.354  36.781  1.00  0.00     0.198 A 
ATOM     95  F   UNL A   1      40.686  34.039  34.785  1.00  0.00    -0.203 F 
ATOM     96  F   UNL A   1      37.248  32.136  38.568  1.00  0.00    -0.200 F 
ATOM     97  C   UNL A   1      38.610  33.879  37.745  1.00  0.00     0.200 A 
ATOM     98  F   UNL A   1      39.978  35.597  36.877  1.00  0.00    -0.200 F 
ATOM     99  F   UNL A   1      38.239  34.670  38.762  1.00  0.00    -0.200 F 
ENDBRANCH  66  89
ENDBRANCH  40  41
ENDBRANCH  33  35
ENDBRANCH  32  33
ENDBRANCH  31  32
ENDBRANCH  30  31
ENDBRANCH  29  30
ENDBRANCH  28  29
ENDBRANCH  27  28
ENDBRANCH   1  27
TORSDOF 22
ENDMDL
MODEL 2
REMARK VINA RESULT:     -10.2      4.951      7.208
REMARK SMILES Cc1ccc(Cl)c(Nc2ccccc2C(=O)OCCOCCOCCOCCOC(=O)c2ccc(-c3c4nc(c(-c5c(F)c(F)c(F)c(F)c5F)c5ccc([nH]5)c(-c5c(F)c(F)c(F)c(F)c5F)c5nc(c(-c6c(F)c(F)c(F)c(F)c6F)c6ccc3[nH]6)C=C5)C=C4)cc2)c1Cl
REMARK SMILES IDX 23 1 22 2 21 3 20 4 19 5 18 6 17 7 15 8 16 9 14 10 9 11
REMARK SMILES IDX 10 12 11 13 13 14 12 15 8 16 7 18 1 19 2 20 3 21 95 22 4 23
REMARK SMILES IDX 96 24 5 25 6 26 24 27 25 28 26 29 27 30 28 31 29 32 30 33
REMARK SMILES IDX 31 34 32 35 33 36 94 37 34 38 93 39 35 40 36 41 37 42 87 43
REMARK SMILES IDX 38 44 92 45 86 46 88 47 39 48 91 49 85 50 84 51 40 53 72 54
REMARK SMILES IDX 52 55 71 56 53 57 56 58 70 59 89 60 54 61 55 62 69 64 90 65
REMARK SMILES IDX 57 66 41 67 42 68 50 69 43 70 44 71 48 72 51 73 45 74 46 75
REMARK SMILES IDX 49 76 47 77 73 78 74 79 82 80 75 81 76 82 80 83 83 84 77 85
REMARK SMILES IDX 78 86 81 87 79 88 58 89 59 90 67 91 60 92 61 93 65 94 68 95
REMARK SMILES IDX 62 96 63 97 66 98 64 99
REMARK H PARENT 8 17 88 52 56 63
REMARK Flexibility Score: inf
ROOT
ATOM      1  O   UNL A   1      39.463  22.933  26.508  1.00  0.00    -0.377 OA
ENDROOT
BRANCH   1   2
ATOM      2  C   UNL A   1      38.125  22.962  26.035  1.00  0.00     0.188 C 
BRANCH   2   3
ATOM      3  C   UNL A   1      37.601  21.774  25.196  1.00  0.00     0.188 C 
BRANCH   3   4
ATOM      4  O   UNL A   1      36.457  21.136  25.728  1.00  0.00    -0.376 OA
BRANCH   4   5
ATOM      5  C   UNL A   1      35.320  21.877  26.114  1.00  0.00     0.202 C 
BRANCH   5   6
ATOM      6  C   UNL A   1      34.710  22.985  25.247  1.00  0.00     0.261 C 
BRANCH   6   7
ATOM      7  O   UNL A   1      33.298  23.157  25.322  1.00  0.00    -0.460 OA
BRANCH   7   8
ATOM      8  C   UNL A   1      32.565  22.690  24.286  1.00  0.00     0.340 C 
ATOM      9  O   UNL A   1      31.851  21.700  24.310  1.00  0.00    -0.246 OA
BRANCH   8  10
ATOM     10  C   UNL A   1      32.593  23.676  23.172  1.00  0.00     0.083 A 
ATOM     11  C   UNL A   1      31.972  24.948  23.185  1.00  0.00     0.053 A 
ATOM     12  C   UNL A   1      32.033  25.706  21.997  1.00  0.00     0.027 A 
ATOM     13  C   UNL A   1      32.674  25.232  20.848  1.00  0.00     0.002 A 
ATOM     14  C   UNL A   1      33.241  23.210  22.010  1.00  0.00     0.018 A 
ATOM     15  C   UNL A   1      33.277  23.981  20.853  1.00  0.00     0.001 A 
BRANCH  11  16
ATOM     16  N   UNL A   1      31.362  25.584  24.292  1.00  0.00    -0.352 N 
ATOM     17  H   UNL A   1      30.948  24.964  24.937  1.00  0.00     0.167 HD
BRANCH  16  18
ATOM     18  C   UNL A   1      31.240  26.953  24.640  1.00  0.00     0.077 A 
ATOM     19  C   UNL A   1      29.528  30.071  23.258  1.00  0.00     0.046 C 
ATOM     20  C   UNL A   1      30.367  29.191  24.144  1.00  0.00    -0.030 A 
ATOM     21  C   UNL A   1      31.420  29.760  24.872  1.00  0.00     0.006 A 
ATOM     22  C   UNL A   1      30.227  27.790  24.125  1.00  0.00     0.069 A 
ATOM     23  C   UNL A   1      32.336  28.949  25.540  1.00  0.00     0.023 A 
ATOM     24  Cl  UNL A   1      28.753  27.101  23.502  1.00  0.00    -0.082 Cl
ATOM     25  C   UNL A   1      32.267  27.563  25.393  1.00  0.00     0.066 A 
ATOM     26  Cl  UNL A   1      33.521  26.616  26.124  1.00  0.00    -0.082 Cl
ENDBRANCH  16  18
ENDBRANCH  11  16
ENDBRANCH   8  10
ENDBRANCH   7   8
ENDBRANCH   6   7
ENDBRANCH   5   6
ENDBRANCH   4   5
ENDBRANCH   3   4
ENDBRANCH   2   3
ENDBRANCH   1   2
BRANCH   1  27
ATOM     27  C   UNL A   1      40.083  21.696  26.844  1.00  0.00     0.188 C 
BRANCH  27  28
ATOM     28  C   UNL A   1      41.552  21.375  26.476  1.00  0.00     0.188 C 
BRANCH  28  29
ATOM     29  O   UNL A   1      41.725  20.257  25.626  1.00  0.00    -0.376 OA
BRANCH  29  30
ATOM     30  C   UNL A   1      42.217  19.052  26.178  1.00  0.00     0.202 C 
BRANCH  30  31
ATOM     31  C   UNL A   1      43.486  18.454  25.556  1.00  0.00     0.261 C 
BRANCH  31  32
ATOM     32  O   UNL A   1      43.884  18.992  24.287  1.00  0.00    -0.460 OA
BRANCH  32  33
ATOM     33  C   UNL A   1      45.098  19.575  24.216  1.00  0.00     0.338 C 
ATOM     34  O   UNL A   1      46.107  19.130  23.691  1.00  0.00    -0.246 OA
BRANCH  33  35
ATOM     35  C   UNL A   1      44.957  20.950  24.733  1.00  0.00     0.060 A 
ATOM     36  C   UNL A   1      44.481  21.957  23.882  1.00  0.00     0.016 A 
ATOM     37  C   UNL A   1      45.280  21.235  26.060  1.00  0.00     0.016 A 
ATOM     38  C   UNL A   1      44.356  23.263  24.352  1.00  0.00     0.010 A 
ATOM     39  C   UNL A   1      45.177  22.547  26.524  1.00  0.00     0.010 A 
ATOM     40  C   UNL A   1      44.747  23.572  25.662  1.00  0.00    -0.014 A 
BRANCH  40  41
ATOM     41  C   UNL A   1      44.894  24.988  26.071  1.00  0.00     0.031 A 
ATOM     42  C   UNL A   1      46.251  25.623  25.960  1.00  0.00     0.074 A 
ATOM     43  C   UNL A   1      43.847  25.697  26.526  1.00  0.00     0.049 A 
ATOM     44  N   UNL A   1      46.644  26.820  26.314  1.00  0.00    -0.248 NA
ATOM     45  C   UNL A   1      47.312  24.788  25.376  1.00  0.00     0.031 C 
ATOM     46  C   UNL A   1      42.480  25.199  26.647  1.00  0.00     0.029 A 
ATOM     47  N   UNL A   1      43.783  26.987  26.988  1.00  0.00    -0.354 N 
ATOM     48  C   UNL A   1      47.998  26.874  26.010  1.00  0.00     0.074 A 
ATOM     49  C   UNL A   1      48.365  25.584  25.471  1.00  0.00     0.031 C 
ATOM     50  C   UNL A   1      41.711  26.170  27.169  1.00  0.00     0.029 A 
ATOM     51  C   UNL A   1      42.541  27.341  27.453  1.00  0.00     0.049 A 
ATOM     52  H   UNL A   1      44.553  27.601  26.987  1.00  0.00     0.167 HD
ATOM     53  C   UNL A   1      48.855  27.911  26.163  1.00  0.00     0.037 A 
ATOM     54  C   UNL A   1      42.134  28.470  28.066  1.00  0.00     0.037 A 
ATOM     55  C   UNL A   1      48.483  29.191  26.706  1.00  0.00     0.049 A 
ATOM     56  C   UNL A   1      43.121  29.587  28.290  1.00  0.00     0.074 A 
ATOM     57  C   UNL A   1      49.265  30.319  26.871  1.00  0.00     0.029 A 
ATOM     58  N   UNL A   1      47.220  29.506  27.189  1.00  0.00    -0.354 N 
ATOM     59  N   UNL A   1      44.391  29.651  27.966  1.00  0.00    -0.248 NA
ATOM     60  C   UNL A   1      42.616  30.792  28.963  1.00  0.00     0.031 C 
ATOM     61  C   UNL A   1      48.498  31.291  27.521  1.00  0.00     0.029 A 
ATOM     62  C   UNL A   1      47.214  30.797  27.692  1.00  0.00     0.049 A 
ATOM     63  H   UNL A   1      46.443  28.901  27.177  1.00  0.00     0.167 HD
ATOM     64  C   UNL A   1      44.829  30.905  28.371  1.00  0.00     0.074 A 
ATOM     65  C   UNL A   1      43.684  31.578  28.950  1.00  0.00     0.031 C 
ATOM     66  C   UNL A   1      46.067  31.453  28.270  1.00  0.00     0.037 A 
BRANCH  53  67
ATOM     67  C   UNL A   1      50.291  27.682  25.782  1.00  0.00     0.064 A 
ATOM     68  C   UNL A   1      50.732  27.757  24.452  1.00  0.00     0.173 A 
ATOM     69  C   UNL A   1      51.243  27.389  26.771  1.00  0.00     0.173 A 
ATOM     70  F   UNL A   1      49.861  28.019  23.466  1.00  0.00    -0.203 F 
ATOM     71  C   UNL A   1      52.061  27.507  24.121  1.00  0.00     0.198 A 
ATOM     72  C   UNL A   1      52.579  27.176  26.441  1.00  0.00     0.198 A 
ATOM     73  F   UNL A   1      50.880  27.308  28.059  1.00  0.00    -0.203 F 
ATOM     74  F   UNL A   1      52.445  27.521  22.838  1.00  0.00    -0.200 F 
ATOM     75  C   UNL A   1      52.985  27.224  25.116  1.00  0.00     0.200 A 
ATOM     76  F   UNL A   1      53.473  26.918  27.407  1.00  0.00    -0.200 F 
ATOM     77  F   UNL A   1      54.265  26.986  24.798  1.00  0.00    -0.200 F 
ENDBRANCH  53  67
BRANCH  54  78
ATOM     78  C   UNL A   1      40.725  28.588  28.527  1.00  0.00     0.064 A 
ATOM     79  C   UNL A   1      40.363  28.273  29.844  1.00  0.00     0.173 A 
ATOM     80  C   UNL A   1      39.713  29.026  27.660  1.00  0.00     0.173 A 
ATOM     81  F   UNL A   1      41.290  27.826  30.704  1.00  0.00    -0.203 F 
ATOM     82  C   UNL A   1      39.041  28.380  30.271  1.00  0.00     0.198 A 
ATOM     83  C   UNL A   1      38.398  29.163  28.097  1.00  0.00     0.198 A 
ATOM     84  F   UNL A   1      40.005  29.337  26.389  1.00  0.00    -0.203 F 
ATOM     85  F   UNL A   1      38.716  28.036  31.525  1.00  0.00    -0.200 F 
ATOM     86  C   UNL A   1      38.062  28.834  29.402  1.00  0.00     0.200 A 
ATOM     87  F   UNL A   1      37.458  29.618  27.258  1.00  0.00    -0.200 F 
ATOM     88  F   UNL A   1      36.793  28.953  29.819  1.00  0.00    -0.200 F 
ENDBRANCH  54  78
BRANCH  66  89
ATOM     89  C   UNL A   1      46.246  32.861  28.768  1.00  0.00     0.064 A 
ATOM     90  C   UNL A   1      46.017  33.974  27.946  1.00  0.00     0.173 A 
ATOM     91  C   UNL A   1      46.609  33.100  30.104  1.00  0.00     0.173 A 
ATOM     92  F   UNL A   1      45.681  33.804  26.658  1.00  0.00    -0.203 F 
ATOM     93  C   UNL A   1      46.172  35.269  28.433  1.00  0.00     0.198 A 
ATOM     94  C   UNL A   1      46.726  34.396  30.597  1.00  0.00     0.198 A 
ATOM     95  F   UNL A   1      46.831  32.073  30.938  1.00  0.00    -0.203 F 
ATOM     96  F   UNL A   1      46.000  36.316  27.613  1.00  0.00    -0.200 F 
ATOM     97  C   UNL A   1      46.517  35.480  29.759  1.00  0.00     0.200 A 
ATOM     98  F   UNL A   1      47.041  34.596  31.884  1.00  0.00    -0.200 F 
ATOM     99  F   UNL A   1      46.656  36.728  30.228  1.00  0.00    -0.200 F 
ENDBRANCH  66  89
ENDBRANCH  40  41
ENDBRANCH  33  35
ENDBRANCH  32  33
ENDBRANCH  31  32
ENDBRANCH  30  31
ENDBRANCH  29  30
ENDBRANCH  28  29
ENDBRANCH  27  28
ENDBRANCH   1  27
TORSDOF 22
ENDMDL
MODEL 3
REMARK VINA RESULT:     -10.1      1.089      2.368
REMARK SMILES Cc1ccc(Cl)c(Nc2ccccc2C(=O)OCCOCCOCCOCCOC(=O)c2ccc(-c3c4nc(c(-c5c(F)c(F)c(F)c(F)c5F)c5ccc([nH]5)c(-c5c(F)c(F)c(F)c(F)c5F)c5nc(c(-c6c(F)c(F)c(F)c(F)c6F)c6ccc3[nH]6)C=C5)C=C4)cc2)c1Cl
REMARK SMILES IDX 23 1 22 2 21 3 20 4 19 5 18 6 17 7 15 8 16 9 14 10 9 11
REMARK SMILES IDX 10 12 11 13 13 14 12 15 8 16 7 18 1 19 2 20 3 21 95 22 4 23
REMARK SMILES IDX 96 24 5 25 6 26 24 27 25 28 26 29 27 30 28 31 29 32 30 33
REMARK SMILES IDX 31 34 32 35 33 36 94 37 34 38 93 39 35 40 36 41 37 42 87 43
REMARK SMILES IDX 38 44 92 45 86 46 88 47 39 48 91 49 85 50 84 51 40 53 72 54
REMARK SMILES IDX 52 55 71 56 53 57 56 58 70 59 89 60 54 61 55 62 69 64 90 65
REMARK SMILES IDX 57 66 41 67 42 68 50 69 43 70 44 71 48 72 51 73 45 74 46 75
REMARK SMILES IDX 49 76 47 77 73 78 74 79 82 80 75 81 76 82 80 83 83 84 77 85
REMARK SMILES IDX 78 86 81 87 79 88 58 89 59 90 67 91 60 92 61 93 65 94 68 95
REMARK SMILES IDX 62 96 63 97 66 98 64 99
REMARK H PARENT 8 17 88 52 56 63
REMARK Flexibility Score: inf
ROOT
ATOM      1  O   UNL A   1      39.430  19.755  25.699  1.00  0.00    -0.377 OA
ENDROOT
BRANCH   1   2
ATOM      2  C   UNL A   1      38.405  20.590  25.182  1.00  0.00     0.188 C 
BRANCH   2   3
ATOM      3  C   UNL A   1      38.189  21.987  25.808  1.00  0.00     0.188 C 
BRANCH   3   4
ATOM      4  O   UNL A   1      36.893  22.521  25.625  1.00  0.00    -0.376 OA
BRANCH   4   5
ATOM      5  C   UNL A   1      36.125  22.200  24.486  1.00  0.00     0.202 C 
BRANCH   5   6
ATOM      6  C   UNL A   1      34.782  21.464  24.564  1.00  0.00     0.261 C 
BRANCH   6   7
ATOM      7  O   UNL A   1      33.716  22.136  25.228  1.00  0.00    -0.460 OA
BRANCH   7   8
ATOM      8  C   UNL A   1      33.016  23.041  24.509  1.00  0.00     0.340 C 
ATOM      9  O   UNL A   1      33.260  23.381  23.362  1.00  0.00    -0.246 OA
BRANCH   8  10
ATOM     10  C   UNL A   1      31.778  23.413  25.247  1.00  0.00     0.083 A 
ATOM     11  C   UNL A   1      31.191  24.700  25.270  1.00  0.00     0.053 A 
ATOM     12  C   UNL A   1      30.065  24.880  26.101  1.00  0.00     0.027 A 
ATOM     13  C   UNL A   1      29.544  23.839  26.878  1.00  0.00     0.002 A 
ATOM     14  C   UNL A   1      31.242  22.370  26.030  1.00  0.00     0.018 A 
ATOM     15  C   UNL A   1      30.135  22.584  26.844  1.00  0.00     0.001 A 
BRANCH  11  16
ATOM     16  N   UNL A   1      31.559  25.816  24.480  1.00  0.00    -0.352 N 
ATOM     17  H   UNL A   1      32.067  25.586  23.668  1.00  0.00     0.167 HD
BRANCH  16  18
ATOM     18  C   UNL A   1      31.328  27.204  24.649  1.00  0.00     0.077 A 
ATOM     19  C   UNL A   1      29.393  29.976  22.878  1.00  0.00     0.046 C 
ATOM     20  C   UNL A   1      30.289  29.285  23.870  1.00  0.00    -0.030 A 
ATOM     21  C   UNL A   1      31.288  30.023  24.519  1.00  0.00     0.006 A 
ATOM     22  C   UNL A   1      30.258  27.886  24.031  1.00  0.00     0.069 A 
ATOM     23  C   UNL A   1      32.256  29.378  25.285  1.00  0.00     0.023 A 
ATOM     24  Cl  UNL A   1      28.848  27.010  23.501  1.00  0.00    -0.082 Cl
ATOM     25  C   UNL A   1      32.297  27.984  25.318  1.00  0.00     0.066 A 
ATOM     26  Cl  UNL A   1      33.613  27.239  26.164  1.00  0.00    -0.082 Cl
ENDBRANCH  16  18
ENDBRANCH  11  16
ENDBRANCH   8  10
ENDBRANCH   7   8
ENDBRANCH   6   7
ENDBRANCH   5   6
ENDBRANCH   4   5
ENDBRANCH   3   4
ENDBRANCH   2   3
ENDBRANCH   1   2
BRANCH   1  27
ATOM     27  C   UNL A   1      40.668  20.312  26.127  1.00  0.00     0.188 C 
BRANCH  27  28
ATOM     28  C   UNL A   1      41.625  19.571  27.091  1.00  0.00     0.188 C 
BRANCH  28  29
ATOM     29  O   UNL A   1      42.839  19.134  26.510  1.00  0.00    -0.376 OA
BRANCH  29  30
ATOM     30  C   UNL A   1      43.323  19.800  25.361  1.00  0.00     0.202 C 
BRANCH  30  31
ATOM     31  C   UNL A   1      44.300  20.964  25.574  1.00  0.00     0.261 C 
BRANCH  31  32
ATOM     32  O   UNL A   1      43.767  22.129  26.219  1.00  0.00    -0.460 OA
BRANCH  32  33
ATOM     33  C   UNL A   1      43.712  23.266  25.495  1.00  0.00     0.338 C 
ATOM     34  O   UNL A   1      43.950  23.402  24.306  1.00  0.00    -0.246 OA
BRANCH  33  35
ATOM     35  C   UNL A   1      43.130  24.310  26.360  1.00  0.00     0.060 A 
ATOM     36  C   UNL A   1      43.729  25.576  26.405  1.00  0.00     0.016 A 
ATOM     37  C   UNL A   1      41.984  24.039  27.110  1.00  0.00     0.016 A 
ATOM     38  C   UNL A   1      43.199  26.568  27.228  1.00  0.00     0.010 A 
ATOM     39  C   UNL A   1      41.468  25.025  27.952  1.00  0.00     0.010 A 
ATOM     40  C   UNL A   1      42.093  26.282  28.039  1.00  0.00    -0.014 A 
BRANCH  40  41
ATOM     41  C   UNL A   1      41.709  27.222  29.118  1.00  0.00     0.031 A 
ATOM     42  C   UNL A   1      42.499  27.199  30.396  1.00  0.00     0.074 A 
ATOM     43  C   UNL A   1      40.686  28.080  28.967  1.00  0.00     0.049 A 
ATOM     44  N   UNL A   1      42.318  27.874  31.502  1.00  0.00    -0.248 NA
ATOM     45  C   UNL A   1      43.648  26.280  30.431  1.00  0.00     0.031 C 
ATOM     46  C   UNL A   1      39.870  28.216  27.764  1.00  0.00     0.029 A 
ATOM     47  N   UNL A   1      40.153  28.987  29.847  1.00  0.00    -0.354 N 
ATOM     48  C   UNL A   1      43.318  27.451  32.367  1.00  0.00     0.074 A 
ATOM     49  C   UNL A   1      44.084  26.441  31.670  1.00  0.00     0.031 C 
ATOM     50  C   UNL A   1      38.923  29.144  27.987  1.00  0.00     0.029 A 
ATOM     51  C   UNL A   1      39.046  29.636  29.360  1.00  0.00     0.049 A 
ATOM     52  H   UNL A   1      40.528  29.158  30.741  1.00  0.00     0.167 HD
ATOM     53  C   UNL A   1      43.575  27.871  33.628  1.00  0.00     0.037 A 
ATOM     54  C   UNL A   1      38.210  30.502  29.967  1.00  0.00     0.037 A 
ATOM     55  C   UNL A   1      42.804  28.872  34.317  1.00  0.00     0.049 A 
ATOM     56  C   UNL A   1      38.475  30.905  31.396  1.00  0.00     0.074 A 
ATOM     57  C   UNL A   1      43.002  29.395  35.581  1.00  0.00     0.029 A 
ATOM     58  N   UNL A   1      41.673  29.490  33.800  1.00  0.00    -0.354 N 
ATOM     59  N   UNL A   1      39.444  30.534  32.198  1.00  0.00    -0.248 NA
ATOM     60  C   UNL A   1      37.529  31.853  32.002  1.00  0.00     0.031 C 
ATOM     61  C   UNL A   1      41.950  30.274  35.859  1.00  0.00     0.029 A 
ATOM     62  C   UNL A   1      41.139  30.359  34.738  1.00  0.00     0.049 A 
ATOM     63  H   UNL A   1      41.306  29.335  32.901  1.00  0.00     0.167 HD
ATOM     64  C   UNL A   1      39.240  31.217  33.390  1.00  0.00     0.074 A 
ATOM     65  C   UNL A   1      38.064  32.041  33.201  1.00  0.00     0.031 C 
ATOM     66  C   UNL A   1      39.964  31.170  34.538  1.00  0.00     0.037 A 
BRANCH  53  67
ATOM     67  C   UNL A   1      44.710  27.209  34.358  1.00  0.00     0.064 A 
ATOM     68  C   UNL A   1      44.530  26.046  35.122  1.00  0.00     0.173 A 
ATOM     69  C   UNL A   1      46.004  27.749  34.287  1.00  0.00     0.173 A 
ATOM     70  F   UNL A   1      43.311  25.496  35.237  1.00  0.00    -0.203 F 
ATOM     71  C   UNL A   1      45.591  25.471  35.817  1.00  0.00     0.198 A 
ATOM     72  C   UNL A   1      47.070  27.151  34.952  1.00  0.00     0.198 A 
ATOM     73  F   UNL A   1      46.236  28.858  33.569  1.00  0.00    -0.203 F 
ATOM     74  F   UNL A   1      45.380  24.398  36.591  1.00  0.00    -0.200 F 
ATOM     75  C   UNL A   1      46.861  26.020  35.726  1.00  0.00     0.200 A 
ATOM     76  F   UNL A   1      48.300  27.675  34.850  1.00  0.00    -0.200 F 
ATOM     77  F   UNL A   1      47.883  25.465  36.393  1.00  0.00    -0.200 F 
ENDBRANCH  53  67
BRANCH  54  78
ATOM     78  C   UNL A   1      37.035  31.031  29.227  1.00  0.00     0.064 A 
ATOM     79  C   UNL A   1      37.010  32.349  28.750  1.00  0.00     0.173 A 
ATOM     80  C   UNL A   1      35.914  30.226  28.976  1.00  0.00     0.173 A 
ATOM     81  F   UNL A   1      38.047  33.166  28.986  1.00  0.00    -0.203 F 
ATOM     82  C   UNL A   1      35.904  32.843  28.060  1.00  0.00     0.198 A 
ATOM     83  C   UNL A   1      34.822  30.712  28.259  1.00  0.00     0.198 A 
ATOM     84  F   UNL A   1      35.885  28.959  29.413  1.00  0.00    -0.203 F 
ATOM     85  F   UNL A   1      35.890  34.118  27.649  1.00  0.00    -0.200 F 
ATOM     86  C   UNL A   1      34.816  32.023  27.807  1.00  0.00     0.200 A 
ATOM     87  F   UNL A   1      33.781  29.910  28.002  1.00  0.00    -0.200 F 
ATOM     88  F   UNL A   1      33.760  32.494  27.130  1.00  0.00    -0.200 F 
ENDBRANCH  54  78
BRANCH  66  89
ATOM     89  C   UNL A   1      39.525  32.055  35.672  1.00  0.00     0.064 A 
ATOM     90  C   UNL A   1      40.051  33.343  35.855  1.00  0.00     0.173 A 
ATOM     91  C   UNL A   1      38.528  31.625  36.563  1.00  0.00     0.173 A 
ATOM     92  F   UNL A   1      41.015  33.799  35.041  1.00  0.00    -0.203 F 
ATOM     93  C   UNL A   1      39.618  34.152  36.902  1.00  0.00     0.198 A 
ATOM     94  C   UNL A   1      38.071  32.452  37.585  1.00  0.00     0.198 A 
ATOM     95  F   UNL A   1      37.982  30.407  36.430  1.00  0.00    -0.203 F 
ATOM     96  F   UNL A   1      40.174  35.357  37.088  1.00  0.00    -0.200 F 
ATOM     97  C   UNL A   1      38.623  33.710  37.760  1.00  0.00     0.200 A 
ATOM     98  F   UNL A   1      37.095  32.029  38.401  1.00  0.00    -0.200 F 
ATOM     99  F   UNL A   1      38.200  34.495  38.761  1.00  0.00    -0.200 F 
ENDBRANCH  66  89
ENDBRANCH  40  41
ENDBRANCH  33  35
ENDBRANCH  32  33
ENDBRANCH  31  32
ENDBRANCH  30  31
ENDBRANCH  29  30
ENDBRANCH  28  29
ENDBRANCH  27  28
ENDBRANCH   1  27
TORSDOF 22
ENDMDL
