MODEL 1
REMARK VINA RESULT:     -10.0      0.000      0.000
REMARK SMILES C[C@H](NC(=O)N1CC[C@@H](C(=O)OCCOCCOCCOCCOC(=O)c2ccc(-c3c4nc(c(-c5c(F)c(F)c(F)c(F)c5F)c5ccc([nH]5)c(-c5c(F)c(F)c(F)c(F)c5F)c5nc(c(-c6c(F)c(F)c(F)c(F)c6F)c6ccc3[nH]6)C=C5)C=C4)cc2)[C@H]1C)c1ccc(Cl)cc1
REMARK SMILES IDX 17 1 16 2 15 3 14 4 13 5 12 6 10 7 11 8 9 9 6 10 7 11 90 12
REMARK SMILES IDX 8 13 91 14 4 15 3 16 5 18 2 19 1 20 92 21 93 22 98 23 94 24
REMARK SMILES IDX 97 25 95 26 96 27 18 28 19 29 20 30 21 31 22 32 23 33 24 34
REMARK SMILES IDX 25 35 26 36 27 37 28 38 89 39 29 40 88 41 30 42 31 43 32 44
REMARK SMILES IDX 82 45 33 46 87 47 81 48 83 49 34 50 86 51 80 52 79 53 35 55
REMARK SMILES IDX 67 56 47 57 66 58 48 59 51 60 65 61 84 62 49 63 50 64 64 66
REMARK SMILES IDX 85 67 52 68 36 69 37 70 45 71 38 72 39 73 43 74 46 75 40 76
REMARK SMILES IDX 41 77 44 78 42 79 68 80 69 81 77 82 70 83 71 84 75 85 78 86
REMARK SMILES IDX 72 87 73 88 76 89 74 90 53 91 54 92 62 93 55 94 56 95 60 96
REMARK SMILES IDX 63 97 57 98 58 99 61 100 59 101
REMARK H PARENT 3 17 83 54 51 65
REMARK Flexibility Score: inf
ROOT
ATOM      1  C   UNL A   1      35.207  34.164  28.852  1.00  0.00     0.188 C 
ENDROOT
BRANCH   1   2
ATOM      2  C   UNL A   1      35.579  32.935  28.001  1.00  0.00     0.188 C 
BRANCH   2   3
ATOM      3  O   UNL A   1      34.580  31.942  27.933  1.00  0.00    -0.376 OA
BRANCH   3   4
ATOM      4  C   UNL A   1      34.742  30.790  27.126  1.00  0.00     0.202 C 
BRANCH   4   5
ATOM      5  C   UNL A   1      34.160  29.408  27.456  1.00  0.00     0.261 C 
BRANCH   5   6
ATOM      6  O   UNL A   1      32.746  29.343  27.658  1.00  0.00    -0.463 OA
BRANCH   6   7
ATOM      7  C   UNL A   1      31.978  29.595  26.570  1.00  0.00     0.311 C 
ATOM      8  O   UNL A   1      31.759  30.718  26.128  1.00  0.00    -0.252 OA
BRANCH   7   9
ATOM      9  C   UNL A   1      31.480  28.347  25.880  1.00  0.00     0.123 C 
ATOM     10  N   UNL A   1      31.494  26.625  24.272  1.00  0.00    -0.321 N 
ATOM     11  C   UNL A   1      31.681  26.006  25.581  1.00  0.00     0.122 C 
ATOM     12  C   UNL A   1      31.731  28.100  24.377  1.00  0.00     0.098 C 
ATOM     13  C   UNL A   1      32.139  27.116  26.501  1.00  0.00     0.039 C 
ATOM     14  C   UNL A   1      33.158  28.483  23.937  1.00  0.00     0.032 C 
BRANCH  10  15
ATOM     15  C   UNL A   1      30.817  25.876  23.344  1.00  0.00     0.318 C 
ATOM     16  N   UNL A   1      31.406  25.409  22.226  1.00  0.00    -0.331 N 
ATOM     17  H   UNL A   1      30.809  25.249  21.459  1.00  0.00     0.165 HD
ATOM     18  O   UNL A   1      29.631  25.568  23.499  1.00  0.00    -0.249 OA
BRANCH  16  19
ATOM     19  C   UNL A   1      32.797  25.114  22.009  1.00  0.00     0.111 C 
ATOM     20  C   UNL A   1      33.644  26.380  21.896  1.00  0.00     0.036 C 
BRANCH  19  21
ATOM     21  C   UNL A   1      33.379  24.127  22.991  1.00  0.00    -0.026 A 
ATOM     22  C   UNL A   1      32.901  22.820  23.167  1.00  0.00     0.007 A 
ATOM     23  C   UNL A   1      34.429  24.579  23.805  1.00  0.00     0.007 A 
ATOM     24  C   UNL A   1      33.460  21.990  24.148  1.00  0.00     0.021 A 
ATOM     25  C   UNL A   1      34.978  23.750  24.771  1.00  0.00     0.021 A 
ATOM     26  C   UNL A   1      34.493  22.462  24.950  1.00  0.00     0.041 A 
ATOM     27  Cl  UNL A   1      35.178  21.469  26.175  1.00  0.00    -0.084 Cl
ENDBRANCH  19  21
ENDBRANCH  16  19
ENDBRANCH  10  15
ENDBRANCH   7   9
ENDBRANCH   6   7
ENDBRANCH   5   6
ENDBRANCH   4   5
ENDBRANCH   3   4
ENDBRANCH   2   3
ENDBRANCH   1   2
BRANCH   1  28
ATOM     28  O   UNL A   1      34.216  35.049  28.347  1.00  0.00    -0.377 OA
BRANCH  28  29
ATOM     29  C   UNL A   1      33.490  35.890  29.244  1.00  0.00     0.188 C 
BRANCH  29  30
ATOM     30  C   UNL A   1      32.944  35.389  30.600  1.00  0.00     0.188 C 
BRANCH  30  31
ATOM     31  O   UNL A   1      33.913  35.264  31.626  1.00  0.00    -0.376 OA
BRANCH  31  32
ATOM     32  C   UNL A   1      33.562  34.484  32.761  1.00  0.00     0.202 C 
BRANCH  32  33
ATOM     33  C   UNL A   1      34.626  33.484  33.217  1.00  0.00     0.261 C 
BRANCH  33  34
ATOM     34  O   UNL A   1      35.694  33.261  32.282  1.00  0.00    -0.460 OA
BRANCH  34  35
ATOM     35  C   UNL A   1      36.891  33.846  32.502  1.00  0.00     0.338 C 
ATOM     36  O   UNL A   1      37.135  34.858  33.128  1.00  0.00    -0.246 OA
BRANCH  35  37
ATOM     37  C   UNL A   1      37.890  32.950  31.899  1.00  0.00     0.060 A 
ATOM     38  C   UNL A   1      38.479  31.922  32.646  1.00  0.00     0.016 A 
ATOM     39  C   UNL A   1      38.191  33.111  30.549  1.00  0.00     0.016 A 
ATOM     40  C   UNL A   1      39.383  31.051  32.030  1.00  0.00     0.010 A 
ATOM     41  C   UNL A   1      39.044  32.210  29.923  1.00  0.00     0.010 A 
ATOM     42  C   UNL A   1      39.683  31.202  30.668  1.00  0.00    -0.014 A 
BRANCH  42  43
ATOM     43  C   UNL A   1      40.838  30.515  30.038  1.00  0.00     0.031 A 
ATOM     44  C   UNL A   1      42.096  31.323  29.858  1.00  0.00     0.074 A 
ATOM     45  C   UNL A   1      40.776  29.249  29.588  1.00  0.00     0.049 A 
ATOM     46  N   UNL A   1      43.153  31.076  29.131  1.00  0.00    -0.248 NA
ATOM     47  C   UNL A   1      42.146  32.610  30.575  1.00  0.00     0.031 C 
ATOM     48  C   UNL A   1      39.641  28.342  29.743  1.00  0.00     0.029 A 
ATOM     49  N   UNL A   1      41.699  28.517  28.880  1.00  0.00    -0.354 N 
ATOM     50  C   UNL A   1      43.972  32.187  29.278  1.00  0.00     0.074 A 
ATOM     51  C   UNL A   1      43.275  33.130  30.123  1.00  0.00     0.031 C 
ATOM     52  C   UNL A   1      39.931  27.175  29.137  1.00  0.00     0.029 A 
ATOM     53  C   UNL A   1      41.248  27.273  28.507  1.00  0.00     0.049 A 
ATOM     54  H   UNL A   1      42.597  28.852  28.660  1.00  0.00     0.167 HD
ATOM     55  C   UNL A   1      45.208  32.399  28.771  1.00  0.00     0.037 A 
ATOM     56  C   UNL A   1      41.825  26.343  27.719  1.00  0.00     0.037 A 
ATOM     57  C   UNL A   1      45.912  31.449  27.957  1.00  0.00     0.049 A 
ATOM     58  C   UNL A   1      43.177  26.631  27.103  1.00  0.00     0.074 A 
ATOM     59  C   UNL A   1      47.164  31.566  27.383  1.00  0.00     0.029 A 
ATOM     60  N   UNL A   1      45.425  30.198  27.617  1.00  0.00    -0.354 N 
ATOM     61  N   UNL A   1      43.943  27.687  27.236  1.00  0.00    -0.248 NA
ATOM     62  C   UNL A   1      43.742  25.597  26.222  1.00  0.00     0.031 C 
ATOM     63  C   UNL A   1      47.424  30.394  26.668  1.00  0.00     0.029 A 
ATOM     64  C   UNL A   1      46.355  29.530  26.840  1.00  0.00     0.049 A 
ATOM     65  H   UNL A   1      44.549  29.838  27.886  1.00  0.00     0.167 HD
ATOM     66  C   UNL A   1      45.094  27.422  26.504  1.00  0.00     0.074 A 
ATOM     67  C   UNL A   1      44.929  26.108  25.924  1.00  0.00     0.031 C 
ATOM     68  C   UNL A   1      46.193  28.196  26.327  1.00  0.00     0.037 A 
BRANCH  55  69
ATOM     69  C   UNL A   1      45.874  33.705  29.086  1.00  0.00     0.064 A 
ATOM     70  C   UNL A   1      46.639  33.873  30.250  1.00  0.00     0.173 A 
ATOM     71  C   UNL A   1      45.773  34.788  28.202  1.00  0.00     0.173 A 
ATOM     72  F   UNL A   1      46.748  32.873  31.137  1.00  0.00    -0.203 F 
ATOM     73  C   UNL A   1      47.259  35.087  30.527  1.00  0.00     0.198 A 
ATOM     74  C   UNL A   1      46.422  35.989  28.467  1.00  0.00     0.198 A 
ATOM     75  F   UNL A   1      45.053  34.678  27.075  1.00  0.00    -0.203 F 
ATOM     76  F   UNL A   1      47.945  35.240  31.669  1.00  0.00    -0.200 F 
ATOM     77  C   UNL A   1      47.159  36.140  29.631  1.00  0.00     0.200 A 
ATOM     78  F   UNL A   1      46.336  37.003  27.594  1.00  0.00    -0.200 F 
ATOM     79  F   UNL A   1      47.769  37.305  29.895  1.00  0.00    -0.200 F 
ENDBRANCH  55  69
BRANCH  56  80
ATOM     80  C   UNL A   1      41.140  25.052  27.435  1.00  0.00     0.064 A 
ATOM     81  C   UNL A   1      40.013  25.004  26.600  1.00  0.00     0.173 A 
ATOM     82  C   UNL A   1      41.546  23.855  28.043  1.00  0.00     0.173 A 
ATOM     83  F   UNL A   1      39.566  26.126  26.015  1.00  0.00    -0.203 F 
ATOM     84  C   UNL A   1      39.298  23.822  26.416  1.00  0.00     0.198 A 
ATOM     85  C   UNL A   1      40.850  22.665  27.831  1.00  0.00     0.198 A 
ATOM     86  F   UNL A   1      42.615  23.840  28.851  1.00  0.00    -0.203 F 
ATOM     87  F   UNL A   1      38.184  23.825  25.670  1.00  0.00    -0.200 F 
ATOM     88  C   UNL A   1      39.718  22.653  27.030  1.00  0.00     0.200 A 
ATOM     89  F   UNL A   1      41.266  21.534  28.417  1.00  0.00    -0.200 F 
ATOM     90  F   UNL A   1      39.024  21.519  26.863  1.00  0.00    -0.200 F 
ENDBRANCH  56  80
BRANCH  68  91
ATOM     91  C   UNL A   1      47.348  27.620  25.563  1.00  0.00     0.064 A 
ATOM     92  C   UNL A   1      47.427  27.701  24.166  1.00  0.00     0.173 A 
ATOM     93  C   UNL A   1      48.441  27.074  26.254  1.00  0.00     0.173 A 
ATOM     94  F   UNL A   1      46.404  28.205  23.460  1.00  0.00    -0.203 F 
ATOM     95  C   UNL A   1      48.558  27.250  23.488  1.00  0.00     0.198 A 
ATOM     96  C   UNL A   1      49.580  26.651  25.576  1.00  0.00     0.198 A 
ATOM     97  F   UNL A   1      48.417  26.985  27.594  1.00  0.00    -0.203 F 
ATOM     98  F   UNL A   1      48.604  27.315  22.151  1.00  0.00    -0.200 F 
ATOM     99  C   UNL A   1      49.636  26.738  24.195  1.00  0.00     0.200 A 
ATOM    100  F   UNL A   1      50.628  26.174  26.263  1.00  0.00    -0.200 F 
ATOM    101  F   UNL A   1      50.732  26.328  23.542  1.00  0.00    -0.200 F 
ENDBRANCH  68  91
ENDBRANCH  42  43
ENDBRANCH  35  37
ENDBRANCH  34  35
ENDBRANCH  33  34
ENDBRANCH  32  33
ENDBRANCH  31  32
ENDBRANCH  30  31
ENDBRANCH  29  30
ENDBRANCH  28  29
ENDBRANCH   1  28
TORSDOF 23
ENDMDL
MODEL 2
REMARK VINA RESULT:      -9.8      1.199      2.405
REMARK SMILES C[C@H](NC(=O)N1CC[C@@H](C(=O)OCCOCCOCCOCCOC(=O)c2ccc(-c3c4nc(c(-c5c(F)c(F)c(F)c(F)c5F)c5ccc([nH]5)c(-c5c(F)c(F)c(F)c(F)c5F)c5nc(c(-c6c(F)c(F)c(F)c(F)c6F)c6ccc3[nH]6)C=C5)C=C4)cc2)[C@H]1C)c1ccc(Cl)cc1
REMARK SMILES IDX 17 1 16 2 15 3 14 4 13 5 12 6 10 7 11 8 9 9 6 10 7 11 90 12
REMARK SMILES IDX 8 13 91 14 4 15 3 16 5 18 2 19 1 20 92 21 93 22 98 23 94 24
REMARK SMILES IDX 97 25 95 26 96 27 18 28 19 29 20 30 21 31 22 32 23 33 24 34
REMARK SMILES IDX 25 35 26 36 27 37 28 38 89 39 29 40 88 41 30 42 31 43 32 44
REMARK SMILES IDX 82 45 33 46 87 47 81 48 83 49 34 50 86 51 80 52 79 53 35 55
REMARK SMILES IDX 67 56 47 57 66 58 48 59 51 60 65 61 84 62 49 63 50 64 64 66
REMARK SMILES IDX 85 67 52 68 36 69 37 70 45 71 38 72 39 73 43 74 46 75 40 76
REMARK SMILES IDX 41 77 44 78 42 79 68 80 69 81 77 82 70 83 71 84 75 85 78 86
REMARK SMILES IDX 72 87 73 88 76 89 74 90 53 91 54 92 62 93 55 94 56 95 60 96
REMARK SMILES IDX 63 97 57 98 58 99 61 100 59 101
REMARK H PARENT 3 17 83 54 51 65
REMARK Flexibility Score: inf
ROOT
ATOM      1  C   UNL A   1      35.106  33.365  28.817  1.00  0.00     0.188 C 
ENDROOT
BRANCH   1   2
ATOM      2  C   UNL A   1      34.978  32.081  27.975  1.00  0.00     0.188 C 
BRANCH   2   3
ATOM      3  O   UNL A   1      33.672  31.554  27.900  1.00  0.00    -0.376 OA
BRANCH   3   4
ATOM      4  C   UNL A   1      33.303  30.646  26.879  1.00  0.00     0.202 C 
BRANCH   4   5
ATOM      5  C   UNL A   1      32.759  29.231  27.128  1.00  0.00     0.261 C 
BRANCH   5   6
ATOM      6  O   UNL A   1      31.504  28.915  26.521  1.00  0.00    -0.463 OA
BRANCH   6   7
ATOM      7  C   UNL A   1      31.424  29.113  25.183  1.00  0.00     0.311 C 
ATOM      8  O   UNL A   1      30.783  30.017  24.657  1.00  0.00    -0.252 OA
BRANCH   7   9
ATOM      9  C   UNL A   1      32.283  28.164  24.380  1.00  0.00     0.123 C 
ATOM     10  N   UNL A   1      32.782  26.668  22.630  1.00  0.00    -0.321 N 
ATOM     11  C   UNL A   1      33.661  27.824  22.485  1.00  0.00     0.122 C 
ATOM     12  C   UNL A   1      31.667  27.002  23.571  1.00  0.00     0.098 C 
ATOM     13  C   UNL A   1      33.019  28.935  23.286  1.00  0.00     0.039 C 
ATOM     14  C   UNL A   1      30.385  27.411  22.819  1.00  0.00     0.032 C 
BRANCH  10  15
ATOM     15  C   UNL A   1      33.298  25.465  22.222  1.00  0.00     0.318 C 
ATOM     16  N   UNL A   1      34.101  24.720  23.008  1.00  0.00    -0.331 N 
ATOM     17  H   UNL A   1      34.727  24.122  22.539  1.00  0.00     0.165 HD
ATOM     18  O   UNL A   1      33.032  24.987  21.114  1.00  0.00    -0.249 OA
BRANCH  16  19
ATOM     19  C   UNL A   1      34.161  24.690  24.444  1.00  0.00     0.111 C 
ATOM     20  C   UNL A   1      34.512  26.054  25.035  1.00  0.00     0.036 C 
BRANCH  19  21
ATOM     21  C   UNL A   1      32.945  24.082  25.100  1.00  0.00    -0.026 A 
ATOM     22  C   UNL A   1      32.073  23.189  24.460  1.00  0.00     0.007 A 
ATOM     23  C   UNL A   1      32.657  24.487  26.412  1.00  0.00     0.007 A 
ATOM     24  C   UNL A   1      30.931  22.722  25.124  1.00  0.00     0.021 A 
ATOM     25  C   UNL A   1      31.526  24.017  27.061  1.00  0.00     0.021 A 
ATOM     26  C   UNL A   1      30.659  23.144  26.421  1.00  0.00     0.041 A 
ATOM     27  Cl  UNL A   1      29.251  22.602  27.245  1.00  0.00    -0.084 Cl
ENDBRANCH  19  21
ENDBRANCH  16  19
ENDBRANCH  10  15
ENDBRANCH   7   9
ENDBRANCH   6   7
ENDBRANCH   5   6
ENDBRANCH   4   5
ENDBRANCH   3   4
ENDBRANCH   2   3
ENDBRANCH   1   2
BRANCH   1  28
ATOM     28  O   UNL A   1      34.623  34.579  28.259  1.00  0.00    -0.377 OA
BRANCH  28  29
ATOM     29  C   UNL A   1      33.942  35.521  29.087  1.00  0.00     0.188 C 
BRANCH  29  30
ATOM     30  C   UNL A   1      33.075  35.098  30.295  1.00  0.00     0.188 C 
BRANCH  30  31
ATOM     31  O   UNL A   1      33.693  35.255  31.560  1.00  0.00    -0.376 OA
BRANCH  31  32
ATOM     32  C   UNL A   1      33.299  34.363  32.593  1.00  0.00     0.202 C 
BRANCH  32  33
ATOM     33  C   UNL A   1      34.447  33.656  33.316  1.00  0.00     0.261 C 
BRANCH  33  34
ATOM     34  O   UNL A   1      35.535  33.242  32.472  1.00  0.00    -0.460 OA
BRANCH  34  35
ATOM     35  C   UNL A   1      36.665  33.980  32.450  1.00  0.00     0.338 C 
ATOM     36  O   UNL A   1      36.837  35.113  32.854  1.00  0.00    -0.246 OA
BRANCH  35  37
ATOM     37  C   UNL A   1      37.709  33.094  31.913  1.00  0.00     0.060 A 
ATOM     38  C   UNL A   1      38.363  32.169  32.735  1.00  0.00     0.016 A 
ATOM     39  C   UNL A   1      37.989  33.158  30.550  1.00  0.00     0.016 A 
ATOM     40  C   UNL A   1      39.311  31.302  32.183  1.00  0.00     0.010 A 
ATOM     41  C   UNL A   1      38.888  32.258  29.990  1.00  0.00     0.010 A 
ATOM     42  C   UNL A   1      39.591  31.354  30.810  1.00  0.00    -0.014 A 
BRANCH  42  43
ATOM     43  C   UNL A   1      40.779  30.684  30.224  1.00  0.00     0.031 A 
ATOM     44  C   UNL A   1      42.008  31.529  30.022  1.00  0.00     0.074 A 
ATOM     45  C   UNL A   1      40.769  29.398  29.831  1.00  0.00     0.049 A 
ATOM     46  N   UNL A   1      43.083  31.290  29.320  1.00  0.00    -0.248 NA
ATOM     47  C   UNL A   1      42.001  32.848  30.682  1.00  0.00     0.031 C 
ATOM     48  C   UNL A   1      39.667  28.456  30.013  1.00  0.00     0.029 A 
ATOM     49  N   UNL A   1      41.727  28.669  29.167  1.00  0.00    -0.354 N 
ATOM     50  C   UNL A   1      43.859  32.436  29.427  1.00  0.00     0.074 A 
ATOM     51  C   UNL A   1      43.117  33.388  30.220  1.00  0.00     0.031 C 
ATOM     52  C   UNL A   1      40.007  27.275  29.463  1.00  0.00     0.029 A 
ATOM     53  C   UNL A   1      41.328  27.395  28.845  1.00  0.00     0.049 A 
ATOM     54  H   UNL A   1      42.615  29.028  28.942  1.00  0.00     0.167 HD
ATOM     55  C   UNL A   1      45.093  32.671  28.925  1.00  0.00     0.037 A 
ATOM     56  C   UNL A   1      41.949  26.453  28.106  1.00  0.00     0.037 A 
ATOM     57  C   UNL A   1      45.843  31.713  28.163  1.00  0.00     0.049 A 
ATOM     58  C   UNL A   1      43.297  26.763  27.493  1.00  0.00     0.074 A 
ATOM     59  C   UNL A   1      47.097  31.851  27.599  1.00  0.00     0.029 A 
ATOM     60  N   UNL A   1      45.406  30.430  27.873  1.00  0.00    -0.354 N 
ATOM     61  N   UNL A   1      44.023  27.852  27.588  1.00  0.00    -0.248 NA
ATOM     62  C   UNL A   1      43.912  25.713  26.666  1.00  0.00     0.031 C 
ATOM     63  C   UNL A   1      47.409  30.659  26.940  1.00  0.00     0.029 A 
ATOM     64  C   UNL A   1      46.370  29.764  27.138  1.00  0.00     0.049 A 
ATOM     65  H   UNL A   1      44.540  30.050  28.148  1.00  0.00     0.167 HD
ATOM     66  C   UNL A   1      45.192  27.597  26.882  1.00  0.00     0.074 A 
ATOM     67  C   UNL A   1      45.083  26.254  26.360  1.00  0.00     0.031 C 
ATOM     68  C   UNL A   1      46.264  28.403  26.684  1.00  0.00     0.037 A 
BRANCH  55  69
ATOM     69  C   UNL A   1      45.706  34.013  29.189  1.00  0.00     0.064 A 
ATOM     70  C   UNL A   1      45.501  35.095  28.320  1.00  0.00     0.173 A 
ATOM     71  C   UNL A   1      46.478  34.230  30.340  1.00  0.00     0.173 A 
ATOM     72  F   UNL A   1      44.788  34.932  27.195  1.00  0.00    -0.203 F 
ATOM     73  C   UNL A   1      46.068  36.339  28.581  1.00  0.00     0.198 A 
ATOM     74  C   UNL A   1      47.015  35.484  30.614  1.00  0.00     0.198 A 
ATOM     75  F   UNL A   1      46.703  33.228  31.203  1.00  0.00    -0.203 F 
ATOM     76  F   UNL A   1      45.900  37.344  27.710  1.00  0.00    -0.200 F 
ATOM     77  C   UNL A   1      46.816  36.535  29.732  1.00  0.00     0.200 A 
ATOM     78  F   UNL A   1      47.727  35.676  31.733  1.00  0.00    -0.200 F 
ATOM     79  F   UNL A   1      47.350  37.737  29.988  1.00  0.00    -0.200 F 
ENDBRANCH  55  69
BRANCH  56  80
ATOM     80  C   UNL A   1      41.316  25.125  27.872  1.00  0.00     0.064 A 
ATOM     81  C   UNL A   1      41.848  23.962  28.450  1.00  0.00     0.173 A 
ATOM     82  C   UNL A   1      40.217  24.976  27.012  1.00  0.00     0.173 A 
ATOM     83  F   UNL A   1      42.916  24.046  29.258  1.00  0.00    -0.203 F 
ATOM     84  C   UNL A   1      41.333  22.703  28.150  1.00  0.00     0.198 A 
ATOM     85  C   UNL A   1      39.681  23.718  26.739  1.00  0.00     0.198 A 
ATOM     86  F   UNL A   1      39.669  26.051  26.430  1.00  0.00    -0.203 F 
ATOM     87  F   UNL A   1      41.908  21.607  28.662  1.00  0.00    -0.200 F 
ATOM     88  C   UNL A   1      40.248  22.582  27.295  1.00  0.00     0.200 A 
ATOM     89  F   UNL A   1      38.625  23.606  25.922  1.00  0.00    -0.200 F 
ATOM     90  F   UNL A   1      39.759  21.370  26.996  1.00  0.00    -0.200 F 
ENDBRANCH  56  80
BRANCH  68  91
ATOM     91  C   UNL A   1      47.450  27.838  25.959  1.00  0.00     0.064 A 
ATOM     92  C   UNL A   1      48.485  27.176  26.633  1.00  0.00     0.173 A 
ATOM     93  C   UNL A   1      47.491  27.870  24.556  1.00  0.00     0.173 A 
ATOM     94  F   UNL A   1      48.496  27.128  27.973  1.00  0.00    -0.203 F 
ATOM     95  C   UNL A   1      49.523  26.572  25.928  1.00  0.00     0.198 A 
ATOM     96  C   UNL A   1      48.514  27.240  23.854  1.00  0.00     0.198 A 
ATOM     97  F   UNL A   1      46.516  28.483  23.865  1.00  0.00    -0.203 F 
ATOM     98  F   UNL A   1      50.516  25.964  26.592  1.00  0.00    -0.200 F 
ATOM     99  C   UNL A   1      49.529  26.594  24.540  1.00  0.00     0.200 A 
ATOM    100  F   UNL A   1      48.508  27.248  22.514  1.00  0.00    -0.200 F 
ATOM    101  F   UNL A   1      50.516  25.990  23.864  1.00  0.00    -0.200 F 
ENDBRANCH  68  91
ENDBRANCH  42  43
ENDBRANCH  35  37
ENDBRANCH  34  35
ENDBRANCH  33  34
ENDBRANCH  32  33
ENDBRANCH  31  32
ENDBRANCH  30  31
ENDBRANCH  29  30
ENDBRANCH  28  29
ENDBRANCH   1  28
TORSDOF 23
ENDMDL
MODEL 3
REMARK VINA RESULT:      -9.6      4.748     10.730
REMARK SMILES C[C@H](NC(=O)N1CC[C@@H](C(=O)OCCOCCOCCOCCOC(=O)c2ccc(-c3c4nc(c(-c5c(F)c(F)c(F)c(F)c5F)c5ccc([nH]5)c(-c5c(F)c(F)c(F)c(F)c5F)c5nc(c(-c6c(F)c(F)c(F)c(F)c6F)c6ccc3[nH]6)C=C5)C=C4)cc2)[C@H]1C)c1ccc(Cl)cc1
REMARK SMILES IDX 17 1 16 2 15 3 14 4 13 5 12 6 10 7 11 8 9 9 6 10 7 11 90 12
REMARK SMILES IDX 8 13 91 14 4 15 3 16 5 18 2 19 1 20 92 21 93 22 98 23 94 24
REMARK SMILES IDX 97 25 95 26 96 27 18 28 19 29 20 30 21 31 22 32 23 33 24 34
REMARK SMILES IDX 25 35 26 36 27 37 28 38 89 39 29 40 88 41 30 42 31 43 32 44
REMARK SMILES IDX 82 45 33 46 87 47 81 48 83 49 34 50 86 51 80 52 79 53 35 55
REMARK SMILES IDX 67 56 47 57 66 58 48 59 51 60 65 61 84 62 49 63 50 64 64 66
REMARK SMILES IDX 85 67 52 68 36 69 37 70 45 71 38 72 39 73 43 74 46 75 40 76
REMARK SMILES IDX 41 77 44 78 42 79 68 80 69 81 77 82 70 83 71 84 75 85 78 86
REMARK SMILES IDX 72 87 73 88 76 89 74 90 53 91 54 92 62 93 55 94 56 95 60 96
REMARK SMILES IDX 63 97 57 98 58 99 61 100 59 101
REMARK H PARENT 3 17 83 54 51 65
REMARK Flexibility Score: inf
ROOT
ATOM      1  C   UNL A   1      37.986  22.704  26.307  1.00  0.00     0.188 C 
ENDROOT
BRANCH   1   2
ATOM      2  C   UNL A   1      37.185  22.434  25.020  1.00  0.00     0.188 C 
BRANCH   2   3
ATOM      3  O   UNL A   1      36.019  23.216  24.878  1.00  0.00    -0.376 OA
BRANCH   3   4
ATOM      4  C   UNL A   1      34.818  22.658  24.379  1.00  0.00     0.202 C 
BRANCH   4   5
ATOM      5  C   UNL A   1      33.898  23.344  23.357  1.00  0.00     0.261 C 
BRANCH   5   6
ATOM      6  O   UNL A   1      34.454  24.450  22.642  1.00  0.00    -0.463 OA
BRANCH   6   7
ATOM      7  C   UNL A   1      33.601  25.466  22.363  1.00  0.00     0.311 C 
ATOM      8  O   UNL A   1      33.447  25.949  21.246  1.00  0.00    -0.252 OA
BRANCH   7   9
ATOM      9  C   UNL A   1      32.771  25.900  23.548  1.00  0.00     0.123 C 
ATOM     10  N   UNL A   1      31.979  27.390  25.191  1.00  0.00    -0.321 N 
ATOM     11  C   UNL A   1      30.847  27.030  24.342  1.00  0.00     0.122 C 
ATOM     12  C   UNL A   1      33.256  27.001  24.516  1.00  0.00     0.098 C 
ATOM     13  C   UNL A   1      31.447  26.488  23.063  1.00  0.00     0.039 C 
ATOM     14  C   UNL A   1      33.906  28.194  23.787  1.00  0.00     0.032 C 
BRANCH  10  15
ATOM     15  C   UNL A   1      31.685  27.644  26.507  1.00  0.00     0.318 C 
ATOM     16  N   UNL A   1      32.265  28.648  27.194  1.00  0.00    -0.331 N 
ATOM     17  H   UNL A   1      32.322  28.526  28.169  1.00  0.00     0.165 HD
ATOM     18  O   UNL A   1      30.851  26.977  27.127  1.00  0.00    -0.249 OA
BRANCH  16  19
ATOM     19  C   UNL A   1      32.811  29.877  26.683  1.00  0.00     0.111 C 
ATOM     20  C   UNL A   1      31.837  31.044  26.826  1.00  0.00     0.036 C 
BRANCH  19  21
ATOM     21  C   UNL A   1      34.182  30.212  27.218  1.00  0.00    -0.026 A 
ATOM     22  C   UNL A   1      35.238  29.293  27.302  1.00  0.00     0.007 A 
ATOM     23  C   UNL A   1      34.378  31.514  27.703  1.00  0.00     0.007 A 
ATOM     24  C   UNL A   1      36.460  29.672  27.872  1.00  0.00     0.021 A 
ATOM     25  C   UNL A   1      35.592  31.881  28.262  1.00  0.00     0.021 A 
ATOM     26  C   UNL A   1      36.630  30.965  28.355  1.00  0.00     0.041 A 
ATOM     27  Cl  UNL A   1      38.113  31.446  29.079  1.00  0.00    -0.084 Cl
ENDBRANCH  19  21
ENDBRANCH  16  19
ENDBRANCH  10  15
ENDBRANCH   7   9
ENDBRANCH   6   7
ENDBRANCH   5   6
ENDBRANCH   4   5
ENDBRANCH   3   4
ENDBRANCH   2   3
ENDBRANCH   1   2
BRANCH   1  28
ATOM     28  O   UNL A   1      39.405  22.675  26.228  1.00  0.00    -0.377 OA
BRANCH  28  29
ATOM     29  C   UNL A   1      40.188  22.836  27.411  1.00  0.00     0.188 C 
BRANCH  29  30
ATOM     30  C   UNL A   1      41.235  21.795  27.867  1.00  0.00     0.188 C 
BRANCH  30  31
ATOM     31  O   UNL A   1      41.093  20.509  27.288  1.00  0.00    -0.376 OA
BRANCH  31  32
ATOM     32  C   UNL A   1      41.838  20.241  26.108  1.00  0.00     0.202 C 
BRANCH  32  33
ATOM     33  C   UNL A   1      43.048  21.150  25.882  1.00  0.00     0.261 C 
BRANCH  33  34
ATOM     34  O   UNL A   1      42.817  22.267  25.007  1.00  0.00    -0.460 OA
BRANCH  34  35
ATOM     35  C   UNL A   1      43.868  22.838  24.381  1.00  0.00     0.338 C 
ATOM     36  O   UNL A   1      44.329  22.580  23.287  1.00  0.00    -0.246 OA
BRANCH  35  37
ATOM     37  C   UNL A   1      44.311  23.930  25.262  1.00  0.00     0.060 A 
ATOM     38  C   UNL A   1      45.672  24.168  25.485  1.00  0.00     0.016 A 
ATOM     39  C   UNL A   1      43.342  24.758  25.822  1.00  0.00     0.016 A 
ATOM     40  C   UNL A   1      46.064  25.249  26.283  1.00  0.00     0.010 A 
ATOM     41  C   UNL A   1      43.731  25.865  26.566  1.00  0.00     0.010 A 
ATOM     42  C   UNL A   1      45.093  26.092  26.842  1.00  0.00    -0.014 A 
BRANCH  42  43
ATOM     43  C   UNL A   1      45.420  27.057  27.922  1.00  0.00     0.031 A 
ATOM     44  C   UNL A   1      45.410  26.530  29.332  1.00  0.00     0.074 A 
ATOM     45  C   UNL A   1      45.661  28.359  27.687  1.00  0.00     0.049 A 
ATOM     46  N   UNL A   1      45.409  27.176  30.468  1.00  0.00    -0.248 NA
ATOM     47  C   UNL A   1      45.360  25.063  29.474  1.00  0.00     0.031 C 
ATOM     48  C   UNL A   1      45.750  28.988  26.371  1.00  0.00     0.029 A 
ATOM     49  N   UNL A   1      45.853  29.396  28.569  1.00  0.00    -0.354 N 
ATOM     50  C   UNL A   1      45.323  26.199  31.450  1.00  0.00     0.074 A 
ATOM     51  C   UNL A   1      45.227  24.921  30.782  1.00  0.00     0.031 C 
ATOM     52  C   UNL A   1      45.969  30.307  26.533  1.00  0.00     0.029 A 
ATOM     53  C   UNL A   1      45.982  30.621  27.961  1.00  0.00     0.049 A 
ATOM     54  H   UNL A   1      45.894  29.271  29.544  1.00  0.00     0.167 HD
ATOM     55  C   UNL A   1      45.342  26.348  32.794  1.00  0.00     0.037 A 
ATOM     56  C   UNL A   1      46.066  31.853  28.505  1.00  0.00     0.037 A 
ATOM     57  C   UNL A   1      45.468  27.616  33.457  1.00  0.00     0.049 A 
ATOM     58  C   UNL A   1      46.012  32.003  30.010  1.00  0.00     0.074 A 
ATOM     59  C   UNL A   1      45.488  27.881  34.813  1.00  0.00     0.029 A 
ATOM     60  N   UNL A   1      45.611  28.829  32.803  1.00  0.00    -0.354 N 
ATOM     61  N   UNL A   1      45.921  31.077  30.934  1.00  0.00    -0.248 NA
ATOM     62  C   UNL A   1      46.070  33.372  30.546  1.00  0.00     0.031 C 
ATOM     63  C   UNL A   1      45.613  29.262  34.981  1.00  0.00     0.029 A 
ATOM     64  C   UNL A   1      45.722  29.849  33.731  1.00  0.00     0.049 A 
ATOM     65  H   UNL A   1      45.629  28.948  31.826  1.00  0.00     0.167 HD
ATOM     66  C   UNL A   1      45.963  31.745  32.152  1.00  0.00     0.074 A 
ATOM     67  C   UNL A   1      46.085  33.154  31.854  1.00  0.00     0.031 C 
ATOM     68  C   UNL A   1      45.907  31.238  33.408  1.00  0.00     0.037 A 
BRANCH  55  69
ATOM     69  C   UNL A   1      45.228  25.110  33.632  1.00  0.00     0.064 A 
ATOM     70  C   UNL A   1      43.997  24.699  34.164  1.00  0.00     0.173 A 
ATOM     71  C   UNL A   1      46.352  24.310  33.878  1.00  0.00     0.173 A 
ATOM     72  F   UNL A   1      42.896  25.442  33.975  1.00  0.00    -0.203 F 
ATOM     73  C   UNL A   1      43.902  23.543  34.933  1.00  0.00     0.198 A 
ATOM     74  C   UNL A   1      46.246  23.138  34.619  1.00  0.00     0.198 A 
ATOM     75  F   UNL A   1      47.552  24.660  33.390  1.00  0.00    -0.203 F 
ATOM     76  F   UNL A   1      42.725  23.196  35.473  1.00  0.00    -0.200 F 
ATOM     77  C   UNL A   1      45.024  22.758  35.151  1.00  0.00     0.200 A 
ATOM     78  F   UNL A   1      47.329  22.373  34.818  1.00  0.00    -0.200 F 
ATOM     79  F   UNL A   1      44.927  21.638  35.881  1.00  0.00    -0.200 F 
ENDBRANCH  55  69
BRANCH  56  80
ATOM     80  C   UNL A   1      46.189  33.061  27.643  1.00  0.00     0.064 A 
ATOM     81  C   UNL A   1      47.449  33.528  27.234  1.00  0.00     0.173 A 
ATOM     82  C   UNL A   1      45.067  33.816  27.270  1.00  0.00     0.173 A 
ATOM     83  F   UNL A   1      48.556  32.858  27.587  1.00  0.00    -0.203 F 
ATOM     84  C   UNL A   1      47.583  34.718  26.522  1.00  0.00     0.198 A 
ATOM     85  C   UNL A   1      45.201  34.989  26.529  1.00  0.00     0.198 A 
ATOM     86  F   UNL A   1      43.840  33.420  27.634  1.00  0.00    -0.203 F 
ATOM     87  F   UNL A   1      48.804  35.174  26.209  1.00  0.00    -0.200 F 
ATOM     88  C   UNL A   1      46.459  35.448  26.169  1.00  0.00     0.200 A 
ATOM     89  F   UNL A   1      44.111  35.686  26.178  1.00  0.00    -0.200 F 
ATOM     90  F   UNL A   1      46.589  36.598  25.494  1.00  0.00    -0.200 F 
ENDBRANCH  56  80
BRANCH  68  91
ATOM     91  C   UNL A   1      46.076  32.184  34.561  1.00  0.00     0.064 A 
ATOM     92  C   UNL A   1      47.339  32.513  35.072  1.00  0.00     0.173 A 
ATOM     93  C   UNL A   1      44.958  32.848  35.089  1.00  0.00     0.173 A 
ATOM     94  F   UNL A   1      48.436  31.897  34.607  1.00  0.00    -0.203 F 
ATOM     95  C   UNL A   1      47.475  33.470  36.074  1.00  0.00     0.198 A 
ATOM     96  C   UNL A   1      45.101  33.825  36.069  1.00  0.00     0.198 A 
ATOM     97  F   UNL A   1      43.728  32.575  34.624  1.00  0.00    -0.203 F 
ATOM     98  F   UNL A   1      48.689  33.753  36.565  1.00  0.00    -0.200 F 
ATOM     99  C   UNL A   1      46.358  34.133  36.563  1.00  0.00     0.200 A 
ATOM    100  F   UNL A   1      44.022  34.476  36.526  1.00  0.00    -0.200 F 
ATOM    101  F   UNL A   1      46.495  35.071  37.509  1.00  0.00    -0.200 F 
ENDBRANCH  68  91
ENDBRANCH  42  43
ENDBRANCH  35  37
ENDBRANCH  34  35
ENDBRANCH  33  34
ENDBRANCH  32  33
ENDBRANCH  31  32
ENDBRANCH  30  31
ENDBRANCH  29  30
ENDBRANCH  28  29
ENDBRANCH   1  28
TORSDOF 23
ENDMDL
