MODEL 1
REMARK VINA RESULT:     -10.5      0.000      0.000
REMARK SMILES O=C(Cc1cc(=O)[nH]c(=O)[nH]1)Nc1cccc(C(=O)OCCOCCOCCOCCOC(=O)c2ccc(-c3c4nc(c(-c5c(F)c(F)c(F)c(F)c5F)c5ccc([nH]5)c(-c5c(F)c(F)c(F)c(F)c5F)c5nc(c(-c6c(F)c(F)c(F)c(F)c6F)c6ccc3[nH]6)C=C5)C=C4)cc2)c1
REMARK SMILES IDX 25 1 24 2 23 3 22 4 21 5 20 6 18 7 19 8 17 9 13 10 14 11
REMARK SMILES IDX 98 12 15 13 16 14 12 15 1 16 2 17 3 19 4 20 5 21 11 22 6 23
REMARK SMILES IDX 9 24 7 26 8 27 10 28 26 30 27 31 28 32 29 33 30 34 31 35
REMARK SMILES IDX 32 36 33 37 34 38 35 39 36 40 97 41 37 42 96 43 38 44 39 45
REMARK SMILES IDX 40 46 90 47 41 48 95 49 89 50 91 51 42 52 94 53 88 54 87 55
REMARK SMILES IDX 43 57 75 58 55 59 74 60 56 61 59 62 73 63 92 64 57 65 58 66
REMARK SMILES IDX 72 68 93 69 60 70 44 71 45 72 53 73 46 74 47 75 51 76 54 77
REMARK SMILES IDX 48 78 49 79 52 80 50 81 76 82 77 83 85 84 78 85 79 86 83 87
REMARK SMILES IDX 86 88 80 89 81 90 84 91 82 92 61 93 62 94 70 95 63 96 64 97
REMARK SMILES IDX 68 98 71 99 65 100 66 101 69 102 67 103
REMARK H PARENT 12 18 11 25 8 29 91 56 59 67
REMARK Flexibility Score: inf
ROOT
ATOM      1  C   UNL A   1      33.500  26.521  22.515  1.00  0.00     0.188 C 
ENDROOT
BRANCH   1   2
ATOM      2  C   UNL A   1      33.166  25.017  22.640  1.00  0.00     0.188 C 
BRANCH   2   3
ATOM      3  O   UNL A   1      31.883  24.758  23.180  1.00  0.00    -0.376 OA
BRANCH   3   4
ATOM      4  C   UNL A   1      31.773  24.278  24.505  1.00  0.00     0.202 C 
BRANCH   4   5
ATOM      5  C   UNL A   1      32.432  22.940  24.858  1.00  0.00     0.261 C 
BRANCH   5   6
ATOM      6  O   UNL A   1      33.405  22.977  25.904  1.00  0.00    -0.460 OA
BRANCH   6   7
ATOM      7  C   UNL A   1      34.577  23.605  25.660  1.00  0.00     0.338 C 
ATOM      8  O   UNL A   1      34.799  24.802  25.742  1.00  0.00    -0.246 OA
BRANCH   7   9
ATOM      9  C   UNL A   1      35.606  22.550  25.506  1.00  0.00     0.062 A 
ATOM     10  C   UNL A   1      37.940  21.897  25.509  1.00  0.00     0.042 A 
ATOM     11  C   UNL A   1      37.581  20.671  24.934  1.00  0.00     0.026 A 
ATOM     12  C   UNL A   1      36.949  22.845  25.761  1.00  0.00     0.041 A 
ATOM     13  C   UNL A   1      36.237  20.371  24.685  1.00  0.00     0.003 A 
ATOM     14  C   UNL A   1      35.244  21.302  24.990  1.00  0.00     0.016 A 
BRANCH  10  15
ATOM     15  N   UNL A   1      39.299  22.122  25.811  1.00  0.00    -0.326 N 
ATOM     16  O   UNL A   1      40.018  19.930  26.174  1.00  0.00    -0.274 OA
ATOM     17  C   UNL A   1      40.224  21.140  26.139  1.00  0.00     0.230 C 
ATOM     18  H   UNL A   1      39.619  23.053  25.786  1.00  0.00     0.169 HD
BRANCH  17  19
ATOM     19  C   UNL A   1      41.613  21.683  26.443  1.00  0.00     0.154 C 
BRANCH  19  20
ATOM     20  C   UNL A   1      42.677  20.677  26.101  1.00  0.00     0.034 A 
ATOM     21  C   UNL A   1      43.694  20.937  25.267  1.00  0.00     0.093 A 
ATOM     22  N   UNL A   1      42.577  19.435  26.683  1.00  0.00    -0.311 N 
ATOM     23  C   UNL A   1      44.697  19.888  24.998  1.00  0.00     0.253 A 
ATOM     24  C   UNL A   1      43.469  18.419  26.479  1.00  0.00     0.325 A 
ATOM     25  H   UNL A   1      41.817  19.267  27.285  1.00  0.00     0.171 HD
ATOM     26  O   UNL A   1      45.642  20.094  24.246  1.00  0.00    -0.269 OA
ATOM     27  N   UNL A   1      44.504  18.696  25.636  1.00  0.00    -0.274 N 
ATOM     28  O   UNL A   1      43.338  17.333  27.033  1.00  0.00    -0.248 OA
ATOM     29  H   UNL A   1      45.163  17.984  25.476  1.00  0.00     0.175 HD
ENDBRANCH  19  20
ENDBRANCH  17  19
ENDBRANCH  10  15
ENDBRANCH   7   9
ENDBRANCH   6   7
ENDBRANCH   5   6
ENDBRANCH   4   5
ENDBRANCH   3   4
ENDBRANCH   2   3
ENDBRANCH   1   2
BRANCH   1  30
ATOM     30  O   UNL A   1      32.508  27.437  22.070  1.00  0.00    -0.377 OA
BRANCH  30  31
ATOM     31  C   UNL A   1      32.246  28.623  22.816  1.00  0.00     0.188 C 
BRANCH  31  32
ATOM     32  C   UNL A   1      31.611  28.560  24.226  1.00  0.00     0.188 C 
BRANCH  32  33
ATOM     33  O   UNL A   1      30.980  29.758  24.641  1.00  0.00    -0.376 OA
BRANCH  33  34
ATOM     34  C   UNL A   1      31.512  30.433  25.765  1.00  0.00     0.202 C 
BRANCH  34  35
ATOM     35  C   UNL A   1      32.958  30.103  26.158  1.00  0.00     0.261 C 
BRANCH  35  36
ATOM     36  O   UNL A   1      33.333  30.415  27.509  1.00  0.00    -0.460 OA
BRANCH  36  37
ATOM     37  C   UNL A   1      34.098  31.510  27.693  1.00  0.00     0.338 C 
ATOM     38  O   UNL A   1      33.746  32.678  27.625  1.00  0.00    -0.246 OA
BRANCH  37  39
ATOM     39  C   UNL A   1      35.418  31.066  28.179  1.00  0.00     0.060 A 
ATOM     40  C   UNL A   1      35.587  29.728  28.558  1.00  0.00     0.016 A 
ATOM     41  C   UNL A   1      36.481  31.969  28.269  1.00  0.00     0.016 A 
ATOM     42  C   UNL A   1      36.807  29.301  29.078  1.00  0.00     0.010 A 
ATOM     43  C   UNL A   1      37.698  31.544  28.808  1.00  0.00     0.010 A 
ATOM     44  C   UNL A   1      37.851  30.220  29.255  1.00  0.00    -0.014 A 
BRANCH  44  45
ATOM     45  C   UNL A   1      39.012  29.836  30.095  1.00  0.00     0.031 A 
ATOM     46  C   UNL A   1      39.097  30.387  31.492  1.00  0.00     0.074 A 
ATOM     47  C   UNL A   1      39.944  28.976  29.647  1.00  0.00     0.049 A 
ATOM     48  N   UNL A   1      40.004  30.188  32.414  1.00  0.00    -0.248 NA
ATOM     49  C   UNL A   1      38.007  31.285  31.907  1.00  0.00     0.031 C 
ATOM     50  C   UNL A   1      39.953  28.351  28.328  1.00  0.00     0.029 A 
ATOM     51  N   UNL A   1      41.066  28.482  30.264  1.00  0.00    -0.354 N 
ATOM     52  C   UNL A   1      39.597  30.939  33.510  1.00  0.00     0.074 A 
ATOM     53  C   UNL A   1      38.384  31.627  33.129  1.00  0.00     0.031 C 
ATOM     54  C   UNL A   1      41.034  27.557  28.230  1.00  0.00     0.029 A 
ATOM     55  C   UNL A   1      41.805  27.643  29.468  1.00  0.00     0.049 A 
ATOM     56  H   UNL A   1      41.317  28.709  31.189  1.00  0.00     0.167 HD
ATOM     57  C   UNL A   1      40.179  31.036  34.730  1.00  0.00     0.037 A 
ATOM     58  C   UNL A   1      42.980  27.029  29.711  1.00  0.00     0.037 A 
ATOM     59  C   UNL A   1      41.386  30.350  35.106  1.00  0.00     0.049 A 
ATOM     60  C   UNL A   1      43.637  27.201  31.058  1.00  0.00     0.074 A 
ATOM     61  C   UNL A   1      42.045  30.367  36.322  1.00  0.00     0.029 A 
ATOM     62  N   UNL A   1      42.125  29.530  34.263  1.00  0.00    -0.354 N 
ATOM     63  N   UNL A   1      43.231  27.886  32.101  1.00  0.00    -0.248 NA
ATOM     64  C   UNL A   1      44.912  26.500  31.265  1.00  0.00     0.031 C 
ATOM     65  C   UNL A   1      43.217  29.612  36.197  1.00  0.00     0.029 A 
ATOM     66  C   UNL A   1      43.248  29.060  34.926  1.00  0.00     0.049 A 
ATOM     67  H   UNL A   1      41.885  29.316  33.333  1.00  0.00     0.167 HD
ATOM     68  C   UNL A   1      44.179  27.670  33.095  1.00  0.00     0.074 A 
ATOM     69  C   UNL A   1      45.169  26.775  32.535  1.00  0.00     0.031 C 
ATOM     70  C   UNL A   1      44.225  28.166  34.357  1.00  0.00     0.037 A 
BRANCH  57  71
ATOM     71  C   UNL A   1      39.534  31.947  35.735  1.00  0.00     0.064 A 
ATOM     72  C   UNL A   1      38.567  31.487  36.644  1.00  0.00     0.173 A 
ATOM     73  C   UNL A   1      39.912  33.296  35.812  1.00  0.00     0.173 A 
ATOM     74  F   UNL A   1      38.156  30.211  36.604  1.00  0.00    -0.203 F 
ATOM     75  C   UNL A   1      37.986  32.349  37.571  1.00  0.00     0.198 A 
ATOM     76  C   UNL A   1      39.354  34.147  36.763  1.00  0.00     0.198 A 
ATOM     77  F   UNL A   1      40.831  33.789  34.969  1.00  0.00    -0.203 F 
ATOM     78  F   UNL A   1      37.027  31.900  38.392  1.00  0.00    -0.200 F 
ATOM     79  C   UNL A   1      38.387  33.675  37.635  1.00  0.00     0.200 A 
ATOM     80  F   UNL A   1      39.753  35.424  36.833  1.00  0.00    -0.200 F 
ATOM     81  F   UNL A   1      37.833  34.501  38.534  1.00  0.00    -0.200 F 
ENDBRANCH  57  71
BRANCH  58  82
ATOM     82  C   UNL A   1      43.621  26.199  28.657  1.00  0.00     0.064 A 
ATOM     83  C   UNL A   1      43.642  24.800  28.741  1.00  0.00     0.173 A 
ATOM     84  C   UNL A   1      44.259  26.793  27.556  1.00  0.00     0.173 A 
ATOM     85  F   UNL A   1      43.070  24.183  29.786  1.00  0.00    -0.203 F 
ATOM     86  C   UNL A   1      44.299  24.028  27.783  1.00  0.00     0.198 A 
ATOM     87  C   UNL A   1      44.885  26.019  26.581  1.00  0.00     0.198 A 
ATOM     88  F   UNL A   1      44.272  28.127  27.427  1.00  0.00    -0.203 F 
ATOM     89  F   UNL A   1      44.355  22.697  27.923  1.00  0.00    -0.200 F 
ATOM     90  C   UNL A   1      44.914  24.639  26.701  1.00  0.00     0.200 A 
ATOM     91  F   UNL A   1      45.467  26.613  25.531  1.00  0.00    -0.200 F 
ATOM     92  F   UNL A   1      45.545  23.897  25.780  1.00  0.00    -0.200 F 
ENDBRANCH  58  82
BRANCH  70  93
ATOM     93  C   UNL A   1      45.358  27.708  35.237  1.00  0.00     0.064 A 
ATOM     94  C   UNL A   1      46.568  28.413  35.323  1.00  0.00     0.173 A 
ATOM     95  C   UNL A   1      45.224  26.545  36.014  1.00  0.00     0.173 A 
ATOM     96  F   UNL A   1      46.754  29.526  34.596  1.00  0.00    -0.203 F 
ATOM     97  C   UNL A   1      47.617  27.945  36.110  1.00  0.00     0.198 A 
ATOM     98  C   UNL A   1      46.260  26.104  36.833  1.00  0.00     0.198 A 
ATOM     99  F   UNL A   1      44.084  25.838  35.984  1.00  0.00    -0.203 F 
ATOM    100  F   UNL A   1      48.788  28.595  36.116  1.00  0.00    -0.200 F 
ATOM    101  C   UNL A   1      47.460  26.795  36.869  1.00  0.00     0.200 A 
ATOM    102  F   UNL A   1      46.097  25.003  37.581  1.00  0.00    -0.200 F 
ATOM    103  F   UNL A   1      48.471  26.346  37.625  1.00  0.00    -0.200 F 
ENDBRANCH  70  93
ENDBRANCH  44  45
ENDBRANCH  37  39
ENDBRANCH  36  37
ENDBRANCH  35  36
ENDBRANCH  34  35
ENDBRANCH  33  34
ENDBRANCH  32  33
ENDBRANCH  31  32
ENDBRANCH  30  31
ENDBRANCH   1  30
TORSDOF 23
ENDMDL
MODEL 2
REMARK VINA RESULT:     -10.1      1.571      2.159
REMARK SMILES O=C(Cc1cc(=O)[nH]c(=O)[nH]1)Nc1cccc(C(=O)OCCOCCOCCOCCOC(=O)c2ccc(-c3c4nc(c(-c5c(F)c(F)c(F)c(F)c5F)c5ccc([nH]5)c(-c5c(F)c(F)c(F)c(F)c5F)c5nc(c(-c6c(F)c(F)c(F)c(F)c6F)c6ccc3[nH]6)C=C5)C=C4)cc2)c1
REMARK SMILES IDX 25 1 24 2 23 3 22 4 21 5 20 6 18 7 19 8 17 9 13 10 14 11
REMARK SMILES IDX 98 12 15 13 16 14 12 15 1 16 2 17 3 19 4 20 5 21 11 22 6 23
REMARK SMILES IDX 9 24 7 26 8 27 10 28 26 30 27 31 28 32 29 33 30 34 31 35
REMARK SMILES IDX 32 36 33 37 34 38 35 39 36 40 97 41 37 42 96 43 38 44 39 45
REMARK SMILES IDX 40 46 90 47 41 48 95 49 89 50 91 51 42 52 94 53 88 54 87 55
REMARK SMILES IDX 43 57 75 58 55 59 74 60 56 61 59 62 73 63 92 64 57 65 58 66
REMARK SMILES IDX 72 68 93 69 60 70 44 71 45 72 53 73 46 74 47 75 51 76 54 77
REMARK SMILES IDX 48 78 49 79 52 80 50 81 76 82 77 83 85 84 78 85 79 86 83 87
REMARK SMILES IDX 86 88 80 89 81 90 84 91 82 92 61 93 62 94 70 95 63 96 64 97
REMARK SMILES IDX 68 98 71 99 65 100 66 101 69 102 67 103
REMARK H PARENT 12 18 11 25 8 29 91 56 59 67
REMARK Flexibility Score: inf
ROOT
ATOM      1  C   UNL A   1      33.645  26.207  22.379  1.00  0.00     0.188 C 
ENDROOT
BRANCH   1   2
ATOM      2  C   UNL A   1      32.681  25.002  22.477  1.00  0.00     0.188 C 
BRANCH   2   3
ATOM      3  O   UNL A   1      31.319  25.367  22.597  1.00  0.00    -0.376 OA
BRANCH   3   4
ATOM      4  C   UNL A   1      30.756  25.530  23.884  1.00  0.00     0.202 C 
BRANCH   4   5
ATOM      5  C   UNL A   1      30.440  24.278  24.710  1.00  0.00     0.261 C 
BRANCH   5   6
ATOM      6  O   UNL A   1      31.151  24.146  25.943  1.00  0.00    -0.460 OA
BRANCH   6   7
ATOM      7  C   UNL A   1      32.501  24.112  25.897  1.00  0.00     0.338 C 
ATOM      8  O   UNL A   1      33.269  24.999  26.233  1.00  0.00    -0.246 OA
BRANCH   7   9
ATOM      9  C   UNL A   1      32.887  22.714  25.590  1.00  0.00     0.062 A 
ATOM     10  C   UNL A   1      34.618  21.040  25.320  1.00  0.00     0.042 A 
ATOM     11  C   UNL A   1      33.677  20.185  24.733  1.00  0.00     0.026 A 
ATOM     12  C   UNL A   1      34.222  22.317  25.716  1.00  0.00     0.041 A 
ATOM     13  C   UNL A   1      32.339  20.578  24.613  1.00  0.00     0.003 A 
ATOM     14  C   UNL A   1      31.937  21.837  25.061  1.00  0.00     0.016 A 
BRANCH  10  15
ATOM     15  N   UNL A   1      35.937  20.569  25.487  1.00  0.00    -0.326 N 
ATOM     16  O   UNL A   1      37.070  21.947  23.981  1.00  0.00    -0.274 OA
ATOM     17  C   UNL A   1      37.051  21.033  24.800  1.00  0.00     0.230 C 
ATOM     18  H   UNL A   1      36.080  19.852  26.146  1.00  0.00     0.169 HD
BRANCH  17  19
ATOM     19  C   UNL A   1      38.341  20.316  25.169  1.00  0.00     0.154 C 
BRANCH  19  20
ATOM     20  C   UNL A   1      39.218  21.183  26.029  1.00  0.00     0.034 A 
ATOM     21  C   UNL A   1      40.437  20.811  26.447  1.00  0.00     0.093 A 
ATOM     22  N   UNL A   1      38.722  22.412  26.394  1.00  0.00    -0.311 N 
ATOM     23  C   UNL A   1      41.230  21.734  27.282  1.00  0.00     0.253 A 
ATOM     24  C   UNL A   1      39.401  23.316  27.163  1.00  0.00     0.325 A 
ATOM     25  H   UNL A   1      37.822  22.658  26.080  1.00  0.00     0.171 HD
ATOM     26  O   UNL A   1      42.349  21.429  27.676  1.00  0.00    -0.269 OA
ATOM     27  N   UNL A   1      40.642  22.931  27.575  1.00  0.00    -0.274 N 
ATOM     28  O   UNL A   1      38.915  24.404  27.450  1.00  0.00    -0.248 OA
ATOM     29  H   UNL A   1      41.155  23.565  28.127  1.00  0.00     0.175 HD
ENDBRANCH  19  20
ENDBRANCH  17  19
ENDBRANCH  10  15
ENDBRANCH   7   9
ENDBRANCH   6   7
ENDBRANCH   5   6
ENDBRANCH   4   5
ENDBRANCH   3   4
ENDBRANCH   2   3
ENDBRANCH   1   2
BRANCH   1  30
ATOM     30  O   UNL A   1      33.165  27.469  21.933  1.00  0.00    -0.377 OA
BRANCH  30  31
ATOM     31  C   UNL A   1      33.124  28.575  22.831  1.00  0.00     0.188 C 
BRANCH  31  32
ATOM     32  C   UNL A   1      32.251  28.541  24.108  1.00  0.00     0.188 C 
BRANCH  32  33
ATOM     33  O   UNL A   1      31.461  29.698  24.313  1.00  0.00    -0.376 OA
BRANCH  33  34
ATOM     34  C   UNL A   1      31.559  30.357  25.561  1.00  0.00     0.202 C 
BRANCH  34  35
ATOM     35  C   UNL A   1      32.771  30.013  26.438  1.00  0.00     0.261 C 
BRANCH  35  36
ATOM     36  O   UNL A   1      32.882  30.737  27.673  1.00  0.00    -0.460 OA
BRANCH  36  37
ATOM     37  C   UNL A   1      33.641  31.852  27.660  1.00  0.00     0.338 C 
ATOM     38  O   UNL A   1      33.261  33.004  27.516  1.00  0.00    -0.246 OA
BRANCH  37  39
ATOM     39  C   UNL A   1      35.016  31.471  28.036  1.00  0.00     0.060 A 
ATOM     40  C   UNL A   1      35.319  30.116  28.217  1.00  0.00     0.016 A 
ATOM     41  C   UNL A   1      35.997  32.449  28.219  1.00  0.00     0.016 A 
ATOM     42  C   UNL A   1      36.594  29.737  28.632  1.00  0.00     0.010 A 
ATOM     43  C   UNL A   1      37.270  32.069  28.653  1.00  0.00     0.010 A 
ATOM     44  C   UNL A   1      37.560  30.716  28.903  1.00  0.00    -0.014 A 
BRANCH  44  45
ATOM     45  C   UNL A   1      38.787  30.331  29.642  1.00  0.00     0.031 A 
ATOM     46  C   UNL A   1      38.936  30.790  31.067  1.00  0.00     0.074 A 
ATOM     47  C   UNL A   1      39.724  29.547  29.080  1.00  0.00     0.049 A 
ATOM     48  N   UNL A   1      39.908  30.572  31.916  1.00  0.00    -0.248 NA
ATOM     49  C   UNL A   1      37.838  31.607  31.608  1.00  0.00     0.031 C 
ATOM     50  C   UNL A   1      39.675  29.013  27.722  1.00  0.00     0.029 A 
ATOM     51  N   UNL A   1      40.902  29.064  29.593  1.00  0.00    -0.354 N 
ATOM     52  C   UNL A   1      39.540  31.228  33.085  1.00  0.00     0.074 A 
ATOM     53  C   UNL A   1      38.278  31.884  32.826  1.00  0.00     0.031 C 
ATOM     54  C   UNL A   1      40.779  28.278  27.504  1.00  0.00     0.029 A 
ATOM     55  C   UNL A   1      41.623  28.315  28.697  1.00  0.00     0.049 A 
ATOM     56  H   UNL A   1      41.201  29.240  30.514  1.00  0.00     0.167 HD
ATOM     57  C   UNL A   1      40.194  31.270  34.271  1.00  0.00     0.037 A 
ATOM     58  C   UNL A   1      42.836  27.741  28.825  1.00  0.00     0.037 A 
ATOM     59  C   UNL A   1      41.450  30.617  34.525  1.00  0.00     0.049 A 
ATOM     60  C   UNL A   1      43.569  27.852  30.139  1.00  0.00     0.074 A 
ATOM     61  C   UNL A   1      42.183  30.582  35.697  1.00  0.00     0.029 A 
ATOM     62  N   UNL A   1      42.167  29.890  33.584  1.00  0.00    -0.354 N 
ATOM     63  N   UNL A   1      43.202  28.447  31.249  1.00  0.00    -0.248 NA
ATOM     64  C   UNL A   1      44.883  27.199  30.219  1.00  0.00     0.031 C 
ATOM     65  C   UNL A   1      43.375  29.892  35.449  1.00  0.00     0.029 A 
ATOM     66  C   UNL A   1      43.349  29.429  34.143  1.00  0.00     0.049 A 
ATOM     67  H   UNL A   1      41.878  29.727  32.658  1.00  0.00     0.167 HD
ATOM     68  C   UNL A   1      44.219  28.209  32.167  1.00  0.00     0.074 A 
ATOM     69  C   UNL A   1      45.208  27.399  31.487  1.00  0.00     0.031 C 
ATOM     70  C   UNL A   1      44.324  28.620  33.456  1.00  0.00     0.037 A 
BRANCH  57  71
ATOM     71  C   UNL A   1      39.575  32.081  35.375  1.00  0.00     0.064 A 
ATOM     72  C   UNL A   1      38.713  31.510  36.324  1.00  0.00     0.173 A 
ATOM     73  C   UNL A   1      39.877  33.445  35.503  1.00  0.00     0.173 A 
ATOM     74  F   UNL A   1      38.378  30.214  36.240  1.00  0.00    -0.203 F 
ATOM     75  C   UNL A   1      38.156  32.281  37.342  1.00  0.00     0.198 A 
ATOM     76  C   UNL A   1      39.345  34.205  36.542  1.00  0.00     0.198 A 
ATOM     77  F   UNL A   1      40.695  34.042  34.624  1.00  0.00    -0.203 F 
ATOM     78  F   UNL A   1      37.293  31.726  38.205  1.00  0.00    -0.200 F 
ATOM     79  C   UNL A   1      38.480  33.625  37.455  1.00  0.00     0.200 A 
ATOM     80  F   UNL A   1      39.671  35.500  36.657  1.00  0.00    -0.200 F 
ATOM     81  F   UNL A   1      37.950  34.362  38.441  1.00  0.00    -0.200 F 
ENDBRANCH  57  71
BRANCH  58  82
ATOM     82  C   UNL A   1      43.443  27.014  27.678  1.00  0.00     0.064 A 
ATOM     83  C   UNL A   1      43.383  25.616  27.586  1.00  0.00     0.173 A 
ATOM     84  C   UNL A   1      44.128  27.704  26.666  1.00  0.00     0.173 A 
ATOM     85  F   UNL A   1      42.764  24.908  28.542  1.00  0.00    -0.203 F 
ATOM     86  C   UNL A   1      44.008  24.935  26.543  1.00  0.00     0.198 A 
ATOM     87  C   UNL A   1      44.722  27.023  25.604  1.00  0.00     0.198 A 
ATOM     88  F   UNL A   1      44.219  29.040  26.705  1.00  0.00    -0.203 F 
ATOM     89  F   UNL A   1      43.987  23.595  26.515  1.00  0.00    -0.200 F 
ATOM     90  C   UNL A   1      44.672  25.639  25.551  1.00  0.00     0.200 A 
ATOM     91  F   UNL A   1      45.351  27.709  24.641  1.00  0.00    -0.200 F 
ATOM     92  F   UNL A   1      45.272  24.983  24.547  1.00  0.00    -0.200 F 
ENDBRANCH  58  82
BRANCH  70  93
ATOM     93  C   UNL A   1      45.528  28.157  34.232  1.00  0.00     0.064 A 
ATOM     94  C   UNL A   1      46.775  28.792  34.123  1.00  0.00     0.173 A 
ATOM     95  C   UNL A   1      45.428  27.062  35.105  1.00  0.00     0.173 A 
ATOM     96  F   UNL A   1      46.931  29.838  33.296  1.00  0.00    -0.203 F 
ATOM     97  C   UNL A   1      47.885  28.317  34.818  1.00  0.00     0.198 A 
ATOM     98  C   UNL A   1      46.530  26.616  35.831  1.00  0.00     0.198 A 
ATOM     99  F   UNL A   1      44.257  26.424  35.261  1.00  0.00    -0.203 F 
ATOM    100  F   UNL A   1      49.081  28.894  34.639  1.00  0.00    -0.200 F 
ATOM    101  C   UNL A   1      47.760  27.234  35.675  1.00  0.00     0.200 A 
ATOM    102  F   UNL A   1      46.401  25.582  36.674  1.00  0.00    -0.200 F 
ATOM    103  F   UNL A   1      48.829  26.778  36.341  1.00  0.00    -0.200 F 
ENDBRANCH  70  93
ENDBRANCH  44  45
ENDBRANCH  37  39
ENDBRANCH  36  37
ENDBRANCH  35  36
ENDBRANCH  34  35
ENDBRANCH  33  34
ENDBRANCH  32  33
ENDBRANCH  31  32
ENDBRANCH  30  31
ENDBRANCH   1  30
TORSDOF 23
ENDMDL
MODEL 3
REMARK VINA RESULT:      -9.9      1.212      2.213
REMARK SMILES O=C(Cc1cc(=O)[nH]c(=O)[nH]1)Nc1cccc(C(=O)OCCOCCOCCOCCOC(=O)c2ccc(-c3c4nc(c(-c5c(F)c(F)c(F)c(F)c5F)c5ccc([nH]5)c(-c5c(F)c(F)c(F)c(F)c5F)c5nc(c(-c6c(F)c(F)c(F)c(F)c6F)c6ccc3[nH]6)C=C5)C=C4)cc2)c1
REMARK SMILES IDX 25 1 24 2 23 3 22 4 21 5 20 6 18 7 19 8 17 9 13 10 14 11
REMARK SMILES IDX 98 12 15 13 16 14 12 15 1 16 2 17 3 19 4 20 5 21 11 22 6 23
REMARK SMILES IDX 9 24 7 26 8 27 10 28 26 30 27 31 28 32 29 33 30 34 31 35
REMARK SMILES IDX 32 36 33 37 34 38 35 39 36 40 97 41 37 42 96 43 38 44 39 45
REMARK SMILES IDX 40 46 90 47 41 48 95 49 89 50 91 51 42 52 94 53 88 54 87 55
REMARK SMILES IDX 43 57 75 58 55 59 74 60 56 61 59 62 73 63 92 64 57 65 58 66
REMARK SMILES IDX 72 68 93 69 60 70 44 71 45 72 53 73 46 74 47 75 51 76 54 77
REMARK SMILES IDX 48 78 49 79 52 80 50 81 76 82 77 83 85 84 78 85 79 86 83 87
REMARK SMILES IDX 86 88 80 89 81 90 84 91 82 92 61 93 62 94 70 95 63 96 64 97
REMARK SMILES IDX 68 98 71 99 65 100 66 101 69 102 67 103
REMARK H PARENT 12 18 11 25 8 29 91 56 59 67
REMARK Flexibility Score: inf
ROOT
ATOM      1  C   UNL A   1      32.148  26.974  22.391  1.00  0.00     0.188 C 
ENDROOT
BRANCH   1   2
ATOM      2  C   UNL A   1      33.095  25.755  22.468  1.00  0.00     0.188 C 
BRANCH   2   3
ATOM      3  O   UNL A   1      32.998  25.029  23.679  1.00  0.00    -0.376 OA
BRANCH   3   4
ATOM      4  C   UNL A   1      34.145  24.883  24.493  1.00  0.00     0.202 C 
BRANCH   4   5
ATOM      5  C   UNL A   1      34.780  23.494  24.623  1.00  0.00     0.261 C 
BRANCH   5   6
ATOM      6  O   UNL A   1      36.205  23.464  24.724  1.00  0.00    -0.460 OA
BRANCH   6   7
ATOM      7  C   UNL A   1      36.755  22.741  25.726  1.00  0.00     0.338 C 
ATOM      8  O   UNL A   1      36.431  21.620  26.085  1.00  0.00    -0.246 OA
BRANCH   7   9
ATOM      9  C   UNL A   1      37.980  23.458  26.152  1.00  0.00     0.062 A 
ATOM     10  C   UNL A   1      40.394  23.663  26.122  1.00  0.00     0.042 A 
ATOM     11  C   UNL A   1      40.313  24.592  27.167  1.00  0.00     0.026 A 
ATOM     12  C   UNL A   1      39.225  23.074  25.643  1.00  0.00     0.041 A 
ATOM     13  C   UNL A   1      39.067  24.984  27.672  1.00  0.00     0.003 A 
ATOM     14  C   UNL A   1      37.896  24.432  27.151  1.00  0.00     0.016 A 
BRANCH  10  15
ATOM     15  N   UNL A   1      41.667  23.358  25.596  1.00  0.00    -0.326 N 
ATOM     16  O   UNL A   1      42.397  21.776  27.150  1.00  0.00    -0.274 OA
ATOM     17  C   UNL A   1      42.575  22.466  26.151  1.00  0.00     0.230 C 
ATOM     18  H   UNL A   1      41.934  23.816  24.767  1.00  0.00     0.169 HD
BRANCH  17  19
ATOM     19  C   UNL A   1      43.882  22.362  25.379  1.00  0.00     0.154 C 
BRANCH  19  20
ATOM     20  C   UNL A   1      44.429  20.961  25.422  1.00  0.00     0.034 A 
ATOM     21  C   UNL A   1      45.738  20.681  25.352  1.00  0.00     0.093 A 
ATOM     22  N   UNL A   1      43.520  19.935  25.536  1.00  0.00    -0.311 N 
ATOM     23  C   UNL A   1      46.183  19.274  25.411  1.00  0.00     0.253 A 
ATOM     24  C   UNL A   1      43.861  18.612  25.597  1.00  0.00     0.325 A 
ATOM     25  H   UNL A   1      42.565  20.168  25.577  1.00  0.00     0.171 HD
ATOM     26  O   UNL A   1      47.371  18.983  25.356  1.00  0.00    -0.269 OA
ATOM     27  N   UNL A   1      45.195  18.339  25.533  1.00  0.00    -0.274 N 
ATOM     28  O   UNL A   1      43.010  17.738  25.710  1.00  0.00    -0.248 OA
ATOM     29  H   UNL A   1      45.468  17.395  25.579  1.00  0.00     0.175 HD
ENDBRANCH  19  20
ENDBRANCH  17  19
ENDBRANCH  10  15
ENDBRANCH   7   9
ENDBRANCH   6   7
ENDBRANCH   5   6
ENDBRANCH   4   5
ENDBRANCH   3   4
ENDBRANCH   2   3
ENDBRANCH   1   2
BRANCH   1  30
ATOM     30  O   UNL A   1      30.842  26.898  22.949  1.00  0.00    -0.377 OA
BRANCH  30  31
ATOM     31  C   UNL A   1      30.279  28.030  23.606  1.00  0.00     0.188 C 
BRANCH  31  32
ATOM     32  C   UNL A   1      30.817  28.514  24.975  1.00  0.00     0.188 C 
BRANCH  32  33
ATOM     33  O   UNL A   1      31.307  29.842  24.979  1.00  0.00    -0.376 OA
BRANCH  33  34
ATOM     34  C   UNL A   1      31.926  30.318  26.159  1.00  0.00     0.202 C 
BRANCH  34  35
ATOM     35  C   UNL A   1      33.355  29.835  26.441  1.00  0.00     0.261 C 
BRANCH  35  36
ATOM     36  O   UNL A   1      33.896  30.178  27.727  1.00  0.00    -0.460 OA
BRANCH  36  37
ATOM     37  C   UNL A   1      34.656  31.290  27.792  1.00  0.00     0.338 C 
ATOM     38  O   UNL A   1      34.301  32.442  27.591  1.00  0.00    -0.246 OA
BRANCH  37  39
ATOM     39  C   UNL A   1      35.975  30.908  28.333  1.00  0.00     0.060 A 
ATOM     40  C   UNL A   1      36.170  29.595  28.780  1.00  0.00     0.016 A 
ATOM     41  C   UNL A   1      37.008  31.845  28.408  1.00  0.00     0.016 A 
ATOM     42  C   UNL A   1      37.387  29.229  29.352  1.00  0.00     0.010 A 
ATOM     43  C   UNL A   1      38.222  31.482  28.998  1.00  0.00     0.010 A 
ATOM     44  C   UNL A   1      38.400  30.185  29.512  1.00  0.00    -0.014 A 
BRANCH  44  45
ATOM     45  C   UNL A   1      39.548  29.876  30.398  1.00  0.00     0.031 A 
ATOM     46  C   UNL A   1      39.562  30.467  31.782  1.00  0.00     0.074 A 
ATOM     47  C   UNL A   1      40.530  29.045  30.006  1.00  0.00     0.049 A 
ATOM     48  N   UNL A   1      40.446  30.334  32.737  1.00  0.00    -0.248 NA
ATOM     49  C   UNL A   1      38.422  31.328  32.135  1.00  0.00     0.031 C 
ATOM     50  C   UNL A   1      40.608  28.384  28.706  1.00  0.00     0.029 A 
ATOM     51  N   UNL A   1      41.651  28.616  30.673  1.00  0.00    -0.354 N 
ATOM     52  C   UNL A   1      39.972  31.096  33.797  1.00  0.00     0.074 A 
ATOM     53  C   UNL A   1      38.744  31.720  33.358  1.00  0.00     0.031 C 
ATOM     54  C   UNL A   1      41.724  27.635  28.666  1.00  0.00     0.029 A 
ATOM     55  C   UNL A   1      42.450  27.788  29.925  1.00  0.00     0.049 A 
ATOM     56  H   UNL A   1      41.860  28.879  31.598  1.00  0.00     0.167 HD
ATOM     57  C   UNL A   1      40.508  31.253  35.032  1.00  0.00     0.037 A 
ATOM     58  C   UNL A   1      43.641  27.233  30.224  1.00  0.00     0.037 A 
ATOM     59  C   UNL A   1      41.730  30.630  35.467  1.00  0.00     0.049 A 
ATOM     60  C   UNL A   1      44.245  27.470  31.586  1.00  0.00     0.074 A 
ATOM     61  C   UNL A   1      42.347  30.709  36.702  1.00  0.00     0.029 A 
ATOM     62  N   UNL A   1      42.530  29.820  34.672  1.00  0.00    -0.354 N 
ATOM     63  N   UNL A   1      43.777  28.166  32.594  1.00  0.00    -0.248 NA
ATOM     64  C   UNL A   1      45.541  26.832  31.854  1.00  0.00     0.031 C 
ATOM     65  C   UNL A   1      43.553  30.002  36.636  1.00  0.00     0.029 A 
ATOM     66  C   UNL A   1      43.650  29.417  35.383  1.00  0.00     0.049 A 
ATOM     67  H   UNL A   1      42.331  29.569  33.741  1.00  0.00     0.167 HD
ATOM     68  C   UNL A   1      44.699  28.019  33.624  1.00  0.00     0.074 A 
ATOM     69  C   UNL A   1      45.745  27.152  33.122  1.00  0.00     0.031 C 
ATOM     70  C   UNL A   1      44.682  28.551  34.872  1.00  0.00     0.037 A 
BRANCH  57  71
ATOM     71  C   UNL A   1      39.791  32.162  35.990  1.00  0.00     0.064 A 
ATOM     72  C   UNL A   1      38.712  31.719  36.770  1.00  0.00     0.173 A 
ATOM     73  C   UNL A   1      40.213  33.490  36.152  1.00  0.00     0.173 A 
ATOM     74  F   UNL A   1      38.255  30.464  36.642  1.00  0.00    -0.203 F 
ATOM     75  C   UNL A   1      38.065  32.580  37.654  1.00  0.00     0.198 A 
ATOM     76  C   UNL A   1      39.588  34.337  37.063  1.00  0.00     0.198 A 
ATOM     77  F   UNL A   1      41.241  33.966  35.433  1.00  0.00    -0.203 F 
ATOM     78  F   UNL A   1      37.003  32.149  38.349  1.00  0.00    -0.200 F 
ATOM     79  C   UNL A   1      38.510  33.884  37.807  1.00  0.00     0.200 A 
ATOM     80  F   UNL A   1      40.028  35.593  37.219  1.00  0.00    -0.200 F 
ATOM     81  F   UNL A   1      37.893  34.707  38.666  1.00  0.00    -0.200 F 
ENDBRANCH  57  71
BRANCH  58  82
ATOM     82  C   UNL A   1      44.352  26.403  29.215  1.00  0.00     0.064 A 
ATOM     83  C   UNL A   1      44.996  26.984  28.114  1.00  0.00     0.173 A 
ATOM     84  C   UNL A   1      44.371  25.002  29.314  1.00  0.00     0.173 A 
ATOM     85  F   UNL A   1      44.984  28.316  27.958  1.00  0.00    -0.203 F 
ATOM     86  C   UNL A   1      45.607  26.198  27.137  1.00  0.00     0.198 A 
ATOM     87  C   UNL A   1      45.012  24.220  28.356  1.00  0.00     0.198 A 
ATOM     88  F   UNL A   1      43.768  24.393  30.345  1.00  0.00    -0.203 F 
ATOM     89  F   UNL A   1      46.161  26.779  26.064  1.00  0.00    -0.200 F 
ATOM     90  C   UNL A   1      45.619  24.818  27.263  1.00  0.00     0.200 A 
ATOM     91  F   UNL A   1      45.032  22.887  28.488  1.00  0.00    -0.200 F 
ATOM     92  F   UNL A   1      46.206  24.063  26.324  1.00  0.00    -0.200 F 
ENDBRANCH  58  82
BRANCH  70  93
ATOM     93  C   UNL A   1      45.803  28.167  35.801  1.00  0.00     0.064 A 
ATOM     94  C   UNL A   1      45.695  27.089  36.694  1.00  0.00     0.173 A 
ATOM     95  C   UNL A   1      47.009  28.886  35.790  1.00  0.00     0.173 A 
ATOM     96  F   UNL A   1      44.562  26.373  36.754  1.00  0.00    -0.203 F 
ATOM     97  C   UNL A   1      46.729  26.781  37.574  1.00  0.00     0.198 A 
ATOM     98  C   UNL A   1      48.058  28.547  36.641  1.00  0.00     0.198 A 
ATOM     99  F   UNL A   1      47.175  29.916  34.946  1.00  0.00    -0.203 F 
ATOM    100  F   UNL A   1      46.573  25.796  38.469  1.00  0.00    -0.200 F 
ATOM    101  C   UNL A   1      47.911  27.506  37.543  1.00  0.00     0.200 A 
ATOM    102  F   UNL A   1      49.206  29.237  36.594  1.00  0.00    -0.200 F 
ATOM    103  F   UNL A   1      48.904  27.208  38.392  1.00  0.00    -0.200 F 
ENDBRANCH  70  93
ENDBRANCH  44  45
ENDBRANCH  37  39
ENDBRANCH  36  37
ENDBRANCH  35  36
ENDBRANCH  34  35
ENDBRANCH  33  34
ENDBRANCH  32  33
ENDBRANCH  31  32
ENDBRANCH  30  31
ENDBRANCH   1  30
TORSDOF 23
ENDMDL
