MODEL 1
REMARK VINA RESULT:     -11.0      0.000      0.000
REMARK SMILES C[C@@H]1CN(C(=O)Nc2ccc(O)c(C(=O)OCCOCCOCCOCCOC(=O)c3ccc(-c4c5nc(c(-c6c(F)c(F)c(F)c(F)c6F)c6ccc([nH]6)c(-c6c(F)c(F)c(F)c(F)c6F)c6nc(c(-c7c(F)c(F)c(F)c(F)c7F)c7ccc4[nH]7)C=C6)C=C5)cc3)c2)C[C@H]1C
REMARK SMILES IDX 23 1 22 2 21 3 20 4 19 5 18 6 17 7 16 8 14 9 15 10 13 11
REMARK SMILES IDX 8 12 9 13 94 14 10 15 11 16 7 17 1 18 2 19 3 20 96 21 4 22
REMARK SMILES IDX 95 23 97 24 5 25 6 26 12 28 24 30 25 31 26 32 27 33 28 34
REMARK SMILES IDX 29 35 30 36 31 37 32 38 93 39 33 40 92 41 34 42 35 43 36 44
REMARK SMILES IDX 86 45 37 46 91 47 85 48 87 49 38 50 90 51 84 52 83 53 39 55
REMARK SMILES IDX 71 56 51 57 70 58 52 59 55 60 69 61 88 62 53 63 54 64 68 66
REMARK SMILES IDX 89 67 56 68 40 69 41 70 49 71 42 72 43 73 47 74 50 75 44 76
REMARK SMILES IDX 45 77 48 78 46 79 72 80 73 81 81 82 74 83 75 84 79 85 82 86
REMARK SMILES IDX 76 87 77 88 80 89 78 90 57 91 58 92 66 93 59 94 60 95 64 96
REMARK SMILES IDX 67 97 61 98 62 99 65 100 63 101
REMARK H PARENT 7 27 12 29 87 54 55 65
REMARK Flexibility Score: inf
ROOT
ATOM      1  C   UNL A   1      33.350  35.662  28.996  1.00  0.00     0.188 C 
ENDROOT
BRANCH   1   2
ATOM      2  O   UNL A   1      33.708  34.673  28.036  1.00  0.00    -0.377 OA
BRANCH   2   3
ATOM      3  C   UNL A   1      34.219  33.421  28.477  1.00  0.00     0.188 C 
BRANCH   3   4
ATOM      4  C   UNL A   1      33.760  32.102  27.808  1.00  0.00     0.188 C 
BRANCH   4   5
ATOM      5  O   UNL A   1      32.531  32.208  27.111  1.00  0.00    -0.376 OA
BRANCH   5   6
ATOM      6  C   UNL A   1      32.006  31.075  26.447  1.00  0.00     0.202 C 
BRANCH   6   7
ATOM      7  C   UNL A   1      32.256  29.680  27.034  1.00  0.00     0.261 C 
BRANCH   7   8
ATOM      8  O   UNL A   1      31.502  28.629  26.433  1.00  0.00    -0.460 OA
BRANCH   8   9
ATOM      9  C   UNL A   1      31.839  28.245  25.183  1.00  0.00     0.342 C 
ATOM     10  O   UNL A   1      32.475  28.893  24.368  1.00  0.00    -0.246 OA
BRANCH   9  11
ATOM     11  C   UNL A   1      31.561  26.795  25.068  1.00  0.00     0.103 A 
ATOM     12  C   UNL A   1      31.378  24.671  26.193  1.00  0.00     0.044 A 
ATOM     13  C   UNL A   1      30.799  24.110  25.051  1.00  0.00     0.030 A 
ATOM     14  C   UNL A   1      31.685  26.028  26.235  1.00  0.00     0.045 A 
ATOM     15  C   UNL A   1      30.674  24.872  23.888  1.00  0.00     0.049 A 
ATOM     16  C   UNL A   1      31.093  26.203  23.887  1.00  0.00     0.130 A 
BRANCH  12  17
ATOM     17  N   UNL A   1      31.727  23.872  27.281  1.00  0.00    -0.308 N 
ATOM     18  C   UNL A   1      35.404  23.243  23.316  1.00  0.00     0.010 C 
ATOM     19  C   UNL A   1      34.648  22.351  24.287  1.00  0.00     0.010 C 
ATOM     20  C   UNL A   1      33.559  23.122  25.015  1.00  0.00     0.125 C 
ATOM     21  C   UNL A   1      35.466  21.783  25.447  1.00  0.00     0.010 C 
ATOM     22  N   UNL A   1      33.352  22.438  26.285  1.00  0.00    -0.324 N 
ATOM     23  C   UNL A   1      34.374  21.413  26.459  1.00  0.00     0.125 C 
ATOM     24  C   UNL A   1      36.331  20.606  25.036  1.00  0.00     0.010 C 
ATOM     25  C   UNL A   1      32.520  22.761  27.329  1.00  0.00     0.321 C 
ATOM     26  O   UNL A   1      32.548  22.136  28.393  1.00  0.00    -0.248 OA
ATOM     27  H   UNL A   1      31.345  24.151  28.145  1.00  0.00     0.171 HD
ENDBRANCH  12  17
BRANCH  16  28
ATOM     28  O   UNL A   1      31.058  26.913  22.721  1.00  0.00    -0.507 OA
ATOM     29  H   UNL A   1      30.352  26.789  22.118  1.00  0.00     0.293 HD
ENDBRANCH  16  28
ENDBRANCH   9  11
ENDBRANCH   8   9
ENDBRANCH   7   8
ENDBRANCH   6   7
ENDBRANCH   5   6
ENDBRANCH   4   5
ENDBRANCH   3   4
ENDBRANCH   2   3
ENDBRANCH   1   2
BRANCH   1  30
ATOM     30  C   UNL A   1      33.245  35.300  30.498  1.00  0.00     0.188 C 
BRANCH  30  31
ATOM     31  O   UNL A   1      34.408  35.591  31.255  1.00  0.00    -0.376 OA
BRANCH  31  32
ATOM     32  C   UNL A   1      34.315  35.535  32.666  1.00  0.00     0.202 C 
BRANCH  32  33
ATOM     33  C   UNL A   1      34.962  34.342  33.384  1.00  0.00     0.261 C 
BRANCH  33  34
ATOM     34  O   UNL A   1      35.856  33.532  32.606  1.00  0.00    -0.460 OA
BRANCH  34  35
ATOM     35  C   UNL A   1      35.347  32.429  32.020  1.00  0.00     0.338 C 
ATOM     36  O   UNL A   1      34.174  32.177  31.798  1.00  0.00    -0.246 OA
BRANCH  35  37
ATOM     37  C   UNL A   1      36.488  31.631  31.531  1.00  0.00     0.060 A 
ATOM     38  C   UNL A   1      37.457  31.175  32.437  1.00  0.00     0.016 A 
ATOM     39  C   UNL A   1      36.585  31.324  30.173  1.00  0.00     0.016 A 
ATOM     40  C   UNL A   1      38.546  30.431  31.977  1.00  0.00     0.010 A 
ATOM     41  C   UNL A   1      37.685  30.603  29.712  1.00  0.00     0.010 A 
ATOM     42  C   UNL A   1      38.687  30.182  30.606  1.00  0.00    -0.014 A 
BRANCH  42  43
ATOM     43  C   UNL A   1      39.970  29.682  30.057  1.00  0.00     0.031 A 
ATOM     44  C   UNL A   1      41.093  30.670  29.903  1.00  0.00     0.074 A 
ATOM     45  C   UNL A   1      40.130  28.403  29.678  1.00  0.00     0.049 A 
ATOM     46  N   UNL A   1      42.240  30.539  29.290  1.00  0.00    -0.248 NA
ATOM     47  C   UNL A   1      40.886  31.992  30.519  1.00  0.00     0.031 C 
ATOM     48  C   UNL A   1      39.138  27.342  29.833  1.00  0.00     0.029 A 
ATOM     49  N   UNL A   1      41.188  27.788  29.052  1.00  0.00    -0.354 N 
ATOM     50  C   UNL A   1      42.884  31.761  29.441  1.00  0.00     0.074 A 
ATOM     51  C   UNL A   1      41.992  32.630  30.173  1.00  0.00     0.031 C 
ATOM     52  C   UNL A   1      39.622  26.211  29.287  1.00  0.00     0.029 A 
ATOM     53  C   UNL A   1      40.935  26.484  28.701  1.00  0.00     0.049 A 
ATOM     54  H   UNL A   1      42.045  28.238  28.875  1.00  0.00     0.167 HD
ATOM     55  C   UNL A   1      44.116  32.120  29.010  1.00  0.00     0.037 A 
ATOM     56  C   UNL A   1      41.664  25.630  27.954  1.00  0.00     0.037 A 
ATOM     57  C   UNL A   1      44.994  31.252  28.274  1.00  0.00     0.049 A 
ATOM     58  C   UNL A   1      42.992  26.090  27.396  1.00  0.00     0.074 A 
ATOM     59  C   UNL A   1      46.254  31.524  27.773  1.00  0.00     0.029 A 
ATOM     60  N   UNL A   1      44.699  29.940  27.934  1.00  0.00    -0.354 N 
ATOM     61  N   UNL A   1      43.597  27.246  27.535  1.00  0.00    -0.248 NA
ATOM     62  C   UNL A   1      43.740  25.127  26.573  1.00  0.00     0.031 C 
ATOM     63  C   UNL A   1      46.701  30.394  27.086  1.00  0.00     0.029 A 
ATOM     64  C   UNL A   1      45.751  29.395  27.218  1.00  0.00     0.049 A 
ATOM     65  H   UNL A   1      43.866  29.469  28.166  1.00  0.00     0.167 HD
ATOM     66  C   UNL A   1      44.810  27.127  26.868  1.00  0.00     0.074 A 
ATOM     67  C   UNL A   1      44.859  25.791  26.320  1.00  0.00     0.031 C 
ATOM     68  C   UNL A   1      45.800  28.044  26.726  1.00  0.00     0.037 A 
BRANCH  55  69
ATOM     69  C   UNL A   1      44.585  33.512  29.310  1.00  0.00     0.064 A 
ATOM     70  C   UNL A   1      45.400  33.789  30.418  1.00  0.00     0.173 A 
ATOM     71  C   UNL A   1      44.269  34.570  28.445  1.00  0.00     0.173 A 
ATOM     72  F   UNL A   1      45.715  32.815  31.284  1.00  0.00    -0.203 F 
ATOM     73  C   UNL A   1      45.872  35.077  30.654  1.00  0.00     0.198 A 
ATOM     74  C   UNL A   1      44.769  35.850  28.667  1.00  0.00     0.198 A 
ATOM     75  F   UNL A   1      43.494  34.359  27.370  1.00  0.00    -0.203 F 
ATOM     76  F   UNL A   1      46.621  35.326  31.737  1.00  0.00    -0.200 F 
ATOM     77  C   UNL A   1      45.566  36.104  29.773  1.00  0.00     0.200 A 
ATOM     78  F   UNL A   1      44.484  36.838  27.806  1.00  0.00    -0.200 F 
ATOM     79  F   UNL A   1      46.038  37.339  29.991  1.00  0.00    -0.200 F 
ENDBRANCH  55  69
BRANCH  56  80
ATOM     80  C   UNL A   1      41.151  24.268  27.641  1.00  0.00     0.064 A 
ATOM     81  C   UNL A   1      41.711  23.127  28.237  1.00  0.00     0.173 A 
ATOM     82  C   UNL A   1      40.138  24.071  26.691  1.00  0.00     0.173 A 
ATOM     83  F   UNL A   1      42.699  23.257  29.134  1.00  0.00    -0.203 F 
ATOM     84  C   UNL A   1      41.308  21.846  27.863  1.00  0.00     0.198 A 
ATOM     85  C   UNL A   1      39.709  22.791  26.345  1.00  0.00     0.198 A 
ATOM     86  F   UNL A   1      39.566  25.124  26.088  1.00  0.00    -0.203 F 
ATOM     87  F   UNL A   1      41.916  20.775  28.390  1.00  0.00    -0.200 F 
ATOM     88  C   UNL A   1      40.306  21.679  26.919  1.00  0.00     0.200 A 
ATOM     89  F   UNL A   1      38.731  22.635  25.442  1.00  0.00    -0.200 F 
ATOM     90  F   UNL A   1      39.928  20.447  26.551  1.00  0.00    -0.200 F 
ENDBRANCH  56  80
BRANCH  68  91
ATOM     91  C   UNL A   1      47.061  27.617  26.032  1.00  0.00     0.064 A 
ATOM     92  C   UNL A   1      48.150  27.078  26.730  1.00  0.00     0.173 A 
ATOM     93  C   UNL A   1      47.137  27.665  24.631  1.00  0.00     0.173 A 
ATOM     94  F   UNL A   1      48.132  27.019  28.070  1.00  0.00    -0.203 F 
ATOM     95  C   UNL A   1      49.275  26.616  26.051  1.00  0.00     0.198 A 
ATOM     96  C   UNL A   1      48.249  27.172  23.954  1.00  0.00     0.198 A 
ATOM     97  F   UNL A   1      46.117  28.163  23.915  1.00  0.00    -0.203 F 
ATOM     98  F   UNL A   1      50.320  26.135  26.739  1.00  0.00    -0.200 F 
ATOM     99  C   UNL A   1      49.318  26.651  24.664  1.00  0.00     0.200 A 
ATOM    100  F   UNL A   1      48.277  27.190  22.614  1.00  0.00    -0.200 F 
ATOM    101  F   UNL A   1      50.392  26.183  24.013  1.00  0.00    -0.200 F 
ENDBRANCH  68  91
ENDBRANCH  42  43
ENDBRANCH  35  37
ENDBRANCH  34  35
ENDBRANCH  33  34
ENDBRANCH  32  33
ENDBRANCH  31  32
ENDBRANCH  30  31
ENDBRANCH   1  30
TORSDOF 22
ENDMDL
MODEL 2
REMARK VINA RESULT:     -10.5      1.463      2.355
REMARK SMILES C[C@@H]1CN(C(=O)Nc2ccc(O)c(C(=O)OCCOCCOCCOCCOC(=O)c3ccc(-c4c5nc(c(-c6c(F)c(F)c(F)c(F)c6F)c6ccc([nH]6)c(-c6c(F)c(F)c(F)c(F)c6F)c6nc(c(-c7c(F)c(F)c(F)c(F)c7F)c7ccc4[nH]7)C=C6)C=C5)cc3)c2)C[C@H]1C
REMARK SMILES IDX 23 1 22 2 21 3 20 4 19 5 18 6 17 7 16 8 14 9 15 10 13 11
REMARK SMILES IDX 8 12 9 13 94 14 10 15 11 16 7 17 1 18 2 19 3 20 96 21 4 22
REMARK SMILES IDX 95 23 97 24 5 25 6 26 12 28 24 30 25 31 26 32 27 33 28 34
REMARK SMILES IDX 29 35 30 36 31 37 32 38 93 39 33 40 92 41 34 42 35 43 36 44
REMARK SMILES IDX 86 45 37 46 91 47 85 48 87 49 38 50 90 51 84 52 83 53 39 55
REMARK SMILES IDX 71 56 51 57 70 58 52 59 55 60 69 61 88 62 53 63 54 64 68 66
REMARK SMILES IDX 89 67 56 68 40 69 41 70 49 71 42 72 43 73 47 74 50 75 44 76
REMARK SMILES IDX 45 77 48 78 46 79 72 80 73 81 81 82 74 83 75 84 79 85 82 86
REMARK SMILES IDX 76 87 77 88 80 89 78 90 57 91 58 92 66 93 59 94 60 95 64 96
REMARK SMILES IDX 67 97 61 98 62 99 65 100 63 101
REMARK H PARENT 7 27 12 29 87 54 55 65
REMARK Flexibility Score: inf
ROOT
ATOM      1  C   UNL A   1      35.067  33.041  27.850  1.00  0.00     0.188 C 
ENDROOT
BRANCH   1   2
ATOM      2  O   UNL A   1      35.738  31.866  28.293  1.00  0.00    -0.377 OA
BRANCH   2   3
ATOM      3  C   UNL A   1      35.185  30.589  27.997  1.00  0.00     0.188 C 
BRANCH   3   4
ATOM      4  C   UNL A   1      33.840  30.468  27.241  1.00  0.00     0.188 C 
BRANCH   4   5
ATOM      5  O   UNL A   1      33.816  29.438  26.269  1.00  0.00    -0.376 OA
BRANCH   5   6
ATOM      6  C   UNL A   1      33.024  29.590  25.108  1.00  0.00     0.202 C 
BRANCH   6   7
ATOM      7  C   UNL A   1      33.674  29.411  23.730  1.00  0.00     0.261 C 
BRANCH   7   8
ATOM      8  O   UNL A   1      32.984  28.525  22.849  1.00  0.00    -0.460 OA
BRANCH   8   9
ATOM      9  C   UNL A   1      33.009  27.205  23.134  1.00  0.00     0.342 C 
ATOM     10  O   UNL A   1      33.998  26.495  23.209  1.00  0.00    -0.246 OA
BRANCH   9  11
ATOM     11  C   UNL A   1      31.664  26.826  23.624  1.00  0.00     0.103 A 
ATOM     12  C   UNL A   1      30.357  25.807  25.375  1.00  0.00     0.044 A 
ATOM     13  C   UNL A   1      29.185  26.298  24.793  1.00  0.00     0.030 A 
ATOM     14  C   UNL A   1      31.601  26.135  24.842  1.00  0.00     0.045 A 
ATOM     15  C   UNL A   1      29.246  26.987  23.580  1.00  0.00     0.049 A 
ATOM     16  C   UNL A   1      30.483  27.214  22.977  1.00  0.00     0.130 A 
BRANCH  12  17
ATOM     17  N   UNL A   1      30.303  24.923  26.451  1.00  0.00    -0.308 N 
ATOM     18  C   UNL A   1      33.114  22.653  22.380  1.00  0.00     0.010 C 
ATOM     19  C   UNL A   1      32.045  22.224  23.371  1.00  0.00     0.010 C 
ATOM     20  C   UNL A   1      31.484  23.414  24.132  1.00  0.00     0.125 C 
ATOM     21  C   UNL A   1      32.514  21.313  24.505  1.00  0.00     0.010 C 
ATOM     22  N   UNL A   1      31.004  22.897  25.406  1.00  0.00    -0.324 N 
ATOM     23  C   UNL A   1      31.405  21.503  25.549  1.00  0.00     0.125 C 
ATOM     24  C   UNL A   1      32.690  19.871  24.069  1.00  0.00     0.010 C 
ATOM     25  C   UNL A   1      30.459  23.566  26.474  1.00  0.00     0.321 C 
ATOM     26  O   UNL A   1      30.207  22.990  27.536  1.00  0.00    -0.248 OA
ATOM     27  H   UNL A   1      30.125  25.339  27.326  1.00  0.00     0.171 HD
ENDBRANCH  12  17
BRANCH  16  28
ATOM     28  O   UNL A   1      30.528  27.802  21.745  1.00  0.00    -0.507 OA
ATOM     29  H   UNL A   1      31.283  27.694  21.202  1.00  0.00     0.293 HD
ENDBRANCH  16  28
ENDBRANCH   9  11
ENDBRANCH   8   9
ENDBRANCH   7   8
ENDBRANCH   6   7
ENDBRANCH   5   6
ENDBRANCH   4   5
ENDBRANCH   3   4
ENDBRANCH   2   3
ENDBRANCH   1   2
BRANCH   1  30
ATOM     30  C   UNL A   1      35.082  34.329  28.708  1.00  0.00     0.188 C 
BRANCH  30  31
ATOM     31  O   UNL A   1      34.009  34.434  29.628  1.00  0.00    -0.376 OA
BRANCH  31  32
ATOM     32  C   UNL A   1      34.310  34.393  31.011  1.00  0.00     0.202 C 
BRANCH  32  33
ATOM     33  C   UNL A   1      34.932  33.108  31.575  1.00  0.00     0.261 C 
BRANCH  33  34
ATOM     34  O   UNL A   1      35.609  33.222  32.836  1.00  0.00    -0.460 OA
BRANCH  34  35
ATOM     35  C   UNL A   1      36.811  33.833  32.845  1.00  0.00     0.338 C 
ATOM     36  O   UNL A   1      37.119  34.862  33.423  1.00  0.00    -0.246 OA
BRANCH  35  37
ATOM     37  C   UNL A   1      37.760  32.936  32.156  1.00  0.00     0.060 A 
ATOM     38  C   UNL A   1      38.396  31.913  32.874  1.00  0.00     0.016 A 
ATOM     39  C   UNL A   1      38.005  33.106  30.793  1.00  0.00     0.016 A 
ATOM     40  C   UNL A   1      39.305  31.071  32.230  1.00  0.00     0.010 A 
ATOM     41  C   UNL A   1      38.931  32.280  30.157  1.00  0.00     0.010 A 
ATOM     42  C   UNL A   1      39.609  31.281  30.879  1.00  0.00    -0.014 A 
BRANCH  42  43
ATOM     43  C   UNL A   1      40.784  30.624  30.258  1.00  0.00     0.031 A 
ATOM     44  C   UNL A   1      42.012  31.462  30.033  1.00  0.00     0.074 A 
ATOM     45  C   UNL A   1      40.757  29.336  29.876  1.00  0.00     0.049 A 
ATOM     46  N   UNL A   1      43.095  31.188  29.354  1.00  0.00    -0.248 NA
ATOM     47  C   UNL A   1      42.011  32.798  30.653  1.00  0.00     0.031 C 
ATOM     48  C   UNL A   1      39.650  28.409  30.095  1.00  0.00     0.029 A 
ATOM     49  N   UNL A   1      41.690  28.593  29.193  1.00  0.00    -0.354 N 
ATOM     50  C   UNL A   1      43.896  32.318  29.460  1.00  0.00     0.074 A 
ATOM     51  C   UNL A   1      43.167  33.292  30.240  1.00  0.00     0.031 C 
ATOM     52  C   UNL A   1      39.954  27.227  29.527  1.00  0.00     0.029 A 
ATOM     53  C   UNL A   1      41.254  27.333  28.864  1.00  0.00     0.049 A 
ATOM     54  H   UNL A   1      42.585  28.932  28.962  1.00  0.00     0.167 HD
ATOM     55  C   UNL A   1      45.136  32.519  28.956  1.00  0.00     0.037 A 
ATOM     56  C   UNL A   1      41.823  26.395  28.079  1.00  0.00     0.037 A 
ATOM     57  C   UNL A   1      45.852  31.548  28.173  1.00  0.00     0.049 A 
ATOM     58  C   UNL A   1      43.163  26.684  27.441  1.00  0.00     0.074 A 
ATOM     59  C   UNL A   1      47.104  31.660  27.598  1.00  0.00     0.029 A 
ATOM     60  N   UNL A   1      45.374  30.285  27.858  1.00  0.00    -0.354 N 
ATOM     61  N   UNL A   1      43.917  27.754  27.538  1.00  0.00    -0.248 NA
ATOM     62  C   UNL A   1      43.733  25.636  26.580  1.00  0.00     0.031 C 
ATOM     63  C   UNL A   1      47.363  30.483  26.891  1.00  0.00     0.029 A 
ATOM     64  C   UNL A   1      46.303  29.613  27.084  1.00  0.00     0.049 A 
ATOM     65  H   UNL A   1      44.503  29.923  28.141  1.00  0.00     0.167 HD
ATOM     66  C   UNL A   1      45.064  27.484  26.802  1.00  0.00     0.074 A 
ATOM     67  C   UNL A   1      44.910  26.153  26.258  1.00  0.00     0.031 C 
ATOM     68  C   UNL A   1      46.151  28.267  26.596  1.00  0.00     0.037 A 
BRANCH  55  69
ATOM     69  C   UNL A   1      45.795  33.839  29.220  1.00  0.00     0.064 A 
ATOM     70  C   UNL A   1      45.599  34.940  28.372  1.00  0.00     0.173 A 
ATOM     71  C   UNL A   1      46.579  34.025  30.368  1.00  0.00     0.173 A 
ATOM     72  F   UNL A   1      44.871  34.808  27.253  1.00  0.00    -0.203 F 
ATOM     73  C   UNL A   1      46.173  36.175  28.659  1.00  0.00     0.198 A 
ATOM     74  C   UNL A   1      47.126  35.270  30.668  1.00  0.00     0.198 A 
ATOM     75  F   UNL A   1      46.797  33.006  31.213  1.00  0.00    -0.203 F 
ATOM     76  F   UNL A   1      46.001  37.203  27.817  1.00  0.00    -0.200 F 
ATOM     77  C   UNL A   1      46.926  36.342  29.811  1.00  0.00     0.200 A 
ATOM     78  F   UNL A   1      47.841  35.433  31.790  1.00  0.00    -0.200 F 
ATOM     79  F   UNL A   1      47.462  37.537  30.096  1.00  0.00    -0.200 F 
ENDBRANCH  55  69
BRANCH  56  80
ATOM     80  C   UNL A   1      41.124  25.110  27.804  1.00  0.00     0.064 A 
ATOM     81  C   UNL A   1      41.598  23.898  28.330  1.00  0.00     0.173 A 
ATOM     82  C   UNL A   1      40.007  25.054  26.956  1.00  0.00     0.173 A 
ATOM     83  F   UNL A   1      42.677  23.892  29.127  1.00  0.00    -0.203 F 
ATOM     84  C   UNL A   1      41.012  22.682  27.984  1.00  0.00     0.198 A 
ATOM     85  C   UNL A   1      39.398  23.841  26.640  1.00  0.00     0.198 A 
ATOM     86  F   UNL A   1      39.510  26.180  26.422  1.00  0.00    -0.203 F 
ATOM     87  F   UNL A   1      41.535  21.535  28.438  1.00  0.00    -0.200 F 
ATOM     88  C   UNL A   1      39.911  22.655  27.141  1.00  0.00     0.200 A 
ATOM     89  F   UNL A   1      38.327  23.821  25.836  1.00  0.00    -0.200 F 
ATOM     90  F   UNL A   1      39.355  21.484  26.799  1.00  0.00    -0.200 F 
ENDBRANCH  56  80
BRANCH  68  91
ATOM     91  C   UNL A   1      47.305  27.685  25.832  1.00  0.00     0.064 A 
ATOM     92  C   UNL A   1      47.415  27.806  24.441  1.00  0.00     0.173 A 
ATOM     93  C   UNL A   1      48.365  27.077  26.525  1.00  0.00     0.173 A 
ATOM     94  F   UNL A   1      46.426  28.369  23.731  1.00  0.00    -0.203 F 
ATOM     95  C   UNL A   1      48.537  27.327  23.768  1.00  0.00     0.198 A 
ATOM     96  C   UNL A   1      49.498  26.630  25.854  1.00  0.00     0.198 A 
ATOM     97  F   UNL A   1      48.313  26.946  27.859  1.00  0.00    -0.203 F 
ATOM     98  F   UNL A   1      48.607  27.423  22.433  1.00  0.00    -0.200 F 
ATOM     99  C   UNL A   1      49.583  26.752  24.476  1.00  0.00     0.200 A 
ATOM    100  F   UNL A   1      50.515  26.093  26.543  1.00  0.00    -0.200 F 
ATOM    101  F   UNL A   1      50.672  26.314  23.829  1.00  0.00    -0.200 F 
ENDBRANCH  68  91
ENDBRANCH  42  43
ENDBRANCH  35  37
ENDBRANCH  34  35
ENDBRANCH  33  34
ENDBRANCH  32  33
ENDBRANCH  31  32
ENDBRANCH  30  31
ENDBRANCH   1  30
TORSDOF 22
ENDMDL
MODEL 3
REMARK VINA RESULT:     -10.1      1.594      7.232
REMARK SMILES C[C@@H]1CN(C(=O)Nc2ccc(O)c(C(=O)OCCOCCOCCOCCOC(=O)c3ccc(-c4c5nc(c(-c6c(F)c(F)c(F)c(F)c6F)c6ccc([nH]6)c(-c6c(F)c(F)c(F)c(F)c6F)c6nc(c(-c7c(F)c(F)c(F)c(F)c7F)c7ccc4[nH]7)C=C6)C=C5)cc3)c2)C[C@H]1C
REMARK SMILES IDX 23 1 22 2 21 3 20 4 19 5 18 6 17 7 16 8 14 9 15 10 13 11
REMARK SMILES IDX 8 12 9 13 94 14 10 15 11 16 7 17 1 18 2 19 3 20 96 21 4 22
REMARK SMILES IDX 95 23 97 24 5 25 6 26 12 28 24 30 25 31 26 32 27 33 28 34
REMARK SMILES IDX 29 35 30 36 31 37 32 38 93 39 33 40 92 41 34 42 35 43 36 44
REMARK SMILES IDX 86 45 37 46 91 47 85 48 87 49 38 50 90 51 84 52 83 53 39 55
REMARK SMILES IDX 71 56 51 57 70 58 52 59 55 60 69 61 88 62 53 63 54 64 68 66
REMARK SMILES IDX 89 67 56 68 40 69 41 70 49 71 42 72 43 73 47 74 50 75 44 76
REMARK SMILES IDX 45 77 48 78 46 79 72 80 73 81 81 82 74 83 75 84 79 85 82 86
REMARK SMILES IDX 76 87 77 88 80 89 78 90 57 91 58 92 66 93 59 94 60 95 64 96
REMARK SMILES IDX 67 97 61 98 62 99 65 100 63 101
REMARK H PARENT 7 27 12 29 87 54 55 65
REMARK Flexibility Score: inf
ROOT
ATOM      1  C   UNL A   1      34.015  34.132  28.997  1.00  0.00     0.188 C 
ENDROOT
BRANCH   1   2
ATOM      2  O   UNL A   1      35.015  33.327  28.381  1.00  0.00    -0.377 OA
BRANCH   2   3
ATOM      3  C   UNL A   1      34.714  31.981  28.031  1.00  0.00     0.188 C 
BRANCH   3   4
ATOM      4  C   UNL A   1      33.276  31.574  27.628  1.00  0.00     0.188 C 
BRANCH   4   5
ATOM      5  O   UNL A   1      33.149  30.219  27.234  1.00  0.00    -0.376 OA
BRANCH   5   6
ATOM      6  C   UNL A   1      32.548  29.905  25.994  1.00  0.00     0.202 C 
BRANCH   6   7
ATOM      7  C   UNL A   1      33.439  29.690  24.763  1.00  0.00     0.261 C 
BRANCH   7   8
ATOM      8  O   UNL A   1      32.821  28.986  23.688  1.00  0.00    -0.460 OA
BRANCH   8   9
ATOM      9  C   UNL A   1      32.945  27.641  23.659  1.00  0.00     0.342 C 
ATOM     10  O   UNL A   1      33.986  27.006  23.653  1.00  0.00    -0.246 OA
BRANCH   9  11
ATOM     11  C   UNL A   1      31.610  27.060  23.929  1.00  0.00     0.103 A 
ATOM     12  C   UNL A   1      30.207  25.823  25.449  1.00  0.00     0.044 A 
ATOM     13  C   UNL A   1      29.082  26.154  24.688  1.00  0.00     0.030 A 
ATOM     14  C   UNL A   1      31.457  26.339  25.121  1.00  0.00     0.045 A 
ATOM     15  C   UNL A   1      29.231  26.874  23.501  1.00  0.00     0.049 A 
ATOM     16  C   UNL A   1      30.501  27.291  23.103  1.00  0.00     0.130 A 
BRANCH  12  17
ATOM     17  N   UNL A   1      30.113  24.914  26.501  1.00  0.00    -0.308 N 
ATOM     18  C   UNL A   1      33.285  22.841  22.592  1.00  0.00     0.010 C 
ATOM     19  C   UNL A   1      32.168  22.351  23.498  1.00  0.00     0.010 C 
ATOM     20  C   UNL A   1      31.510  23.502  24.241  1.00  0.00     0.125 C 
ATOM     21  C   UNL A   1      32.594  21.434  24.645  1.00  0.00     0.010 C 
ATOM     22  N   UNL A   1      30.964  22.939  25.469  1.00  0.00    -0.324 N 
ATOM     23  C   UNL A   1      31.409  21.559  25.613  1.00  0.00     0.125 C 
ATOM     24  C   UNL A   1      32.856  20.009  24.194  1.00  0.00     0.010 C 
ATOM     25  C   UNL A   1      30.321  23.563  26.509  1.00  0.00     0.321 C 
ATOM     26  O   UNL A   1      30.020  22.955  27.540  1.00  0.00    -0.248 OA
ATOM     27  H   UNL A   1      29.860  25.304  27.370  1.00  0.00     0.171 HD
ENDBRANCH  12  17
BRANCH  16  28
ATOM     28  O   UNL A   1      30.652  27.909  21.895  1.00  0.00    -0.507 OA
ATOM     29  H   UNL A   1      29.981  28.477  21.572  1.00  0.00     0.293 HD
ENDBRANCH  16  28
ENDBRANCH   9  11
ENDBRANCH   8   9
ENDBRANCH   7   8
ENDBRANCH   6   7
ENDBRANCH   5   6
ENDBRANCH   4   5
ENDBRANCH   3   4
ENDBRANCH   2   3
ENDBRANCH   1   2
BRANCH   1  30
ATOM     30  C   UNL A   1      34.254  34.753  30.395  1.00  0.00     0.188 C 
BRANCH  30  31
ATOM     31  O   UNL A   1      33.684  34.022  31.468  1.00  0.00    -0.376 OA
BRANCH  31  32
ATOM     32  C   UNL A   1      34.546  33.244  32.276  1.00  0.00     0.202 C 
BRANCH  32  33
ATOM     33  C   UNL A   1      35.149  31.970  31.668  1.00  0.00     0.261 C 
BRANCH  33  34
ATOM     34  O   UNL A   1      35.917  31.138  32.551  1.00  0.00    -0.460 OA
BRANCH  34  35
ATOM     35  C   UNL A   1      36.926  31.719  33.233  1.00  0.00     0.338 C 
ATOM     36  O   UNL A   1      36.909  32.129  34.382  1.00  0.00    -0.246 OA
BRANCH  35  37
ATOM     37  C   UNL A   1      38.134  31.622  32.390  1.00  0.00     0.060 A 
ATOM     38  C   UNL A   1      38.129  32.176  31.102  1.00  0.00     0.016 A 
ATOM     39  C   UNL A   1      39.275  30.991  32.888  1.00  0.00     0.016 A 
ATOM     40  C   UNL A   1      39.265  32.075  30.296  1.00  0.00     0.010 A 
ATOM     41  C   UNL A   1      40.399  30.868  32.073  1.00  0.00     0.010 A 
ATOM     42  C   UNL A   1      40.388  31.381  30.762  1.00  0.00    -0.014 A 
BRANCH  42  43
ATOM     43  C   UNL A   1      41.471  30.984  29.832  1.00  0.00     0.031 A 
ATOM     44  C   UNL A   1      41.439  29.585  29.281  1.00  0.00     0.074 A 
ATOM     45  C   UNL A   1      42.470  31.822  29.507  1.00  0.00     0.049 A 
ATOM     46  N   UNL A   1      42.347  28.935  28.603  1.00  0.00    -0.248 NA
ATOM     47  C   UNL A   1      40.212  28.812  29.542  1.00  0.00     0.031 C 
ATOM     48  C   UNL A   1      42.579  33.216  29.928  1.00  0.00     0.029 A 
ATOM     49  N   UNL A   1      43.606  31.604  28.764  1.00  0.00    -0.354 N 
ATOM     50  C   UNL A   1      41.805  27.678  28.365  1.00  0.00     0.074 A 
ATOM     51  C   UNL A   1      40.505  27.643  28.994  1.00  0.00     0.031 C 
ATOM     52  C   UNL A   1      43.736  33.722  29.463  1.00  0.00     0.029 A 
ATOM     53  C   UNL A   1      44.469  32.672  28.755  1.00  0.00     0.049 A 
ATOM     54  H   UNL A   1      43.782  30.763  28.282  1.00  0.00     0.167 HD
ATOM     55  C   UNL A   1      42.345  26.648  27.673  1.00  0.00     0.037 A 
ATOM     56  C   UNL A   1      45.725  32.769  28.271  1.00  0.00     0.037 A 
ATOM     57  C   UNL A   1      43.643  26.687  27.056  1.00  0.00     0.049 A 
ATOM     58  C   UNL A   1      46.346  31.568  27.593  1.00  0.00     0.074 A 
ATOM     59  C   UNL A   1      44.293  25.691  26.351  1.00  0.00     0.029 A 
ATOM     60  N   UNL A   1      44.489  27.786  27.075  1.00  0.00    -0.354 N 
ATOM     61  N   UNL A   1      45.835  30.381  27.373  1.00  0.00    -0.248 NA
ATOM     62  C   UNL A   1      47.723  31.721  27.097  1.00  0.00     0.031 C 
ATOM     63  C   UNL A   1      45.553  26.169  25.985  1.00  0.00     0.029 A 
ATOM     64  C   UNL A   1      45.661  27.485  26.402  1.00  0.00     0.049 A 
ATOM     65  H   UNL A   1      44.287  28.649  27.503  1.00  0.00     0.167 HD
ATOM     66  C   UNL A   1      46.801  29.671  26.670  1.00  0.00     0.074 A 
ATOM     67  C   UNL A   1      47.932  30.555  26.502  1.00  0.00     0.031 C 
ATOM     68  C   UNL A   1      46.754  28.399  26.202  1.00  0.00     0.037 A 
BRANCH  55  69
ATOM     69  C   UNL A   1      41.544  25.386  27.555  1.00  0.00     0.064 A 
ATOM     70  C   UNL A   1      40.439  25.295  26.694  1.00  0.00     0.173 A 
ATOM     71  C   UNL A   1      41.922  24.236  28.262  1.00  0.00     0.173 A 
ATOM     72  F   UNL A   1      40.028  26.373  26.010  1.00  0.00    -0.203 F 
ATOM     73  C   UNL A   1      39.737  24.102  26.555  1.00  0.00     0.198 A 
ATOM     74  C   UNL A   1      41.237  23.035  28.097  1.00  0.00     0.198 A 
ATOM     75  F   UNL A   1      42.972  24.268  29.098  1.00  0.00    -0.203 F 
ATOM     76  F   UNL A   1      38.665  24.047  25.754  1.00  0.00    -0.200 F 
ATOM     77  C   UNL A   1      40.143  22.970  27.247  1.00  0.00     0.200 A 
ATOM     78  F   UNL A   1      41.640  21.939  28.755  1.00  0.00    -0.200 F 
ATOM     79  F   UNL A   1      39.478  21.817  27.097  1.00  0.00    -0.200 F 
ENDBRANCH  55  69
BRANCH  56  80
ATOM     80  C   UNL A   1      46.508  34.024  28.439  1.00  0.00     0.064 A 
ATOM     81  C   UNL A   1      47.246  34.268  29.608  1.00  0.00     0.173 A 
ATOM     82  C   UNL A   1      46.480  35.036  27.468  1.00  0.00     0.173 A 
ATOM     83  F   UNL A   1      47.286  33.345  30.579  1.00  0.00    -0.203 F 
ATOM     84  C   UNL A   1      47.887  35.488  29.814  1.00  0.00     0.198 A 
ATOM     85  C   UNL A   1      47.153  36.241  27.659  1.00  0.00     0.198 A 
ATOM     86  F   UNL A   1      45.789  34.859  26.331  1.00  0.00    -0.203 F 
ATOM     87  F   UNL A   1      48.518  35.722  30.973  1.00  0.00    -0.200 F 
ATOM     88  C   UNL A   1      47.843  36.473  28.839  1.00  0.00     0.200 A 
ATOM     89  F   UNL A   1      47.118  37.184  26.708  1.00  0.00    -0.200 F 
ATOM     90  F   UNL A   1      48.449  37.650  29.044  1.00  0.00    -0.200 F 
ENDBRANCH  56  80
BRANCH  68  91
ATOM     91  C   UNL A   1      47.912  27.907  25.381  1.00  0.00     0.064 A 
ATOM     92  C   UNL A   1      49.093  27.432  25.967  1.00  0.00     0.173 A 
ATOM     93  C   UNL A   1      47.792  27.827  23.984  1.00  0.00     0.173 A 
ATOM     94  F   UNL A   1      49.262  27.497  27.296  1.00  0.00    -0.203 F 
ATOM     95  C   UNL A   1      50.117  26.907  25.182  1.00  0.00     0.198 A 
ATOM     96  C   UNL A   1      48.803  27.271  23.207  1.00  0.00     0.198 A 
ATOM     97  F   UNL A   1      46.677  28.259  23.376  1.00  0.00    -0.203 F 
ATOM     98  F   UNL A   1      51.252  26.488  25.760  1.00  0.00    -0.200 F 
ATOM     99  C   UNL A   1      49.967  26.815  23.806  1.00  0.00     0.200 A 
ATOM    100  F   UNL A   1      48.646  27.166  21.880  1.00  0.00    -0.200 F 
ATOM    101  F   UNL A   1      50.944  26.286  23.057  1.00  0.00    -0.200 F 
ENDBRANCH  68  91
ENDBRANCH  42  43
ENDBRANCH  35  37
ENDBRANCH  34  35
ENDBRANCH  33  34
ENDBRANCH  32  33
ENDBRANCH  31  32
ENDBRANCH  30  31
ENDBRANCH   1  30
TORSDOF 22
ENDMDL
