MODEL 1
REMARK VINA RESULT:     -11.4      0.000      0.000
REMARK SMILES O=C(OCCOCCOCCOCCOC(=O)c1ccc2nc(C3CCCCC3)[nH]c2c1)c1ccc(-c2c3nc(c(-c4c(F)c(F)c(F)c(F)c4F)c4ccc([nH]4)c(-c4c(F)c(F)c(F)c(F)c4F)c4nc(c(-c5c(F)c(F)c(F)c(F)c5F)c5ccc2[nH]5)C=C4)C=C3)cc1
REMARK SMILES IDX 8 1 7 2 6 3 5 4 4 5 3 6 2 7 1 8 33 9 34 10 95 11 35 12 94 13
REMARK SMILES IDX 36 14 37 15 38 16 88 17 39 18 93 19 87 20 89 21 40 22 92 23
REMARK SMILES IDX 86 24 85 25 41 27 73 28 53 29 72 30 54 31 57 32 71 33 90 34
REMARK SMILES IDX 55 35 56 36 70 38 91 39 58 40 42 41 43 42 51 43 44 44 45 45
REMARK SMILES IDX 49 46 52 47 46 48 47 49 50 50 48 51 74 52 75 53 83 54 76 55
REMARK SMILES IDX 77 56 81 57 84 58 78 59 79 60 82 61 80 62 59 63 60 64 68 65
REMARK SMILES IDX 61 66 62 67 66 68 69 69 63 70 64 71 67 72 65 73 9 74 10 75
REMARK SMILES IDX 11 76 12 77 13 78 14 79 15 80 16 81 17 82 18 83 19 84 32 85
REMARK SMILES IDX 20 86 31 87 21 88 30 89 22 90 23 91 24 93 25 94 29 95 26 96
REMARK SMILES IDX 28 97 27 98
REMARK H PARENT 89 26 57 37 30 92
REMARK Flexibility Score: inf
ROOT
ATOM      1  C   UNL A   1      44.697  19.741  24.625  1.00  0.00     0.188 C 
ENDROOT
BRANCH   1   2
ATOM      2  C   UNL A   1      46.170  19.929  24.980  1.00  0.00     0.188 C 
BRANCH   2   3
ATOM      3  O   UNL A   1      46.417  21.267  25.427  1.00  0.00    -0.376 OA
BRANCH   3   4
ATOM      4  C   UNL A   1      46.054  22.288  24.497  1.00  0.00     0.202 C 
BRANCH   4   5
ATOM      5  C   UNL A   1      46.080  23.701  25.083  1.00  0.00     0.261 C 
BRANCH   5   6
ATOM      6  O   UNL A   1      44.971  24.492  24.632  1.00  0.00    -0.460 OA
BRANCH   6   7
ATOM      7  C   UNL A   1      43.671  24.400  25.009  1.00  0.00     0.338 C 
ATOM      8  O   UNL A   1      43.008  23.462  24.569  1.00  0.00    -0.246 OA
BRANCH   7   9
ATOM      9  C   UNL A   1      42.986  25.351  25.947  1.00  0.00     0.060 A 
ATOM     10  C   UNL A   1      43.246  26.718  26.071  1.00  0.00     0.016 A 
ATOM     11  C   UNL A   1      41.957  24.812  26.741  1.00  0.00     0.016 A 
ATOM     12  C   UNL A   1      42.588  27.506  27.005  1.00  0.00     0.010 A 
ATOM     13  C   UNL A   1      41.271  25.598  27.672  1.00  0.00     0.010 A 
ATOM     14  C   UNL A   1      41.624  26.941  27.832  1.00  0.00    -0.014 A 
BRANCH  14  15
ATOM     15  C   UNL A   1      41.183  27.725  28.998  1.00  0.00     0.031 A 
ATOM     16  C   UNL A   1      42.053  27.690  30.218  1.00  0.00     0.074 A 
ATOM     17  C   UNL A   1      40.135  28.558  28.900  1.00  0.00     0.049 A 
ATOM     18  N   UNL A   1      41.888  28.266  31.378  1.00  0.00    -0.248 NA
ATOM     19  C   UNL A   1      43.298  26.910  30.104  1.00  0.00     0.031 C 
ATOM     20  C   UNL A   1      39.333  28.762  27.694  1.00  0.00     0.029 A 
ATOM     21  N   UNL A   1      39.589  29.412  29.818  1.00  0.00    -0.354 N 
ATOM     22  C   UNL A   1      42.987  27.890  32.139  1.00  0.00     0.074 A 
ATOM     23  C   UNL A   1      43.813  27.039  31.315  1.00  0.00     0.031 C 
ATOM     24  C   UNL A   1      38.405  29.701  27.942  1.00  0.00     0.029 A 
ATOM     25  C   UNL A   1      38.509  30.112  29.339  1.00  0.00     0.049 A 
ATOM     26  H   UNL A   1      39.936  29.515  30.734  1.00  0.00     0.167 HD
ATOM     27  C   UNL A   1      43.268  28.223  33.419  1.00  0.00     0.037 A 
ATOM     28  C   UNL A   1      37.689  30.963  29.983  1.00  0.00     0.037 A 
ATOM     29  C   UNL A   1      42.420  29.070  34.209  1.00  0.00     0.049 A 
ATOM     30  C   UNL A   1      37.958  31.233  31.440  1.00  0.00     0.074 A 
ATOM     31  C   UNL A   1      42.541  29.428  35.537  1.00  0.00     0.029 A 
ATOM     32  N   UNL A   1      41.275  29.693  33.724  1.00  0.00    -0.354 N 
ATOM     33  N   UNL A   1      38.949  30.812  32.191  1.00  0.00    -0.248 NA
ATOM     34  C   UNL A   1      36.989  32.080  32.145  1.00  0.00     0.031 C 
ATOM     35  C   UNL A   1      41.443  30.233  35.867  1.00  0.00     0.029 A 
ATOM     36  C   UNL A   1      40.668  30.420  34.731  1.00  0.00     0.049 A 
ATOM     37  H   UNL A   1      40.945  29.627  32.799  1.00  0.00     0.167 HD
ATOM     38  C   UNL A   1      38.737  31.352  33.450  1.00  0.00     0.074 A 
ATOM     39  C   UNL A   1      37.527  32.147  33.356  1.00  0.00     0.031 C 
ATOM     40  C   UNL A   1      39.467  31.205  34.585  1.00  0.00     0.037 A 
BRANCH  27  41
ATOM     41  C   UNL A   1      44.480  27.585  34.033  1.00  0.00     0.064 A 
ATOM     42  C   UNL A   1      45.739  28.205  34.021  1.00  0.00     0.173 A 
ATOM     43  C   UNL A   1      44.392  26.292  34.570  1.00  0.00     0.173 A 
ATOM     44  F   UNL A   1      45.885  29.427  33.487  1.00  0.00    -0.203 F 
ATOM     45  C   UNL A   1      46.871  27.536  34.481  1.00  0.00     0.198 A 
ATOM     46  C   UNL A   1      45.521  25.638  35.056  1.00  0.00     0.198 A 
ATOM     47  F   UNL A   1      43.215  25.649  34.598  1.00  0.00    -0.203 F 
ATOM     48  F   UNL A   1      48.076  28.116  34.384  1.00  0.00    -0.200 F 
ATOM     49  C   UNL A   1      46.762  26.254  34.998  1.00  0.00     0.200 A 
ATOM     50  F   UNL A   1      45.413  24.398  35.556  1.00  0.00    -0.200 F 
ATOM     51  F   UNL A   1      47.855  25.603  35.420  1.00  0.00    -0.200 F 
ENDBRANCH  27  41
BRANCH  28  52
ATOM     52  C   UNL A   1      36.534  31.572  29.270  1.00  0.00     0.064 A 
ATOM     53  C   UNL A   1      36.485  32.948  29.005  1.00  0.00     0.173 A 
ATOM     54  C   UNL A   1      35.453  30.790  28.832  1.00  0.00     0.173 A 
ATOM     55  F   UNL A   1      37.479  33.745  29.422  1.00  0.00    -0.203 F 
ATOM     56  C   UNL A   1      35.401  33.517  28.336  1.00  0.00     0.198 A 
ATOM     57  C   UNL A   1      34.384  31.353  28.138  1.00  0.00     0.198 A 
ATOM     58  F   UNL A   1      35.443  29.469  29.064  1.00  0.00    -0.203 F 
ATOM     59  F   UNL A   1      35.364  34.839  28.128  1.00  0.00    -0.200 F 
ATOM     60  C   UNL A   1      34.356  32.717  27.896  1.00  0.00     0.200 A 
ATOM     61  F   UNL A   1      33.384  30.575  27.704  1.00  0.00    -0.200 F 
ATOM     62  F   UNL A   1      33.319  33.263  27.245  1.00  0.00    -0.200 F 
ENDBRANCH  28  52
BRANCH  40  63
ATOM     63  C   UNL A   1      38.991  31.950  35.795  1.00  0.00     0.064 A 
ATOM     64  C   UNL A   1      38.190  31.336  36.768  1.00  0.00     0.173 A 
ATOM     65  C   UNL A   1      39.393  33.277  36.008  1.00  0.00     0.173 A 
ATOM     66  F   UNL A   1      37.770  30.073  36.599  1.00  0.00    -0.203 F 
ATOM     67  C   UNL A   1      37.791  32.034  37.904  1.00  0.00     0.198 A 
ATOM     68  C   UNL A   1      39.018  33.960  37.158  1.00  0.00     0.198 A 
ATOM     69  F   UNL A   1      40.168  33.902  35.107  1.00  0.00    -0.203 F 
ATOM     70  F   UNL A   1      36.990  31.444  38.802  1.00  0.00    -0.200 F 
ATOM     71  C   UNL A   1      38.212  33.341  38.103  1.00  0.00     0.200 A 
ATOM     72  F   UNL A   1      39.438  35.218  37.356  1.00  0.00    -0.200 F 
ATOM     73  F   UNL A   1      37.835  34.007  39.202  1.00  0.00    -0.200 F 
ENDBRANCH  40  63
ENDBRANCH  14  15
ENDBRANCH   7   9
ENDBRANCH   6   7
ENDBRANCH   5   6
ENDBRANCH   4   5
ENDBRANCH   3   4
ENDBRANCH   2   3
ENDBRANCH   1   2
BRANCH   1  74
ATOM     74  O   UNL A   1      44.170  18.447  24.902  1.00  0.00    -0.377 OA
BRANCH  74  75
ATOM     75  C   UNL A   1      43.120  18.370  25.858  1.00  0.00     0.188 C 
BRANCH  75  76
ATOM     76  C   UNL A   1      42.514  19.682  26.400  1.00  0.00     0.188 C 
BRANCH  76  77
ATOM     77  O   UNL A   1      41.356  20.143  25.715  1.00  0.00    -0.376 OA
BRANCH  77  78
ATOM     78  C   UNL A   1      40.892  21.434  26.099  1.00  0.00     0.202 C 
BRANCH  78  79
ATOM     79  C   UNL A   1      39.411  21.498  26.492  1.00  0.00     0.261 C 
BRANCH  79  80
ATOM     80  O   UNL A   1      38.513  21.955  25.464  1.00  0.00    -0.460 OA
BRANCH  80  81
ATOM     81  C   UNL A   1      37.632  21.084  24.923  1.00  0.00     0.338 C 
ATOM     82  O   UNL A   1      37.836  19.923  24.617  1.00  0.00    -0.246 OA
BRANCH  81  83
ATOM     83  C   UNL A   1      36.292  21.720  25.006  1.00  0.00     0.062 A 
ATOM     84  C   UNL A   1      35.138  20.925  25.049  1.00  0.00     0.018 A 
ATOM     85  C   UNL A   1      36.214  23.121  24.871  1.00  0.00     0.044 A 
ATOM     86  C   UNL A   1      33.867  21.509  24.952  1.00  0.00     0.031 A 
ATOM     87  C   UNL A   1      34.932  23.664  24.732  1.00  0.00     0.066 A 
ATOM     88  C   UNL A   1      33.771  22.899  24.784  1.00  0.00     0.089 A 
ATOM     89  N   UNL A   1      34.479  24.942  24.516  1.00  0.00    -0.342 N 
ATOM     90  N   UNL A   1      32.659  23.693  24.669  1.00  0.00    -0.233 NA
ATOM     91  C   UNL A   1      33.103  24.931  24.576  1.00  0.00     0.110 A 
ATOM     92  H   UNL A   1      35.042  25.732  24.345  1.00  0.00     0.168 HD
BRANCH  91  93
ATOM     93  C   UNL A   1      32.251  26.168  24.637  1.00  0.00     0.055 C 
ATOM     94  C   UNL A   1      32.484  26.965  25.930  1.00  0.00     0.011 C 
ATOM     95  C   UNL A   1      32.417  27.069  23.408  1.00  0.00     0.011 C 
ATOM     96  C   UNL A   1      31.548  28.166  26.017  1.00  0.00     0.001 C 
ATOM     97  C   UNL A   1      31.485  28.283  23.491  1.00  0.00     0.001 C 
ATOM     98  C   UNL A   1      31.673  29.063  24.790  1.00  0.00     0.000 C 
ENDBRANCH  91  93
ENDBRANCH  81  83
ENDBRANCH  80  81
ENDBRANCH  79  80
ENDBRANCH  78  79
ENDBRANCH  77  78
ENDBRANCH  76  77
ENDBRANCH  75  76
ENDBRANCH  74  75
ENDBRANCH   1  74
TORSDOF 21
ENDMDL
MODEL 2
REMARK VINA RESULT:     -11.2      3.277      8.629
REMARK SMILES O=C(OCCOCCOCCOCCOC(=O)c1ccc2nc(C3CCCCC3)[nH]c2c1)c1ccc(-c2c3nc(c(-c4c(F)c(F)c(F)c(F)c4F)c4ccc([nH]4)c(-c4c(F)c(F)c(F)c(F)c4F)c4nc(c(-c5c(F)c(F)c(F)c(F)c5F)c5ccc2[nH]5)C=C4)C=C3)cc1
REMARK SMILES IDX 8 1 7 2 6 3 5 4 4 5 3 6 2 7 1 8 33 9 34 10 95 11 35 12 94 13
REMARK SMILES IDX 36 14 37 15 38 16 88 17 39 18 93 19 87 20 89 21 40 22 92 23
REMARK SMILES IDX 86 24 85 25 41 27 73 28 53 29 72 30 54 31 57 32 71 33 90 34
REMARK SMILES IDX 55 35 56 36 70 38 91 39 58 40 42 41 43 42 51 43 44 44 45 45
REMARK SMILES IDX 49 46 52 47 46 48 47 49 50 50 48 51 74 52 75 53 83 54 76 55
REMARK SMILES IDX 77 56 81 57 84 58 78 59 79 60 82 61 80 62 59 63 60 64 68 65
REMARK SMILES IDX 61 66 62 67 66 68 69 69 63 70 64 71 67 72 65 73 9 74 10 75
REMARK SMILES IDX 11 76 12 77 13 78 14 79 15 80 16 81 17 82 18 83 19 84 32 85
REMARK SMILES IDX 20 86 31 87 21 88 30 89 22 90 23 91 24 93 25 94 29 95 26 96
REMARK SMILES IDX 28 97 27 98
REMARK H PARENT 89 26 57 37 30 92
REMARK Flexibility Score: inf
ROOT
ATOM      1  C   UNL A   1      34.083  26.509  25.235  1.00  0.00     0.188 C 
ENDROOT
BRANCH   1   2
ATOM      2  C   UNL A   1      33.200  27.359  26.146  1.00  0.00     0.188 C 
BRANCH   2   3
ATOM      3  O   UNL A   1      32.348  28.213  25.375  1.00  0.00    -0.376 OA
BRANCH   3   4
ATOM      4  C   UNL A   1      32.608  29.610  25.516  1.00  0.00     0.202 C 
BRANCH   4   5
ATOM      5  C   UNL A   1      32.151  30.196  26.853  1.00  0.00     0.261 C 
BRANCH   5   6
ATOM      6  O   UNL A   1      32.390  31.608  26.932  1.00  0.00    -0.460 OA
BRANCH   6   7
ATOM      7  C   UNL A   1      33.393  32.252  27.581  1.00  0.00     0.338 C 
ATOM      8  O   UNL A   1      33.223  33.433  27.878  1.00  0.00    -0.246 OA
BRANCH   7   9
ATOM      9  C   UNL A   1      34.691  31.617  27.987  1.00  0.00     0.060 A 
ATOM     10  C   UNL A   1      34.907  30.257  28.219  1.00  0.00     0.016 A 
ATOM     11  C   UNL A   1      35.798  32.478  28.102  1.00  0.00     0.016 A 
ATOM     12  C   UNL A   1      36.139  29.772  28.638  1.00  0.00     0.010 A 
ATOM     13  C   UNL A   1      37.051  32.002  28.502  1.00  0.00     0.010 A 
ATOM     14  C   UNL A   1      37.204  30.648  28.815  1.00  0.00    -0.014 A 
BRANCH  14  15
ATOM     15  C   UNL A   1      38.380  30.150  29.547  1.00  0.00     0.031 A 
ATOM     16  C   UNL A   1      38.541  30.588  30.971  1.00  0.00     0.074 A 
ATOM     17  C   UNL A   1      39.174  29.215  29.001  1.00  0.00     0.049 A 
ATOM     18  N   UNL A   1      39.487  30.315  31.827  1.00  0.00    -0.248 NA
ATOM     19  C   UNL A   1      37.464  31.437  31.513  1.00  0.00     0.031 C 
ATOM     20  C   UNL A   1      38.991  28.625  27.675  1.00  0.00     0.029 A 
ATOM     21  N   UNL A   1      40.272  28.574  29.507  1.00  0.00    -0.354 N 
ATOM     22  C   UNL A   1      39.139  30.987  32.991  1.00  0.00     0.074 A 
ATOM     23  C   UNL A   1      37.897  31.678  32.738  1.00  0.00     0.031 C 
ATOM     24  C   UNL A   1      39.935  27.690  27.479  1.00  0.00     0.029 A 
ATOM     25  C   UNL A   1      40.824  27.666  28.637  1.00  0.00     0.049 A 
ATOM     26  H   UNL A   1      40.631  28.747  30.407  1.00  0.00     0.167 HD
ATOM     27  C   UNL A   1      39.811  31.026  34.164  1.00  0.00     0.037 A 
ATOM     28  C   UNL A   1      41.943  26.930  28.768  1.00  0.00     0.037 A 
ATOM     29  C   UNL A   1      41.048  30.327  34.378  1.00  0.00     0.049 A 
ATOM     30  C   UNL A   1      42.735  27.073  30.041  1.00  0.00     0.074 A 
ATOM     31  C   UNL A   1      41.873  30.338  35.486  1.00  0.00     0.029 A 
ATOM     32  N   UNL A   1      41.636  29.485  33.442  1.00  0.00    -0.354 N 
ATOM     33  N   UNL A   1      42.456  27.774  31.115  1.00  0.00    -0.248 NA
ATOM     34  C   UNL A   1      44.005  26.341  30.115  1.00  0.00     0.031 C 
ATOM     35  C   UNL A   1      42.985  29.536  35.201  1.00  0.00     0.029 A 
ATOM     36  C   UNL A   1      42.826  28.983  33.937  1.00  0.00     0.049 A 
ATOM     37  H   UNL A   1      41.262  29.276  32.556  1.00  0.00     0.167 HD
ATOM     38  C   UNL A   1      43.501  27.557  32.000  1.00  0.00     0.074 A 
ATOM     39  C   UNL A   1      44.414  26.643  31.340  1.00  0.00     0.031 C 
ATOM     40  C   UNL A   1      43.697  28.066  33.243  1.00  0.00     0.037 A 
BRANCH  27  41
ATOM     41  C   UNL A   1      39.257  31.922  35.232  1.00  0.00     0.064 A 
ATOM     42  C   UNL A   1      39.566  33.290  35.295  1.00  0.00     0.173 A 
ATOM     43  C   UNL A   1      38.466  31.382  36.257  1.00  0.00     0.173 A 
ATOM     44  F   UNL A   1      40.347  33.850  34.360  1.00  0.00    -0.203 F 
ATOM     45  C   UNL A   1      39.144  34.071  36.370  1.00  0.00     0.198 A 
ATOM     46  C   UNL A   1      38.021  32.172  37.314  1.00  0.00     0.198 A 
ATOM     47  F   UNL A   1      38.148  30.078  36.252  1.00  0.00    -0.203 F 
ATOM     48  F   UNL A   1      39.520  35.355  36.452  1.00  0.00    -0.200 F 
ATOM     49  C   UNL A   1      38.372  33.511  37.378  1.00  0.00     0.200 A 
ATOM     50  F   UNL A   1      37.275  31.629  38.287  1.00  0.00    -0.200 F 
ATOM     51  F   UNL A   1      37.984  34.258  38.421  1.00  0.00    -0.200 F 
ENDBRANCH  27  41
BRANCH  28  52
ATOM     52  C   UNL A   1      42.387  26.041  27.661  1.00  0.00     0.064 A 
ATOM     53  C   UNL A   1      41.855  24.754  27.502  1.00  0.00     0.173 A 
ATOM     54  C   UNL A   1      43.352  26.461  26.731  1.00  0.00     0.173 A 
ATOM     55  F   UNL A   1      40.948  24.293  28.375  1.00  0.00    -0.203 F 
ATOM     56  C   UNL A   1      42.273  23.922  26.463  1.00  0.00     0.198 A 
ATOM     57  C   UNL A   1      43.748  25.642  25.677  1.00  0.00     0.198 A 
ATOM     58  F   UNL A   1      43.901  27.680  26.838  1.00  0.00    -0.203 F 
ATOM     59  F   UNL A   1      41.774  22.684  26.356  1.00  0.00    -0.200 F 
ATOM     60  C   UNL A   1      43.213  24.371  25.546  1.00  0.00     0.200 A 
ATOM     61  F   UNL A   1      44.647  26.085  24.787  1.00  0.00    -0.200 F 
ATOM     62  F   UNL A   1      43.607  23.575  24.542  1.00  0.00    -0.200 F 
ENDBRANCH  28  52
BRANCH  40  63
ATOM     63  C   UNL A   1      44.925  27.613  33.973  1.00  0.00     0.064 A 
ATOM     64  C   UNL A   1      44.917  26.472  34.786  1.00  0.00     0.173 A 
ATOM     65  C   UNL A   1      46.137  28.299  33.805  1.00  0.00     0.173 A 
ATOM     66  F   UNL A   1      43.778  25.793  34.987  1.00  0.00    -0.203 F 
ATOM     67  C   UNL A   1      46.078  26.046  35.425  1.00  0.00     0.198 A 
ATOM     68  C   UNL A   1      47.301  27.852  34.419  1.00  0.00     0.198 A 
ATOM     69  F   UNL A   1      46.194  29.392  33.027  1.00  0.00    -0.203 F 
ATOM     70  F   UNL A   1      46.041  24.977  36.233  1.00  0.00    -0.200 F 
ATOM     71  C   UNL A   1      47.270  26.730  35.234  1.00  0.00     0.200 A 
ATOM     72  F   UNL A   1      48.455  28.506  34.222  1.00  0.00    -0.200 F 
ATOM     73  F   UNL A   1      48.388  26.311  35.840  1.00  0.00    -0.200 F 
ENDBRANCH  40  63
ENDBRANCH  14  15
ENDBRANCH   7   9
ENDBRANCH   6   7
ENDBRANCH   5   6
ENDBRANCH   4   5
ENDBRANCH   3   4
ENDBRANCH   2   3
ENDBRANCH   1   2
BRANCH   1  74
ATOM     74  O   UNL A   1      34.000  25.104  25.456  1.00  0.00    -0.377 OA
BRANCH  74  75
ATOM     75  C   UNL A   1      34.994  24.296  24.839  1.00  0.00     0.188 C 
BRANCH  75  76
ATOM     76  C   UNL A   1      36.127  23.718  25.713  1.00  0.00     0.188 C 
BRANCH  76  77
ATOM     77  O   UNL A   1      36.228  22.300  25.716  1.00  0.00    -0.376 OA
BRANCH  77  78
ATOM     78  C   UNL A   1      35.075  21.605  26.181  1.00  0.00     0.202 C 
BRANCH  78  79
ATOM     79  C   UNL A   1      34.457  20.629  25.172  1.00  0.00     0.261 C 
BRANCH  79  80
ATOM     80  O   UNL A   1      33.019  20.620  25.115  1.00  0.00    -0.460 OA
BRANCH  80  81
ATOM     81  C   UNL A   1      32.399  21.111  24.019  1.00  0.00     0.338 C 
ATOM     82  O   UNL A   1      32.153  20.520  22.983  1.00  0.00    -0.246 OA
BRANCH  81  83
ATOM     83  C   UNL A   1      31.839  22.435  24.398  1.00  0.00     0.062 A 
ATOM     84  C   UNL A   1      31.395  22.661  25.708  1.00  0.00     0.018 A 
ATOM     85  C   UNL A   1      31.618  23.378  23.374  1.00  0.00     0.044 A 
ATOM     86  C   UNL A   1      30.709  23.839  26.033  1.00  0.00     0.031 A 
ATOM     87  C   UNL A   1      30.891  24.521  23.725  1.00  0.00     0.066 A 
ATOM     88  C   UNL A   1      30.451  24.775  25.020  1.00  0.00     0.089 A 
ATOM     89  N   UNL A   1      30.434  25.595  23.001  1.00  0.00    -0.342 N 
ATOM     90  N   UNL A   1      29.810  25.986  25.088  1.00  0.00    -0.233 NA
ATOM     91  C   UNL A   1      29.869  26.497  23.874  1.00  0.00     0.110 A 
ATOM     92  H   UNL A   1      30.499  25.701  22.025  1.00  0.00     0.168 HD
BRANCH  91  93
ATOM     93  C   UNL A   1      29.482  27.901  23.503  1.00  0.00     0.055 C 
ATOM     94  C   UNL A   1      30.362  28.463  22.375  1.00  0.00     0.011 C 
ATOM     95  C   UNL A   1      27.996  28.038  23.148  1.00  0.00     0.011 C 
ATOM     96  C   UNL A   1      30.016  29.917  22.074  1.00  0.00     0.001 C 
ATOM     97  C   UNL A   1      27.641  29.496  22.836  1.00  0.00     0.001 C 
ATOM     98  C   UNL A   1      28.535  30.083  21.747  1.00  0.00     0.000 C 
ENDBRANCH  91  93
ENDBRANCH  81  83
ENDBRANCH  80  81
ENDBRANCH  79  80
ENDBRANCH  78  79
ENDBRANCH  77  78
ENDBRANCH  76  77
ENDBRANCH  75  76
ENDBRANCH  74  75
ENDBRANCH   1  74
TORSDOF 21
ENDMDL
MODEL 3
REMARK VINA RESULT:     -11.0      5.704     11.119
REMARK SMILES O=C(OCCOCCOCCOCCOC(=O)c1ccc2nc(C3CCCCC3)[nH]c2c1)c1ccc(-c2c3nc(c(-c4c(F)c(F)c(F)c(F)c4F)c4ccc([nH]4)c(-c4c(F)c(F)c(F)c(F)c4F)c4nc(c(-c5c(F)c(F)c(F)c(F)c5F)c5ccc2[nH]5)C=C4)C=C3)cc1
REMARK SMILES IDX 8 1 7 2 6 3 5 4 4 5 3 6 2 7 1 8 33 9 34 10 95 11 35 12 94 13
REMARK SMILES IDX 36 14 37 15 38 16 88 17 39 18 93 19 87 20 89 21 40 22 92 23
REMARK SMILES IDX 86 24 85 25 41 27 73 28 53 29 72 30 54 31 57 32 71 33 90 34
REMARK SMILES IDX 55 35 56 36 70 38 91 39 58 40 42 41 43 42 51 43 44 44 45 45
REMARK SMILES IDX 49 46 52 47 46 48 47 49 50 50 48 51 74 52 75 53 83 54 76 55
REMARK SMILES IDX 77 56 81 57 84 58 78 59 79 60 82 61 80 62 59 63 60 64 68 65
REMARK SMILES IDX 61 66 62 67 66 68 69 69 63 70 64 71 67 72 65 73 9 74 10 75
REMARK SMILES IDX 11 76 12 77 13 78 14 79 15 80 16 81 17 82 18 83 19 84 32 85
REMARK SMILES IDX 20 86 31 87 21 88 30 89 22 90 23 91 24 93 25 94 29 95 26 96
REMARK SMILES IDX 28 97 27 98
REMARK H PARENT 89 26 57 37 30 92
REMARK Flexibility Score: inf
ROOT
ATOM      1  C   UNL A   1      34.828  32.047  28.090  1.00  0.00     0.188 C 
ENDROOT
BRANCH   1   2
ATOM      2  C   UNL A   1      35.728  33.276  28.201  1.00  0.00     0.188 C 
BRANCH   2   3
ATOM      3  O   UNL A   1      35.475  33.982  29.421  1.00  0.00    -0.376 OA
BRANCH   3   4
ATOM      4  C   UNL A   1      34.426  33.439  30.223  1.00  0.00     0.202 C 
BRANCH   4   5
ATOM      5  C   UNL A   1      34.679  33.539  31.729  1.00  0.00     0.261 C 
BRANCH   5   6
ATOM      6  O   UNL A   1      35.053  32.277  32.298  1.00  0.00    -0.460 OA
BRANCH   6   7
ATOM      7  C   UNL A   1      36.226  31.942  32.891  1.00  0.00     0.338 C 
ATOM      8  O   UNL A   1      36.360  32.193  34.088  1.00  0.00    -0.246 OA
BRANCH   7   9
ATOM      9  C   UNL A   1      37.368  31.260  32.197  1.00  0.00     0.060 A 
ATOM     10  C   UNL A   1      38.496  30.708  32.810  1.00  0.00     0.016 A 
ATOM     11  C   UNL A   1      37.263  31.133  30.799  1.00  0.00     0.016 A 
ATOM     12  C   UNL A   1      39.525  30.138  32.073  1.00  0.00     0.010 A 
ATOM     13  C   UNL A   1      38.282  30.542  30.045  1.00  0.00     0.010 A 
ATOM     14  C   UNL A   1      39.437  30.085  30.686  1.00  0.00    -0.014 A 
BRANCH  14  15
ATOM     15  C   UNL A   1      40.664  29.764  29.939  1.00  0.00     0.031 A 
ATOM     16  C   UNL A   1      40.746  28.409  29.302  1.00  0.00     0.074 A 
ATOM     17  C   UNL A   1      41.587  30.710  29.709  1.00  0.00     0.049 A 
ATOM     18  N   UNL A   1      41.713  27.868  28.612  1.00  0.00    -0.248 NA
ATOM     19  C   UNL A   1      39.555  27.552  29.446  1.00  0.00     0.031 C 
ATOM     20  C   UNL A   1      41.502  32.098  30.166  1.00  0.00     0.029 A 
ATOM     21  N   UNL A   1      42.758  30.658  29.004  1.00  0.00    -0.354 N 
ATOM     22  C   UNL A   1      41.262  26.599  28.273  1.00  0.00     0.074 A 
ATOM     23  C   UNL A   1      39.937  26.448  28.828  1.00  0.00     0.031 C 
ATOM     24  C   UNL A   1      42.571  32.772  29.712  1.00  0.00     0.029 A 
ATOM     25  C   UNL A   1      43.442  31.849  28.991  1.00  0.00     0.049 A 
ATOM     26  H   UNL A   1      43.081  29.846  28.551  1.00  0.00     0.167 HD
ATOM     27  C   UNL A   1      41.910  25.645  27.567  1.00  0.00     0.037 A 
ATOM     28  C   UNL A   1      44.653  32.133  28.475  1.00  0.00     0.037 A 
ATOM     29  C   UNL A   1      43.230  25.831  27.033  1.00  0.00     0.049 A 
ATOM     30  C   UNL A   1      45.403  31.023  27.788  1.00  0.00     0.074 A 
ATOM     31  C   UNL A   1      44.034  24.928  26.366  1.00  0.00     0.029 A 
ATOM     32  N   UNL A   1      43.941  27.023  27.116  1.00  0.00    -0.354 N 
ATOM     33  N   UNL A   1      45.017  29.793  27.538  1.00  0.00    -0.248 NA
ATOM     34  C   UNL A   1      46.762  31.330  27.328  1.00  0.00     0.031 C 
ATOM     35  C   UNL A   1      45.251  25.562  26.085  1.00  0.00     0.029 A 
ATOM     36  C   UNL A   1      45.184  26.875  26.529  1.00  0.00     0.049 A 
ATOM     37  H   UNL A   1      43.609  27.851  27.532  1.00  0.00     0.167 HD
ATOM     38  C   UNL A   1      46.073  29.183  26.878  1.00  0.00     0.074 A 
ATOM     39  C   UNL A   1      47.113  30.188  26.753  1.00  0.00     0.031 C 
ATOM     40  C   UNL A   1      46.183  27.911  26.420  1.00  0.00     0.037 A 
BRANCH  27  41
ATOM     41  C   UNL A   1      41.223  24.317  27.437  1.00  0.00     0.064 A 
ATOM     42  C   UNL A   1      41.676  23.172  28.110  1.00  0.00     0.173 A 
ATOM     43  C   UNL A   1      40.140  24.174  26.557  1.00  0.00     0.173 A 
ATOM     44  F   UNL A   1      42.731  23.247  28.935  1.00  0.00    -0.203 F 
ATOM     45  C   UNL A   1      41.101  21.926  27.870  1.00  0.00     0.198 A 
ATOM     46  C   UNL A   1      39.548  22.932  26.343  1.00  0.00     0.198 A 
ATOM     47  F   UNL A   1      39.672  25.233  25.880  1.00  0.00    -0.203 F 
ATOM     48  F   UNL A   1      41.603  20.832  28.461  1.00  0.00    -0.200 F 
ATOM     49  C   UNL A   1      40.038  21.806  26.987  1.00  0.00     0.200 A 
ATOM     50  F   UNL A   1      38.520  22.819  25.489  1.00  0.00    -0.200 F 
ATOM     51  F   UNL A   1      39.499  20.604  26.742  1.00  0.00    -0.200 F 
ENDBRANCH  27  41
BRANCH  28  52
ATOM     52  C   UNL A   1      45.229  33.496  28.627  1.00  0.00     0.064 A 
ATOM     53  C   UNL A   1      44.993  34.497  27.673  1.00  0.00     0.173 A 
ATOM     54  C   UNL A   1      46.025  33.831  29.733  1.00  0.00     0.173 A 
ATOM     55  F   UNL A   1      44.259  34.224  26.585  1.00  0.00    -0.203 F 
ATOM     56  C   UNL A   1      45.535  35.775  27.818  1.00  0.00     0.198 A 
ATOM     57  C   UNL A   1      46.542  35.115  29.893  1.00  0.00     0.198 A 
ATOM     58  F   UNL A   1      46.290  32.912  30.674  1.00  0.00    -0.203 F 
ATOM     59  F   UNL A   1      45.323  36.701  26.874  1.00  0.00    -0.200 F 
ATOM     60  C   UNL A   1      46.301  36.085  28.932  1.00  0.00     0.200 A 
ATOM     61  F   UNL A   1      47.271  35.413  30.977  1.00  0.00    -0.200 F 
ATOM     62  F   UNL A   1      46.813  37.315  29.076  1.00  0.00    -0.200 F 
ENDBRANCH  28  52
BRANCH  40  63
ATOM     63  C   UNL A   1      47.455  27.555  25.713  1.00  0.00     0.064 A 
ATOM     64  C   UNL A   1      48.554  27.021  26.399  1.00  0.00     0.173 A 
ATOM     65  C   UNL A   1      47.548  27.696  24.320  1.00  0.00     0.173 A 
ATOM     66  F   UNL A   1      48.514  26.881  27.733  1.00  0.00    -0.203 F 
ATOM     67  C   UNL A   1      49.712  26.661  25.718  1.00  0.00     0.198 A 
ATOM     68  C   UNL A   1      48.696  27.307  23.639  1.00  0.00     0.198 A 
ATOM     69  F   UNL A   1      46.518  28.194  23.619  1.00  0.00    -0.203 F 
ATOM     70  F   UNL A   1      50.768  26.193  26.398  1.00  0.00    -0.200 F 
ATOM     71  C   UNL A   1      49.779  26.796  24.338  1.00  0.00     0.200 A 
ATOM     72  F   UNL A   1      48.753  27.423  22.305  1.00  0.00    -0.200 F 
ATOM     73  F   UNL A   1      50.891  26.438  23.683  1.00  0.00    -0.200 F 
ENDBRANCH  40  63
ENDBRANCH  14  15
ENDBRANCH   7   9
ENDBRANCH   6   7
ENDBRANCH   5   6
ENDBRANCH   4   5
ENDBRANCH   3   4
ENDBRANCH   2   3
ENDBRANCH   1   2
BRANCH   1  74
ATOM     74  O   UNL A   1      35.501  30.835  27.764  1.00  0.00    -0.377 OA
BRANCH  74  75
ATOM     75  C   UNL A   1      34.696  29.752  27.318  1.00  0.00     0.188 C 
BRANCH  75  76
ATOM     76  C   UNL A   1      33.176  29.973  27.159  1.00  0.00     0.188 C 
BRANCH  76  77
ATOM     77  O   UNL A   1      32.527  29.092  26.251  1.00  0.00    -0.376 OA
BRANCH  77  78
ATOM     78  C   UNL A   1      32.320  29.608  24.940  1.00  0.00     0.202 C 
BRANCH  78  79
ATOM     79  C   UNL A   1      30.855  29.660  24.488  1.00  0.00     0.261 C 
BRANCH  79  80
ATOM     80  O   UNL A   1      30.283  28.402  24.086  1.00  0.00    -0.460 OA
BRANCH  80  81
ATOM     81  C   UNL A   1      30.417  27.997  22.804  1.00  0.00     0.338 C 
ATOM     82  O   UNL A   1      30.126  28.620  21.799  1.00  0.00    -0.246 OA
BRANCH  81  83
ATOM     83  C   UNL A   1      31.225  26.750  22.829  1.00  0.00     0.062 A 
ATOM     84  C   UNL A   1      32.433  26.681  22.121  1.00  0.00     0.018 A 
ATOM     85  C   UNL A   1      30.664  25.609  23.436  1.00  0.00     0.044 A 
ATOM     86  C   UNL A   1      33.114  25.463  21.994  1.00  0.00     0.031 A 
ATOM     87  C   UNL A   1      31.349  24.402  23.251  1.00  0.00     0.066 A 
ATOM     88  C   UNL A   1      32.555  24.310  22.564  1.00  0.00     0.089 A 
ATOM     89  N   UNL A   1      31.077  23.109  23.624  1.00  0.00    -0.342 N 
ATOM     90  N   UNL A   1      33.025  23.021  22.578  1.00  0.00    -0.233 NA
ATOM     91  C   UNL A   1      32.154  22.323  23.280  1.00  0.00     0.110 A 
ATOM     92  H   UNL A   1      30.252  22.796  24.061  1.00  0.00     0.168 HD
BRANCH  91  93
ATOM     93  C   UNL A   1      32.346  20.906  23.741  1.00  0.00     0.055 C 
ATOM     94  C   UNL A   1      32.243  19.902  22.582  1.00  0.00     0.011 C 
ATOM     95  C   UNL A   1      33.651  20.701  24.519  1.00  0.00     0.011 C 
ATOM     96  C   UNL A   1      32.349  18.465  23.080  1.00  0.00     0.001 C 
ATOM     97  C   UNL A   1      33.769  19.257  25.018  1.00  0.00     0.001 C 
ATOM     98  C   UNL A   1      33.626  18.245  23.883  1.00  0.00     0.000 C 
ENDBRANCH  91  93
ENDBRANCH  81  83
ENDBRANCH  80  81
ENDBRANCH  79  80
ENDBRANCH  78  79
ENDBRANCH  77  78
ENDBRANCH  76  77
ENDBRANCH  75  76
ENDBRANCH  74  75
ENDBRANCH   1  74
TORSDOF 21
ENDMDL
