MODEL 1
REMARK VINA RESULT:      -8.8      0.000      0.000
REMARK SMILES CS(=O)(=O)Nc1cc(NS(C)(=O)=O)cc(C(=O)OCCOCCOCCOCCOC(=O)c2ccc(-c3c4nc(c(-c5c(F)c(F)c(F)c(F)c5F)c5ccc([nH]5)c(-c5c(F)c(F)c(F)c(F)c5F)c5nc(c(-c6c(F)c(F)c(F)c(F)c6F)c6ccc3[nH]6)C=C5)C=C4)cc2)c1
REMARK SMILES IDX 24 1 23 2 22 3 21 4 20 5 19 6 18 7 16 8 17 9 15 10 6 11 7 12
REMARK SMILES IDX 96 13 8 14 14 15 5 16 2 18 1 19 3 20 4 21 9 22 10 24 11 25
REMARK SMILES IDX 12 26 13 27 25 28 26 29 27 30 28 31 29 32 30 33 31 34 32 35
REMARK SMILES IDX 33 36 34 37 95 38 35 39 94 40 36 41 37 42 38 43 88 44 39 45
REMARK SMILES IDX 93 46 87 47 89 48 40 49 92 50 86 51 85 52 41 54 73 55 53 56
REMARK SMILES IDX 72 57 54 58 57 59 71 60 90 61 55 62 56 63 70 65 91 66 58 67
REMARK SMILES IDX 42 68 43 69 51 70 44 71 45 72 49 73 52 74 46 75 47 76 50 77
REMARK SMILES IDX 48 78 74 79 75 80 83 81 76 82 77 83 81 84 84 85 78 86 79 87
REMARK SMILES IDX 82 88 80 89 59 90 60 91 68 92 61 93 62 94 66 95 69 96 63 97
REMARK SMILES IDX 64 98 67 99 65 100
REMARK H PARENT 5 17 9 23 89 53 57 64
REMARK Flexibility Score: inf
ROOT
ATOM      1  O   UNL A   1      34.512  35.044  31.427  1.00  0.00    -0.377 OA
ENDROOT
BRANCH   1   2
ATOM      2  C   UNL A   1      33.768  34.871  30.235  1.00  0.00     0.188 C 
BRANCH   2   3
ATOM      3  C   UNL A   1      34.493  33.996  29.193  1.00  0.00     0.188 C 
BRANCH   3   4
ATOM      4  O   UNL A   1      34.142  32.629  29.097  1.00  0.00    -0.376 OA
BRANCH   4   5
ATOM      5  C   UNL A   1      34.103  31.898  27.883  1.00  0.00     0.202 C 
BRANCH   5   6
ATOM      6  C   UNL A   1      34.499  30.427  27.656  1.00  0.00     0.261 C 
BRANCH   6   7
ATOM      7  O   UNL A   1      34.073  29.799  26.457  1.00  0.00    -0.460 OA
BRANCH   7   8
ATOM      8  C   UNL A   1      32.825  29.297  26.439  1.00  0.00     0.338 C 
ATOM      9  O   UNL A   1      31.970  29.406  27.298  1.00  0.00    -0.246 OA
BRANCH   8  10
ATOM     10  C   UNL A   1      32.596  28.723  25.093  1.00  0.00     0.064 A 
ATOM     11  C   UNL A   1      33.085  27.093  23.395  1.00  0.00     0.051 A 
ATOM     12  C   UNL A   1      32.149  27.715  22.555  1.00  0.00     0.053 A 
ATOM     13  C   UNL A   1      33.391  27.683  24.608  1.00  0.00     0.042 A 
ATOM     14  C   UNL A   1      31.450  28.855  22.964  1.00  0.00     0.051 A 
ATOM     15  C   UNL A   1      31.628  29.308  24.273  1.00  0.00     0.042 A 
BRANCH  11  16
ATOM     16  N   UNL A   1      33.800  25.968  22.884  1.00  0.00    -0.284 N 
ATOM     17  H   UNL A   1      34.784  26.016  22.887  1.00  0.00     0.180 HD
BRANCH  16  18
ATOM     18  S   UNL A   1      33.093  24.573  22.283  1.00  0.00     0.229 S 
ATOM     19  C   UNL A   1      34.022  23.149  22.847  1.00  0.00     0.183 C 
ATOM     20  O   UNL A   1      33.188  24.623  20.841  1.00  0.00    -0.207 OA
ATOM     21  O   UNL A   1      31.801  24.521  22.934  1.00  0.00    -0.207 OA
ENDBRANCH  16  18
ENDBRANCH  11  16
BRANCH  14  22
ATOM     22  N   UNL A   1      30.496  29.591  22.186  1.00  0.00    -0.284 N 
ATOM     23  H   UNL A   1      30.785  29.912  21.300  1.00  0.00     0.180 HD
BRANCH  22  24
ATOM     24  S   UNL A   1      28.921  29.950  22.666  1.00  0.00     0.229 S 
ATOM     25  C   UNL A   1      28.301  30.630  21.147  1.00  0.00     0.183 C 
ATOM     26  O   UNL A   1      28.268  28.676  22.889  1.00  0.00    -0.207 OA
ATOM     27  O   UNL A   1      28.890  31.007  23.648  1.00  0.00    -0.207 OA
ENDBRANCH  22  24
ENDBRANCH  14  22
ENDBRANCH   8  10
ENDBRANCH   7   8
ENDBRANCH   6   7
ENDBRANCH   5   6
ENDBRANCH   4   5
ENDBRANCH   3   4
ENDBRANCH   2   3
ENDBRANCH   1   2
BRANCH   1  28
ATOM     28  C   UNL A   1      33.979  34.446  32.606  1.00  0.00     0.188 C 
BRANCH  28  29
ATOM     29  C   UNL A   1      34.595  33.142  33.165  1.00  0.00     0.188 C 
BRANCH  29  30
ATOM     30  O   UNL A   1      34.675  32.080  32.224  1.00  0.00    -0.376 OA
BRANCH  30  31
ATOM     31  C   UNL A   1      35.918  31.430  32.017  1.00  0.00     0.202 C 
BRANCH  31  32
ATOM     32  C   UNL A   1      37.182  32.274  32.222  1.00  0.00     0.261 C 
BRANCH  32  33
ATOM     33  O   UNL A   1      37.358  33.364  31.309  1.00  0.00    -0.460 OA
BRANCH  33  34
ATOM     34  C   UNL A   1      38.061  34.430  31.748  1.00  0.00     0.338 C 
ATOM     35  O   UNL A   1      37.773  35.184  32.658  1.00  0.00    -0.246 OA
BRANCH  34  36
ATOM     36  C   UNL A   1      39.355  34.424  31.037  1.00  0.00     0.060 A 
ATOM     37  C   UNL A   1      40.533  34.195  31.761  1.00  0.00     0.016 A 
ATOM     38  C   UNL A   1      39.398  34.644  29.659  1.00  0.00     0.016 A 
ATOM     39  C   UNL A   1      41.767  34.228  31.110  1.00  0.00     0.010 A 
ATOM     40  C   UNL A   1      40.632  34.699  29.014  1.00  0.00     0.010 A 
ATOM     41  C   UNL A   1      41.823  34.530  29.743  1.00  0.00    -0.014 A 
BRANCH  41  42
ATOM     42  C   UNL A   1      43.111  34.898  29.109  1.00  0.00     0.031 A 
ATOM     43  C   UNL A   1      44.079  33.791  28.796  1.00  0.00     0.074 A 
ATOM     44  C   UNL A   1      43.427  36.176  28.841  1.00  0.00     0.049 A 
ATOM     45  N   UNL A   1      45.316  33.856  28.380  1.00  0.00    -0.248 NA
ATOM     46  C   UNL A   1      43.580  32.419  28.991  1.00  0.00     0.031 C 
ATOM     47  C   UNL A   1      42.554  37.326  29.050  1.00  0.00     0.029 A 
ATOM     48  N   UNL A   1      44.591  36.716  28.353  1.00  0.00    -0.354 N 
ATOM     49  C   UNL A   1      45.749  32.540  28.284  1.00  0.00     0.074 A 
ATOM     50  C   UNL A   1      44.652  31.697  28.706  1.00  0.00     0.031 C 
ATOM     51  C   UNL A   1      43.222  38.444  28.716  1.00  0.00     0.029 A 
ATOM     52  C   UNL A   1      44.583  38.088  28.314  1.00  0.00     0.049 A 
ATOM     53  H   UNL A   1      45.358  36.173  28.058  1.00  0.00     0.167 HD
ATOM     54  C   UNL A   1      46.953  32.077  27.876  1.00  0.00     0.037 A 
ATOM     55  C   UNL A   1      45.576  38.954  28.025  1.00  0.00     0.037 A 
ATOM     56  C   UNL A   1      48.040  32.923  27.461  1.00  0.00     0.049 A 
ATOM     57  C   UNL A   1      46.938  38.417  27.656  1.00  0.00     0.074 A 
ATOM     58  C   UNL A   1      49.298  32.556  27.021  1.00  0.00     0.029 A 
ATOM     59  N   UNL A   1      47.998  34.310  27.450  1.00  0.00    -0.354 N 
ATOM     60  N   UNL A   1      47.341  37.173  27.551  1.00  0.00    -0.248 NA
ATOM     61  C   UNL A   1      47.986  39.407  27.365  1.00  0.00     0.031 C 
ATOM     62  C   UNL A   1      50.040  33.721  26.802  1.00  0.00     0.029 A 
ATOM     63  C   UNL A   1      49.218  34.814  27.031  1.00  0.00     0.049 A 
ATOM     64  H   UNL A   1      47.217  34.854  27.700  1.00  0.00     0.167 HD
ATOM     65  C   UNL A   1      48.667  37.231  27.139  1.00  0.00     0.074 A 
ATOM     66  C   UNL A   1      49.003  38.632  27.013  1.00  0.00     0.031 C 
ATOM     67  C   UNL A   1      49.527  36.214  26.882  1.00  0.00     0.037 A 
BRANCH  54  68
ATOM     68  C   UNL A   1      47.171  30.592  27.895  1.00  0.00     0.064 A 
ATOM     69  C   UNL A   1      47.686  29.932  29.020  1.00  0.00     0.173 A 
ATOM     70  C   UNL A   1      46.832  29.814  26.777  1.00  0.00     0.173 A 
ATOM     71  F   UNL A   1      48.043  30.629  30.109  1.00  0.00    -0.203 F 
ATOM     72  C   UNL A   1      47.879  28.552  29.016  1.00  0.00     0.198 A 
ATOM     73  C   UNL A   1      46.993  28.432  26.789  1.00  0.00     0.198 A 
ATOM     74  F   UNL A   1      46.334  30.394  25.675  1.00  0.00    -0.203 F 
ATOM     75  F   UNL A   1      48.423  27.950  30.083  1.00  0.00    -0.200 F 
ATOM     76  C   UNL A   1      47.524  27.803  27.905  1.00  0.00     0.200 A 
ATOM     77  F   UNL A   1      46.634  27.708  25.720  1.00  0.00    -0.200 F 
ATOM     78  F   UNL A   1      47.700  26.475  27.906  1.00  0.00    -0.200 F 
ENDBRANCH  54  68
BRANCH  55  79
ATOM     79  C   UNL A   1      45.333  40.420  28.092  1.00  0.00     0.064 A 
ATOM     80  C   UNL A   1      44.842  41.123  26.982  1.00  0.00     0.173 A 
ATOM     81  C   UNL A   1      45.614  41.155  29.254  1.00  0.00     0.173 A 
ATOM     82  F   UNL A   1      44.585  40.471  25.839  1.00  0.00    -0.203 F 
ATOM     83  C   UNL A   1      44.663  42.504  27.025  1.00  0.00     0.198 A 
ATOM     84  C   UNL A   1      45.401  42.531  29.306  1.00  0.00     0.198 A 
ATOM     85  F   UNL A   1      46.089  40.533  30.344  1.00  0.00    -0.203 F 
ATOM     86  F   UNL A   1      44.245  43.157  25.932  1.00  0.00    -0.200 F 
ATOM     87  C   UNL A   1      44.937  43.206  28.189  1.00  0.00     0.200 A 
ATOM     88  F   UNL A   1      45.654  43.204  30.437  1.00  0.00    -0.200 F 
ATOM     89  F   UNL A   1      44.762  44.534  28.229  1.00  0.00    -0.200 F 
ENDBRANCH  55  79
BRANCH  67  90
ATOM     90  C   UNL A   1      50.892  36.563  26.360  1.00  0.00     0.064 A 
ATOM     91  C   UNL A   1      51.163  36.666  24.988  1.00  0.00     0.173 A 
ATOM     92  C   UNL A   1      51.926  36.873  27.258  1.00  0.00     0.173 A 
ATOM     93  F   UNL A   1      50.214  36.368  24.088  1.00  0.00    -0.203 F 
ATOM     94  C   UNL A   1      52.423  37.048  24.535  1.00  0.00     0.198 A 
ATOM     95  C   UNL A   1      53.173  37.289  26.802  1.00  0.00     0.198 A 
ATOM     96  F   UNL A   1      51.718  36.801  28.581  1.00  0.00    -0.203 F 
ATOM     97  F   UNL A   1      52.673  37.100  23.219  1.00  0.00    -0.200 F 
ATOM     98  C   UNL A   1      53.424  37.370  25.441  1.00  0.00     0.200 A 
ATOM     99  F   UNL A   1      54.131  37.619  27.680  1.00  0.00    -0.200 F 
ATOM    100  F   UNL A   1      54.629  37.756  25.003  1.00  0.00    -0.200 F 
ENDBRANCH  67  90
ENDBRANCH  41  42
ENDBRANCH  34  36
ENDBRANCH  33  34
ENDBRANCH  32  33
ENDBRANCH  31  32
ENDBRANCH  30  31
ENDBRANCH  29  30
ENDBRANCH  28  29
ENDBRANCH   1  28
TORSDOF 24
ENDMDL
MODEL 2
REMARK VINA RESULT:      -8.8      6.439     12.125
REMARK SMILES CS(=O)(=O)Nc1cc(NS(C)(=O)=O)cc(C(=O)OCCOCCOCCOCCOC(=O)c2ccc(-c3c4nc(c(-c5c(F)c(F)c(F)c(F)c5F)c5ccc([nH]5)c(-c5c(F)c(F)c(F)c(F)c5F)c5nc(c(-c6c(F)c(F)c(F)c(F)c6F)c6ccc3[nH]6)C=C5)C=C4)cc2)c1
REMARK SMILES IDX 24 1 23 2 22 3 21 4 20 5 19 6 18 7 16 8 17 9 15 10 6 11 7 12
REMARK SMILES IDX 96 13 8 14 14 15 5 16 2 18 1 19 3 20 4 21 9 22 10 24 11 25
REMARK SMILES IDX 12 26 13 27 25 28 26 29 27 30 28 31 29 32 30 33 31 34 32 35
REMARK SMILES IDX 33 36 34 37 95 38 35 39 94 40 36 41 37 42 38 43 88 44 39 45
REMARK SMILES IDX 93 46 87 47 89 48 40 49 92 50 86 51 85 52 41 54 73 55 53 56
REMARK SMILES IDX 72 57 54 58 57 59 71 60 90 61 55 62 56 63 70 65 91 66 58 67
REMARK SMILES IDX 42 68 43 69 51 70 44 71 45 72 49 73 52 74 46 75 47 76 50 77
REMARK SMILES IDX 48 78 74 79 75 80 83 81 76 82 77 83 81 84 84 85 78 86 79 87
REMARK SMILES IDX 82 88 80 89 59 90 60 91 68 92 61 93 62 94 66 95 69 96 63 97
REMARK SMILES IDX 64 98 67 99 65 100
REMARK H PARENT 5 17 9 23 89 53 57 64
REMARK Flexibility Score: inf
ROOT
ATOM      1  O   UNL A   1      45.112  25.195  27.252  1.00  0.00    -0.377 OA
ENDROOT
BRANCH   1   2
ATOM      2  C   UNL A   1      46.004  25.787  26.325  1.00  0.00     0.188 C 
BRANCH   2   3
ATOM      3  C   UNL A   1      45.289  26.389  25.100  1.00  0.00     0.188 C 
BRANCH   3   4
ATOM      4  O   UNL A   1      46.002  27.291  24.276  1.00  0.00    -0.376 OA
BRANCH   4   5
ATOM      5  C   UNL A   1      46.783  28.370  24.762  1.00  0.00     0.202 C 
BRANCH   5   6
ATOM      6  C   UNL A   1      46.526  29.232  26.012  1.00  0.00     0.261 C 
BRANCH   6   7
ATOM      7  O   UNL A   1      46.238  30.609  25.826  1.00  0.00    -0.460 OA
BRANCH   7   8
ATOM      8  C   UNL A   1      45.089  31.070  26.352  1.00  0.00     0.338 C 
ATOM      9  O   UNL A   1      44.038  30.470  26.476  1.00  0.00    -0.246 OA
BRANCH   8  10
ATOM     10  C   UNL A   1      45.369  32.406  26.928  1.00  0.00     0.064 A 
ATOM     11  C   UNL A   1      44.630  34.423  28.007  1.00  0.00     0.051 A 
ATOM     12  C   UNL A   1      45.946  34.908  27.960  1.00  0.00     0.053 A 
ATOM     13  C   UNL A   1      44.334  33.230  27.373  1.00  0.00     0.042 A 
ATOM     14  C   UNL A   1      46.975  34.162  27.377  1.00  0.00     0.051 A 
ATOM     15  C   UNL A   1      46.686  32.870  26.929  1.00  0.00     0.042 A 
BRANCH  11  16
ATOM     16  N   UNL A   1      43.624  35.267  28.567  1.00  0.00    -0.284 N 
ATOM     17  H   UNL A   1      43.585  35.339  29.548  1.00  0.00     0.180 HD
BRANCH  16  18
ATOM     18  S   UNL A   1      42.507  36.147  27.680  1.00  0.00     0.229 S 
ATOM     19  C   UNL A   1      42.463  37.831  28.289  1.00  0.00     0.183 C 
ATOM     20  O   UNL A   1      41.207  35.558  27.909  1.00  0.00    -0.207 OA
ATOM     21  O   UNL A   1      43.070  36.193  26.346  1.00  0.00    -0.207 OA
ENDBRANCH  16  18
ENDBRANCH  11  16
BRANCH  14  22
ATOM     22  N   UNL A   1      48.344  34.563  27.244  1.00  0.00    -0.284 N 
ATOM     23  H   UNL A   1      48.982  34.231  27.918  1.00  0.00     0.180 HD
BRANCH  22  24
ATOM     24  S   UNL A   1      48.951  35.559  26.027  1.00  0.00     0.229 S 
ATOM     25  C   UNL A   1      47.768  36.880  26.114  1.00  0.00     0.183 C 
ATOM     26  O   UNL A   1      50.221  36.060  26.514  1.00  0.00    -0.207 OA
ATOM     27  O   UNL A   1      48.817  34.953  24.725  1.00  0.00    -0.207 OA
ENDBRANCH  22  24
ENDBRANCH  14  22
ENDBRANCH   8  10
ENDBRANCH   7   8
ENDBRANCH   6   7
ENDBRANCH   5   6
ENDBRANCH   4   5
ENDBRANCH   3   4
ENDBRANCH   2   3
ENDBRANCH   1   2
BRANCH   1  28
ATOM     28  C   UNL A   1      45.685  24.327  28.227  1.00  0.00     0.188 C 
BRANCH  28  29
ATOM     29  C   UNL A   1      44.775  23.436  29.106  1.00  0.00     0.188 C 
BRANCH  29  30
ATOM     30  O   UNL A   1      43.430  23.348  28.658  1.00  0.00    -0.376 OA
BRANCH  30  31
ATOM     31  C   UNL A   1      43.094  22.402  27.656  1.00  0.00     0.202 C 
BRANCH  31  32
ATOM     32  C   UNL A   1      41.604  22.075  27.486  1.00  0.00     0.261 C 
BRANCH  32  33
ATOM     33  O   UNL A   1      40.980  22.608  26.312  1.00  0.00    -0.460 OA
BRANCH  33  34
ATOM     34  C   UNL A   1      39.711  23.052  26.435  1.00  0.00     0.338 C 
ATOM     35  O   UNL A   1      38.685  22.417  26.280  1.00  0.00    -0.246 OA
BRANCH  34  36
ATOM     36  C   UNL A   1      39.777  24.425  26.974  1.00  0.00     0.060 A 
ATOM     37  C   UNL A   1      40.387  25.431  26.213  1.00  0.00     0.016 A 
ATOM     38  C   UNL A   1      39.235  24.711  28.228  1.00  0.00     0.016 A 
ATOM     39  C   UNL A   1      40.494  26.724  26.727  1.00  0.00     0.010 A 
ATOM     40  C   UNL A   1      39.361  25.998  28.750  1.00  0.00     0.010 A 
ATOM     41  C   UNL A   1      40.026  26.999  28.018  1.00  0.00    -0.014 A 
BRANCH  41  42
ATOM     42  C   UNL A   1      40.420  28.250  28.708  1.00  0.00     0.031 A 
ATOM     43  C   UNL A   1      41.826  28.346  29.233  1.00  0.00     0.074 A 
ATOM     44  C   UNL A   1      39.555  29.261  28.888  1.00  0.00     0.049 A 
ATOM     45  N   UNL A   1      42.374  29.259  29.990  1.00  0.00    -0.248 NA
ATOM     46  C   UNL A   1      42.735  27.250  28.856  1.00  0.00     0.031 C 
ATOM     47  C   UNL A   1      38.187  29.306  28.382  1.00  0.00     0.029 A 
ATOM     48  N   UNL A   1      39.702  30.441  29.575  1.00  0.00    -0.354 N 
ATOM     49  C   UNL A   1      43.681  28.839  30.197  1.00  0.00     0.074 A 
ATOM     50  C   UNL A   1      43.840  27.578  29.506  1.00  0.00     0.031 C 
ATOM     51  C   UNL A   1      37.608  30.447  28.797  1.00  0.00     0.029 A 
ATOM     52  C   UNL A   1      38.551  31.186  29.635  1.00  0.00     0.049 A 
ATOM     53  H   UNL A   1      40.551  30.726  29.985  1.00  0.00     0.167 HD
ATOM     54  C   UNL A   1      44.662  29.453  30.899  1.00  0.00     0.037 A 
ATOM     55  C   UNL A   1      38.284  32.315  30.323  1.00  0.00     0.037 A 
ATOM     56  C   UNL A   1      44.494  30.705  31.587  1.00  0.00     0.049 A 
ATOM     57  C   UNL A   1      39.368  32.938  31.170  1.00  0.00     0.074 A 
ATOM     58  C   UNL A   1      45.426  31.418  32.319  1.00  0.00     0.029 A 
ATOM     59  N   UNL A   1      43.308  31.423  31.636  1.00  0.00    -0.354 N 
ATOM     60  N   UNL A   1      40.607  32.548  31.352  1.00  0.00    -0.248 NA
ATOM     61  C   UNL A   1      39.016  34.159  31.908  1.00  0.00     0.031 C 
ATOM     62  C   UNL A   1      44.787  32.535  32.864  1.00  0.00     0.029 A 
ATOM     63  C   UNL A   1      43.479  32.560  32.407  1.00  0.00     0.049 A 
ATOM     64  H   UNL A   1      42.470  31.163  31.189  1.00  0.00     0.167 HD
ATOM     65  C   UNL A   1      41.192  33.496  32.183  1.00  0.00     0.074 A 
ATOM     66  C   UNL A   1      40.172  34.481  32.471  1.00  0.00     0.031 C 
ATOM     67  C   UNL A   1      42.460  33.549  32.659  1.00  0.00     0.037 A 
BRANCH  54  68
ATOM     68  C   UNL A   1      45.991  28.761  30.989  1.00  0.00     0.064 A 
ATOM     69  C   UNL A   1      47.055  29.083  30.134  1.00  0.00     0.173 A 
ATOM     70  C   UNL A   1      46.211  27.779  31.967  1.00  0.00     0.173 A 
ATOM     71  F   UNL A   1      46.893  30.002  29.170  1.00  0.00    -0.203 F 
ATOM     72  C   UNL A   1      48.281  28.430  30.237  1.00  0.00     0.198 A 
ATOM     73  C   UNL A   1      47.448  27.153  32.090  1.00  0.00     0.198 A 
ATOM     74  F   UNL A   1      45.229  27.433  32.813  1.00  0.00    -0.203 F 
ATOM     75  F   UNL A   1      49.266  28.717  29.373  1.00  0.00    -0.200 F 
ATOM     76  C   UNL A   1      48.479  27.472  31.219  1.00  0.00     0.200 A 
ATOM     77  F   UNL A   1      47.643  26.239  33.051  1.00  0.00    -0.200 F 
ATOM     78  F   UNL A   1      49.662  26.852  31.324  1.00  0.00    -0.200 F 
ENDBRANCH  54  68
BRANCH  55  79
ATOM     79  C   UNL A   1      36.929  32.925  30.261  1.00  0.00     0.064 A 
ATOM     80  C   UNL A   1      35.985  32.695  31.273  1.00  0.00     0.173 A 
ATOM     81  C   UNL A   1      36.537  33.727  29.178  1.00  0.00     0.173 A 
ATOM     82  F   UNL A   1      36.301  31.914  32.315  1.00  0.00    -0.203 F 
ATOM     83  C   UNL A   1      34.698  33.223  31.192  1.00  0.00     0.198 A 
ATOM     84  C   UNL A   1      35.261  34.283  29.116  1.00  0.00     0.198 A 
ATOM     85  F   UNL A   1      37.399  33.977  28.181  1.00  0.00    -0.203 F 
ATOM     86  F   UNL A   1      33.800  32.941  32.146  1.00  0.00    -0.200 F 
ATOM     87  C   UNL A   1      34.339  34.021  30.117  1.00  0.00     0.200 A 
ATOM     88  F   UNL A   1      34.921  35.065  28.082  1.00  0.00    -0.200 F 
ATOM     89  F   UNL A   1      33.101  34.530  30.042  1.00  0.00    -0.200 F 
ENDBRANCH  55  79
BRANCH  67  90
ATOM     90  C   UNL A   1      42.855  34.747  33.476  1.00  0.00     0.064 A 
ATOM     91  C   UNL A   1      43.274  35.948  32.886  1.00  0.00     0.173 A 
ATOM     92  C   UNL A   1      42.737  34.710  34.875  1.00  0.00     0.173 A 
ATOM     93  F   UNL A   1      43.416  36.033  31.555  1.00  0.00    -0.203 F 
ATOM     94  C   UNL A   1      43.578  37.060  33.667  1.00  0.00     0.198 A 
ATOM     95  C   UNL A   1      43.007  35.833  35.650  1.00  0.00     0.198 A 
ATOM     96  F   UNL A   1      42.330  33.589  35.490  1.00  0.00    -0.203 F 
ATOM     97  F   UNL A   1      44.016  38.185  33.086  1.00  0.00    -0.200 F 
ATOM     98  C   UNL A   1      43.434  37.006  35.046  1.00  0.00     0.200 A 
ATOM     99  F   UNL A   1      42.846  35.784  36.979  1.00  0.00    -0.200 F 
ATOM    100  F   UNL A   1      43.707  38.083  35.794  1.00  0.00    -0.200 F 
ENDBRANCH  67  90
ENDBRANCH  41  42
ENDBRANCH  34  36
ENDBRANCH  33  34
ENDBRANCH  32  33
ENDBRANCH  31  32
ENDBRANCH  30  31
ENDBRANCH  29  30
ENDBRANCH  28  29
ENDBRANCH   1  28
TORSDOF 24
ENDMDL
MODEL 3
REMARK VINA RESULT:      -8.6      6.464     12.209
REMARK SMILES CS(=O)(=O)Nc1cc(NS(C)(=O)=O)cc(C(=O)OCCOCCOCCOCCOC(=O)c2ccc(-c3c4nc(c(-c5c(F)c(F)c(F)c(F)c5F)c5ccc([nH]5)c(-c5c(F)c(F)c(F)c(F)c5F)c5nc(c(-c6c(F)c(F)c(F)c(F)c6F)c6ccc3[nH]6)C=C5)C=C4)cc2)c1
REMARK SMILES IDX 24 1 23 2 22 3 21 4 20 5 19 6 18 7 16 8 17 9 15 10 6 11 7 12
REMARK SMILES IDX 96 13 8 14 14 15 5 16 2 18 1 19 3 20 4 21 9 22 10 24 11 25
REMARK SMILES IDX 12 26 13 27 25 28 26 29 27 30 28 31 29 32 30 33 31 34 32 35
REMARK SMILES IDX 33 36 34 37 95 38 35 39 94 40 36 41 37 42 38 43 88 44 39 45
REMARK SMILES IDX 93 46 87 47 89 48 40 49 92 50 86 51 85 52 41 54 73 55 53 56
REMARK SMILES IDX 72 57 54 58 57 59 71 60 90 61 55 62 56 63 70 65 91 66 58 67
REMARK SMILES IDX 42 68 43 69 51 70 44 71 45 72 49 73 52 74 46 75 47 76 50 77
REMARK SMILES IDX 48 78 74 79 75 80 83 81 76 82 77 83 81 84 84 85 78 86 79 87
REMARK SMILES IDX 82 88 80 89 59 90 60 91 68 92 61 93 62 94 66 95 69 96 63 97
REMARK SMILES IDX 64 98 67 99 65 100
REMARK H PARENT 5 17 9 23 89 53 57 64
REMARK Flexibility Score: inf
ROOT
ATOM      1  O   UNL A   1      45.414  25.730  27.141  1.00  0.00    -0.377 OA
ENDROOT
BRANCH   1   2
ATOM      2  C   UNL A   1      46.252  26.662  26.481  1.00  0.00     0.188 C 
BRANCH   2   3
ATOM      3  C   UNL A   1      45.481  27.593  25.526  1.00  0.00     0.188 C 
BRANCH   3   4
ATOM      4  O   UNL A   1      45.509  28.986  25.770  1.00  0.00    -0.376 OA
BRANCH   4   5
ATOM      5  C   UNL A   1      44.883  29.616  26.876  1.00  0.00     0.202 C 
BRANCH   5   6
ATOM      6  C   UNL A   1      44.156  30.973  26.899  1.00  0.00     0.261 C 
BRANCH   6   7
ATOM      7  O   UNL A   1      44.710  32.014  27.690  1.00  0.00    -0.460 OA
BRANCH   7   8
ATOM      8  C   UNL A   1      43.900  32.589  28.597  1.00  0.00     0.338 C 
ATOM      9  O   UNL A   1      42.896  32.118  29.098  1.00  0.00    -0.246 OA
BRANCH   8  10
ATOM     10  C   UNL A   1      44.543  33.852  29.029  1.00  0.00     0.064 A 
ATOM     11  C   UNL A   1      46.308  35.029  30.161  1.00  0.00     0.051 A 
ATOM     12  C   UNL A   1      45.680  36.242  29.836  1.00  0.00     0.053 A 
ATOM     13  C   UNL A   1      45.662  33.842  29.864  1.00  0.00     0.042 A 
ATOM     14  C   UNL A   1      44.473  36.270  29.131  1.00  0.00     0.051 A 
ATOM     15  C   UNL A   1      43.950  35.062  28.664  1.00  0.00     0.042 A 
BRANCH  11  16
ATOM     16  N   UNL A   1      47.507  35.080  30.932  1.00  0.00    -0.284 N 
ATOM     17  H   UNL A   1      47.443  35.429  31.851  1.00  0.00     0.180 HD
BRANCH  16  18
ATOM     18  S   UNL A   1      49.016  34.590  30.394  1.00  0.00     0.229 S 
ATOM     19  C   UNL A   1      48.967  32.842  30.005  1.00  0.00     0.183 C 
ATOM     20  O   UNL A   1      49.950  34.776  31.483  1.00  0.00    -0.207 OA
ATOM     21  O   UNL A   1      49.194  35.297  29.143  1.00  0.00    -0.207 OA
ENDBRANCH  16  18
ENDBRANCH  11  16
BRANCH  14  22
ATOM     22  N   UNL A   1      43.728  37.440  28.771  1.00  0.00    -0.284 N 
ATOM     23  H   UNL A   1      43.076  37.782  29.426  1.00  0.00     0.180 HD
BRANCH  22  24
ATOM     24  S   UNL A   1      43.877  38.277  27.315  1.00  0.00     0.229 S 
ATOM     25  C   UNL A   1      43.942  39.938  27.940  1.00  0.00     0.183 C 
ATOM     26  O   UNL A   1      45.186  37.942  26.792  1.00  0.00    -0.207 OA
ATOM     27  O   UNL A   1      42.683  38.171  26.514  1.00  0.00    -0.207 OA
ENDBRANCH  22  24
ENDBRANCH  14  22
ENDBRANCH   8  10
ENDBRANCH   7   8
ENDBRANCH   6   7
ENDBRANCH   5   6
ENDBRANCH   4   5
ENDBRANCH   3   4
ENDBRANCH   2   3
ENDBRANCH   1   2
BRANCH   1  28
ATOM     28  C   UNL A   1      46.034  24.539  27.619  1.00  0.00     0.188 C 
BRANCH  28  29
ATOM     29  C   UNL A   1      45.184  23.436  28.294  1.00  0.00     0.188 C 
BRANCH  29  30
ATOM     30  O   UNL A   1      43.832  23.390  27.862  1.00  0.00    -0.376 OA
BRANCH  30  31
ATOM     31  C   UNL A   1      43.440  22.409  26.916  1.00  0.00     0.202 C 
BRANCH  31  32
ATOM     32  C   UNL A   1      41.965  21.987  26.930  1.00  0.00     0.261 C 
BRANCH  32  33
ATOM     33  O   UNL A   1      41.119  22.646  25.979  1.00  0.00    -0.460 OA
BRANCH  33  34
ATOM     34  C   UNL A   1      39.865  22.949  26.375  1.00  0.00     0.338 C 
ATOM     35  O   UNL A   1      38.897  22.212  26.401  1.00  0.00    -0.246 OA
BRANCH  34  36
ATOM     36  C   UNL A   1      39.903  24.309  26.950  1.00  0.00     0.060 A 
ATOM     37  C   UNL A   1      40.487  25.348  26.213  1.00  0.00     0.016 A 
ATOM     38  C   UNL A   1      39.362  24.549  28.213  1.00  0.00     0.016 A 
ATOM     39  C   UNL A   1      40.568  26.629  26.760  1.00  0.00     0.010 A 
ATOM     40  C   UNL A   1      39.462  25.824  28.769  1.00  0.00     0.010 A 
ATOM     41  C   UNL A   1      40.100  26.859  28.061  1.00  0.00    -0.014 A 
BRANCH  41  42
ATOM     42  C   UNL A   1      40.471  28.099  28.782  1.00  0.00     0.031 A 
ATOM     43  C   UNL A   1      41.861  28.192  29.347  1.00  0.00     0.074 A 
ATOM     44  C   UNL A   1      39.597  29.104  28.956  1.00  0.00     0.049 A 
ATOM     45  N   UNL A   1      42.384  29.094  30.134  1.00  0.00    -0.248 NA
ATOM     46  C   UNL A   1      42.784  27.106  28.977  1.00  0.00     0.031 C 
ATOM     47  C   UNL A   1      38.243  29.152  28.413  1.00  0.00     0.029 A 
ATOM     48  N   UNL A   1      39.720  30.273  29.666  1.00  0.00    -0.354 N 
ATOM     49  C   UNL A   1      43.688  28.675  30.370  1.00  0.00     0.074 A 
ATOM     50  C   UNL A   1      43.870  27.427  29.662  1.00  0.00     0.031 C 
ATOM     51  C   UNL A   1      37.648  30.284  28.831  1.00  0.00     0.029 A 
ATOM     52  C   UNL A   1      38.565  31.013  29.707  1.00  0.00     0.049 A 
ATOM     53  H   UNL A   1      40.557  30.554  30.104  1.00  0.00     0.167 HD
ATOM     54  C   UNL A   1      44.646  29.280  31.109  1.00  0.00     0.037 A 
ATOM     55  C   UNL A   1      38.274  32.129  30.405  1.00  0.00     0.037 A 
ATOM     56  C   UNL A   1      44.454  30.520  31.812  1.00  0.00     0.049 A 
ATOM     57  C   UNL A   1      39.332  32.741  31.292  1.00  0.00     0.074 A 
ATOM     58  C   UNL A   1      45.363  31.224  32.581  1.00  0.00     0.029 A 
ATOM     59  N   UNL A   1      43.265  31.233  31.841  1.00  0.00    -0.354 N 
ATOM     60  N   UNL A   1      40.568  32.353  31.502  1.00  0.00    -0.248 NA
ATOM     61  C   UNL A   1      38.955  33.949  32.041  1.00  0.00     0.031 C 
ATOM     62  C   UNL A   1      44.705  32.330  33.127  1.00  0.00     0.029 A 
ATOM     63  C   UNL A   1      43.410  32.358  32.635  1.00  0.00     0.049 A 
ATOM     64  H   UNL A   1      42.440  30.978  31.366  1.00  0.00     0.167 HD
ATOM     65  C   UNL A   1      41.125  33.289  32.364  1.00  0.00     0.074 A 
ATOM     66  C   UNL A   1      40.094  34.266  32.641  1.00  0.00     0.031 C 
ATOM     67  C   UNL A   1      42.380  33.338  32.876  1.00  0.00     0.037 A 
BRANCH  54  68
ATOM     68  C   UNL A   1      45.975  28.592  31.224  1.00  0.00     0.064 A 
ATOM     69  C   UNL A   1      46.202  27.568  32.154  1.00  0.00     0.173 A 
ATOM     70  C   UNL A   1      47.030  28.946  30.368  1.00  0.00     0.173 A 
ATOM     71  F   UNL A   1      45.233  27.202  33.008  1.00  0.00    -0.203 F 
ATOM     72  C   UNL A   1      47.443  26.941  32.242  1.00  0.00     0.198 A 
ATOM     73  C   UNL A   1      48.258  28.294  30.435  1.00  0.00     0.198 A 
ATOM     74  F   UNL A   1      46.867  29.918  29.458  1.00  0.00    -0.203 F 
ATOM     75  F   UNL A   1      47.653  26.002  33.176  1.00  0.00    -0.200 F 
ATOM     76  C   UNL A   1      48.466  27.299  31.378  1.00  0.00     0.200 A 
ATOM     77  F   UNL A   1      49.240  28.629  29.588  1.00  0.00    -0.200 F 
ATOM     78  F   UNL A   1      49.656  26.688  31.457  1.00  0.00    -0.200 F 
ENDBRANCH  54  68
BRANCH  55  79
ATOM     79  C   UNL A   1      36.919  32.735  30.317  1.00  0.00     0.064 A 
ATOM     80  C   UNL A   1      36.557  33.543  29.230  1.00  0.00     0.173 A 
ATOM     81  C   UNL A   1      35.965  32.544  31.330  1.00  0.00     0.173 A 
ATOM     82  F   UNL A   1      37.442  33.780  28.250  1.00  0.00    -0.203 F 
ATOM     83  C   UNL A   1      35.307  34.155  29.170  1.00  0.00     0.198 A 
ATOM     84  C   UNL A   1      34.703  33.127  31.252  1.00  0.00     0.198 A 
ATOM     85  F   UNL A   1      36.260  31.782  32.394  1.00  0.00    -0.203 F 
ATOM     86  F   UNL A   1      35.009  34.966  28.146  1.00  0.00    -0.200 F 
ATOM     87  C   UNL A   1      34.378  33.941  30.178  1.00  0.00     0.200 A 
ATOM     88  F   UNL A   1      33.804  32.908  32.220  1.00  0.00    -0.200 F 
ATOM     89  F   UNL A   1      33.175  34.528  30.117  1.00  0.00    -0.200 F 
ENDBRANCH  55  79
BRANCH  67  90
ATOM     90  C   UNL A   1      42.747  34.524  33.723  1.00  0.00     0.064 A 
ATOM     91  C   UNL A   1      42.836  34.445  35.119  1.00  0.00     0.173 A 
ATOM     92  C   UNL A   1      43.088  35.742  33.112  1.00  0.00     0.173 A 
ATOM     93  F   UNL A   1      42.510  33.309  35.754  1.00  0.00    -0.203 F 
ATOM     94  C   UNL A   1      43.235  35.546  35.874  1.00  0.00     0.198 A 
ATOM     95  C   UNL A   1      43.520  36.828  33.866  1.00  0.00     0.198 A 
ATOM     96  F   UNL A   1      43.030  35.869  31.778  1.00  0.00    -0.203 F 
ATOM     97  F   UNL A   1      43.274  35.461  37.211  1.00  0.00    -0.200 F 
ATOM     98  C   UNL A   1      43.587  36.732  35.247  1.00  0.00     0.200 A 
ATOM     99  F   UNL A   1      43.879  37.966  33.255  1.00  0.00    -0.200 F 
ATOM    100  F   UNL A   1      43.989  37.784  35.974  1.00  0.00    -0.200 F 
ENDBRANCH  67  90
ENDBRANCH  41  42
ENDBRANCH  34  36
ENDBRANCH  33  34
ENDBRANCH  32  33
ENDBRANCH  31  32
ENDBRANCH  30  31
ENDBRANCH  29  30
ENDBRANCH  28  29
ENDBRANCH   1  28
TORSDOF 24
ENDMDL
