MODEL 1
REMARK VINA RESULT:      -9.0      0.000      0.000
REMARK SMILES CC(C)(C)c1csc(C[NH2+][C@H]2CCC[C@@H](C(=O)OCCOCCOCCOCCOC(=O)c3ccc(-c4c5nc(c(-c6c(F)c(F)c(F)c(F)c6F)c6ccc([nH]6)c(-c6c(F)c(F)c(F)c(F)c6F)c6nc(c(-c7c(F)c(F)c(F)c(F)c7F)c7ccc4[nH]7)C=C6)C=C5)cc3)C2)n1
REMARK SMILES IDX 23 1 22 2 21 3 20 4 19 5 18 6 16 7 17 8 15 9 11 10 12 11
REMARK SMILES IDX 96 12 13 13 14 14 10 15 9 18 8 19 5 20 6 21 97 22 7 23 2 24
REMARK SMILES IDX 1 25 3 26 4 27 24 28 25 29 26 30 27 31 28 32 29 33 30 34
REMARK SMILES IDX 31 35 32 36 33 37 34 38 95 39 35 40 94 41 36 42 37 43 38 44
REMARK SMILES IDX 88 45 39 46 93 47 87 48 89 49 40 50 92 51 86 52 85 53 41 55
REMARK SMILES IDX 73 56 53 57 72 58 54 59 57 60 71 61 90 62 55 63 56 64 70 66
REMARK SMILES IDX 91 67 58 68 42 69 43 70 51 71 44 72 45 73 49 74 52 75 46 76
REMARK SMILES IDX 47 77 50 78 48 79 74 80 75 81 83 82 76 83 77 84 81 85 84 86
REMARK SMILES IDX 78 87 79 88 82 89 80 90 59 91 60 92 68 93 61 94 62 95 66 96
REMARK SMILES IDX 69 97 63 98 64 99 67 100 65 101
REMARK H PARENT 10 16 10 17 89 54 57 65
REMARK Flexibility Score: inf
ROOT
ATOM      1  C   UNL A   1      32.414  29.950  27.235  1.00  0.00     0.188 C 
ENDROOT
BRANCH   1   2
ATOM      2  C   UNL A   1      33.163  28.792  26.562  1.00  0.00     0.188 C 
BRANCH   2   3
ATOM      3  O   UNL A   1      32.646  28.454  25.277  1.00  0.00    -0.376 OA
BRANCH   3   4
ATOM      4  C   UNL A   1      33.271  29.120  24.186  1.00  0.00     0.202 C 
BRANCH   4   5
ATOM      5  C   UNL A   1      34.103  28.211  23.287  1.00  0.00     0.261 C 
BRANCH   5   6
ATOM      6  O   UNL A   1      33.312  27.852  22.135  1.00  0.00    -0.463 OA
BRANCH   6   7
ATOM      7  C   UNL A   1      33.044  26.545  21.943  1.00  0.00     0.309 C 
ATOM      8  O   UNL A   1      33.887  25.678  21.752  1.00  0.00    -0.252 OA
BRANCH   7   9
ATOM      9  C   UNL A   1      31.556  26.244  22.075  1.00  0.00     0.105 C 
ATOM     10  C   UNL A   1      30.732  25.254  24.346  1.00  0.00     0.183 C 
ATOM     11  C   UNL A   1      29.504  26.150  24.227  1.00  0.00     0.065 C 
ATOM     12  C   UNL A   1      31.290  25.009  22.938  1.00  0.00     0.080 C 
ATOM     13  C   UNL A   1      29.786  27.498  23.584  1.00  0.00     0.007 C 
ATOM     14  C   UNL A   1      30.674  27.473  22.334  1.00  0.00     0.016 C 
BRANCH  10  15
ATOM     15  N   UNL A   1      31.747  25.553  25.359  1.00  0.00    -0.338 N 
ATOM     16  H   UNL A   1      32.646  25.542  24.877  1.00  0.00     0.346 HD
ATOM     17  H   UNL A   1      31.412  26.434  25.750  1.00  0.00     0.346 HD
BRANCH  15  18
ATOM     18  C   UNL A   1      31.908  24.720  26.551  1.00  0.00     0.329 C 
BRANCH  18  19
ATOM     19  C   UNL A   1      33.086  23.752  26.443  1.00  0.00     0.147 A 
ATOM     20  C   UNL A   1      34.983  22.740  25.761  1.00  0.00     0.057 A 
ATOM     21  C   UNL A   1      34.584  21.873  26.763  1.00  0.00     0.091 A 
ATOM     22  N   UNL A   1      34.094  23.812  25.582  1.00  0.00    -0.240 NA
ATOM     23  S   UNL A   1      33.182  22.447  27.544  1.00  0.00    -0.121 S 
BRANCH  20  24
ATOM     24  C   UNL A   1      36.291  22.657  24.954  1.00  0.00     0.005 C 
ATOM     25  C   UNL A   1      36.962  21.273  25.013  1.00  0.00     0.017 C 
ATOM     26  C   UNL A   1      37.346  23.660  25.475  1.00  0.00     0.017 C 
ATOM     27  C   UNL A   1      35.999  22.981  23.477  1.00  0.00     0.017 C 
ENDBRANCH  20  24
ENDBRANCH  18  19
ENDBRANCH  15  18
ENDBRANCH  10  15
ENDBRANCH   7   9
ENDBRANCH   6   7
ENDBRANCH   5   6
ENDBRANCH   4   5
ENDBRANCH   3   4
ENDBRANCH   2   3
ENDBRANCH   1   2
BRANCH   1  28
ATOM     28  O   UNL A   1      33.327  30.877  27.822  1.00  0.00    -0.377 OA
BRANCH  28  29
ATOM     29  C   UNL A   1      34.701  30.724  27.454  1.00  0.00     0.188 C 
BRANCH  29  30
ATOM     30  C   UNL A   1      35.764  31.301  28.389  1.00  0.00     0.188 C 
BRANCH  30  31
ATOM     31  O   UNL A   1      35.338  32.222  29.384  1.00  0.00    -0.376 OA
BRANCH  31  32
ATOM     32  C   UNL A   1      35.361  31.818  30.748  1.00  0.00     0.202 C 
BRANCH  32  33
ATOM     33  C   UNL A   1      36.648  32.113  31.515  1.00  0.00     0.261 C 
BRANCH  33  34
ATOM     34  O   UNL A   1      36.824  31.269  32.667  1.00  0.00    -0.460 OA
BRANCH  34  35
ATOM     35  C   UNL A   1      37.467  30.102  32.438  1.00  0.00     0.338 C 
ATOM     36  O   UNL A   1      37.033  28.975  32.595  1.00  0.00    -0.246 OA
BRANCH  35  37
ATOM     37  C   UNL A   1      38.821  30.358  31.907  1.00  0.00     0.060 A 
ATOM     38  C   UNL A   1      39.748  30.989  32.745  1.00  0.00     0.016 A 
ATOM     39  C   UNL A   1      39.143  30.091  30.572  1.00  0.00     0.016 A 
ATOM     40  C   UNL A   1      40.996  31.367  32.247  1.00  0.00     0.010 A 
ATOM     41  C   UNL A   1      40.386  30.489  30.067  1.00  0.00     0.010 A 
ATOM     42  C   UNL A   1      41.309  31.148  30.897  1.00  0.00    -0.014 A 
BRANCH  42  43
ATOM     43  C   UNL A   1      42.509  31.794  30.312  1.00  0.00     0.031 A 
ATOM     44  C   UNL A   1      43.774  30.988  30.232  1.00  0.00     0.074 A 
ATOM     45  C   UNL A   1      42.477  33.055  29.849  1.00  0.00     0.049 A 
ATOM     46  N   UNL A   1      44.947  31.324  29.762  1.00  0.00    -0.248 NA
ATOM     47  C   UNL A   1      43.704  29.614  30.755  1.00  0.00     0.031 C 
ATOM     48  C   UNL A   1      41.306  33.924  29.849  1.00  0.00     0.029 A 
ATOM     49  N   UNL A   1      43.468  33.826  29.292  1.00  0.00    -0.354 N 
ATOM     50  C   UNL A   1      45.749  30.202  29.921  1.00  0.00     0.074 A 
ATOM     51  C   UNL A   1      44.942  29.187  30.559  1.00  0.00     0.031 C 
ATOM     52  C   UNL A   1      41.641  35.113  29.320  1.00  0.00     0.029 A 
ATOM     53  C   UNL A   1      43.062  35.101  28.977  1.00  0.00     0.049 A 
ATOM     54  H   UNL A   1      44.382  33.497  29.132  1.00  0.00     0.167 HD
ATOM     55  C   UNL A   1      47.044  30.034  29.562  1.00  0.00     0.037 A 
ATOM     56  C   UNL A   1      43.766  36.141  28.489  1.00  0.00     0.037 A 
ATOM     57  C   UNL A   1      47.855  31.062  28.967  1.00  0.00     0.049 A 
ATOM     58  C   UNL A   1      45.232  35.956  28.185  1.00  0.00     0.074 A 
ATOM     59  C   UNL A   1      49.180  30.997  28.574  1.00  0.00     0.029 A 
ATOM     60  N   UNL A   1      47.421  32.353  28.700  1.00  0.00    -0.354 N 
ATOM     61  N   UNL A   1      45.974  34.880  28.297  1.00  0.00    -0.248 NA
ATOM     62  C   UNL A   1      45.960  37.132  27.686  1.00  0.00     0.031 C 
ATOM     63  C   UNL A   1      49.565  32.265  28.128  1.00  0.00     0.029 A 
ATOM     64  C   UNL A   1      48.462  33.103  28.176  1.00  0.00     0.049 A 
ATOM     65  H   UNL A   1      46.509  32.687  28.860  1.00  0.00     0.167 HD
ATOM     66  C   UNL A   1      47.240  35.238  27.852  1.00  0.00     0.074 A 
ATOM     67  C   UNL A   1      47.164  36.629  27.457  1.00  0.00     0.031 C 
ATOM     68  C   UNL A   1      48.366  34.484  27.778  1.00  0.00     0.037 A 
BRANCH  55  69
ATOM     69  C   UNL A   1      47.666  28.699  29.846  1.00  0.00     0.064 A 
ATOM     70  C   UNL A   1      48.320  28.435  31.060  1.00  0.00     0.173 A 
ATOM     71  C   UNL A   1      47.602  27.669  28.898  1.00  0.00     0.173 A 
ATOM     72  F   UNL A   1      48.424  29.393  31.994  1.00  0.00    -0.203 F 
ATOM     73  C   UNL A   1      48.910  27.197  31.301  1.00  0.00     0.198 A 
ATOM     74  C   UNL A   1      48.167  26.422  29.154  1.00  0.00     0.198 A 
ATOM     75  F   UNL A   1      46.990  27.869  27.721  1.00  0.00    -0.203 F 
ATOM     76  F   UNL A   1      49.576  26.985  32.445  1.00  0.00    -0.200 F 
ATOM     77  C   UNL A   1      48.828  26.190  30.351  1.00  0.00     0.200 A 
ATOM     78  F   UNL A   1      48.078  25.447  28.239  1.00  0.00    -0.200 F 
ATOM     79  F   UNL A   1      49.395  24.999  30.585  1.00  0.00    -0.200 F 
ENDBRANCH  55  69
BRANCH  56  80
ATOM     80  C   UNL A   1      43.106  37.458  28.268  1.00  0.00     0.064 A 
ATOM     81  C   UNL A   1      43.197  38.484  29.219  1.00  0.00     0.173 A 
ATOM     82  C   UNL A   1      42.341  37.704  27.119  1.00  0.00     0.173 A 
ATOM     83  F   UNL A   1      43.893  38.290  30.349  1.00  0.00    -0.203 F 
ATOM     84  C   UNL A   1      42.528  39.694  29.041  1.00  0.00     0.198 A 
ATOM     85  C   UNL A   1      41.699  38.926  26.926  1.00  0.00     0.198 A 
ATOM     86  F   UNL A   1      42.216  36.755  26.178  1.00  0.00    -0.203 F 
ATOM     87  F   UNL A   1      42.585  40.636  29.993  1.00  0.00    -0.200 F 
ATOM     88  C   UNL A   1      41.784  39.916  27.892  1.00  0.00     0.200 A 
ATOM     89  F   UNL A   1      40.990  39.139  25.808  1.00  0.00    -0.200 F 
ATOM     90  F   UNL A   1      41.140  41.078  27.722  1.00  0.00    -0.200 F 
ENDBRANCH  56  80
BRANCH  68  91
ATOM     91  C   UNL A   1      49.597  35.130  27.207  1.00  0.00     0.064 A 
ATOM     92  C   UNL A   1      50.573  35.717  28.025  1.00  0.00     0.173 A 
ATOM     93  C   UNL A   1      49.824  35.114  25.822  1.00  0.00     0.173 A 
ATOM     94  F   UNL A   1      50.399  35.771  29.354  1.00  0.00    -0.203 F 
ATOM     95  C   UNL A   1      51.719  36.289  27.474  1.00  0.00     0.198 A 
ATOM     96  C   UNL A   1      50.986  35.655  25.278  1.00  0.00     0.198 A 
ATOM     97  F   UNL A   1      48.926  34.558  24.995  1.00  0.00    -0.203 F 
ATOM     98  F   UNL A   1      52.615  36.888  28.271  1.00  0.00    -0.200 F 
ATOM     99  C   UNL A   1      51.928  36.248  26.103  1.00  0.00     0.200 A 
ATOM    100  F   UNL A   1      51.195  35.598  23.956  1.00  0.00    -0.200 F 
ATOM    101  F   UNL A   1      53.037  36.787  25.578  1.00  0.00    -0.200 F 
ENDBRANCH  68  91
ENDBRANCH  42  43
ENDBRANCH  35  37
ENDBRANCH  34  35
ENDBRANCH  33  34
ENDBRANCH  32  33
ENDBRANCH  31  32
ENDBRANCH  30  31
ENDBRANCH  29  30
ENDBRANCH  28  29
ENDBRANCH   1  28
TORSDOF 24
ENDMDL
MODEL 2
REMARK VINA RESULT:      -8.7      3.991      8.207
REMARK SMILES CC(C)(C)c1csc(C[NH2+][C@H]2CCC[C@@H](C(=O)OCCOCCOCCOCCOC(=O)c3ccc(-c4c5nc(c(-c6c(F)c(F)c(F)c(F)c6F)c6ccc([nH]6)c(-c6c(F)c(F)c(F)c(F)c6F)c6nc(c(-c7c(F)c(F)c(F)c(F)c7F)c7ccc4[nH]7)C=C6)C=C5)cc3)C2)n1
REMARK SMILES IDX 23 1 22 2 21 3 20 4 19 5 18 6 16 7 17 8 15 9 11 10 12 11
REMARK SMILES IDX 96 12 13 13 14 14 10 15 9 18 8 19 5 20 6 21 97 22 7 23 2 24
REMARK SMILES IDX 1 25 3 26 4 27 24 28 25 29 26 30 27 31 28 32 29 33 30 34
REMARK SMILES IDX 31 35 32 36 33 37 34 38 95 39 35 40 94 41 36 42 37 43 38 44
REMARK SMILES IDX 88 45 39 46 93 47 87 48 89 49 40 50 92 51 86 52 85 53 41 55
REMARK SMILES IDX 73 56 53 57 72 58 54 59 57 60 71 61 90 62 55 63 56 64 70 66
REMARK SMILES IDX 91 67 58 68 42 69 43 70 51 71 44 72 45 73 49 74 52 75 46 76
REMARK SMILES IDX 47 77 50 78 48 79 74 80 75 81 83 82 76 83 77 84 81 85 84 86
REMARK SMILES IDX 78 87 79 88 82 89 80 90 59 91 60 92 68 93 61 94 62 95 66 96
REMARK SMILES IDX 69 97 63 98 64 99 67 100 65 101
REMARK H PARENT 10 16 10 17 89 54 57 65
REMARK Flexibility Score: inf
ROOT
ATOM      1  C   UNL A   1      39.136  22.050  26.102  1.00  0.00     0.188 C 
ENDROOT
BRANCH   1   2
ATOM      2  C   UNL A   1      37.847  21.451  25.523  1.00  0.00     0.188 C 
BRANCH   2   3
ATOM      3  O   UNL A   1      37.516  21.959  24.234  1.00  0.00    -0.376 OA
BRANCH   3   4
ATOM      4  C   UNL A   1      36.140  22.270  24.047  1.00  0.00     0.202 C 
BRANCH   4   5
ATOM      5  C   UNL A   1      35.744  23.672  24.500  1.00  0.00     0.261 C 
BRANCH   5   6
ATOM      6  O   UNL A   1      34.917  24.270  23.480  1.00  0.00    -0.463 OA
BRANCH   6   7
ATOM      7  C   UNL A   1      34.073  25.251  23.856  1.00  0.00     0.309 C 
ATOM      8  O   UNL A   1      34.300  26.073  24.734  1.00  0.00    -0.252 OA
BRANCH   7   9
ATOM      9  C   UNL A   1      32.813  25.278  22.997  1.00  0.00     0.105 C 
ATOM     10  C   UNL A   1      30.654  24.214  24.007  1.00  0.00     0.183 C 
ATOM     11  C   UNL A   1      29.868  25.371  23.401  1.00  0.00     0.065 C 
ATOM     12  C   UNL A   1      31.947  24.033  23.202  1.00  0.00     0.080 C 
ATOM     13  C   UNL A   1      30.619  26.692  23.401  1.00  0.00     0.007 C 
ATOM     14  C   UNL A   1      32.088  26.629  22.966  1.00  0.00     0.016 C 
BRANCH  10  15
ATOM     15  N   UNL A   1      30.827  24.143  25.460  1.00  0.00    -0.338 N 
ATOM     16  H   UNL A   1      31.795  24.404  25.647  1.00  0.00     0.346 HD
ATOM     17  H   UNL A   1      30.082  24.752  25.798  1.00  0.00     0.346 HD
BRANCH  15  18
ATOM     18  C   UNL A   1      30.583  22.905  26.201  1.00  0.00     0.329 C 
BRANCH  18  19
ATOM     19  C   UNL A   1      31.718  21.892  26.051  1.00  0.00     0.147 A 
ATOM     20  C   UNL A   1      32.910  20.066  25.473  1.00  0.00     0.057 A 
ATOM     21  C   UNL A   1      33.829  20.721  26.273  1.00  0.00     0.091 A 
ATOM     22  N   UNL A   1      31.690  20.754  25.370  1.00  0.00    -0.240 NA
ATOM     23  S   UNL A   1      33.221  22.224  26.798  1.00  0.00    -0.121 S 
BRANCH  20  24
ATOM     24  C   UNL A   1      33.156  18.774  24.675  1.00  0.00     0.005 C 
ATOM     25  C   UNL A   1      34.647  18.462  24.455  1.00  0.00     0.017 C 
ATOM     26  C   UNL A   1      32.528  18.848  23.264  1.00  0.00     0.017 C 
ATOM     27  C   UNL A   1      32.528  17.585  25.425  1.00  0.00     0.017 C 
ENDBRANCH  20  24
ENDBRANCH  18  19
ENDBRANCH  15  18
ENDBRANCH  10  15
ENDBRANCH   7   9
ENDBRANCH   6   7
ENDBRANCH   5   6
ENDBRANCH   4   5
ENDBRANCH   3   4
ENDBRANCH   2   3
ENDBRANCH   1   2
BRANCH   1  28
ATOM     28  O   UNL A   1      39.858  21.077  26.857  1.00  0.00    -0.377 OA
BRANCH  28  29
ATOM     29  C   UNL A   1      40.323  19.936  26.130  1.00  0.00     0.188 C 
BRANCH  29  30
ATOM     30  C   UNL A   1      41.813  19.599  26.200  1.00  0.00     0.188 C 
BRANCH  30  31
ATOM     31  O   UNL A   1      42.712  20.646  26.538  1.00  0.00    -0.376 OA
BRANCH  31  32
ATOM     32  C   UNL A   1      43.380  21.341  25.490  1.00  0.00     0.202 C 
BRANCH  32  33
ATOM     33  C   UNL A   1      43.662  22.820  25.737  1.00  0.00     0.261 C 
BRANCH  33  34
ATOM     34  O   UNL A   1      45.057  23.102  25.946  1.00  0.00    -0.460 OA
BRANCH  34  35
ATOM     35  C   UNL A   1      45.534  24.185  25.292  1.00  0.00     0.338 C 
ATOM     36  O   UNL A   1      46.178  24.199  24.258  1.00  0.00    -0.246 OA
BRANCH  35  37
ATOM     37  C   UNL A   1      45.132  25.423  25.989  1.00  0.00     0.060 A 
ATOM     38  C   UNL A   1      44.508  26.427  25.238  1.00  0.00     0.016 A 
ATOM     39  C   UNL A   1      45.463  25.646  27.330  1.00  0.00     0.016 A 
ATOM     40  C   UNL A   1      44.226  27.663  25.823  1.00  0.00     0.010 A 
ATOM     41  C   UNL A   1      45.200  26.892  27.909  1.00  0.00     0.010 A 
ATOM     42  C   UNL A   1      44.601  27.913  27.152  1.00  0.00    -0.014 A 
BRANCH  42  43
ATOM     43  C   UNL A   1      44.552  29.299  27.674  1.00  0.00     0.031 A 
ATOM     44  C   UNL A   1      43.313  29.736  28.401  1.00  0.00     0.074 A 
ATOM     45  C   UNL A   1      45.585  30.147  27.525  1.00  0.00     0.049 A 
ATOM     46  N   UNL A   1      43.032  30.889  28.951  1.00  0.00    -0.248 NA
ATOM     47  C   UNL A   1      42.243  28.733  28.523  1.00  0.00     0.031 C 
ATOM     48  C   UNL A   1      46.845  29.831  26.863  1.00  0.00     0.029 A 
ATOM     49  N   UNL A   1      45.731  31.455  27.918  1.00  0.00    -0.354 N 
ATOM     50  C   UNL A   1      41.763  30.745  29.495  1.00  0.00     0.074 A 
ATOM     51  C   UNL A   1      41.313  29.407  29.181  1.00  0.00     0.031 C 
ATOM     52  C   UNL A   1      47.640  30.914  26.891  1.00  0.00     0.029 A 
ATOM     53  C   UNL A   1      46.929  32.012  27.542  1.00  0.00     0.049 A 
ATOM     54  H   UNL A   1      45.042  31.946  28.423  1.00  0.00     0.167 HD
ATOM     55  C   UNL A   1      41.039  31.649  30.196  1.00  0.00     0.037 A 
ATOM     56  C   UNL A   1      47.385  33.272  27.689  1.00  0.00     0.037 A 
ATOM     57  C   UNL A   1      41.472  32.993  30.467  1.00  0.00     0.049 A 
ATOM     58  C   UNL A   1      46.518  34.288  28.392  1.00  0.00     0.074 A 
ATOM     59  C   UNL A   1      40.811  33.990  31.161  1.00  0.00     0.029 A 
ATOM     60  N   UNL A   1      42.675  33.535  30.035  1.00  0.00    -0.354 N 
ATOM     61  N   UNL A   1      45.337  34.134  28.941  1.00  0.00    -0.248 NA
ATOM     62  C   UNL A   1      47.050  35.655  28.496  1.00  0.00     0.031 C 
ATOM     63  C   UNL A   1      41.585  35.154  31.095  1.00  0.00     0.029 A 
ATOM     64  C   UNL A   1      42.761  34.863  30.421  1.00  0.00     0.049 A 
ATOM     65  H   UNL A   1      43.365  33.049  29.529  1.00  0.00     0.167 HD
ATOM     66  C   UNL A   1      45.001  35.368  29.482  1.00  0.00     0.074 A 
ATOM     67  C   UNL A   1      46.109  36.258  29.207  1.00  0.00     0.031 C 
ATOM     68  C   UNL A   1      43.876  35.733  30.147  1.00  0.00     0.037 A 
BRANCH  55  69
ATOM     69  C   UNL A   1      39.685  31.218  30.677  1.00  0.00     0.064 A 
ATOM     70  C   UNL A   1      38.517  31.516  29.957  1.00  0.00     0.173 A 
ATOM     71  C   UNL A   1      39.553  30.492  31.869  1.00  0.00     0.173 A 
ATOM     72  F   UNL A   1      38.588  32.225  28.819  1.00  0.00    -0.203 F 
ATOM     73  C   UNL A   1      37.267  31.127  30.428  1.00  0.00     0.198 A 
ATOM     74  C   UNL A   1      38.303  30.077  32.321  1.00  0.00     0.198 A 
ATOM     75  F   UNL A   1      40.636  30.181  32.596  1.00  0.00    -0.203 F 
ATOM     76  F   UNL A   1      36.161  31.470  29.751  1.00  0.00    -0.200 F 
ATOM     77  C   UNL A   1      37.160  30.402  31.605  1.00  0.00     0.200 A 
ATOM     78  F   UNL A   1      38.203  29.368  33.454  1.00  0.00    -0.200 F 
ATOM     79  F   UNL A   1      35.956  30.026  32.056  1.00  0.00    -0.200 F 
ENDBRANCH  55  69
BRANCH  56  80
ATOM     80  C   UNL A   1      48.719  33.656  27.151  1.00  0.00     0.064 A 
ATOM     81  C   UNL A   1      49.894  33.397  27.870  1.00  0.00     0.173 A 
ATOM     82  C   UNL A   1      48.843  34.324  25.924  1.00  0.00     0.173 A 
ATOM     83  F   UNL A   1      49.828  32.787  29.063  1.00  0.00    -0.203 F 
ATOM     84  C   UNL A   1      51.137  33.813  27.396  1.00  0.00     0.198 A 
ATOM     85  C   UNL A   1      50.090  34.711  25.434  1.00  0.00     0.198 A 
ATOM     86  F   UNL A   1      47.752  34.601  25.195  1.00  0.00    -0.203 F 
ATOM     87  F   UNL A   1      52.238  33.604  28.132  1.00  0.00    -0.200 F 
ATOM     88  C   UNL A   1      51.234  34.464  26.176  1.00  0.00     0.200 A 
ATOM     89  F   UNL A   1      50.179  35.330  24.249  1.00  0.00    -0.200 F 
ATOM     90  F   UNL A   1      52.429  34.865  25.721  1.00  0.00    -0.200 F 
ENDBRANCH  56  80
BRANCH  68  91
ATOM     91  C   UNL A   1      43.803  37.142  30.666  1.00  0.00     0.064 A 
ATOM     92  C   UNL A   1      44.164  37.467  31.982  1.00  0.00     0.173 A 
ATOM     93  C   UNL A   1      43.414  38.188  29.815  1.00  0.00     0.173 A 
ATOM     94  F   UNL A   1      44.530  36.503  32.840  1.00  0.00    -0.203 F 
ATOM     95  C   UNL A   1      44.112  38.784  32.434  1.00  0.00     0.198 A 
ATOM     96  C   UNL A   1      43.397  39.507  30.259  1.00  0.00     0.198 A 
ATOM     97  F   UNL A   1      43.068  37.934  28.545  1.00  0.00    -0.203 F 
ATOM     98  F   UNL A   1      44.413  39.065  33.709  1.00  0.00    -0.200 F 
ATOM     99  C   UNL A   1      43.738  39.803  31.570  1.00  0.00     0.200 A 
ATOM    100  F   UNL A   1      43.053  40.492  29.418  1.00  0.00    -0.200 F 
ATOM    101  F   UNL A   1      43.701  41.070  32.004  1.00  0.00    -0.200 F 
ENDBRANCH  68  91
ENDBRANCH  42  43
ENDBRANCH  35  37
ENDBRANCH  34  35
ENDBRANCH  33  34
ENDBRANCH  32  33
ENDBRANCH  31  32
ENDBRANCH  30  31
ENDBRANCH  29  30
ENDBRANCH  28  29
ENDBRANCH   1  28
TORSDOF 24
ENDMDL
MODEL 3
REMARK VINA RESULT:      -8.6      3.903      8.654
REMARK SMILES CC(C)(C)c1csc(C[NH2+][C@H]2CCC[C@@H](C(=O)OCCOCCOCCOCCOC(=O)c3ccc(-c4c5nc(c(-c6c(F)c(F)c(F)c(F)c6F)c6ccc([nH]6)c(-c6c(F)c(F)c(F)c(F)c6F)c6nc(c(-c7c(F)c(F)c(F)c(F)c7F)c7ccc4[nH]7)C=C6)C=C5)cc3)C2)n1
REMARK SMILES IDX 23 1 22 2 21 3 20 4 19 5 18 6 16 7 17 8 15 9 11 10 12 11
REMARK SMILES IDX 96 12 13 13 14 14 10 15 9 18 8 19 5 20 6 21 97 22 7 23 2 24
REMARK SMILES IDX 1 25 3 26 4 27 24 28 25 29 26 30 27 31 28 32 29 33 30 34
REMARK SMILES IDX 31 35 32 36 33 37 34 38 95 39 35 40 94 41 36 42 37 43 38 44
REMARK SMILES IDX 88 45 39 46 93 47 87 48 89 49 40 50 92 51 86 52 85 53 41 55
REMARK SMILES IDX 73 56 53 57 72 58 54 59 57 60 71 61 90 62 55 63 56 64 70 66
REMARK SMILES IDX 91 67 58 68 42 69 43 70 51 71 44 72 45 73 49 74 52 75 46 76
REMARK SMILES IDX 47 77 50 78 48 79 74 80 75 81 83 82 76 83 77 84 81 85 84 86
REMARK SMILES IDX 78 87 79 88 82 89 80 90 59 91 60 92 68 93 61 94 62 95 66 96
REMARK SMILES IDX 69 97 63 98 64 99 67 100 65 101
REMARK H PARENT 10 16 10 17 89 54 57 65
REMARK Flexibility Score: inf
ROOT
ATOM      1  C   UNL A   1      42.414  22.357  26.204  1.00  0.00     0.188 C 
ENDROOT
BRANCH   1   2
ATOM      2  C   UNL A   1      41.447  21.650  27.164  1.00  0.00     0.188 C 
BRANCH   2   3
ATOM      3  O   UNL A   1      40.127  22.184  27.132  1.00  0.00    -0.376 OA
BRANCH   3   4
ATOM      4  C   UNL A   1      39.343  21.780  26.015  1.00  0.00     0.202 C 
BRANCH   4   5
ATOM      5  C   UNL A   1      38.073  22.600  25.808  1.00  0.00     0.261 C 
BRANCH   5   6
ATOM      6  O   UNL A   1      36.949  21.697  25.733  1.00  0.00    -0.463 OA
BRANCH   6   7
ATOM      7  C   UNL A   1      35.718  22.239  25.655  1.00  0.00     0.309 C 
ATOM      8  O   UNL A   1      35.245  23.024  26.467  1.00  0.00    -0.252 OA
BRANCH   7   9
ATOM      9  C   UNL A   1      34.994  21.827  24.378  1.00  0.00     0.105 C 
ATOM     10  C   UNL A   1      32.384  21.798  24.439  1.00  0.00     0.183 C 
ATOM     11  C   UNL A   1      32.401  22.385  23.032  1.00  0.00     0.065 C 
ATOM     12  C   UNL A   1      33.705  21.054  24.668  1.00  0.00     0.080 C 
ATOM     13  C   UNL A   1      33.544  23.355  22.784  1.00  0.00     0.007 C 
ATOM     14  C   UNL A   1      34.919  22.918  23.303  1.00  0.00     0.016 C 
BRANCH  10  15
ATOM     15  N   UNL A   1      31.954  22.633  25.563  1.00  0.00    -0.338 N 
ATOM     16  H   UNL A   1      31.932  22.025  26.381  1.00  0.00     0.346 HD
ATOM     17  H   UNL A   1      32.629  23.397  25.538  1.00  0.00     0.346 HD
BRANCH  15  18
ATOM     18  C   UNL A   1      30.675  23.344  25.544  1.00  0.00     0.329 C 
BRANCH  18  19
ATOM     19  C   UNL A   1      30.834  24.842  25.283  1.00  0.00     0.147 A 
ATOM     20  C   UNL A   1      31.386  27.018  25.504  1.00  0.00     0.057 A 
ATOM     21  C   UNL A   1      30.664  27.062  24.324  1.00  0.00     0.091 A 
ATOM     22  N   UNL A   1      31.459  25.726  26.049  1.00  0.00    -0.240 NA
ATOM     23  S   UNL A   1      30.179  25.500  23.846  1.00  0.00    -0.121 S 
BRANCH  20  24
ATOM     24  C   UNL A   1      32.135  28.193  26.157  1.00  0.00     0.005 C 
ATOM     25  C   UNL A   1      31.740  28.433  27.625  1.00  0.00     0.017 C 
ATOM     26  C   UNL A   1      31.857  29.524  25.421  1.00  0.00     0.017 C 
ATOM     27  C   UNL A   1      33.649  27.918  26.112  1.00  0.00     0.017 C 
ENDBRANCH  20  24
ENDBRANCH  18  19
ENDBRANCH  15  18
ENDBRANCH  10  15
ENDBRANCH   7   9
ENDBRANCH   6   7
ENDBRANCH   5   6
ENDBRANCH   4   5
ENDBRANCH   3   4
ENDBRANCH   2   3
ENDBRANCH   1   2
BRANCH   1  28
ATOM     28  O   UNL A   1      42.934  21.445  25.237  1.00  0.00    -0.377 OA
BRANCH  28  29
ATOM     29  C   UNL A   1      44.352  21.466  25.053  1.00  0.00     0.188 C 
BRANCH  29  30
ATOM     30  C   UNL A   1      44.920  22.357  23.948  1.00  0.00     0.188 C 
BRANCH  30  31
ATOM     31  O   UNL A   1      45.380  23.651  24.314  1.00  0.00    -0.376 OA
BRANCH  31  32
ATOM     32  C   UNL A   1      45.796  23.877  25.656  1.00  0.00     0.202 C 
BRANCH  32  33
ATOM     33  C   UNL A   1      47.226  24.375  25.843  1.00  0.00     0.261 C 
BRANCH  33  34
ATOM     34  O   UNL A   1      47.701  24.235  27.194  1.00  0.00    -0.460 OA
BRANCH  34  35
ATOM     35  C   UNL A   1      48.856  24.880  27.472  1.00  0.00     0.338 C 
ATOM     36  O   UNL A   1      49.961  24.388  27.616  1.00  0.00    -0.246 OA
BRANCH  35  37
ATOM     37  C   UNL A   1      48.625  26.337  27.548  1.00  0.00     0.060 A 
ATOM     38  C   UNL A   1      48.500  26.918  28.816  1.00  0.00     0.016 A 
ATOM     39  C   UNL A   1      48.419  27.103  26.396  1.00  0.00     0.016 A 
ATOM     40  C   UNL A   1      48.154  28.265  28.935  1.00  0.00     0.010 A 
ATOM     41  C   UNL A   1      48.052  28.447  26.516  1.00  0.00     0.010 A 
ATOM     42  C   UNL A   1      47.896  29.028  27.787  1.00  0.00    -0.014 A 
BRANCH  42  43
ATOM     43  C   UNL A   1      47.267  30.364  27.925  1.00  0.00     0.031 A 
ATOM     44  C   UNL A   1      45.858  30.429  28.440  1.00  0.00     0.074 A 
ATOM     45  C   UNL A   1      47.930  31.492  27.619  1.00  0.00     0.049 A 
ATOM     46  N   UNL A   1      45.096  31.470  28.653  1.00  0.00    -0.248 NA
ATOM     47  C   UNL A   1      45.221  29.140  28.758  1.00  0.00     0.031 C 
ATOM     48  C   UNL A   1      49.305  31.557  27.137  1.00  0.00     0.029 A 
ATOM     49  N   UNL A   1      47.528  32.805  27.665  1.00  0.00    -0.354 N 
ATOM     50  C   UNL A   1      43.898  30.965  29.140  1.00  0.00     0.074 A 
ATOM     51  C   UNL A   1      44.020  29.524  29.162  1.00  0.00     0.031 C 
ATOM     52  C   UNL A   1      49.636  32.842  26.927  1.00  0.00     0.029 A 
ATOM     53  C   UNL A   1      48.484  33.689  27.226  1.00  0.00     0.049 A 
ATOM     54  H   UNL A   1      46.639  33.085  27.983  1.00  0.00     0.167 HD
ATOM     55  C   UNL A   1      42.796  31.644  29.538  1.00  0.00     0.037 A 
ATOM     56  C   UNL A   1      48.421  35.025  27.065  1.00  0.00     0.037 A 
ATOM     57  C   UNL A   1      42.664  33.074  29.473  1.00  0.00     0.049 A 
ATOM     58  C   UNL A   1      47.148  35.749  27.427  1.00  0.00     0.074 A 
ATOM     59  C   UNL A   1      41.587  33.859  29.843  1.00  0.00     0.029 A 
ATOM     60  N   UNL A   1      43.638  33.934  28.985  1.00  0.00    -0.354 N 
ATOM     61  N   UNL A   1      46.034  35.270  27.927  1.00  0.00    -0.248 NA
ATOM     62  C   UNL A   1      47.123  37.201  27.200  1.00  0.00     0.031 C 
ATOM     63  C   UNL A   1      41.884  35.187  29.520  1.00  0.00     0.029 A 
ATOM     64  C   UNL A   1      43.174  35.240  29.015  1.00  0.00     0.049 A 
ATOM     65  H   UNL A   1      44.527  33.658  28.664  1.00  0.00     0.167 HD
ATOM     66  C   UNL A   1      45.193  36.361  28.107  1.00  0.00     0.074 A 
ATOM     67  C   UNL A   1      45.929  37.529  27.674  1.00  0.00     0.031 C 
ATOM     68  C   UNL A   1      43.925  36.393  28.588  1.00  0.00     0.037 A 
BRANCH  55  69
ATOM     69  C   UNL A   1      41.635  30.835  30.036  1.00  0.00     0.064 A 
ATOM     70  C   UNL A   1      40.830  30.086  29.163  1.00  0.00     0.173 A 
ATOM     71  C   UNL A   1      41.328  30.800  31.403  1.00  0.00     0.173 A 
ATOM     72  F   UNL A   1      41.071  30.100  27.842  1.00  0.00    -0.203 F 
ATOM     73  C   UNL A   1      39.744  29.357  29.639  1.00  0.00     0.198 A 
ATOM     74  C   UNL A   1      40.260  30.045  31.880  1.00  0.00     0.198 A 
ATOM     75  F   UNL A   1      42.065  31.497  32.280  1.00  0.00    -0.203 F 
ATOM     76  F   UNL A   1      38.956  28.694  28.780  1.00  0.00    -0.200 F 
ATOM     77  C   UNL A   1      39.463  29.331  30.996  1.00  0.00     0.200 A 
ATOM     78  F   UNL A   1      39.996  30.013  33.193  1.00  0.00    -0.200 F 
ATOM     79  F   UNL A   1      38.419  28.627  31.453  1.00  0.00    -0.200 F 
ENDBRANCH  55  69
BRANCH  56  80
ATOM     80  C   UNL A   1      49.590  35.773  26.523  1.00  0.00     0.064 A 
ATOM     81  C   UNL A   1      49.814  35.869  25.143  1.00  0.00     0.173 A 
ATOM     82  C   UNL A   1      50.527  36.373  27.376  1.00  0.00     0.173 A 
ATOM     83  F   UNL A   1      48.963  35.288  24.285  1.00  0.00    -0.203 F 
ATOM     84  C   UNL A   1      50.941  36.515  24.638  1.00  0.00     0.198 A 
ATOM     85  C   UNL A   1      51.637  37.047  26.870  1.00  0.00     0.198 A 
ATOM     86  F   UNL A   1      50.365  36.308  28.706  1.00  0.00    -0.203 F 
ATOM     87  F   UNL A   1      51.160  36.542  23.315  1.00  0.00    -0.200 F 
ATOM     88  C   UNL A   1      51.849  37.108  25.502  1.00  0.00     0.200 A 
ATOM     89  F   UNL A   1      52.506  37.628  27.710  1.00  0.00    -0.200 F 
ATOM     90  F   UNL A   1      52.933  37.728  25.016  1.00  0.00    -0.200 F 
ENDBRANCH  56  80
BRANCH  68  91
ATOM     91  C   UNL A   1      43.265  37.738  28.716  1.00  0.00     0.064 A 
ATOM     92  C   UNL A   1      42.456  38.266  27.699  1.00  0.00     0.173 A 
ATOM     93  C   UNL A   1      43.405  38.483  29.896  1.00  0.00     0.173 A 
ATOM     94  F   UNL A   1      42.300  37.600  26.545  1.00  0.00    -0.203 F 
ATOM     95  C   UNL A   1      41.835  39.504  27.849  1.00  0.00     0.198 A 
ATOM     96  C   UNL A   1      42.755  39.704  30.057  1.00  0.00     0.198 A 
ATOM     97  F   UNL A   1      44.160  38.020  30.904  1.00  0.00    -0.203 F 
ATOM     98  F   UNL A   1      41.107  40.012  26.845  1.00  0.00    -0.200 F 
ATOM     99  C   UNL A   1      41.977  40.216  29.031  1.00  0.00     0.200 A 
ATOM    100  F   UNL A   1      42.879  40.381  31.207  1.00  0.00    -0.200 F 
ATOM    101  F   UNL A   1      41.368  41.401  29.178  1.00  0.00    -0.200 F 
ENDBRANCH  68  91
ENDBRANCH  42  43
ENDBRANCH  35  37
ENDBRANCH  34  35
ENDBRANCH  33  34
ENDBRANCH  32  33
ENDBRANCH  31  32
ENDBRANCH  30  31
ENDBRANCH  29  30
ENDBRANCH  28  29
ENDBRANCH   1  28
TORSDOF 24
ENDMDL
