MODEL 1
REMARK VINA RESULT:     -11.8      0.000      0.000
REMARK SMILES Cc1ccc2c(c1)c(-c1ccnc3c(C)cccc13)c(C)n2CC(=O)OCCOCCOCCOCCOC(=O)c1ccc(-c2c3nc(c(-c4c(F)c(F)c(F)c(F)c4F)c4ccc([nH]4)c(-c4c(F)c(F)c(F)c(F)c4F)c4nc(c(-c5c(F)c(F)c(F)c(F)c5F)c5ccc2[nH]5)C=C4)C=C3)cc1
REMARK SMILES IDX 32 1 31 2 30 3 29 4 28 5 27 6 26 7 24 8 25 9 23 10 22 11
REMARK SMILES IDX 1 12 2 13 3 14 7 15 4 16 6 17 5 18 8 19 20 20 21 21 9 22
REMARK SMILES IDX 10 23 19 24 11 25 13 26 18 27 12 28 14 29 17 30 15 31 16 32
REMARK SMILES IDX 33 33 34 34 35 35 36 36 37 37 38 38 39 39 40 40 41 41 42 42
REMARK SMILES IDX 103 43 43 44 102 45 44 46 45 47 46 48 96 49 47 50 101 51
REMARK SMILES IDX 95 52 97 53 48 54 100 55 94 56 93 57 49 59 81 60 61 61 80 62
REMARK SMILES IDX 62 63 65 64 79 65 98 66 63 67 64 68 78 70 99 71 66 72 50 73
REMARK SMILES IDX 51 74 59 75 52 76 53 77 57 78 60 79 54 80 55 81 58 82 56 83
REMARK SMILES IDX 82 84 83 85 91 86 84 87 85 88 89 89 92 90 86 91 87 92 90 93
REMARK SMILES IDX 88 94 67 95 68 96 76 97 69 98 70 99 74 100 77 101 71 102
REMARK SMILES IDX 72 103 75 104 73 105
REMARK H PARENT 97 58 65 69
REMARK Flexibility Score: inf
ROOT
ATOM      1  O   UNL A   1      42.210  22.152  25.387  1.00  0.00    -0.377 OA
ENDROOT
BRANCH   1   2
ATOM      2  C   UNL A   1      41.300  21.854  26.417  1.00  0.00     0.188 C 
BRANCH   2   3
ATOM      3  C   UNL A   1      40.022  21.125  25.992  1.00  0.00     0.188 C 
BRANCH   3   4
ATOM      4  O   UNL A   1      38.764  21.699  26.303  1.00  0.00    -0.376 OA
BRANCH   4   5
ATOM      5  C   UNL A   1      37.739  21.699  25.306  1.00  0.00     0.202 C 
BRANCH   5   6
ATOM      6  C   UNL A   1      36.275  21.534  25.757  1.00  0.00     0.261 C 
BRANCH   6   7
ATOM      7  O   UNL A   1      35.311  22.244  24.937  1.00  0.00    -0.462 OA
BRANCH   7   8
ATOM      8  C   UNL A   1      34.097  21.658  24.790  1.00  0.00     0.326 C 
ATOM      9  O   UNL A   1      33.951  20.456  24.574  1.00  0.00    -0.250 OA
BRANCH   8  10
ATOM     10  C   UNL A   1      32.894  22.532  25.080  1.00  0.00     0.244 C 
BRANCH  10  11
ATOM     11  N   UNL A   1      32.806  23.877  24.499  1.00  0.00    -0.333 N 
ATOM     12  C   UNL A   1      32.478  25.528  19.105  1.00  0.00     0.044 C 
ATOM     13  C   UNL A   1      32.726  25.052  20.506  1.00  0.00    -0.050 A 
ATOM     14  C   UNL A   1      33.116  23.735  20.762  1.00  0.00     0.005 A 
ATOM     15  C   UNL A   1      32.495  25.923  21.580  1.00  0.00     0.014 A 
ATOM     16  C   UNL A   1      33.239  23.250  22.071  1.00  0.00     0.027 A 
ATOM     17  C   UNL A   1      32.568  25.447  22.907  1.00  0.00     0.008 A 
ATOM     18  C   UNL A   1      32.915  24.112  23.132  1.00  0.00     0.049 A 
ATOM     19  C   UNL A   1      32.309  26.042  24.173  1.00  0.00     0.011 A 
ATOM     20  C   UNL A   1      32.250  25.006  25.103  1.00  0.00     0.024 A 
ATOM     21  C   UNL A   1      31.681  25.055  26.487  1.00  0.00     0.065 C 
BRANCH  19  22
ATOM     22  C   UNL A   1      31.966  27.432  24.486  1.00  0.00    -0.005 A 
ATOM     23  C   UNL A   1      32.882  28.201  25.200  1.00  0.00     0.029 A 
ATOM     24  C   UNL A   1      30.754  28.025  24.037  1.00  0.00     0.008 A 
ATOM     25  C   UNL A   1      32.617  29.543  25.362  1.00  0.00     0.112 A 
ATOM     26  C   UNL A   1      30.595  29.422  24.228  1.00  0.00     0.074 A 
ATOM     27  C   UNL A   1      29.708  27.301  23.422  1.00  0.00     0.011 A 
ATOM     28  N   UNL A   1      31.529  30.159  24.859  1.00  0.00    -0.256 NA
ATOM     29  C   UNL A   1      29.435  30.049  23.745  1.00  0.00    -0.025 A 
ATOM     30  C   UNL A   1      28.528  27.924  23.032  1.00  0.00     0.001 A 
ATOM     31  C   UNL A   1      29.287  31.551  23.770  1.00  0.00     0.047 C 
ATOM     32  C   UNL A   1      28.404  29.299  23.159  1.00  0.00     0.005 A 
ENDBRANCH  19  22
ENDBRANCH  10  11
ENDBRANCH   8  10
ENDBRANCH   7   8
ENDBRANCH   6   7
ENDBRANCH   5   6
ENDBRANCH   4   5
ENDBRANCH   3   4
ENDBRANCH   2   3
ENDBRANCH   1   2
BRANCH   1  33
ATOM     33  C   UNL A   1      43.576  22.283  25.722  1.00  0.00     0.188 C 
BRANCH  33  34
ATOM     34  C   UNL A   1      44.056  23.644  26.237  1.00  0.00     0.188 C 
BRANCH  34  35
ATOM     35  O   UNL A   1      43.760  24.779  25.414  1.00  0.00    -0.376 OA
BRANCH  35  36
ATOM     36  C   UNL A   1      42.500  25.432  25.617  1.00  0.00     0.202 C 
BRANCH  36  37
ATOM     37  C   UNL A   1      42.347  26.128  26.972  1.00  0.00     0.261 C 
BRANCH  37  38
ATOM     38  O   UNL A   1      41.408  25.401  27.772  1.00  0.00    -0.460 OA
BRANCH  38  39
ATOM     39  C   UNL A   1      40.110  25.486  27.382  1.00  0.00     0.338 C 
ATOM     40  O   UNL A   1      39.490  24.724  26.681  1.00  0.00    -0.246 OA
BRANCH  39  41
ATOM     41  C   UNL A   1      39.525  26.479  28.307  1.00  0.00     0.060 A 
ATOM     42  C   UNL A   1      38.822  27.584  27.823  1.00  0.00     0.016 A 
ATOM     43  C   UNL A   1      39.974  26.434  29.629  1.00  0.00     0.016 A 
ATOM     44  C   UNL A   1      38.687  28.710  28.625  1.00  0.00     0.010 A 
ATOM     45  C   UNL A   1      39.838  27.562  30.430  1.00  0.00     0.010 A 
ATOM     46  C   UNL A   1      39.261  28.725  29.902  1.00  0.00    -0.014 A 
BRANCH  46  47
ATOM     47  C   UNL A   1      39.180  29.967  30.681  1.00  0.00     0.031 A 
ATOM     48  C   UNL A   1      40.437  30.777  30.756  1.00  0.00     0.074 A 
ATOM     49  C   UNL A   1      38.016  30.476  31.136  1.00  0.00     0.049 A 
ATOM     50  N   UNL A   1      40.958  31.401  31.768  1.00  0.00    -0.248 NA
ATOM     51  C   UNL A   1      41.231  30.877  29.519  1.00  0.00     0.031 C 
ATOM     52  C   UNL A   1      36.661  29.979  30.882  1.00  0.00     0.029 A 
ATOM     53  N   UNL A   1      37.793  31.661  31.783  1.00  0.00    -0.354 N 
ATOM     54  C   UNL A   1      42.073  32.074  31.269  1.00  0.00     0.074 A 
ATOM     55  C   UNL A   1      42.240  31.654  29.901  1.00  0.00     0.031 C 
ATOM     56  C   UNL A   1      35.780  30.976  31.108  1.00  0.00     0.029 A 
ATOM     57  C   UNL A   1      36.499  32.135  31.612  1.00  0.00     0.049 A 
ATOM     58  H   UNL A   1      38.478  32.130  32.314  1.00  0.00     0.167 HD
ATOM     59  C   UNL A   1      42.727  33.059  31.941  1.00  0.00     0.037 A 
ATOM     60  C   UNL A   1      36.084  33.421  31.718  1.00  0.00     0.037 A 
ATOM     61  C   UNL A   1      42.491  33.043  33.351  1.00  0.00     0.049 A 
ATOM     62  C   UNL A   1      37.102  34.186  32.479  1.00  0.00     0.074 A 
ATOM     63  C   UNL A   1      42.703  32.116  34.354  1.00  0.00     0.029 A 
ATOM     64  N   UNL A   1      41.687  34.002  33.916  1.00  0.00    -0.354 N 
ATOM     65  N   UNL A   1      37.342  34.052  33.754  1.00  0.00    -0.248 NA
ATOM     66  C   UNL A   1      38.149  34.848  31.714  1.00  0.00     0.031 C 
ATOM     67  C   UNL A   1      41.615  32.290  35.256  1.00  0.00     0.029 A 
ATOM     68  C   UNL A   1      40.832  33.323  34.746  1.00  0.00     0.049 A 
ATOM     69  H   UNL A   1      41.719  34.973  33.758  1.00  0.00     0.167 HD
ATOM     70  C   UNL A   1      38.712  34.227  33.875  1.00  0.00     0.074 A 
ATOM     71  C   UNL A   1      39.139  34.808  32.607  1.00  0.00     0.031 C 
ATOM     72  C   UNL A   1      39.429  33.634  34.876  1.00  0.00     0.037 A 
BRANCH  59  73
ATOM     73  C   UNL A   1      43.415  34.194  31.241  1.00  0.00     0.064 A 
ATOM     74  C   UNL A   1      42.700  35.064  30.401  1.00  0.00     0.173 A 
ATOM     75  C   UNL A   1      44.822  34.296  31.192  1.00  0.00     0.173 A 
ATOM     76  F   UNL A   1      41.362  35.001  30.336  1.00  0.00    -0.203 F 
ATOM     77  C   UNL A   1      43.355  35.973  29.566  1.00  0.00     0.198 A 
ATOM     78  C   UNL A   1      45.469  35.238  30.396  1.00  0.00     0.198 A 
ATOM     79  F   UNL A   1      45.607  33.424  31.842  1.00  0.00    -0.203 F 
ATOM     80  F   UNL A   1      42.644  36.730  28.718  1.00  0.00    -0.200 F 
ATOM     81  C   UNL A   1      44.737  36.064  29.569  1.00  0.00     0.200 A 
ATOM     82  F   UNL A   1      46.809  35.293  30.395  1.00  0.00    -0.200 F 
ATOM     83  F   UNL A   1      45.365  36.913  28.746  1.00  0.00    -0.200 F 
ENDBRANCH  59  73
BRANCH  60  84
ATOM     84  C   UNL A   1      35.055  34.082  30.875  1.00  0.00     0.064 A 
ATOM     85  C   UNL A   1      33.995  34.802  31.446  1.00  0.00     0.173 A 
ATOM     86  C   UNL A   1      35.219  34.215  29.480  1.00  0.00     0.173 A 
ATOM     87  F   UNL A   1      33.812  34.793  32.774  1.00  0.00    -0.203 F 
ATOM     88  C   UNL A   1      33.141  35.590  30.665  1.00  0.00     0.198 A 
ATOM     89  C   UNL A   1      34.355  34.981  28.700  1.00  0.00     0.198 A 
ATOM     90  F   UNL A   1      36.275  33.677  28.853  1.00  0.00    -0.203 F 
ATOM     91  F   UNL A   1      32.169  36.304  31.250  1.00  0.00    -0.200 F 
ATOM     92  C   UNL A   1      33.319  35.675  29.293  1.00  0.00     0.200 A 
ATOM     93  F   UNL A   1      34.568  35.087  27.381  1.00  0.00    -0.200 F 
ATOM     94  F   UNL A   1      32.523  36.457  28.550  1.00  0.00    -0.200 F 
ENDBRANCH  60  84
BRANCH  72  95
ATOM     95  C   UNL A   1      38.701  32.995  36.024  1.00  0.00     0.064 A 
ATOM     96  C   UNL A   1      38.329  31.641  36.058  1.00  0.00     0.173 A 
ATOM     97  C   UNL A   1      38.532  33.737  37.205  1.00  0.00     0.173 A 
ATOM     98  F   UNL A   1      38.575  30.826  35.025  1.00  0.00    -0.203 F 
ATOM     99  C   UNL A   1      37.765  31.077  37.201  1.00  0.00     0.198 A 
ATOM    100  C   UNL A   1      38.020  33.154  38.362  1.00  0.00     0.198 A 
ATOM    101  F   UNL A   1      38.922  35.021  37.255  1.00  0.00    -0.203 F 
ATOM    102  F   UNL A   1      37.396  29.789  37.197  1.00  0.00    -0.200 F 
ATOM    103  C   UNL A   1      37.626  31.828  38.355  1.00  0.00     0.200 A 
ATOM    104  F   UNL A   1      37.940  33.871  39.491  1.00  0.00    -0.200 F 
ATOM    105  F   UNL A   1      37.144  31.264  39.471  1.00  0.00    -0.200 F 
ENDBRANCH  72  95
ENDBRANCH  46  47
ENDBRANCH  39  41
ENDBRANCH  38  39
ENDBRANCH  37  38
ENDBRANCH  36  37
ENDBRANCH  35  36
ENDBRANCH  34  35
ENDBRANCH  33  34
ENDBRANCH   1  33
TORSDOF 22
ENDMDL
MODEL 2
REMARK VINA RESULT:     -11.3      4.131      5.725
REMARK SMILES Cc1ccc2c(c1)c(-c1ccnc3c(C)cccc13)c(C)n2CC(=O)OCCOCCOCCOCCOC(=O)c1ccc(-c2c3nc(c(-c4c(F)c(F)c(F)c(F)c4F)c4ccc([nH]4)c(-c4c(F)c(F)c(F)c(F)c4F)c4nc(c(-c5c(F)c(F)c(F)c(F)c5F)c5ccc2[nH]5)C=C4)C=C3)cc1
REMARK SMILES IDX 32 1 31 2 30 3 29 4 28 5 27 6 26 7 24 8 25 9 23 10 22 11
REMARK SMILES IDX 1 12 2 13 3 14 7 15 4 16 6 17 5 18 8 19 20 20 21 21 9 22
REMARK SMILES IDX 10 23 19 24 11 25 13 26 18 27 12 28 14 29 17 30 15 31 16 32
REMARK SMILES IDX 33 33 34 34 35 35 36 36 37 37 38 38 39 39 40 40 41 41 42 42
REMARK SMILES IDX 103 43 43 44 102 45 44 46 45 47 46 48 96 49 47 50 101 51
REMARK SMILES IDX 95 52 97 53 48 54 100 55 94 56 93 57 49 59 81 60 61 61 80 62
REMARK SMILES IDX 62 63 65 64 79 65 98 66 63 67 64 68 78 70 99 71 66 72 50 73
REMARK SMILES IDX 51 74 59 75 52 76 53 77 57 78 60 79 54 80 55 81 58 82 56 83
REMARK SMILES IDX 82 84 83 85 91 86 84 87 85 88 89 89 92 90 86 91 87 92 90 93
REMARK SMILES IDX 88 94 67 95 68 96 76 97 69 98 70 99 74 100 77 101 71 102
REMARK SMILES IDX 72 103 75 104 73 105
REMARK H PARENT 97 58 65 69
REMARK Flexibility Score: inf
ROOT
ATOM      1  O   UNL A   1      40.876  20.060  26.943  1.00  0.00    -0.377 OA
ENDROOT
BRANCH   1   2
ATOM      2  C   UNL A   1      40.098  21.132  26.471  1.00  0.00     0.188 C 
BRANCH   2   3
ATOM      3  C   UNL A   1      39.067  20.786  25.392  1.00  0.00     0.188 C 
BRANCH   3   4
ATOM      4  O   UNL A   1      37.762  21.334  25.483  1.00  0.00    -0.376 OA
BRANCH   4   5
ATOM      5  C   UNL A   1      37.615  22.725  25.778  1.00  0.00     0.202 C 
BRANCH   5   6
ATOM      6  C   UNL A   1      36.344  23.449  25.297  1.00  0.00     0.261 C 
BRANCH   6   7
ATOM      7  O   UNL A   1      35.224  23.368  26.216  1.00  0.00    -0.462 OA
BRANCH   7   8
ATOM      8  C   UNL A   1      34.322  22.383  25.980  1.00  0.00     0.326 C 
ATOM      9  O   UNL A   1      34.501  21.212  26.313  1.00  0.00    -0.250 OA
BRANCH   8  10
ATOM     10  C   UNL A   1      32.979  22.823  25.434  1.00  0.00     0.244 C 
BRANCH  10  11
ATOM     11  N   UNL A   1      32.844  24.133  24.785  1.00  0.00    -0.333 N 
ATOM     12  C   UNL A   1      32.532  25.501  19.312  1.00  0.00     0.044 C 
ATOM     13  C   UNL A   1      32.777  25.105  20.738  1.00  0.00    -0.050 A 
ATOM     14  C   UNL A   1      33.218  23.821  21.065  1.00  0.00     0.005 A 
ATOM     15  C   UNL A   1      32.493  26.017  21.764  1.00  0.00     0.014 A 
ATOM     16  C   UNL A   1      33.341  23.406  22.397  1.00  0.00     0.027 A 
ATOM     17  C   UNL A   1      32.565  25.611  23.114  1.00  0.00     0.008 A 
ATOM     18  C   UNL A   1      32.965  24.305  23.410  1.00  0.00     0.049 A 
ATOM     19  C   UNL A   1      32.262  26.256  24.345  1.00  0.00     0.011 A 
ATOM     20  C   UNL A   1      32.232  25.265  25.325  1.00  0.00     0.024 A 
ATOM     21  C   UNL A   1      31.640  25.358  26.697  1.00  0.00     0.065 C 
BRANCH  19  22
ATOM     22  C   UNL A   1      31.856  27.644  24.584  1.00  0.00    -0.005 A 
ATOM     23  C   UNL A   1      32.719  28.480  25.288  1.00  0.00     0.029 A 
ATOM     24  C   UNL A   1      30.637  28.168  24.073  1.00  0.00     0.008 A 
ATOM     25  C   UNL A   1      32.397  29.817  25.380  1.00  0.00     0.112 A 
ATOM     26  C   UNL A   1      30.418  29.564  24.195  1.00  0.00     0.074 A 
ATOM     27  C   UNL A   1      29.638  27.375  23.462  1.00  0.00     0.011 A 
ATOM     28  N   UNL A   1      31.303  30.365  24.818  1.00  0.00    -0.256 NA
ATOM     29  C   UNL A   1      29.250  30.122  23.650  1.00  0.00    -0.025 A 
ATOM     30  C   UNL A   1      28.448  27.933  23.010  1.00  0.00     0.001 A 
ATOM     31  C   UNL A   1      29.043  31.616  23.603  1.00  0.00     0.047 C 
ATOM     32  C   UNL A   1      28.267  29.306  23.070  1.00  0.00     0.005 A 
ENDBRANCH  19  22
ENDBRANCH  10  11
ENDBRANCH   8  10
ENDBRANCH   7   8
ENDBRANCH   6   7
ENDBRANCH   5   6
ENDBRANCH   4   5
ENDBRANCH   3   4
ENDBRANCH   2   3
ENDBRANCH   1   2
BRANCH   1  33
ATOM     33  C   UNL A   1      41.984  19.650  26.168  1.00  0.00     0.188 C 
BRANCH  33  34
ATOM     34  C   UNL A   1      42.660  18.326  26.536  1.00  0.00     0.188 C 
BRANCH  34  35
ATOM     35  O   UNL A   1      43.956  18.091  25.973  1.00  0.00    -0.376 OA
BRANCH  35  36
ATOM     36  C   UNL A   1      44.316  18.844  24.807  1.00  0.00     0.202 C 
BRANCH  36  37
ATOM     37  C   UNL A   1      45.505  19.789  24.992  1.00  0.00     0.261 C 
BRANCH  37  38
ATOM     38  O   UNL A   1      45.020  21.107  25.276  1.00  0.00    -0.460 OA
BRANCH  38  39
ATOM     39  C   UNL A   1      44.857  21.920  24.201  1.00  0.00     0.338 C 
ATOM     40  O   UNL A   1      44.451  21.630  23.101  1.00  0.00    -0.246 OA
BRANCH  39  41
ATOM     41  C   UNL A   1      44.902  23.280  24.774  1.00  0.00     0.060 A 
ATOM     42  C   UNL A   1      45.895  23.643  25.686  1.00  0.00     0.016 A 
ATOM     43  C   UNL A   1      43.752  24.059  24.614  1.00  0.00     0.016 A 
ATOM     44  C   UNL A   1      45.676  24.713  26.542  1.00  0.00     0.010 A 
ATOM     45  C   UNL A   1      43.535  25.130  25.473  1.00  0.00     0.010 A 
ATOM     46  C   UNL A   1      44.462  25.410  26.485  1.00  0.00    -0.014 A 
BRANCH  46  47
ATOM     47  C   UNL A   1      44.229  26.473  27.472  1.00  0.00     0.031 A 
ATOM     48  C   UNL A   1      45.098  27.685  27.347  1.00  0.00     0.074 A 
ATOM     49  C   UNL A   1      43.175  26.476  28.316  1.00  0.00     0.049 A 
ATOM     50  N   UNL A   1      45.679  28.383  28.274  1.00  0.00    -0.248 NA
ATOM     51  C   UNL A   1      45.368  28.163  25.980  1.00  0.00     0.031 C 
ATOM     52  C   UNL A   1      42.058  25.528  28.356  1.00  0.00     0.029 A 
ATOM     53  N   UNL A   1      42.793  27.441  29.206  1.00  0.00    -0.354 N 
ATOM     54  C   UNL A   1      46.282  29.458  27.622  1.00  0.00     0.074 A 
ATOM     55  C   UNL A   1      46.128  29.231  26.207  1.00  0.00     0.031 C 
ATOM     56  C   UNL A   1      41.019  26.105  28.996  1.00  0.00     0.029 A 
ATOM     57  C   UNL A   1      41.434  27.409  29.488  1.00  0.00     0.049 A 
ATOM     58  H   UNL A   1      43.415  28.092  29.605  1.00  0.00     0.167 HD
ATOM     59  C   UNL A   1      46.751  30.565  28.258  1.00  0.00     0.037 A 
ATOM     60  C   UNL A   1      40.673  28.436  29.939  1.00  0.00     0.037 A 
ATOM     61  C   UNL A   1      47.003  30.360  29.650  1.00  0.00     0.049 A 
ATOM     62  C   UNL A   1      41.567  29.468  30.520  1.00  0.00     0.074 A 
ATOM     63  C   UNL A   1      47.823  29.509  30.366  1.00  0.00     0.029 A 
ATOM     64  N   UNL A   1      46.154  30.906  30.581  1.00  0.00    -0.354 N 
ATOM     65  N   UNL A   1      42.236  29.342  31.631  1.00  0.00    -0.248 NA
ATOM     66  C   UNL A   1      42.027  30.527  29.632  1.00  0.00     0.031 C 
ATOM     67  C   UNL A   1      47.093  29.199  31.549  1.00  0.00     0.029 A 
ATOM     68  C   UNL A   1      45.891  29.899  31.474  1.00  0.00     0.049 A 
ATOM     69  H   UNL A   1      45.809  31.827  30.603  1.00  0.00     0.167 HD
ATOM     70  C   UNL A   1      43.430  30.006  31.402  1.00  0.00     0.074 A 
ATOM     71  C   UNL A   1      43.205  30.794  30.195  1.00  0.00     0.031 C 
ATOM     72  C   UNL A   1      44.587  29.653  32.039  1.00  0.00     0.037 A 
BRANCH  59  73
ATOM     73  C   UNL A   1      46.757  31.922  27.618  1.00  0.00     0.064 A 
ATOM     74  C   UNL A   1      45.560  32.535  27.213  1.00  0.00     0.173 A 
ATOM     75  C   UNL A   1      47.951  32.531  27.174  1.00  0.00     0.173 A 
ATOM     76  F   UNL A   1      44.376  31.996  27.537  1.00  0.00    -0.203 F 
ATOM     77  C   UNL A   1      45.561  33.680  26.412  1.00  0.00     0.198 A 
ATOM     78  C   UNL A   1      47.949  33.701  26.419  1.00  0.00     0.198 A 
ATOM     79  F   UNL A   1      49.145  31.957  27.381  1.00  0.00    -0.203 F 
ATOM     80  F   UNL A   1      44.401  34.190  25.977  1.00  0.00    -0.200 F 
ATOM     81  C   UNL A   1      46.754  34.266  26.023  1.00  0.00     0.200 A 
ATOM     82  F   UNL A   1      49.114  34.239  26.031  1.00  0.00    -0.200 F 
ATOM     83  F   UNL A   1      46.756  35.346  25.230  1.00  0.00    -0.200 F 
ENDBRANCH  59  73
BRANCH  60  84
ATOM     84  C   UNL A   1      39.269  28.724  29.549  1.00  0.00     0.064 A 
ATOM     85  C   UNL A   1      38.246  28.804  30.506  1.00  0.00     0.173 A 
ATOM     86  C   UNL A   1      38.939  29.155  28.247  1.00  0.00     0.173 A 
ATOM     87  F   UNL A   1      38.493  28.486  31.785  1.00  0.00    -0.203 F 
ATOM     88  C   UNL A   1      36.968  29.269  30.174  1.00  0.00     0.198 A 
ATOM     89  C   UNL A   1      37.661  29.597  27.912  1.00  0.00     0.198 A 
ATOM     90  F   UNL A   1      39.875  29.244  27.291  1.00  0.00    -0.203 F 
ATOM     91  F   UNL A   1      36.029  29.380  31.124  1.00  0.00    -0.200 F 
ATOM     92  C   UNL A   1      36.676  29.662  28.877  1.00  0.00     0.200 A 
ATOM     93  F   UNL A   1      37.408  30.012  26.662  1.00  0.00    -0.200 F 
ATOM     94  F   UNL A   1      35.463  30.140  28.567  1.00  0.00    -0.200 F 
ENDBRANCH  60  84
BRANCH  72  95
ATOM     95  C   UNL A   1      44.524  28.707  33.205  1.00  0.00     0.064 A 
ATOM     96  C   UNL A   1      44.407  27.313  33.076  1.00  0.00     0.173 A 
ATOM     97  C   UNL A   1      44.772  29.214  34.491  1.00  0.00     0.173 A 
ATOM     98  F   UNL A   1      44.303  26.733  31.873  1.00  0.00    -0.203 F 
ATOM     99  C   UNL A   1      44.479  26.478  34.188  1.00  0.00     0.198 A 
ATOM    100  C   UNL A   1      44.898  28.370  35.592  1.00  0.00     0.198 A 
ATOM    101  F   UNL A   1      44.952  30.532  34.673  1.00  0.00    -0.203 F 
ATOM    102  F   UNL A   1      44.338  25.153  34.039  1.00  0.00    -0.200 F 
ATOM    103  C   UNL A   1      44.740  27.004  35.442  1.00  0.00     0.200 A 
ATOM    104  F   UNL A   1      45.206  28.880  36.792  1.00  0.00    -0.200 F 
ATOM    105  F   UNL A   1      44.872  26.190  36.499  1.00  0.00    -0.200 F 
ENDBRANCH  72  95
ENDBRANCH  46  47
ENDBRANCH  39  41
ENDBRANCH  38  39
ENDBRANCH  37  38
ENDBRANCH  36  37
ENDBRANCH  35  36
ENDBRANCH  34  35
ENDBRANCH  33  34
ENDBRANCH   1  33
TORSDOF 22
ENDMDL
MODEL 3
REMARK VINA RESULT:     -11.2      2.528      4.132
REMARK SMILES Cc1ccc2c(c1)c(-c1ccnc3c(C)cccc13)c(C)n2CC(=O)OCCOCCOCCOCCOC(=O)c1ccc(-c2c3nc(c(-c4c(F)c(F)c(F)c(F)c4F)c4ccc([nH]4)c(-c4c(F)c(F)c(F)c(F)c4F)c4nc(c(-c5c(F)c(F)c(F)c(F)c5F)c5ccc2[nH]5)C=C4)C=C3)cc1
REMARK SMILES IDX 32 1 31 2 30 3 29 4 28 5 27 6 26 7 24 8 25 9 23 10 22 11
REMARK SMILES IDX 1 12 2 13 3 14 7 15 4 16 6 17 5 18 8 19 20 20 21 21 9 22
REMARK SMILES IDX 10 23 19 24 11 25 13 26 18 27 12 28 14 29 17 30 15 31 16 32
REMARK SMILES IDX 33 33 34 34 35 35 36 36 37 37 38 38 39 39 40 40 41 41 42 42
REMARK SMILES IDX 103 43 43 44 102 45 44 46 45 47 46 48 96 49 47 50 101 51
REMARK SMILES IDX 95 52 97 53 48 54 100 55 94 56 93 57 49 59 81 60 61 61 80 62
REMARK SMILES IDX 62 63 65 64 79 65 98 66 63 67 64 68 78 70 99 71 66 72 50 73
REMARK SMILES IDX 51 74 59 75 52 76 53 77 57 78 60 79 54 80 55 81 58 82 56 83
REMARK SMILES IDX 82 84 83 85 91 86 84 87 85 88 89 89 92 90 86 91 87 92 90 93
REMARK SMILES IDX 88 94 67 95 68 96 76 97 69 98 70 99 74 100 77 101 71 102
REMARK SMILES IDX 72 103 75 104 73 105
REMARK H PARENT 97 58 65 69
REMARK Flexibility Score: inf
ROOT
ATOM      1  O   UNL A   1      40.059  24.938  27.077  1.00  0.00    -0.377 OA
ENDROOT
BRANCH   1   2
ATOM      2  C   UNL A   1      38.897  24.181  26.843  1.00  0.00     0.188 C 
BRANCH   2   3
ATOM      3  C   UNL A   1      39.117  22.705  26.500  1.00  0.00     0.188 C 
BRANCH   3   4
ATOM      4  O   UNL A   1      38.397  22.131  25.422  1.00  0.00    -0.376 OA
BRANCH   4   5
ATOM      5  C   UNL A   1      37.118  21.546  25.678  1.00  0.00     0.202 C 
BRANCH   5   6
ATOM      6  C   UNL A   1      35.856  22.389  25.413  1.00  0.00     0.261 C 
BRANCH   6   7
ATOM      7  O   UNL A   1      35.136  22.026  24.207  1.00  0.00    -0.462 OA
BRANCH   7   8
ATOM      8  C   UNL A   1      35.229  22.892  23.167  1.00  0.00     0.326 C 
ATOM      9  O   UNL A   1      36.301  23.320  22.740  1.00  0.00    -0.250 OA
BRANCH   8  10
ATOM     10  C   UNL A   1      33.942  23.183  22.424  1.00  0.00     0.244 C 
BRANCH  10  11
ATOM     11  N   UNL A   1      32.923  24.051  23.029  1.00  0.00    -0.333 N 
ATOM     12  C   UNL A   1      29.488  23.156  27.424  1.00  0.00     0.044 C 
ATOM     13  C   UNL A   1      30.304  23.285  26.172  1.00  0.00    -0.050 A 
ATOM     14  C   UNL A   1      30.950  22.180  25.614  1.00  0.00     0.005 A 
ATOM     15  C   UNL A   1      30.477  24.549  25.591  1.00  0.00     0.014 A 
ATOM     16  C   UNL A   1      31.805  22.311  24.513  1.00  0.00     0.027 A 
ATOM     17  C   UNL A   1      31.368  24.716  24.510  1.00  0.00     0.008 A 
ATOM     18  C   UNL A   1      32.036  23.599  24.001  1.00  0.00     0.049 A 
ATOM     19  C   UNL A   1      31.816  25.852  23.780  1.00  0.00     0.011 A 
ATOM     20  C   UNL A   1      32.921  25.446  23.036  1.00  0.00     0.024 A 
ATOM     21  C   UNL A   1      33.945  26.316  22.376  1.00  0.00     0.065 C 
BRANCH  19  22
ATOM     22  C   UNL A   1      31.379  27.247  23.886  1.00  0.00    -0.005 A 
ATOM     23  C   UNL A   1      30.366  27.697  23.041  1.00  0.00     0.029 A 
ATOM     24  C   UNL A   1      31.922  28.132  24.858  1.00  0.00     0.008 A 
ATOM     25  C   UNL A   1      29.862  28.962  23.247  1.00  0.00     0.112 A 
ATOM     26  C   UNL A   1      31.308  29.402  25.008  1.00  0.00     0.074 A 
ATOM     27  C   UNL A   1      33.034  27.816  25.671  1.00  0.00     0.011 A 
ATOM     28  N   UNL A   1      30.282  29.787  24.226  1.00  0.00    -0.256 NA
ATOM     29  C   UNL A   1      31.784  30.277  25.998  1.00  0.00    -0.025 A 
ATOM     30  C   UNL A   1      33.548  28.731  26.582  1.00  0.00     0.001 A 
ATOM     31  C   UNL A   1      31.067  31.567  26.314  1.00  0.00     0.047 C 
ATOM     32  C   UNL A   1      32.905  29.944  26.774  1.00  0.00     0.005 A 
ENDBRANCH  19  22
ENDBRANCH  10  11
ENDBRANCH   8  10
ENDBRANCH   7   8
ENDBRANCH   6   7
ENDBRANCH   5   6
ENDBRANCH   4   5
ENDBRANCH   3   4
ENDBRANCH   2   3
ENDBRANCH   1   2
BRANCH   1  33
ATOM     33  C   UNL A   1      41.306  24.363  26.744  1.00  0.00     0.188 C 
BRANCH  33  34
ATOM     34  C   UNL A   1      42.354  24.242  27.856  1.00  0.00     0.188 C 
BRANCH  34  35
ATOM     35  O   UNL A   1      43.508  23.446  27.563  1.00  0.00    -0.376 OA
BRANCH  35  36
ATOM     36  C   UNL A   1      43.710  23.053  26.198  1.00  0.00     0.202 C 
BRANCH  36  37
ATOM     37  C   UNL A   1      44.822  23.812  25.469  1.00  0.00     0.261 C 
BRANCH  37  38
ATOM     38  O   UNL A   1      44.307  25.063  24.996  1.00  0.00    -0.460 OA
BRANCH  38  39
ATOM     39  C   UNL A   1      45.056  26.157  25.288  1.00  0.00     0.338 C 
ATOM     40  O   UNL A   1      45.985  26.613  24.668  1.00  0.00    -0.246 OA
BRANCH  39  41
ATOM     41  C   UNL A   1      44.249  26.882  26.291  1.00  0.00     0.060 A 
ATOM     42  C   UNL A   1      43.133  27.631  25.911  1.00  0.00     0.016 A 
ATOM     43  C   UNL A   1      44.828  27.043  27.553  1.00  0.00     0.016 A 
ATOM     44  C   UNL A   1      42.676  28.643  26.742  1.00  0.00     0.010 A 
ATOM     45  C   UNL A   1      44.369  28.058  28.384  1.00  0.00     0.010 A 
ATOM     46  C   UNL A   1      43.342  28.906  27.946  1.00  0.00    -0.014 A 
BRANCH  46  47
ATOM     47  C   UNL A   1      42.889  30.048  28.752  1.00  0.00     0.031 A 
ATOM     48  C   UNL A   1      43.542  31.361  28.453  1.00  0.00     0.074 A 
ATOM     49  C   UNL A   1      41.815  29.993  29.568  1.00  0.00     0.049 A 
ATOM     50  N   UNL A   1      43.954  32.282  29.269  1.00  0.00    -0.248 NA
ATOM     51  C   UNL A   1      43.783  31.668  27.032  1.00  0.00     0.031 C 
ATOM     52  C   UNL A   1      40.876  28.881  29.738  1.00  0.00     0.029 A 
ATOM     53  N   UNL A   1      41.235  30.999  30.291  1.00  0.00    -0.354 N 
ATOM     54  C   UNL A   1      44.391  33.336  28.466  1.00  0.00     0.074 A 
ATOM     55  C   UNL A   1      44.338  32.874  27.102  1.00  0.00     0.031 C 
ATOM     56  C   UNL A   1      39.727  29.355  30.264  1.00  0.00     0.029 A 
ATOM     57  C   UNL A   1      39.891  30.771  30.553  1.00  0.00     0.049 A 
ATOM     58  H   UNL A   1      41.719  31.802  30.593  1.00  0.00     0.167 HD
ATOM     59  C   UNL A   1      44.636  34.592  28.928  1.00  0.00     0.037 A 
ATOM     60  C   UNL A   1      38.947  31.704  30.827  1.00  0.00     0.037 A 
ATOM     61  C   UNL A   1      44.860  34.646  30.340  1.00  0.00     0.049 A 
ATOM     62  C   UNL A   1      39.625  32.953  31.253  1.00  0.00     0.074 A 
ATOM     63  C   UNL A   1      45.783  34.070  31.193  1.00  0.00     0.029 A 
ATOM     64  N   UNL A   1      43.891  35.168  31.161  1.00  0.00    -0.354 N 
ATOM     65  N   UNL A   1      40.258  33.115  32.381  1.00  0.00    -0.248 NA
ATOM     66  C   UNL A   1      39.934  33.930  30.218  1.00  0.00     0.031 C 
ATOM     67  C   UNL A   1      45.067  33.819  32.398  1.00  0.00     0.029 A 
ATOM     68  C   UNL A   1      43.766  34.277  32.196  1.00  0.00     0.049 A 
ATOM     69  H   UNL A   1      43.393  36.007  31.033  1.00  0.00     0.167 HD
ATOM     70  C   UNL A   1      41.330  33.937  32.069  1.00  0.00     0.074 A 
ATOM     71  C   UNL A   1      41.024  34.483  30.751  1.00  0.00     0.031 C 
ATOM     72  C   UNL A   1      42.501  33.893  32.772  1.00  0.00     0.037 A 
BRANCH  59  73
ATOM     73  C   UNL A   1      44.437  35.816  28.085  1.00  0.00     0.064 A 
ATOM     74  C   UNL A   1      45.503  36.692  27.821  1.00  0.00     0.173 A 
ATOM     75  C   UNL A   1      43.151  36.274  27.729  1.00  0.00     0.173 A 
ATOM     76  F   UNL A   1      46.755  36.369  28.178  1.00  0.00    -0.203 F 
ATOM     77  C   UNL A   1      45.290  37.945  27.241  1.00  0.00     0.198 A 
ATOM     78  C   UNL A   1      42.948  37.502  27.104  1.00  0.00     0.198 A 
ATOM     79  F   UNL A   1      42.049  35.584  28.060  1.00  0.00    -0.203 F 
ATOM     80  F   UNL A   1      46.319  38.788  27.079  1.00  0.00    -0.200 F 
ATOM     81  C   UNL A   1      44.015  38.346  26.877  1.00  0.00     0.200 A 
ATOM     82  F   UNL A   1      41.703  37.882  26.782  1.00  0.00    -0.200 F 
ATOM     83  F   UNL A   1      43.807  39.560  26.350  1.00  0.00    -0.200 F 
ENDBRANCH  59  73
BRANCH  60  84
ATOM     84  C   UNL A   1      37.532  31.679  30.375  1.00  0.00     0.064 A 
ATOM     85  C   UNL A   1      36.489  32.099  31.213  1.00  0.00     0.173 A 
ATOM     86  C   UNL A   1      37.194  31.455  29.024  1.00  0.00     0.173 A 
ATOM     87  F   UNL A   1      36.736  32.406  32.495  1.00  0.00    -0.203 F 
ATOM     88  C   UNL A   1      35.185  32.267  30.732  1.00  0.00     0.198 A 
ATOM     89  C   UNL A   1      35.892  31.601  28.549  1.00  0.00     0.198 A 
ATOM     90  F   UNL A   1      38.137  31.179  28.111  1.00  0.00    -0.203 F 
ATOM     91  F   UNL A   1      34.223  32.717  31.549  1.00  0.00    -0.200 F 
ATOM     92  C   UNL A   1      34.887  32.014  29.401  1.00  0.00     0.200 A 
ATOM     93  F   UNL A   1      35.631  31.393  27.251  1.00  0.00    -0.200 F 
ATOM     94  F   UNL A   1      33.647  32.209  28.933  1.00  0.00    -0.200 F 
ENDBRANCH  60  84
BRANCH  72  95
ATOM     95  C   UNL A   1      42.552  33.138  34.069  1.00  0.00     0.064 A 
ATOM     96  C   UNL A   1      42.767  31.753  34.161  1.00  0.00     0.173 A 
ATOM     97  C   UNL A   1      42.563  33.870  35.269  1.00  0.00     0.173 A 
ATOM     98  F   UNL A   1      42.904  30.997  33.064  1.00  0.00    -0.203 F 
ATOM     99  C   UNL A   1      42.927  31.128  35.395  1.00  0.00     0.198 A 
ATOM    100  C   UNL A   1      42.780  33.248  36.496  1.00  0.00     0.198 A 
ATOM    101  F   UNL A   1      42.422  35.204  35.245  1.00  0.00    -0.203 F 
ATOM    102  F   UNL A   1      43.104  29.801  35.454  1.00  0.00    -0.200 F 
ATOM    103  C   UNL A   1      42.950  31.876  36.560  1.00  0.00     0.200 A 
ATOM    104  F   UNL A   1      42.856  33.984  37.613  1.00  0.00    -0.200 F 
ATOM    105  F   UNL A   1      43.169  31.279  37.739  1.00  0.00    -0.200 F 
ENDBRANCH  72  95
ENDBRANCH  46  47
ENDBRANCH  39  41
ENDBRANCH  38  39
ENDBRANCH  37  38
ENDBRANCH  36  37
ENDBRANCH  35  36
ENDBRANCH  34  35
ENDBRANCH  33  34
ENDBRANCH   1  33
TORSDOF 22
ENDMDL
