MODEL 1
REMARK VINA RESULT:      -9.7      0.000      0.000
REMARK SMILES C[C@H](CCC(=O)OCCOCCOCCOCCOC(=O)c1ccc(-c2c3nc(c(-c4c(F)c(F)c(F)c(F)c4F)c4ccc([nH]4)c(-c4c(F)c(F)c(F)c(F)c4F)c4nc(c(-c5c(F)c(F)c(F)c(F)c5F)c5ccc2[nH]5)C=C4)C=C3)cc1)NC(=O)OC(C)(C)C
REMARK SMILES IDX 11 1 10 2 9 3 8 4 7 5 5 6 6 7 4 8 3 9 2 10 1 11 85 12 86 13
REMARK SMILES IDX 87 15 88 16 89 17 90 18 91 19 92 20 12 21 13 22 14 23 15 24
REMARK SMILES IDX 16 25 17 26 18 27 19 28 20 29 21 30 22 31 23 32 84 33 24 34
REMARK SMILES IDX 83 35 25 36 26 37 27 38 77 39 28 40 82 41 76 42 78 43 29 44
REMARK SMILES IDX 81 45 75 46 74 47 30 49 62 50 42 51 61 52 43 53 46 54 60 55
REMARK SMILES IDX 79 56 44 57 45 58 59 60 80 61 47 62 31 63 32 64 40 65 33 66
REMARK SMILES IDX 34 67 38 68 41 69 35 70 36 71 39 72 37 73 63 74 64 75 72 76
REMARK SMILES IDX 65 77 66 78 70 79 73 80 67 81 68 82 71 83 69 84 48 85 49 86
REMARK SMILES IDX 57 87 50 88 51 89 55 90 58 91 52 92 53 93 56 94 54 95
REMARK H PARENT 85 14 78 48 46 59
REMARK Flexibility Score: inf
ROOT
ATOM      1  C   UNL A   1      39.881  21.852  26.676  1.00  0.00     0.188 C 
ENDROOT
BRANCH   1   2
ATOM      2  O   UNL A   1      38.911  21.348  25.787  1.00  0.00    -0.376 OA
BRANCH   2   3
ATOM      3  C   UNL A   1      37.764  22.105  25.465  1.00  0.00     0.202 C 
BRANCH   3   4
ATOM      4  C   UNL A   1      36.477  21.508  24.872  1.00  0.00     0.261 C 
BRANCH   4   5
ATOM      5  O   UNL A   1      35.503  20.983  25.782  1.00  0.00    -0.463 OA
BRANCH   5   6
ATOM      6  C   UNL A   1      34.240  20.900  25.324  1.00  0.00     0.305 C 
ATOM      7  O   UNL A   1      33.403  20.119  25.768  1.00  0.00    -0.252 OA
BRANCH   6   8
ATOM      8  C   UNL A   1      33.919  21.817  24.164  1.00  0.00     0.125 C 
BRANCH   8   9
ATOM      9  C   UNL A   1      32.908  22.968  24.171  1.00  0.00     0.036 C 
BRANCH   9  10
ATOM     10  C   UNL A   1      31.953  23.311  23.000  1.00  0.00     0.083 C 
ATOM     11  C   UNL A   1      30.597  23.924  23.322  1.00  0.00     0.031 C 
BRANCH  10  12
ATOM     12  N   UNL A   1      32.645  24.216  22.077  1.00  0.00    -0.319 N 
ATOM     13  C   UNL A   1      32.791  25.565  22.191  1.00  0.00     0.407 C 
ATOM     14  H   UNL A   1      33.050  23.801  21.281  1.00  0.00     0.167 HD
ATOM     15  O   UNL A   1      33.544  26.170  21.428  1.00  0.00    -0.225 OA
BRANCH  13  16
ATOM     16  O   UNL A   1      32.059  26.119  23.182  1.00  0.00    -0.444 OA
BRANCH  16  17
ATOM     17  C   UNL A   1      32.617  27.189  23.992  1.00  0.00     0.106 C 
ATOM     18  C   UNL A   1      31.529  27.850  24.846  1.00  0.00     0.056 C 
ATOM     19  C   UNL A   1      33.811  26.721  24.833  1.00  0.00     0.056 C 
ATOM     20  C   UNL A   1      33.130  28.227  22.987  1.00  0.00     0.056 C 
ENDBRANCH  16  17
ENDBRANCH  13  16
ENDBRANCH  10  12
ENDBRANCH   9  10
ENDBRANCH   8   9
ENDBRANCH   6   8
ENDBRANCH   5   6
ENDBRANCH   4   5
ENDBRANCH   3   4
ENDBRANCH   2   3
ENDBRANCH   1   2
BRANCH   1  21
ATOM     21  C   UNL A   1      41.209  21.074  26.667  1.00  0.00     0.188 C 
BRANCH  21  22
ATOM     22  O   UNL A   1      41.352  19.930  25.839  1.00  0.00    -0.377 OA
BRANCH  22  23
ATOM     23  C   UNL A   1      42.413  19.008  26.068  1.00  0.00     0.188 C 
BRANCH  23  24
ATOM     24  C   UNL A   1      43.819  19.216  25.459  1.00  0.00     0.188 C 
BRANCH  24  25
ATOM     25  O   UNL A   1      43.923  20.279  24.529  1.00  0.00    -0.376 OA
BRANCH  25  26
ATOM     26  C   UNL A   1      44.362  21.537  25.017  1.00  0.00     0.202 C 
BRANCH  26  27
ATOM     27  C   UNL A   1      44.113  22.755  24.114  1.00  0.00     0.261 C 
BRANCH  27  28
ATOM     28  O   UNL A   1      43.422  23.853  24.731  1.00  0.00    -0.460 OA
BRANCH  28  29
ATOM     29  C   UNL A   1      44.176  24.895  25.129  1.00  0.00     0.338 C 
ATOM     30  O   UNL A   1      45.286  25.209  24.732  1.00  0.00    -0.246 OA
BRANCH  29  31
ATOM     31  C   UNL A   1      43.366  25.717  26.041  1.00  0.00     0.060 A 
ATOM     32  C   UNL A   1      43.488  27.111  25.999  1.00  0.00     0.016 A 
ATOM     33  C   UNL A   1      42.524  25.104  26.968  1.00  0.00     0.016 A 
ATOM     34  C   UNL A   1      42.813  27.893  26.933  1.00  0.00     0.010 A 
ATOM     35  C   UNL A   1      41.841  25.888  27.900  1.00  0.00     0.010 A 
ATOM     36  C   UNL A   1      42.038  27.280  27.926  1.00  0.00    -0.014 A 
BRANCH  36  37
ATOM     37  C   UNL A   1      41.693  28.058  29.141  1.00  0.00     0.031 A 
ATOM     38  C   UNL A   1      40.411  28.853  29.121  1.00  0.00     0.074 A 
ATOM     39  C   UNL A   1      42.444  28.007  30.254  1.00  0.00     0.049 A 
ATOM     40  N   UNL A   1      39.869  29.590  30.057  1.00  0.00    -0.248 NA
ATOM     41  C   UNL A   1      39.637  28.813  27.869  1.00  0.00     0.031 C 
ATOM     42  C   UNL A   1      43.680  27.245  30.408  1.00  0.00     0.029 A 
ATOM     43  N   UNL A   1      42.261  28.607  31.475  1.00  0.00    -0.354 N 
ATOM     44  C   UNL A   1      38.707  30.108  29.500  1.00  0.00     0.074 A 
ATOM     45  C   UNL A   1      38.643  29.645  28.134  1.00  0.00     0.031 C 
ATOM     46  C   UNL A   1      44.142  27.415  31.660  1.00  0.00     0.029 A 
ATOM     47  C   UNL A   1      43.248  28.317  32.384  1.00  0.00     0.049 A 
ATOM     48  H   UNL A   1      41.494  29.189  31.680  1.00  0.00     0.167 HD
ATOM     49  C   UNL A   1      37.762  30.884  30.080  1.00  0.00     0.037 A 
ATOM     50  C   UNL A   1      43.408  28.743  33.653  1.00  0.00     0.037 A 
ATOM     51  C   UNL A   1      37.818  31.329  31.446  1.00  0.00     0.049 A 
ATOM     52  C   UNL A   1      42.368  29.654  34.261  1.00  0.00     0.074 A 
ATOM     53  C   UNL A   1      36.905  32.102  32.140  1.00  0.00     0.029 A 
ATOM     54  N   UNL A   1      38.852  31.043  32.324  1.00  0.00    -0.354 N 
ATOM     55  N   UNL A   1      41.257  30.114  33.737  1.00  0.00    -0.248 NA
ATOM     56  C   UNL A   1      42.603  30.092  35.643  1.00  0.00     0.031 C 
ATOM     57  C   UNL A   1      37.417  32.337  33.419  1.00  0.00     0.029 A 
ATOM     58  C   UNL A   1      38.611  31.646  33.548  1.00  0.00     0.049 A 
ATOM     59  H   UNL A   1      39.641  30.494  32.111  1.00  0.00     0.167 HD
ATOM     60  C   UNL A   1      40.640  30.856  34.740  1.00  0.00     0.074 A 
ATOM     61  C   UNL A   1      41.498  30.775  35.903  1.00  0.00     0.031 C 
ATOM     62  C   UNL A   1      39.467  31.538  34.703  1.00  0.00     0.037 A 
BRANCH  49  63
ATOM     63  C   UNL A   1      36.609  31.326  29.225  1.00  0.00     0.064 A 
ATOM     64  C   UNL A   1      36.496  32.641  28.745  1.00  0.00     0.173 A 
ATOM     65  C   UNL A   1      35.603  30.414  28.872  1.00  0.00     0.173 A 
ATOM     66  F   UNL A   1      37.420  33.560  29.068  1.00  0.00    -0.203 F 
ATOM     67  C   UNL A   1      35.403  33.033  27.976  1.00  0.00     0.198 A 
ATOM     68  C   UNL A   1      34.531  30.800  28.073  1.00  0.00     0.198 A 
ATOM     69  F   UNL A   1      35.659  29.145  29.303  1.00  0.00    -0.203 F 
ATOM     70  F   UNL A   1      35.286  34.309  27.583  1.00  0.00    -0.200 F 
ATOM     71  C   UNL A   1      34.426  32.111  27.634  1.00  0.00     0.200 A 
ATOM     72  F   UNL A   1      33.595  29.904  27.732  1.00  0.00    -0.200 F 
ATOM     73  F   UNL A   1      33.378  32.487  26.889  1.00  0.00    -0.200 F 
ENDBRANCH  49  63
BRANCH  50  74
ATOM     74  C   UNL A   1      44.589  28.308  34.448  1.00  0.00     0.064 A 
ATOM     75  C   UNL A   1      44.528  27.182  35.281  1.00  0.00     0.173 A 
ATOM     76  C   UNL A   1      45.791  29.032  34.421  1.00  0.00     0.173 A 
ATOM     77  F   UNL A   1      43.395  26.470  35.363  1.00  0.00    -0.203 F 
ATOM     78  C   UNL A   1      45.612  26.814  36.077  1.00  0.00     0.198 A 
ATOM     79  C   UNL A   1      46.884  28.644  35.192  1.00  0.00     0.198 A 
ATOM     80  F   UNL A   1      45.903  30.119  33.643  1.00  0.00    -0.203 F 
ATOM     81  F   UNL A   1      45.505  25.769  36.908  1.00  0.00    -0.200 F 
ATOM     82  C   UNL A   1      46.791  27.542  36.028  1.00  0.00     0.200 A 
ATOM     83  F   UNL A   1      48.026  29.343  35.131  1.00  0.00    -0.200 F 
ATOM     84  F   UNL A   1      47.832  27.187  36.793  1.00  0.00    -0.200 F 
ENDBRANCH  50  74
BRANCH  62  85
ATOM     85  C   UNL A   1      39.003  32.188  35.977  1.00  0.00     0.064 A 
ATOM     86  C   UNL A   1      39.319  33.517  36.297  1.00  0.00     0.173 A 
ATOM     87  C   UNL A   1      38.203  31.471  36.881  1.00  0.00     0.173 A 
ATOM     88  F   UNL A   1      40.086  34.246  35.471  1.00  0.00    -0.203 F 
ATOM     89  C   UNL A   1      38.890  34.088  37.492  1.00  0.00     0.198 A 
ATOM     90  C   UNL A   1      37.742  32.058  38.057  1.00  0.00     0.198 A 
ATOM     91  F   UNL A   1      37.858  30.201  36.620  1.00  0.00    -0.203 F 
ATOM     92  F   UNL A   1      39.262  35.337  37.807  1.00  0.00    -0.200 F 
ATOM     93  C   UNL A   1      38.097  33.361  38.368  1.00  0.00     0.200 A 
ATOM     94  F   UNL A   1      36.959  31.360  38.889  1.00  0.00    -0.200 F 
ATOM     95  F   UNL A   1      37.683  33.913  39.516  1.00  0.00    -0.200 F 
ENDBRANCH  62  85
ENDBRANCH  36  37
ENDBRANCH  29  31
ENDBRANCH  28  29
ENDBRANCH  27  28
ENDBRANCH  26  27
ENDBRANCH  25  26
ENDBRANCH  24  25
ENDBRANCH  23  24
ENDBRANCH  22  23
ENDBRANCH  21  22
ENDBRANCH   1  21
TORSDOF 25
ENDMDL
MODEL 2
REMARK VINA RESULT:      -9.4      2.899      9.816
REMARK SMILES C[C@H](CCC(=O)OCCOCCOCCOCCOC(=O)c1ccc(-c2c3nc(c(-c4c(F)c(F)c(F)c(F)c4F)c4ccc([nH]4)c(-c4c(F)c(F)c(F)c(F)c4F)c4nc(c(-c5c(F)c(F)c(F)c(F)c5F)c5ccc2[nH]5)C=C4)C=C3)cc1)NC(=O)OC(C)(C)C
REMARK SMILES IDX 11 1 10 2 9 3 8 4 7 5 5 6 6 7 4 8 3 9 2 10 1 11 85 12 86 13
REMARK SMILES IDX 87 15 88 16 89 17 90 18 91 19 92 20 12 21 13 22 14 23 15 24
REMARK SMILES IDX 16 25 17 26 18 27 19 28 20 29 21 30 22 31 23 32 84 33 24 34
REMARK SMILES IDX 83 35 25 36 26 37 27 38 77 39 28 40 82 41 76 42 78 43 29 44
REMARK SMILES IDX 81 45 75 46 74 47 30 49 62 50 42 51 61 52 43 53 46 54 60 55
REMARK SMILES IDX 79 56 44 57 45 58 59 60 80 61 47 62 31 63 32 64 40 65 33 66
REMARK SMILES IDX 34 67 38 68 41 69 35 70 36 71 39 72 37 73 63 74 64 75 72 76
REMARK SMILES IDX 65 77 66 78 70 79 73 80 67 81 68 82 71 83 69 84 48 85 49 86
REMARK SMILES IDX 57 87 50 88 51 89 55 90 58 91 52 92 53 93 56 94 54 95
REMARK H PARENT 85 14 78 48 46 59
REMARK Flexibility Score: inf
ROOT
ATOM      1  C   UNL A   1      32.230  25.834  26.327  1.00  0.00     0.188 C 
ENDROOT
BRANCH   1   2
ATOM      2  O   UNL A   1      33.493  25.776  25.707  1.00  0.00    -0.376 OA
BRANCH   2   3
ATOM      3  C   UNL A   1      34.297  24.620  25.811  1.00  0.00     0.202 C 
BRANCH   3   4
ATOM      4  C   UNL A   1      35.301  24.171  24.737  1.00  0.00     0.261 C 
BRANCH   4   5
ATOM      5  O   UNL A   1      36.628  23.838  25.162  1.00  0.00    -0.463 OA
BRANCH   5   6
ATOM      6  C   UNL A   1      37.140  22.689  24.681  1.00  0.00     0.305 C 
ATOM      7  O   UNL A   1      36.927  22.267  23.548  1.00  0.00    -0.252 OA
BRANCH   6   8
ATOM      8  C   UNL A   1      37.978  21.903  25.666  1.00  0.00     0.125 C 
BRANCH   8   9
ATOM      9  C   UNL A   1      39.233  22.402  26.390  1.00  0.00     0.036 C 
BRANCH   9  10
ATOM     10  C   UNL A   1      40.571  21.625  26.473  1.00  0.00     0.083 C 
ATOM     11  C   UNL A   1      40.541  20.109  26.337  1.00  0.00     0.031 C 
BRANCH  10  12
ATOM     12  N   UNL A   1      41.484  22.147  25.451  1.00  0.00    -0.319 N 
ATOM     13  C   UNL A   1      42.834  22.299  25.542  1.00  0.00     0.407 C 
ATOM     14  H   UNL A   1      41.072  22.420  24.598  1.00  0.00     0.167 HD
ATOM     15  O   UNL A   1      43.490  22.588  24.542  1.00  0.00    -0.225 OA
BRANCH  13  16
ATOM     16  O   UNL A   1      43.329  22.102  26.783  1.00  0.00    -0.444 OA
BRANCH  16  17
ATOM     17  C   UNL A   1      44.061  23.162  27.454  1.00  0.00     0.106 C 
ATOM     18  C   UNL A   1      45.561  23.064  27.153  1.00  0.00     0.056 C 
ATOM     19  C   UNL A   1      43.494  24.552  27.138  1.00  0.00     0.056 C 
ATOM     20  C   UNL A   1      43.859  22.904  28.952  1.00  0.00     0.056 C 
ENDBRANCH  16  17
ENDBRANCH  13  16
ENDBRANCH  10  12
ENDBRANCH   9  10
ENDBRANCH   8   9
ENDBRANCH   6   8
ENDBRANCH   5   6
ENDBRANCH   4   5
ENDBRANCH   3   4
ENDBRANCH   2   3
ENDBRANCH   1   2
BRANCH   1  21
ATOM     21  C   UNL A   1      31.202  26.708  25.586  1.00  0.00     0.188 C 
BRANCH  21  22
ATOM     22  O   UNL A   1      31.632  27.579  24.552  1.00  0.00    -0.377 OA
BRANCH  22  23
ATOM     23  C   UNL A   1      31.403  28.981  24.654  1.00  0.00     0.188 C 
BRANCH  23  24
ATOM     24  C   UNL A   1      31.936  29.809  25.846  1.00  0.00     0.188 C 
BRANCH  24  25
ATOM     25  O   UNL A   1      31.731  31.207  25.750  1.00  0.00    -0.376 OA
BRANCH  25  26
ATOM     26  C   UNL A   1      31.558  31.930  26.959  1.00  0.00     0.202 C 
BRANCH  26  27
ATOM     27  C   UNL A   1      32.833  32.436  27.651  1.00  0.00     0.261 C 
BRANCH  27  28
ATOM     28  O   UNL A   1      33.155  33.817  27.422  1.00  0.00    -0.460 OA
BRANCH  28  29
ATOM     29  C   UNL A   1      33.144  34.627  28.499  1.00  0.00     0.338 C 
ATOM     30  O   UNL A   1      32.268  35.404  28.840  1.00  0.00    -0.246 OA
BRANCH  29  31
ATOM     31  C   UNL A   1      34.325  34.309  29.316  1.00  0.00     0.060 A 
ATOM     32  C   UNL A   1      35.603  34.569  28.805  1.00  0.00     0.016 A 
ATOM     33  C   UNL A   1      34.167  33.711  30.566  1.00  0.00     0.016 A 
ATOM     34  C   UNL A   1      36.728  34.168  29.520  1.00  0.00     0.010 A 
ATOM     35  C   UNL A   1      35.295  33.316  31.287  1.00  0.00     0.010 A 
ATOM     36  C   UNL A   1      36.577  33.483  30.734  1.00  0.00    -0.014 A 
BRANCH  36  37
ATOM     37  C   UNL A   1      37.721  32.697  31.254  1.00  0.00     0.031 A 
ATOM     38  C   UNL A   1      38.211  33.010  32.645  1.00  0.00     0.074 A 
ATOM     39  C   UNL A   1      38.264  31.686  30.554  1.00  0.00     0.049 A 
ATOM     40  N   UNL A   1      39.169  32.453  33.341  1.00  0.00    -0.248 NA
ATOM     41  C   UNL A   1      37.525  34.109  33.347  1.00  0.00     0.031 C 
ATOM     42  C   UNL A   1      37.853  31.262  29.219  1.00  0.00     0.029 A 
ATOM     43  N   UNL A   1      39.279  30.822  30.886  1.00  0.00    -0.354 N 
ATOM     44  C   UNL A   1      39.207  33.143  34.546  1.00  0.00     0.074 A 
ATOM     45  C   UNL A   1      38.213  34.188  34.474  1.00  0.00     0.031 C 
ATOM     46  C   UNL A   1      38.603  30.210  28.846  1.00  0.00     0.029 A 
ATOM     47  C   UNL A   1      39.563  29.904  29.905  1.00  0.00     0.049 A 
ATOM     48  H   UNL A   1      39.757  30.858  31.746  1.00  0.00     0.167 HD
ATOM     49  C   UNL A   1      39.986  32.914  35.629  1.00  0.00     0.037 A 
ATOM     50  C   UNL A   1      40.499  28.935  29.873  1.00  0.00     0.037 A 
ATOM     51  C   UNL A   1      40.962  31.861  35.707  1.00  0.00     0.049 A 
ATOM     52  C   UNL A   1      41.394  28.735  31.073  1.00  0.00     0.074 A 
ATOM     53  C   UNL A   1      41.790  31.529  36.763  1.00  0.00     0.029 A 
ATOM     54  N   UNL A   1      41.244  30.974  34.679  1.00  0.00    -0.354 N 
ATOM     55  N   UNL A   1      41.402  29.370  32.220  1.00  0.00    -0.248 NA
ATOM     56  C   UNL A   1      42.401  27.669  30.973  1.00  0.00     0.031 C 
ATOM     57  C   UNL A   1      42.618  30.480  36.353  1.00  0.00     0.029 A 
ATOM     58  C   UNL A   1      42.253  30.107  35.069  1.00  0.00     0.049 A 
ATOM     59  H   UNL A   1      40.795  30.960  33.803  1.00  0.00     0.167 HD
ATOM     60  C   UNL A   1      42.381  28.753  32.993  1.00  0.00     0.074 A 
ATOM     61  C   UNL A   1      42.935  27.687  32.186  1.00  0.00     0.031 C 
ATOM     62  C   UNL A   1      42.780  29.038  34.259  1.00  0.00     0.037 A 
BRANCH  49  63
ATOM     63  C   UNL A   1      39.833  33.842  36.800  1.00  0.00     0.064 A 
ATOM     64  C   UNL A   1      40.448  35.104  36.838  1.00  0.00     0.173 A 
ATOM     65  C   UNL A   1      39.049  33.465  37.901  1.00  0.00     0.173 A 
ATOM     66  F   UNL A   1      41.225  35.508  35.820  1.00  0.00    -0.203 F 
ATOM     67  C   UNL A   1      40.312  35.935  37.946  1.00  0.00     0.198 A 
ATOM     68  C   UNL A   1      38.886  34.314  38.992  1.00  0.00     0.198 A 
ATOM     69  F   UNL A   1      38.439  32.270  37.919  1.00  0.00    -0.203 F 
ATOM     70  F   UNL A   1      40.960  37.108  37.986  1.00  0.00    -0.200 F 
ATOM     71  C   UNL A   1      39.526  35.543  39.019  1.00  0.00     0.200 A 
ATOM     72  F   UNL A   1      38.114  33.939  40.021  1.00  0.00    -0.200 F 
ATOM     73  F   UNL A   1      39.391  36.347  40.083  1.00  0.00    -0.200 F 
ENDBRANCH  49  63
BRANCH  50  74
ATOM     74  C   UNL A   1      40.638  28.065  28.673  1.00  0.00     0.064 A 
ATOM     75  C   UNL A   1      41.453  28.439  27.595  1.00  0.00     0.173 A 
ATOM     76  C   UNL A   1      39.928  26.860  28.563  1.00  0.00     0.173 A 
ATOM     77  F   UNL A   1      42.132  29.594  27.639  1.00  0.00    -0.203 F 
ATOM     78  C   UNL A   1      41.530  27.657  26.444  1.00  0.00     0.198 A 
ATOM     79  C   UNL A   1      40.031  26.063  27.425  1.00  0.00     0.198 A 
ATOM     80  F   UNL A   1      39.132  26.455  29.564  1.00  0.00    -0.203 F 
ATOM     81  F   UNL A   1      42.270  28.070  25.405  1.00  0.00    -0.200 F 
ATOM     82  C   UNL A   1      40.824  26.468  26.361  1.00  0.00     0.200 A 
ATOM     83  F   UNL A   1      39.358  24.907  27.355  1.00  0.00    -0.200 F 
ATOM     84  F   UNL A   1      40.899  25.717  25.254  1.00  0.00    -0.200 F 
ENDBRANCH  50  74
BRANCH  62  85
ATOM     85  C   UNL A   1      43.815  28.140  34.878  1.00  0.00     0.064 A 
ATOM     86  C   UNL A   1      45.186  28.430  34.822  1.00  0.00     0.173 A 
ATOM     87  C   UNL A   1      43.419  26.980  35.562  1.00  0.00     0.173 A 
ATOM     88  F   UNL A   1      45.620  29.523  34.174  1.00  0.00    -0.203 F 
ATOM     89  C   UNL A   1      46.124  27.571  35.390  1.00  0.00     0.198 A 
ATOM     90  C   UNL A   1      44.358  26.144  36.164  1.00  0.00     0.198 A 
ATOM     91  F   UNL A   1      42.121  26.660  35.659  1.00  0.00    -0.203 F 
ATOM     92  F   UNL A   1      47.432  27.835  35.265  1.00  0.00    -0.200 F 
ATOM     93  C   UNL A   1      45.709  26.433  36.065  1.00  0.00     0.200 A 
ATOM     94  F   UNL A   1      43.951  25.057  36.833  1.00  0.00    -0.200 F 
ATOM     95  F   UNL A   1      46.613  25.609  36.613  1.00  0.00    -0.200 F 
ENDBRANCH  62  85
ENDBRANCH  36  37
ENDBRANCH  29  31
ENDBRANCH  28  29
ENDBRANCH  27  28
ENDBRANCH  26  27
ENDBRANCH  25  26
ENDBRANCH  24  25
ENDBRANCH  23  24
ENDBRANCH  22  23
ENDBRANCH  21  22
ENDBRANCH   1  21
TORSDOF 25
ENDMDL
MODEL 3
REMARK VINA RESULT:      -9.2      3.814      8.704
REMARK SMILES C[C@H](CCC(=O)OCCOCCOCCOCCOC(=O)c1ccc(-c2c3nc(c(-c4c(F)c(F)c(F)c(F)c4F)c4ccc([nH]4)c(-c4c(F)c(F)c(F)c(F)c4F)c4nc(c(-c5c(F)c(F)c(F)c(F)c5F)c5ccc2[nH]5)C=C4)C=C3)cc1)NC(=O)OC(C)(C)C
REMARK SMILES IDX 11 1 10 2 9 3 8 4 7 5 5 6 6 7 4 8 3 9 2 10 1 11 85 12 86 13
REMARK SMILES IDX 87 15 88 16 89 17 90 18 91 19 92 20 12 21 13 22 14 23 15 24
REMARK SMILES IDX 16 25 17 26 18 27 19 28 20 29 21 30 22 31 23 32 84 33 24 34
REMARK SMILES IDX 83 35 25 36 26 37 27 38 77 39 28 40 82 41 76 42 78 43 29 44
REMARK SMILES IDX 81 45 75 46 74 47 30 49 62 50 42 51 61 52 43 53 46 54 60 55
REMARK SMILES IDX 79 56 44 57 45 58 59 60 80 61 47 62 31 63 32 64 40 65 33 66
REMARK SMILES IDX 34 67 38 68 41 69 35 70 36 71 39 72 37 73 63 74 64 75 72 76
REMARK SMILES IDX 65 77 66 78 70 79 73 80 67 81 68 82 71 83 69 84 48 85 49 86
REMARK SMILES IDX 57 87 50 88 51 89 55 90 58 91 52 92 53 93 56 94 54 95
REMARK H PARENT 85 14 78 48 46 59
REMARK Flexibility Score: inf
ROOT
ATOM      1  C   UNL A   1      31.977  23.011  26.988  1.00  0.00     0.188 C 
ENDROOT
BRANCH   1   2
ATOM      2  O   UNL A   1      31.361  22.828  25.735  1.00  0.00    -0.376 OA
BRANCH   2   3
ATOM      3  C   UNL A   1      31.326  23.874  24.787  1.00  0.00     0.202 C 
BRANCH   3   4
ATOM      4  C   UNL A   1      32.286  23.986  23.592  1.00  0.00     0.261 C 
BRANCH   4   5
ATOM      5  O   UNL A   1      31.854  24.744  22.456  1.00  0.00    -0.463 OA
BRANCH   5   6
ATOM      6  C   UNL A   1      32.736  25.630  21.956  1.00  0.00     0.305 C 
ATOM      7  O   UNL A   1      33.269  25.516  20.856  1.00  0.00    -0.252 OA
BRANCH   6   8
ATOM      8  C   UNL A   1      33.076  26.781  22.878  1.00  0.00     0.125 C 
BRANCH   8   9
ATOM      9  C   UNL A   1      32.386  28.149  22.913  1.00  0.00     0.036 C 
BRANCH   9  10
ATOM     10  C   UNL A   1      30.902  28.378  23.293  1.00  0.00     0.083 C 
ATOM     11  C   UNL A   1      30.120  27.222  23.901  1.00  0.00     0.031 C 
BRANCH  10  12
ATOM     12  N   UNL A   1      30.822  29.509  24.222  1.00  0.00    -0.319 N 
ATOM     13  C   UNL A   1      31.736  29.879  25.161  1.00  0.00     0.407 C 
ATOM     14  H   UNL A   1      30.012  30.067  24.160  1.00  0.00     0.167 HD
ATOM     15  O   UNL A   1      31.613  30.952  25.752  1.00  0.00    -0.225 OA
BRANCH  13  16
ATOM     16  O   UNL A   1      32.730  28.983  25.348  1.00  0.00    -0.444 OA
BRANCH  16  17
ATOM     17  C   UNL A   1      32.967  28.420  26.665  1.00  0.00     0.106 C 
ATOM     18  C   UNL A   1      33.987  29.261  27.443  1.00  0.00     0.056 C 
ATOM     19  C   UNL A   1      31.667  28.209  27.452  1.00  0.00     0.056 C 
ATOM     20  C   UNL A   1      33.587  27.041  26.407  1.00  0.00     0.056 C 
ENDBRANCH  16  17
ENDBRANCH  13  16
ENDBRANCH  10  12
ENDBRANCH   9  10
ENDBRANCH   8   9
ENDBRANCH   6   8
ENDBRANCH   5   6
ENDBRANCH   4   5
ENDBRANCH   3   4
ENDBRANCH   2   3
ENDBRANCH   1   2
BRANCH   1  21
ATOM     21  C   UNL A   1      33.478  23.342  26.911  1.00  0.00     0.188 C 
BRANCH  21  22
ATOM     22  O   UNL A   1      34.438  22.318  27.118  1.00  0.00    -0.377 OA
BRANCH  22  23
ATOM     23  C   UNL A   1      34.320  21.076  26.430  1.00  0.00     0.188 C 
BRANCH  23  24
ATOM     24  C   UNL A   1      34.723  20.927  24.945  1.00  0.00     0.188 C 
BRANCH  24  25
ATOM     25  O   UNL A   1      36.023  20.409  24.720  1.00  0.00    -0.376 OA
BRANCH  25  26
ATOM     26  C   UNL A   1      37.079  21.340  24.545  1.00  0.00     0.202 C 
BRANCH  26  27
ATOM     27  C   UNL A   1      38.356  21.100  25.366  1.00  0.00     0.261 C 
BRANCH  27  28
ATOM     28  O   UNL A   1      38.717  22.155  26.272  1.00  0.00    -0.460 OA
BRANCH  28  29
ATOM     29  C   UNL A   1      38.145  23.357  26.060  1.00  0.00     0.338 C 
ATOM     30  O   UNL A   1      37.075  23.589  25.521  1.00  0.00    -0.246 OA
BRANCH  29  31
ATOM     31  C   UNL A   1      38.964  24.374  26.736  1.00  0.00     0.060 A 
ATOM     32  C   UNL A   1      38.850  24.536  28.122  1.00  0.00     0.016 A 
ATOM     33  C   UNL A   1      39.808  25.197  25.990  1.00  0.00     0.016 A 
ATOM     34  C   UNL A   1      39.534  25.570  28.755  1.00  0.00     0.010 A 
ATOM     35  C   UNL A   1      40.500  26.229  26.626  1.00  0.00     0.010 A 
ATOM     36  C   UNL A   1      40.311  26.459  28.000  1.00  0.00    -0.014 A 
BRANCH  36  37
ATOM     37  C   UNL A   1      40.667  27.772  28.591  1.00  0.00     0.031 A 
ATOM     38  C   UNL A   1      42.123  28.040  28.875  1.00  0.00     0.074 A 
ATOM     39  C   UNL A   1      39.747  28.729  28.800  1.00  0.00     0.049 A 
ATOM     40  N   UNL A   1      42.698  29.110  29.360  1.00  0.00    -0.248 NA
ATOM     41  C   UNL A   1      43.060  26.943  28.574  1.00  0.00     0.031 C 
ATOM     42  C   UNL A   1      38.317  28.604  28.529  1.00  0.00     0.029 A 
ATOM     43  N   UNL A   1      39.890  30.006  29.282  1.00  0.00    -0.354 N 
ATOM     44  C   UNL A   1      44.053  28.807  29.434  1.00  0.00     0.074 A 
ATOM     45  C   UNL A   1      44.211  27.442  28.992  1.00  0.00     0.031 C 
ATOM     46  C   UNL A   1      37.713  29.765  28.840  1.00  0.00     0.029 A 
ATOM     47  C   UNL A   1      38.709  30.703  29.356  1.00  0.00     0.049 A 
ATOM     48  H   UNL A   1      40.758  30.387  29.550  1.00  0.00     0.167 HD
ATOM     49  C   UNL A   1      45.079  29.603  29.815  1.00  0.00     0.037 A 
ATOM     50  C   UNL A   1      38.468  31.952  29.798  1.00  0.00     0.037 A 
ATOM     51  C   UNL A   1      44.921  30.968  30.236  1.00  0.00     0.049 A 
ATOM     52  C   UNL A   1      39.623  32.802  30.271  1.00  0.00     0.074 A 
ATOM     53  C   UNL A   1      45.896  31.869  30.625  1.00  0.00     0.029 A 
ATOM     54  N   UNL A   1      43.704  31.627  30.330  1.00  0.00    -0.354 N 
ATOM     55  N   UNL A   1      40.904  32.520  30.308  1.00  0.00    -0.248 NA
ATOM     56  C   UNL A   1      39.296  34.152  30.750  1.00  0.00     0.031 C 
ATOM     57  C   UNL A   1      45.263  33.053  31.013  1.00  0.00     0.029 A 
ATOM     58  C   UNL A   1      43.902  32.917  30.794  1.00  0.00     0.049 A 
ATOM     59  H   UNL A   1      42.830  31.236  30.102  1.00  0.00     0.167 HD
ATOM     60  C   UNL A   1      41.537  33.670  30.770  1.00  0.00     0.074 A 
ATOM     61  C   UNL A   1      40.498  34.655  30.989  1.00  0.00     0.031 C 
ATOM     62  C   UNL A   1      42.858  33.892  30.987  1.00  0.00     0.037 A 
BRANCH  49  63
ATOM     63  C   UNL A   1      46.455  29.001  29.824  1.00  0.00     0.064 A 
ATOM     64  C   UNL A   1      47.012  28.429  30.979  1.00  0.00     0.173 A 
ATOM     65  C   UNL A   1      47.226  28.987  28.652  1.00  0.00     0.173 A 
ATOM     66  F   UNL A   1      46.326  28.433  32.133  1.00  0.00    -0.203 F 
ATOM     67  C   UNL A   1      48.300  27.901  30.968  1.00  0.00     0.198 A 
ATOM     68  C   UNL A   1      48.499  28.425  28.635  1.00  0.00     0.198 A 
ATOM     69  F   UNL A   1      46.744  29.519  27.519  1.00  0.00    -0.203 F 
ATOM     70  F   UNL A   1      48.835  27.419  32.099  1.00  0.00    -0.200 F 
ATOM     71  C   UNL A   1      49.040  27.892  29.795  1.00  0.00     0.200 A 
ATOM     72  F   UNL A   1      49.206  28.404  27.497  1.00  0.00    -0.200 F 
ATOM     73  F   UNL A   1      50.277  27.377  29.785  1.00  0.00    -0.200 F 
ENDBRANCH  49  63
BRANCH  50  74
ATOM     74  C   UNL A   1      37.080  32.492  29.806  1.00  0.00     0.064 A 
ATOM     75  C   UNL A   1      36.572  33.205  28.711  1.00  0.00     0.173 A 
ATOM     76  C   UNL A   1      36.247  32.339  30.924  1.00  0.00     0.173 A 
ATOM     77  F   UNL A   1      37.337  33.402  27.627  1.00  0.00    -0.203 F 
ATOM     78  C   UNL A   1      35.298  33.768  28.745  1.00  0.00     0.198 A 
ATOM     79  C   UNL A   1      34.961  32.874  30.944  1.00  0.00     0.198 A 
ATOM     80  F   UNL A   1      36.683  31.667  32.000  1.00  0.00    -0.203 F 
ATOM     81  F   UNL A   1      34.861  34.495  27.708  1.00  0.00    -0.200 F 
ATOM     82  C   UNL A   1      34.491  33.598  29.859  1.00  0.00     0.200 A 
ATOM     83  F   UNL A   1      34.180  32.695  32.018  1.00  0.00    -0.200 F 
ATOM     84  F   UNL A   1      33.266  34.139  29.891  1.00  0.00    -0.200 F 
ENDBRANCH  50  74
BRANCH  62  85
ATOM     85  C   UNL A   1      43.266  35.274  31.416  1.00  0.00     0.064 A 
ATOM     86  C   UNL A   1      43.653  36.259  30.495  1.00  0.00     0.173 A 
ATOM     87  C   UNL A   1      43.243  35.624  32.776  1.00  0.00     0.173 A 
ATOM     88  F   UNL A   1      43.700  35.977  29.184  1.00  0.00    -0.203 F 
ATOM     89  C   UNL A   1      44.043  37.526  30.923  1.00  0.00     0.198 A 
ATOM     90  C   UNL A   1      43.595  36.904  33.196  1.00  0.00     0.198 A 
ATOM     91  F   UNL A   1      42.868  34.726  33.700  1.00  0.00    -0.203 F 
ATOM     92  F   UNL A   1      44.473  38.428  30.030  1.00  0.00    -0.200 F 
ATOM     93  C   UNL A   1      44.008  37.849  32.271  1.00  0.00     0.200 A 
ATOM     94  F   UNL A   1      43.539  37.218  34.497  1.00  0.00    -0.200 F 
ATOM     95  F   UNL A   1      44.381  39.070  32.680  1.00  0.00    -0.200 F 
ENDBRANCH  62  85
ENDBRANCH  36  37
ENDBRANCH  29  31
ENDBRANCH  28  29
ENDBRANCH  27  28
ENDBRANCH  26  27
ENDBRANCH  25  26
ENDBRANCH  24  25
ENDBRANCH  23  24
ENDBRANCH  22  23
ENDBRANCH  21  22
ENDBRANCH   1  21
TORSDOF 25
ENDMDL
