MODEL 1
REMARK VINA RESULT:     -10.5      0.000      0.000
REMARK SMILES Cc1cc(=O)cc(C)n1C[C@H]1CCCC[C@@H]1C(=O)OCCOCCOCCOCCOC(=O)c1ccc(-c2c3nc(c(-c4c(F)c(F)c(F)c(F)c4F)c4ccc([nH]4)c(-c4c(F)c(F)c(F)c(F)c4F)c4nc(c(-c5c(F)c(F)c(F)c(F)c5F)c5ccc2[nH]5)C=C4)C=C3)cc1
REMARK SMILES IDX 25 1 24 2 23 3 22 4 21 5 20 6 19 7 17 8 18 9 16 10 11 11
REMARK SMILES IDX 12 12 13 13 15 14 14 15 10 16 9 17 1 18 2 19 3 20 4 21 7 22
REMARK SMILES IDX 5 23 6 24 8 25 26 26 27 27 28 28 29 29 30 30 31 31 32 32
REMARK SMILES IDX 33 33 34 34 35 35 96 36 36 37 95 38 37 39 38 40 39 41 89 42
REMARK SMILES IDX 40 43 94 44 88 45 90 46 41 47 93 48 87 49 86 50 42 52 74 53
REMARK SMILES IDX 54 54 73 55 55 56 58 57 72 58 91 59 56 60 57 61 71 63 92 64
REMARK SMILES IDX 59 65 43 66 44 67 52 68 45 69 46 70 50 71 53 72 47 73 48 74
REMARK SMILES IDX 51 75 49 76 75 77 76 78 84 79 77 80 78 81 82 82 85 83 79 84
REMARK SMILES IDX 80 85 83 86 81 87 60 88 61 89 69 90 62 91 63 92 67 93 70 94
REMARK SMILES IDX 64 95 65 96 68 97 66 98
REMARK H PARENT 90 51 58 62
REMARK Flexibility Score: inf
ROOT
ATOM      1  O   UNL A   1      30.882  29.228  22.497  1.00  0.00    -0.377 OA
ENDROOT
BRANCH   1   2
ATOM      2  C   UNL A   1      31.789  28.151  22.713  1.00  0.00     0.188 C 
BRANCH   2   3
ATOM      3  C   UNL A   1      33.325  28.366  22.682  1.00  0.00     0.188 C 
BRANCH   3   4
ATOM      4  O   UNL A   1      34.002  28.045  23.891  1.00  0.00    -0.376 OA
BRANCH   4   5
ATOM      5  C   UNL A   1      33.697  28.711  25.102  1.00  0.00     0.202 C 
BRANCH   5   6
ATOM      6  C   UNL A   1      33.493  27.823  26.341  1.00  0.00     0.261 C 
BRANCH   6   7
ATOM      7  O   UNL A   1      33.577  26.417  26.078  1.00  0.00    -0.463 OA
BRANCH   7   8
ATOM      8  C   UNL A   1      32.387  25.779  26.042  1.00  0.00     0.309 C 
ATOM      9  O   UNL A   1      31.364  26.280  25.592  1.00  0.00    -0.252 OA
BRANCH   8  10
ATOM     10  C   UNL A   1      32.484  24.321  26.505  1.00  0.00     0.104 C 
ATOM     11  C   UNL A   1      33.774  23.750  25.875  1.00  0.00     0.023 C 
ATOM     12  C   UNL A   1      33.530  23.738  24.351  1.00  0.00     0.006 C 
ATOM     13  C   UNL A   1      32.329  22.887  23.946  1.00  0.00     0.000 C 
ATOM     14  C   UNL A   1      31.247  23.478  26.158  1.00  0.00     0.016 C 
ATOM     15  C   UNL A   1      31.050  23.327  24.653  1.00  0.00     0.001 C 
BRANCH  11  16
ATOM     16  C   UNL A   1      34.205  22.398  26.507  1.00  0.00     0.126 C 
BRANCH  16  17
ATOM     17  N   UNL A   1      35.337  21.769  25.758  1.00  0.00    -0.349 N 
ATOM     18  C   UNL A   1      33.831  19.944  24.795  1.00  0.00     0.064 C 
ATOM     19  C   UNL A   1      35.195  20.493  25.142  1.00  0.00     0.018 A 
ATOM     20  C   UNL A   1      36.257  19.752  24.773  1.00  0.00     0.073 A 
ATOM     21  C   UNL A   1      37.618  20.263  25.001  1.00  0.00     0.182 A 
ATOM     22  C   UNL A   1      36.627  22.359  25.742  1.00  0.00     0.018 A 
ATOM     23  O   UNL A   1      38.608  19.579  24.769  1.00  0.00    -0.290 OA
ATOM     24  C   UNL A   1      37.735  21.662  25.435  1.00  0.00     0.073 A 
ATOM     25  C   UNL A   1      36.832  23.836  25.977  1.00  0.00     0.064 C 
ENDBRANCH  16  17
ENDBRANCH  11  16
ENDBRANCH   8  10
ENDBRANCH   7   8
ENDBRANCH   6   7
ENDBRANCH   5   6
ENDBRANCH   4   5
ENDBRANCH   3   4
ENDBRANCH   2   3
ENDBRANCH   1   2
BRANCH   1  26
ATOM     26  C   UNL A   1      29.818  29.382  23.422  1.00  0.00     0.188 C 
BRANCH  26  27
ATOM     27  C   UNL A   1      29.298  30.830  23.507  1.00  0.00     0.188 C 
BRANCH  27  28
ATOM     28  O   UNL A   1      29.765  31.550  24.630  1.00  0.00    -0.376 OA
BRANCH  28  29
ATOM     29  C   UNL A   1      30.889  31.116  25.374  1.00  0.00     0.202 C 
BRANCH  29  30
ATOM     30  C   UNL A   1      31.422  31.769  26.667  1.00  0.00     0.261 C 
BRANCH  30  31
ATOM     31  O   UNL A   1      32.796  31.595  27.019  1.00  0.00    -0.460 OA
BRANCH  31  32
ATOM     32  C   UNL A   1      33.466  32.648  27.524  1.00  0.00     0.338 C 
ATOM     33  O   UNL A   1      33.062  33.789  27.663  1.00  0.00    -0.246 OA
BRANCH  32  34
ATOM     34  C   UNL A   1      34.722  32.108  28.089  1.00  0.00     0.060 A 
ATOM     35  C   UNL A   1      34.776  30.759  28.473  1.00  0.00     0.016 A 
ATOM     36  C   UNL A   1      35.860  32.914  28.169  1.00  0.00     0.016 A 
ATOM     37  C   UNL A   1      35.964  30.218  28.957  1.00  0.00     0.010 A 
ATOM     38  C   UNL A   1      37.036  32.387  28.703  1.00  0.00     0.010 A 
ATOM     39  C   UNL A   1      37.079  31.048  29.128  1.00  0.00    -0.014 A 
BRANCH  39  40
ATOM     40  C   UNL A   1      38.182  30.594  30.000  1.00  0.00     0.031 A 
ATOM     41  C   UNL A   1      39.157  29.609  29.419  1.00  0.00     0.074 A 
ATOM     42  C   UNL A   1      38.334  31.057  31.250  1.00  0.00     0.049 A 
ATOM     43  N   UNL A   1      40.167  29.004  29.986  1.00  0.00    -0.248 NA
ATOM     44  C   UNL A   1      38.965  29.261  28.000  1.00  0.00     0.031 C 
ATOM     45  C   UNL A   1      37.493  32.065  31.888  1.00  0.00     0.029 A 
ATOM     46  N   UNL A   1      39.259  30.728  32.210  1.00  0.00    -0.354 N 
ATOM     47  C   UNL A   1      40.727  28.209  28.995  1.00  0.00     0.074 A 
ATOM     48  C   UNL A   1      39.932  28.381  27.801  1.00  0.00     0.031 C 
ATOM     49  C   UNL A   1      37.934  32.267  33.142  1.00  0.00     0.029 A 
ATOM     50  C   UNL A   1      39.063  31.374  33.405  1.00  0.00     0.049 A 
ATOM     51  H   UNL A   1      39.992  30.091  32.055  1.00  0.00     0.167 HD
ATOM     52  C   UNL A   1      41.818  27.414  29.075  1.00  0.00     0.037 A 
ATOM     53  C   UNL A   1      39.712  31.236  34.578  1.00  0.00     0.037 A 
ATOM     54  C   UNL A   1      42.595  27.240  30.271  1.00  0.00     0.049 A 
ATOM     55  C   UNL A   1      40.859  30.259  34.672  1.00  0.00     0.074 A 
ATOM     56  C   UNL A   1      43.709  26.444  30.465  1.00  0.00     0.029 A 
ATOM     57  N   UNL A   1      42.333  27.868  31.480  1.00  0.00    -0.354 N 
ATOM     58  N   UNL A   1      41.384  29.505  33.738  1.00  0.00    -0.248 NA
ATOM     59  C   UNL A   1      41.501  30.116  35.987  1.00  0.00     0.031 C 
ATOM     60  C   UNL A   1      44.088  26.548  31.805  1.00  0.00     0.029 A 
ATOM     61  C   UNL A   1      43.251  27.459  32.431  1.00  0.00     0.049 A 
ATOM     62  H   UNL A   1      41.602  28.509  31.637  1.00  0.00     0.167 HD
ATOM     63  C   UNL A   1      42.435  28.823  34.338  1.00  0.00     0.074 A 
ATOM     64  C   UNL A   1      42.479  29.262  35.718  1.00  0.00     0.031 C 
ATOM     65  C   UNL A   1      43.288  27.918  33.797  1.00  0.00     0.037 A 
BRANCH  52  66
ATOM     66  C   UNL A   1      42.221  26.658  27.844  1.00  0.00     0.064 A 
ATOM     67  C   UNL A   1      43.082  27.215  26.889  1.00  0.00     0.173 A 
ATOM     68  C   UNL A   1      41.780  25.341  27.647  1.00  0.00     0.173 A 
ATOM     69  F   UNL A   1      43.512  28.478  27.021  1.00  0.00    -0.203 F 
ATOM     70  C   UNL A   1      43.481  26.484  25.773  1.00  0.00     0.198 A 
ATOM     71  C   UNL A   1      42.206  24.602  26.546  1.00  0.00     0.198 A 
ATOM     72  F   UNL A   1      40.950  24.765  28.529  1.00  0.00    -0.203 F 
ATOM     73  F   UNL A   1      44.276  27.047  24.854  1.00  0.00    -0.200 F 
ATOM     74  C   UNL A   1      43.052  25.175  25.609  1.00  0.00     0.200 A 
ATOM     75  F   UNL A   1      41.800  23.334  26.396  1.00  0.00    -0.200 F 
ATOM     76  F   UNL A   1      43.454  24.465  24.546  1.00  0.00    -0.200 F 
ENDBRANCH  52  66
BRANCH  53  77
ATOM     77  C   UNL A   1      39.294  32.042  35.754  1.00  0.00     0.064 A 
ATOM     78  C   UNL A   1      39.829  33.318  35.981  1.00  0.00     0.173 A 
ATOM     79  C   UNL A   1      38.350  31.560  36.674  1.00  0.00     0.173 A 
ATOM     80  F   UNL A   1      40.755  33.813  35.146  1.00  0.00    -0.203 F 
ATOM     81  C   UNL A   1      39.441  34.078  37.083  1.00  0.00     0.198 A 
ATOM     82  C   UNL A   1      37.940  32.333  37.759  1.00  0.00     0.198 A 
ATOM     83  F   UNL A   1      37.810  30.344  36.507  1.00  0.00    -0.203 F 
ATOM     84  F   UNL A   1      39.996  35.279  37.294  1.00  0.00    -0.200 F 
ATOM     85  C   UNL A   1      38.491  33.589  37.966  1.00  0.00     0.200 A 
ATOM     86  F   UNL A   1      37.011  31.861  38.602  1.00  0.00    -0.200 F 
ATOM     87  F   UNL A   1      38.108  34.325  39.017  1.00  0.00    -0.200 F 
ENDBRANCH  53  77
BRANCH  65  88
ATOM     88  C   UNL A   1      44.370  27.360  34.677  1.00  0.00     0.064 A 
ATOM     89  C   UNL A   1      45.611  27.998  34.815  1.00  0.00     0.173 A 
ATOM     90  C   UNL A   1      44.128  26.219  35.458  1.00  0.00     0.173 A 
ATOM     91  F   UNL A   1      45.895  29.087  34.084  1.00  0.00    -0.203 F 
ATOM     92  C   UNL A   1      46.575  27.504  35.689  1.00  0.00     0.198 A 
ATOM     93  C   UNL A   1      45.081  25.748  36.356  1.00  0.00     0.198 A 
ATOM     94  F   UNL A   1      42.952  25.578  35.374  1.00  0.00    -0.203 F 
ATOM     95  F   UNL A   1      47.769  28.108  35.776  1.00  0.00    -0.200 F 
ATOM     96  C   UNL A   1      46.307  26.388  36.466  1.00  0.00     0.200 A 
ATOM     97  F   UNL A   1      44.810  24.682  37.122  1.00  0.00    -0.200 F 
ATOM     98  F   UNL A   1      47.229  25.927  37.323  1.00  0.00    -0.200 F 
ENDBRANCH  65  88
ENDBRANCH  39  40
ENDBRANCH  32  34
ENDBRANCH  31  32
ENDBRANCH  30  31
ENDBRANCH  29  30
ENDBRANCH  28  29
ENDBRANCH  27  28
ENDBRANCH  26  27
ENDBRANCH   1  26
TORSDOF 22
ENDMDL
MODEL 2
REMARK VINA RESULT:     -10.1      1.166      2.198
REMARK SMILES Cc1cc(=O)cc(C)n1C[C@H]1CCCC[C@@H]1C(=O)OCCOCCOCCOCCOC(=O)c1ccc(-c2c3nc(c(-c4c(F)c(F)c(F)c(F)c4F)c4ccc([nH]4)c(-c4c(F)c(F)c(F)c(F)c4F)c4nc(c(-c5c(F)c(F)c(F)c(F)c5F)c5ccc2[nH]5)C=C4)C=C3)cc1
REMARK SMILES IDX 25 1 24 2 23 3 22 4 21 5 20 6 19 7 17 8 18 9 16 10 11 11
REMARK SMILES IDX 12 12 13 13 15 14 14 15 10 16 9 17 1 18 2 19 3 20 4 21 7 22
REMARK SMILES IDX 5 23 6 24 8 25 26 26 27 27 28 28 29 29 30 30 31 31 32 32
REMARK SMILES IDX 33 33 34 34 35 35 96 36 36 37 95 38 37 39 38 40 39 41 89 42
REMARK SMILES IDX 40 43 94 44 88 45 90 46 41 47 93 48 87 49 86 50 42 52 74 53
REMARK SMILES IDX 54 54 73 55 55 56 58 57 72 58 91 59 56 60 57 61 71 63 92 64
REMARK SMILES IDX 59 65 43 66 44 67 52 68 45 69 46 70 50 71 53 72 47 73 48 74
REMARK SMILES IDX 51 75 49 76 75 77 76 78 84 79 77 80 78 81 82 82 85 83 79 84
REMARK SMILES IDX 80 85 83 86 81 87 60 88 61 89 69 90 62 91 63 92 67 93 70 94
REMARK SMILES IDX 64 95 65 96 68 97 66 98
REMARK H PARENT 90 51 58 62
REMARK Flexibility Score: inf
ROOT
ATOM      1  O   UNL A   1      30.283  27.923  21.767  1.00  0.00    -0.377 OA
ENDROOT
BRANCH   1   2
ATOM      2  C   UNL A   1      31.397  27.075  22.030  1.00  0.00     0.188 C 
BRANCH   2   3
ATOM      3  C   UNL A   1      32.646  27.590  22.793  1.00  0.00     0.188 C 
BRANCH   3   4
ATOM      4  O   UNL A   1      32.873  26.982  24.058  1.00  0.00    -0.376 OA
BRANCH   4   5
ATOM      5  C   UNL A   1      31.803  26.454  24.820  1.00  0.00     0.202 C 
BRANCH   5   6
ATOM      6  C   UNL A   1      32.115  26.090  26.282  1.00  0.00     0.261 C 
BRANCH   6   7
ATOM      7  O   UNL A   1      33.339  25.366  26.460  1.00  0.00    -0.463 OA
BRANCH   7   8
ATOM      8  C   UNL A   1      33.207  24.022  26.419  1.00  0.00     0.309 C 
ATOM      9  O   UNL A   1      32.574  23.379  27.248  1.00  0.00    -0.252 OA
BRANCH   8  10
ATOM     10  C   UNL A   1      33.824  23.405  25.160  1.00  0.00     0.104 C 
ATOM     11  C   UNL A   1      34.338  22.005  25.569  1.00  0.00     0.023 C 
ATOM     12  C   UNL A   1      35.483  22.253  26.573  1.00  0.00     0.006 C 
ATOM     13  C   UNL A   1      36.625  23.077  25.985  1.00  0.00     0.000 C 
ATOM     14  C   UNL A   1      34.929  24.265  24.527  1.00  0.00     0.016 C 
ATOM     15  C   UNL A   1      36.141  24.419  25.439  1.00  0.00     0.001 C 
BRANCH  11  16
ATOM     16  C   UNL A   1      34.684  21.111  24.347  1.00  0.00     0.126 C 
BRANCH  16  17
ATOM     17  N   UNL A   1      34.373  19.670  24.605  1.00  0.00    -0.349 N 
ATOM     18  C   UNL A   1      36.839  19.077  24.905  1.00  0.00     0.064 C 
ATOM     19  C   UNL A   1      35.403  18.688  24.642  1.00  0.00     0.018 A 
ATOM     20  C   UNL A   1      35.145  17.372  24.521  1.00  0.00     0.073 A 
ATOM     21  C   UNL A   1      33.757  16.914  24.349  1.00  0.00     0.182 A 
ATOM     22  C   UNL A   1      33.033  19.212  24.694  1.00  0.00     0.018 A 
ATOM     23  O   UNL A   1      33.492  15.736  24.139  1.00  0.00    -0.290 OA
ATOM     24  C   UNL A   1      32.701  17.919  24.530  1.00  0.00     0.073 A 
ATOM     25  C   UNL A   1      31.899  20.132  25.075  1.00  0.00     0.064 C 
ENDBRANCH  16  17
ENDBRANCH  11  16
ENDBRANCH   8  10
ENDBRANCH   7   8
ENDBRANCH   6   7
ENDBRANCH   5   6
ENDBRANCH   4   5
ENDBRANCH   3   4
ENDBRANCH   2   3
ENDBRANCH   1   2
BRANCH   1  26
ATOM     26  C   UNL A   1      29.620  28.495  22.883  1.00  0.00     0.188 C 
BRANCH  26  27
ATOM     27  C   UNL A   1      29.854  30.013  23.010  1.00  0.00     0.188 C 
BRANCH  27  28
ATOM     28  O   UNL A   1      30.024  30.465  24.338  1.00  0.00    -0.376 OA
BRANCH  28  29
ATOM     29  C   UNL A   1      31.236  30.262  25.041  1.00  0.00     0.202 C 
BRANCH  29  30
ATOM     30  C   UNL A   1      31.615  30.906  26.391  1.00  0.00     0.261 C 
BRANCH  30  31
ATOM     31  O   UNL A   1      32.968  30.833  26.843  1.00  0.00    -0.460 OA
BRANCH  31  32
ATOM     32  C   UNL A   1      33.516  31.928  27.403  1.00  0.00     0.338 C 
ATOM     33  O   UNL A   1      32.992  33.012  27.586  1.00  0.00    -0.246 OA
BRANCH  32  34
ATOM     34  C   UNL A   1      34.817  31.499  27.964  1.00  0.00     0.060 A 
ATOM     35  C   UNL A   1      35.016  30.145  28.273  1.00  0.00     0.016 A 
ATOM     36  C   UNL A   1      35.856  32.421  28.113  1.00  0.00     0.016 A 
ATOM     37  C   UNL A   1      36.250  29.712  28.752  1.00  0.00     0.010 A 
ATOM     38  C   UNL A   1      37.076  31.997  28.642  1.00  0.00     0.010 A 
ATOM     39  C   UNL A   1      37.262  30.649  28.992  1.00  0.00    -0.014 A 
BRANCH  39  40
ATOM     40  C   UNL A   1      38.396  30.271  29.861  1.00  0.00     0.031 A 
ATOM     41  C   UNL A   1      39.409  29.317  29.293  1.00  0.00     0.074 A 
ATOM     42  C   UNL A   1      38.542  30.775  31.096  1.00  0.00     0.049 A 
ATOM     43  N   UNL A   1      40.453  28.775  29.862  1.00  0.00    -0.248 NA
ATOM     44  C   UNL A   1      39.215  28.922  27.886  1.00  0.00     0.031 C 
ATOM     45  C   UNL A   1      37.662  31.760  31.718  1.00  0.00     0.029 A 
ATOM     46  N   UNL A   1      39.493  30.516  32.051  1.00  0.00    -0.354 N 
ATOM     47  C   UNL A   1      41.037  27.981  28.885  1.00  0.00     0.074 A 
ATOM     48  C   UNL A   1      40.220  28.083  27.698  1.00  0.00     0.031 C 
ATOM     49  C   UNL A   1      38.110  32.017  32.960  1.00  0.00     0.029 A 
ATOM     50  C   UNL A   1      39.282  31.185  33.231  1.00  0.00     0.049 A 
ATOM     51  H   UNL A   1      40.254  29.910  31.904  1.00  0.00     0.167 HD
ATOM     52  C   UNL A   1      42.165  27.240  28.971  1.00  0.00     0.037 A 
ATOM     53  C   UNL A   1      39.952  31.109  34.398  1.00  0.00     0.037 A 
ATOM     54  C   UNL A   1      42.965  27.135  30.161  1.00  0.00     0.049 A 
ATOM     55  C   UNL A   1      41.144  30.190  34.503  1.00  0.00     0.074 A 
ATOM     56  C   UNL A   1      44.118  26.398  30.360  1.00  0.00     0.029 A 
ATOM     57  N   UNL A   1      42.688  27.784  31.355  1.00  0.00    -0.354 N 
ATOM     58  N   UNL A   1      41.692  29.436  33.582  1.00  0.00    -0.248 NA
ATOM     59  C   UNL A   1      41.809  30.113  35.812  1.00  0.00     0.031 C 
ATOM     60  C   UNL A   1      44.508  26.556  31.692  1.00  0.00     0.029 A 
ATOM     61  C   UNL A   1      43.637  27.444  32.305  1.00  0.00     0.049 A 
ATOM     62  H   UNL A   1      41.931  28.394  31.506  1.00  0.00     0.167 HD
ATOM     63  C   UNL A   1      42.782  28.820  34.186  1.00  0.00     0.074 A 
ATOM     64  C   UNL A   1      42.822  29.298  35.553  1.00  0.00     0.031 C 
ATOM     65  C   UNL A   1      43.669  27.941  33.658  1.00  0.00     0.037 A 
BRANCH  52  66
ATOM     66  C   UNL A   1      42.588  26.470  27.756  1.00  0.00     0.064 A 
ATOM     67  C   UNL A   1      43.516  26.990  26.842  1.00  0.00     0.173 A 
ATOM     68  C   UNL A   1      42.097  25.176  27.532  1.00  0.00     0.173 A 
ATOM     69  F   UNL A   1      43.997  28.232  27.000  1.00  0.00    -0.203 F 
ATOM     70  C   UNL A   1      43.930  26.245  25.741  1.00  0.00     0.198 A 
ATOM     71  C   UNL A   1      42.537  24.421  26.447  1.00  0.00     0.198 A 
ATOM     72  F   UNL A   1      41.203  24.635  28.373  1.00  0.00    -0.203 F 
ATOM     73  F   UNL A   1      44.791  26.774  24.862  1.00  0.00    -0.200 F 
ATOM     74  C   UNL A   1      43.450  24.958  25.552  1.00  0.00     0.200 A 
ATOM     75  F   UNL A   1      42.080  23.174  26.272  1.00  0.00    -0.200 F 
ATOM     76  F   UNL A   1      43.866  24.233  24.504  1.00  0.00    -0.200 F 
ENDBRANCH  52  66
BRANCH  53  77
ATOM     77  C   UNL A   1      39.511  31.927  35.558  1.00  0.00     0.064 A 
ATOM     78  C   UNL A   1      40.040  33.206  35.781  1.00  0.00     0.173 A 
ATOM     79  C   UNL A   1      38.551  31.453  36.465  1.00  0.00     0.173 A 
ATOM     80  F   UNL A   1      40.980  33.694  34.958  1.00  0.00    -0.203 F 
ATOM     81  C   UNL A   1      39.630  33.977  36.868  1.00  0.00     0.198 A 
ATOM     82  C   UNL A   1      38.120  32.236  37.535  1.00  0.00     0.198 A 
ATOM     83  F   UNL A   1      38.016  30.234  36.302  1.00  0.00    -0.203 F 
ATOM     84  F   UNL A   1      40.180  35.181  37.076  1.00  0.00    -0.200 F 
ATOM     85  C   UNL A   1      38.665  33.495  37.738  1.00  0.00     0.200 A 
ATOM     86  F   UNL A   1      37.177  31.771  38.366  1.00  0.00    -0.200 F 
ATOM     87  F   UNL A   1      38.262  34.242  38.775  1.00  0.00    -0.200 F 
ENDBRANCH  53  77
BRANCH  65  88
ATOM     88  C   UNL A   1      44.788  27.459  34.537  1.00  0.00     0.064 A 
ATOM     89  C   UNL A   1      44.683  26.276  35.281  1.00  0.00     0.173 A 
ATOM     90  C   UNL A   1      46.012  28.147  34.564  1.00  0.00     0.173 A 
ATOM     91  F   UNL A   1      43.533  25.586  35.295  1.00  0.00    -0.203 F 
ATOM     92  C   UNL A   1      45.757  25.808  36.034  1.00  0.00     0.198 A 
ATOM     93  C   UNL A   1      47.093  27.659  35.292  1.00  0.00     0.198 A 
ATOM     94  F   UNL A   1      46.169  29.278  33.860  1.00  0.00    -0.203 F 
ATOM     95  F   UNL A   1      45.623  24.695  36.768  1.00  0.00    -0.200 F 
ATOM     96  C   UNL A   1      46.963  26.493  36.030  1.00  0.00     0.200 A 
ATOM     97  F   UNL A   1      48.264  28.310  35.268  1.00  0.00    -0.200 F 
ATOM     98  F   UNL A   1      48.002  26.029  36.740  1.00  0.00    -0.200 F 
ENDBRANCH  65  88
ENDBRANCH  39  40
ENDBRANCH  32  34
ENDBRANCH  31  32
ENDBRANCH  30  31
ENDBRANCH  29  30
ENDBRANCH  28  29
ENDBRANCH  27  28
ENDBRANCH  26  27
ENDBRANCH   1  26
TORSDOF 22
ENDMDL
MODEL 3
REMARK VINA RESULT:      -9.5      1.617      2.933
REMARK SMILES Cc1cc(=O)cc(C)n1C[C@H]1CCCC[C@@H]1C(=O)OCCOCCOCCOCCOC(=O)c1ccc(-c2c3nc(c(-c4c(F)c(F)c(F)c(F)c4F)c4ccc([nH]4)c(-c4c(F)c(F)c(F)c(F)c4F)c4nc(c(-c5c(F)c(F)c(F)c(F)c5F)c5ccc2[nH]5)C=C4)C=C3)cc1
REMARK SMILES IDX 25 1 24 2 23 3 22 4 21 5 20 6 19 7 17 8 18 9 16 10 11 11
REMARK SMILES IDX 12 12 13 13 15 14 14 15 10 16 9 17 1 18 2 19 3 20 4 21 7 22
REMARK SMILES IDX 5 23 6 24 8 25 26 26 27 27 28 28 29 29 30 30 31 31 32 32
REMARK SMILES IDX 33 33 34 34 35 35 96 36 36 37 95 38 37 39 38 40 39 41 89 42
REMARK SMILES IDX 40 43 94 44 88 45 90 46 41 47 93 48 87 49 86 50 42 52 74 53
REMARK SMILES IDX 54 54 73 55 55 56 58 57 72 58 91 59 56 60 57 61 71 63 92 64
REMARK SMILES IDX 59 65 43 66 44 67 52 68 45 69 46 70 50 71 53 72 47 73 48 74
REMARK SMILES IDX 51 75 49 76 75 77 76 78 84 79 77 80 78 81 82 82 85 83 79 84
REMARK SMILES IDX 80 85 83 86 81 87 60 88 61 89 69 90 62 91 63 92 67 93 70 94
REMARK SMILES IDX 64 95 65 96 68 97 66 98
REMARK H PARENT 90 51 58 62
REMARK Flexibility Score: inf
ROOT
ATOM      1  O   UNL A   1      31.037  27.227  21.498  1.00  0.00    -0.377 OA
ENDROOT
BRANCH   1   2
ATOM      2  C   UNL A   1      31.489  25.964  21.978  1.00  0.00     0.188 C 
BRANCH   2   3
ATOM      3  C   UNL A   1      32.928  25.772  22.524  1.00  0.00     0.188 C 
BRANCH   3   4
ATOM      4  O   UNL A   1      33.650  24.689  21.951  1.00  0.00    -0.376 OA
BRANCH   4   5
ATOM      5  C   UNL A   1      32.979  23.576  21.390  1.00  0.00     0.202 C 
BRANCH   5   6
ATOM      6  C   UNL A   1      32.511  22.489  22.373  1.00  0.00     0.261 C 
BRANCH   6   7
ATOM      7  O   UNL A   1      32.946  22.691  23.723  1.00  0.00    -0.463 OA
BRANCH   7   8
ATOM      8  C   UNL A   1      34.012  21.946  24.089  1.00  0.00     0.309 C 
ATOM      9  O   UNL A   1      33.959  20.736  24.277  1.00  0.00    -0.252 OA
BRANCH   8  10
ATOM     10  C   UNL A   1      35.316  22.750  24.115  1.00  0.00     0.104 C 
ATOM     11  C   UNL A   1      36.289  21.970  25.028  1.00  0.00     0.023 C 
ATOM     12  C   UNL A   1      35.678  22.031  26.444  1.00  0.00     0.006 C 
ATOM     13  C   UNL A   1      35.507  23.457  26.960  1.00  0.00     0.000 C 
ATOM     14  C   UNL A   1      35.135  24.207  24.569  1.00  0.00     0.016 C 
ATOM     15  C   UNL A   1      34.663  24.310  26.016  1.00  0.00     0.001 C 
BRANCH  11  16
ATOM     16  C   UNL A   1      37.758  22.459  24.897  1.00  0.00     0.126 C 
BRANCH  16  17
ATOM     17  N   UNL A   1      38.688  21.665  25.760  1.00  0.00    -0.349 N 
ATOM     18  C   UNL A   1      39.211  23.681  27.241  1.00  0.00     0.064 C 
ATOM     19  C   UNL A   1      39.533  22.301  26.714  1.00  0.00     0.018 A 
ATOM     20  C   UNL A   1      40.605  21.685  27.246  1.00  0.00     0.073 A 
ATOM     21  C   UNL A   1      40.930  20.307  26.843  1.00  0.00     0.182 A 
ATOM     22  C   UNL A   1      38.855  20.269  25.571  1.00  0.00     0.018 A 
ATOM     23  O   UNL A   1      41.949  19.749  27.230  1.00  0.00    -0.290 OA
ATOM     24  C   UNL A   1      39.929  19.603  26.030  1.00  0.00     0.073 A 
ATOM     25  C   UNL A   1      37.789  19.419  24.924  1.00  0.00     0.064 C 
ENDBRANCH  16  17
ENDBRANCH  11  16
ENDBRANCH   8  10
ENDBRANCH   7   8
ENDBRANCH   6   7
ENDBRANCH   5   6
ENDBRANCH   4   5
ENDBRANCH   3   4
ENDBRANCH   2   3
ENDBRANCH   1   2
BRANCH   1  26
ATOM     26  C   UNL A   1      30.657  28.195  22.463  1.00  0.00     0.188 C 
BRANCH  26  27
ATOM     27  C   UNL A   1      29.882  27.591  23.650  1.00  0.00     0.188 C 
BRANCH  27  28
ATOM     28  O   UNL A   1      30.396  27.942  24.918  1.00  0.00    -0.376 OA
BRANCH  28  29
ATOM     29  C   UNL A   1      31.313  29.011  25.077  1.00  0.00     0.202 C 
BRANCH  29  30
ATOM     30  C   UNL A   1      32.625  28.960  25.887  1.00  0.00     0.261 C 
BRANCH  30  31
ATOM     31  O   UNL A   1      33.489  30.097  25.883  1.00  0.00    -0.460 OA
BRANCH  31  32
ATOM     32  C   UNL A   1      33.544  30.865  26.988  1.00  0.00     0.338 C 
ATOM     33  O   UNL A   1      32.637  31.498  27.499  1.00  0.00    -0.246 OA
BRANCH  32  34
ATOM     34  C   UNL A   1      34.868  30.617  27.600  1.00  0.00     0.060 A 
ATOM     35  C   UNL A   1      35.229  29.306  27.946  1.00  0.00     0.016 A 
ATOM     36  C   UNL A   1      35.775  31.667  27.760  1.00  0.00     0.016 A 
ATOM     37  C   UNL A   1      36.490  29.044  28.473  1.00  0.00     0.010 A 
ATOM     38  C   UNL A   1      37.020  31.414  28.337  1.00  0.00     0.010 A 
ATOM     39  C   UNL A   1      37.365  30.108  28.724  1.00  0.00    -0.014 A 
BRANCH  39  40
ATOM     40  C   UNL A   1      38.508  29.895  29.637  1.00  0.00     0.031 A 
ATOM     41  C   UNL A   1      39.630  29.026  29.143  1.00  0.00     0.074 A 
ATOM     42  C   UNL A   1      38.566  30.473  30.847  1.00  0.00     0.049 A 
ATOM     43  N   UNL A   1      40.708  28.626  29.763  1.00  0.00    -0.248 NA
ATOM     44  C   UNL A   1      39.518  28.543  27.755  1.00  0.00     0.031 C 
ATOM     45  C   UNL A   1      37.572  31.390  31.395  1.00  0.00     0.029 A 
ATOM     46  N   UNL A   1      39.512  30.364  31.835  1.00  0.00    -0.354 N 
ATOM     47  C   UNL A   1      41.399  27.850  28.843  1.00  0.00     0.074 A 
ATOM     48  C   UNL A   1      40.609  27.805  27.634  1.00  0.00     0.031 C 
ATOM     49  C   UNL A   1      37.955  31.754  32.633  1.00  0.00     0.029 A 
ATOM     50  C   UNL A   1      39.200  31.065  32.973  1.00  0.00     0.049 A 
ATOM     51  H   UNL A   1      40.335  29.834  31.737  1.00  0.00     0.167 HD
ATOM     52  C   UNL A   1      42.595  27.237  28.993  1.00  0.00     0.037 A 
ATOM     53  C   UNL A   1      39.841  31.119  34.158  1.00  0.00     0.037 A 
ATOM     54  C   UNL A   1      43.368  27.276  30.204  1.00  0.00     0.049 A 
ATOM     55  C   UNL A   1      41.119  30.336  34.338  1.00  0.00     0.074 A 
ATOM     56  C   UNL A   1      44.584  26.675  30.469  1.00  0.00     0.029 A 
ATOM     57  N   UNL A   1      42.992  27.951  31.357  1.00  0.00    -0.354 N 
ATOM     58  N   UNL A   1      41.768  29.599  33.470  1.00  0.00    -0.248 NA
ATOM     59  C   UNL A   1      41.751  30.395  35.664  1.00  0.00     0.031 C 
ATOM     60  C   UNL A   1      44.919  26.940  31.799  1.00  0.00     0.029 A 
ATOM     61  C   UNL A   1      43.944  27.761  32.344  1.00  0.00     0.049 A 
ATOM     62  H   UNL A   1      42.171  28.485  31.458  1.00  0.00     0.167 HD
ATOM     63  C   UNL A   1      42.898  29.132  34.130  1.00  0.00     0.074 A 
ATOM     64  C   UNL A   1      42.851  29.680  35.470  1.00  0.00     0.031 C 
ATOM     65  C   UNL A   1      43.886  28.326  33.669  1.00  0.00     0.037 A 
BRANCH  52  66
ATOM     66  C   UNL A   1      43.129  26.455  27.830  1.00  0.00     0.064 A 
ATOM     67  C   UNL A   1      42.855  25.090  27.675  1.00  0.00     0.173 A 
ATOM     68  C   UNL A   1      43.879  27.095  26.833  1.00  0.00     0.173 A 
ATOM     69  F   UNL A   1      42.161  24.428  28.613  1.00  0.00    -0.203 F 
ATOM     70  C   UNL A   1      43.322  24.387  26.567  1.00  0.00     0.198 A 
ATOM     71  C   UNL A   1      44.318  26.398  25.710  1.00  0.00     0.198 A 
ATOM     72  F   UNL A   1      44.173  28.399  26.937  1.00  0.00    -0.203 F 
ATOM     73  F   UNL A   1      43.079  23.075  26.456  1.00  0.00    -0.200 F 
ATOM     74  C   UNL A   1      44.042  25.045  25.580  1.00  0.00     0.200 A 
ATOM     75  F   UNL A   1      45.004  27.037  24.753  1.00  0.00    -0.200 F 
ATOM     76  F   UNL A   1      44.473  24.373  24.504  1.00  0.00    -0.200 F 
ENDBRANCH  52  66
BRANCH  53  77
ATOM     77  C   UNL A   1      39.285  31.943  35.263  1.00  0.00     0.064 A 
ATOM     78  C   UNL A   1      39.569  33.312  35.353  1.00  0.00     0.173 A 
ATOM     79  C   UNL A   1      38.457  31.383  36.247  1.00  0.00     0.173 A 
ATOM     80  F   UNL A   1      40.379  33.889  34.453  1.00  0.00    -0.203 F 
ATOM     81  C   UNL A   1      39.051  34.090  36.388  1.00  0.00     0.198 A 
ATOM     82  C   UNL A   1      37.915  32.167  37.265  1.00  0.00     0.198 A 
ATOM     83  F   UNL A   1      38.157  30.077  36.211  1.00  0.00    -0.203 F 
ATOM     84  F   UNL A   1      39.370  35.388  36.470  1.00  0.00    -0.200 F 
ATOM     85  C   UNL A   1      38.218  33.519  37.337  1.00  0.00     0.200 A 
ATOM     86  F   UNL A   1      37.099  31.613  38.172  1.00  0.00    -0.200 F 
ATOM     87  F   UNL A   1      37.710  34.269  38.324  1.00  0.00    -0.200 F 
ENDBRANCH  53  77
BRANCH  65  88
ATOM     88  C   UNL A   1      45.024  28.009  34.597  1.00  0.00     0.064 A 
ATOM     89  C   UNL A   1      45.013  26.871  35.416  1.00  0.00     0.173 A 
ATOM     90  C   UNL A   1      46.178  28.810  34.601  1.00  0.00     0.173 A 
ATOM     91  F   UNL A   1      43.931  26.078  35.455  1.00  0.00    -0.203 F 
ATOM     92  C   UNL A   1      46.107  26.556  36.217  1.00  0.00     0.198 A 
ATOM     93  C   UNL A   1      47.283  28.473  35.377  1.00  0.00     0.198 A 
ATOM     94  F   UNL A   1      46.245  29.903  33.826  1.00  0.00    -0.203 F 
ATOM     95  F   UNL A   1      46.060  25.485  37.020  1.00  0.00    -0.200 F 
ATOM     96  C   UNL A   1      47.244  27.350  36.189  1.00  0.00     0.200 A 
ATOM     97  F   UNL A   1      48.388  29.229  35.331  1.00  0.00    -0.200 F 
ATOM     98  F   UNL A   1      48.304  27.032  36.945  1.00  0.00    -0.200 F 
ENDBRANCH  65  88
ENDBRANCH  39  40
ENDBRANCH  32  34
ENDBRANCH  31  32
ENDBRANCH  30  31
ENDBRANCH  29  30
ENDBRANCH  28  29
ENDBRANCH  27  28
ENDBRANCH  26  27
ENDBRANCH   1  26
TORSDOF 22
ENDMDL
