MODEL 1
REMARK VINA RESULT:      -9.8      0.000      0.000
REMARK SMILES CCCCCNC(=O)Oc1cccc(-c2ccc([C@@H](C)C(=O)OCCOCCOCCOCCOC(=O)c3ccc(-c4c5nc(c(-c6c(F)c(F)c(F)c(F)c6F)c6ccc([nH]6)c(-c6c(F)c(F)c(F)c(F)c6F)c6nc(c(-c7c(F)c(F)c(F)c(F)c7F)c7ccc4[nH]7)C=C6)C=C5)cc3)cc2F)c1
REMARK SMILES IDX 26 1 25 2 24 3 23 4 21 5 22 6 19 7 20 8 18 9 15 10 16 11
REMARK SMILES IDX 102 12 17 13 101 14 103 15 14 16 10 17 11 18 104 19 12 20
REMARK SMILES IDX 13 21 9 22 7 23 6 24 8 26 5 27 4 28 3 29 2 30 1 31 27 32
REMARK SMILES IDX 28 33 29 34 30 35 31 36 32 37 33 38 34 39 35 40 36 41 37 42
REMARK SMILES IDX 38 43 39 44 100 45 40 46 99 47 41 48 42 49 43 50 93 51 44 52
REMARK SMILES IDX 98 53 92 54 94 55 45 56 97 57 91 58 90 59 46 61 78 62 58 63
REMARK SMILES IDX 77 64 59 65 62 66 76 67 95 68 60 69 61 70 75 72 96 73 63 74
REMARK SMILES IDX 47 75 48 76 56 77 49 78 50 79 54 80 57 81 51 82 52 83 55 84
REMARK SMILES IDX 53 85 79 86 80 87 88 88 81 89 82 90 86 91 89 92 83 93 84 94
REMARK SMILES IDX 87 95 85 96 64 97 65 98 73 99 66 100 67 101 71 102 74 103
REMARK SMILES IDX 68 104 69 105 72 106 70 107
REMARK H PARENT 6 25 94 60 62 71
REMARK Flexibility Score: inf
ROOT
ATOM      1  O   UNL A   1      35.632  21.808  25.944  1.00  0.00    -0.376 OA
ENDROOT
BRANCH   1   2
ATOM      2  C   UNL A   1      35.964  20.700  25.122  1.00  0.00     0.202 C 
BRANCH   2   3
ATOM      3  C   UNL A   1      35.328  19.317  25.356  1.00  0.00     0.261 C 
BRANCH   3   4
ATOM      4  O   UNL A   1      34.573  18.748  24.264  1.00  0.00    -0.463 OA
BRANCH   4   5
ATOM      5  C   UNL A   1      33.256  18.533  24.494  1.00  0.00     0.313 C 
ATOM      6  O   UNL A   1      32.833  17.589  25.158  1.00  0.00    -0.252 OA
BRANCH   5   7
ATOM      7  C   UNL A   1      32.289  19.526  23.845  1.00  0.00     0.126 C 
ATOM      8  C   UNL A   1      32.150  19.162  22.371  1.00  0.00     0.025 C 
BRANCH   7   9
ATOM      9  C   UNL A   1      32.453  21.036  24.034  1.00  0.00    -0.031 A 
ATOM     10  C   UNL A   1      32.738  23.857  24.531  1.00  0.00     0.018 A 
ATOM     11  C   UNL A   1      33.320  23.237  23.409  1.00  0.00     0.012 A 
ATOM     12  C   UNL A   1      32.004  23.033  25.389  1.00  0.00     0.131 A 
ATOM     13  C   UNL A   1      33.181  21.854  23.161  1.00  0.00     0.005 A 
ATOM     14  C   UNL A   1      31.848  21.661  25.145  1.00  0.00     0.044 A 
ATOM     15  F   UNL A   1      31.416  23.547  26.481  1.00  0.00    -0.206 F 
BRANCH  10  16
ATOM     16  C   UNL A   1      32.862  25.315  24.756  1.00  0.00    -0.012 A 
ATOM     17  C   UNL A   1      32.293  27.634  24.250  1.00  0.00     0.133 A 
ATOM     18  C   UNL A   1      33.174  28.094  25.226  1.00  0.00     0.047 A 
ATOM     19  C   UNL A   1      32.143  26.262  24.000  1.00  0.00     0.056 A 
ATOM     20  C   UNL A   1      33.900  27.172  25.975  1.00  0.00     0.004 A 
ATOM     21  C   UNL A   1      33.744  25.801  25.741  1.00  0.00     0.009 A 
BRANCH  17  22
ATOM     22  O   UNL A   1      31.668  28.613  23.456  1.00  0.00    -0.410 OA
BRANCH  22  23
ATOM     23  C   UNL A   1      30.805  28.172  22.464  1.00  0.00     0.412 C 
ATOM     24  N   UNL A   1      29.578  28.781  22.480  1.00  0.00    -0.321 N 
ATOM     25  H   UNL A   1      28.986  28.593  21.716  1.00  0.00     0.167 HD
ATOM     26  O   UNL A   1      31.054  27.309  21.631  1.00  0.00    -0.224 OA
BRANCH  24  27
ATOM     27  C   UNL A   1      29.055  29.672  23.496  1.00  0.00     0.119 C 
BRANCH  27  28
ATOM     28  C   UNL A   1      27.697  30.262  23.124  1.00  0.00     0.021 C 
BRANCH  28  29
ATOM     29  C   UNL A   1      27.653  31.792  23.000  1.00  0.00     0.002 C 
BRANCH  29  30
ATOM     30  C   UNL A   1      28.527  32.401  21.899  1.00  0.00    -0.003 C 
ATOM     31  C   UNL A   1      28.022  32.119  20.492  1.00  0.00     0.004 C 
ENDBRANCH  29  30
ENDBRANCH  28  29
ENDBRANCH  27  28
ENDBRANCH  24  27
ENDBRANCH  22  23
ENDBRANCH  17  22
ENDBRANCH  10  16
ENDBRANCH   7   9
ENDBRANCH   5   7
ENDBRANCH   4   5
ENDBRANCH   3   4
ENDBRANCH   2   3
ENDBRANCH   1   2
BRANCH   1  32
ATOM     32  C   UNL A   1      36.211  23.086  25.712  1.00  0.00     0.188 C 
BRANCH  32  33
ATOM     33  C   UNL A   1      37.727  23.246  25.527  1.00  0.00     0.188 C 
BRANCH  33  34
ATOM     34  O   UNL A   1      38.515  22.794  26.608  1.00  0.00    -0.377 OA
BRANCH  34  35
ATOM     35  C   UNL A   1      39.917  22.758  26.399  1.00  0.00     0.188 C 
BRANCH  35  36
ATOM     36  C   UNL A   1      40.585  21.371  26.318  1.00  0.00     0.188 C 
BRANCH  36  37
ATOM     37  O   UNL A   1      41.861  21.299  26.945  1.00  0.00    -0.376 OA
BRANCH  37  38
ATOM     38  C   UNL A   1      42.991  20.990  26.141  1.00  0.00     0.202 C 
BRANCH  38  39
ATOM     39  C   UNL A   1      43.323  21.939  24.980  1.00  0.00     0.261 C 
BRANCH  39  40
ATOM     40  O   UNL A   1      42.971  23.315  25.178  1.00  0.00    -0.460 OA
BRANCH  40  41
ATOM     41  C   UNL A   1      43.962  24.230  25.226  1.00  0.00     0.338 C 
ATOM     42  O   UNL A   1      44.788  24.467  24.372  1.00  0.00    -0.246 OA
BRANCH  41  43
ATOM     43  C   UNL A   1      43.725  25.072  26.425  1.00  0.00     0.060 A 
ATOM     44  C   UNL A   1      43.229  24.464  27.586  1.00  0.00     0.016 A 
ATOM     45  C   UNL A   1      43.982  26.444  26.405  1.00  0.00     0.016 A 
ATOM     46  C   UNL A   1      42.948  25.235  28.716  1.00  0.00     0.010 A 
ATOM     47  C   UNL A   1      43.676  27.220  27.528  1.00  0.00     0.010 A 
ATOM     48  C   UNL A   1      43.122  26.625  28.676  1.00  0.00    -0.014 A 
BRANCH  48  49
ATOM     49  C   UNL A   1      42.531  27.469  29.744  1.00  0.00     0.031 A 
ATOM     50  C   UNL A   1      43.194  27.476  31.096  1.00  0.00     0.074 A 
ATOM     51  C   UNL A   1      41.454  28.241  29.522  1.00  0.00     0.049 A 
ATOM     52  N   UNL A   1      42.844  28.093  32.196  1.00  0.00    -0.248 NA
ATOM     53  C   UNL A   1      44.423  26.675  31.220  1.00  0.00     0.031 C 
ATOM     54  C   UNL A   1      40.753  28.367  28.246  1.00  0.00     0.029 A 
ATOM     55  N   UNL A   1      40.755  29.063  30.373  1.00  0.00    -0.354 N 
ATOM     56  C   UNL A   1      43.804  27.752  33.140  1.00  0.00     0.074 A 
ATOM     57  C   UNL A   1      44.732  26.849  32.496  1.00  0.00     0.031 C 
ATOM     58  C   UNL A   1      39.717  29.211  28.401  1.00  0.00     0.029 A 
ATOM     59  C   UNL A   1      39.659  29.652  29.794  1.00  0.00     0.049 A 
ATOM     60  H   UNL A   1      41.017  29.214  31.310  1.00  0.00     0.167 HD
ATOM     61  C   UNL A   1      43.909  28.162  34.427  1.00  0.00     0.037 A 
ATOM     62  C   UNL A   1      38.708  30.439  30.336  1.00  0.00     0.037 A 
ATOM     63  C   UNL A   1      42.980  29.052  35.070  1.00  0.00     0.049 A 
ATOM     64  C   UNL A   1      38.791  30.803  31.799  1.00  0.00     0.074 A 
ATOM     65  C   UNL A   1      43.000  29.529  36.368  1.00  0.00     0.029 A 
ATOM     66  N   UNL A   1      41.855  29.592  34.463  1.00  0.00    -0.354 N 
ATOM     67  N   UNL A   1      39.710  30.492  32.682  1.00  0.00    -0.248 NA
ATOM     68  C   UNL A   1      37.704  31.633  32.338  1.00  0.00     0.031 C 
ATOM     69  C   UNL A   1      41.855  30.309  36.565  1.00  0.00     0.029 A 
ATOM     70  C   UNL A   1      41.158  30.375  35.370  1.00  0.00     0.049 A 
ATOM     71  H   UNL A   1      41.591  29.441  33.526  1.00  0.00     0.167 HD
ATOM     72  C   UNL A   1      39.331  31.114  33.866  1.00  0.00     0.074 A 
ATOM     73  C   UNL A   1      38.106  31.832  33.585  1.00  0.00     0.031 C 
ATOM     74  C   UNL A   1      39.945  31.094  35.075  1.00  0.00     0.037 A 
BRANCH  61  75
ATOM     75  C   UNL A   1      45.055  27.622  35.234  1.00  0.00     0.064 A 
ATOM     76  C   UNL A   1      46.212  28.379  35.475  1.00  0.00     0.173 A 
ATOM     77  C   UNL A   1      44.983  26.339  35.799  1.00  0.00     0.173 A 
ATOM     78  F   UNL A   1      46.339  29.606  34.947  1.00  0.00    -0.203 F 
ATOM     79  C   UNL A   1      47.265  27.860  36.225  1.00  0.00     0.198 A 
ATOM     80  C   UNL A   1      46.023  25.837  36.576  1.00  0.00     0.198 A 
ATOM     81  F   UNL A   1      43.898  25.574  35.603  1.00  0.00    -0.203 F 
ATOM     82  F   UNL A   1      48.381  28.581  36.397  1.00  0.00    -0.200 F 
ATOM     83  C   UNL A   1      47.166  26.594  36.781  1.00  0.00     0.200 A 
ATOM     84  F   UNL A   1      45.919  24.619  37.124  1.00  0.00    -0.200 F 
ATOM     85  F   UNL A   1      48.176  26.099  37.510  1.00  0.00    -0.200 F 
ENDBRANCH  61  75
BRANCH  62  86
ATOM     86  C   UNL A   1      37.578  30.930  29.501  1.00  0.00     0.064 A 
ATOM     87  C   UNL A   1      37.508  32.268  29.090  1.00  0.00     0.173 A 
ATOM     88  C   UNL A   1      36.528  30.079  29.124  1.00  0.00     0.173 A 
ATOM     89  F   UNL A   1      38.472  33.129  29.448  1.00  0.00    -0.203 F 
ATOM     90  C   UNL A   1      36.424  32.740  28.353  1.00  0.00     0.198 A 
ATOM     91  C   UNL A   1      35.460  30.545  28.360  1.00  0.00     0.198 A 
ATOM     92  F   UNL A   1      36.539  28.790  29.496  1.00  0.00    -0.203 F 
ATOM     93  F   UNL A   1      36.357  34.038  28.021  1.00  0.00    -0.200 F 
ATOM     94  C   UNL A   1      35.404  31.877  27.983  1.00  0.00     0.200 A 
ATOM     95  F   UNL A   1      34.482  29.705  27.996  1.00  0.00    -0.200 F 
ATOM     96  F   UNL A   1      34.362  32.333  27.274  1.00  0.00    -0.200 F 
ENDBRANCH  62  86
BRANCH  74  97
ATOM     97  C   UNL A   1      39.334  31.913  36.180  1.00  0.00     0.064 A 
ATOM     98  C   UNL A   1      39.731  33.236  36.429  1.00  0.00     0.173 A 
ATOM     99  C   UNL A   1      38.305  31.379  36.970  1.00  0.00     0.173 A 
ATOM    100  F   UNL A   1      40.718  33.792  35.711  1.00  0.00    -0.203 F 
ATOM    101  C   UNL A   1      39.139  33.981  37.446  1.00  0.00     0.198 A 
ATOM    102  C   UNL A   1      37.691  32.139  37.961  1.00  0.00     0.198 A 
ATOM    103  F   UNL A   1      37.879  30.123  36.769  1.00  0.00    -0.203 F 
ATOM    104  F   UNL A   1      39.570  35.225  37.700  1.00  0.00    -0.200 F 
ATOM    105  C   UNL A   1      38.115  33.436  38.205  1.00  0.00     0.200 A 
ATOM    106  F   UNL A   1      36.688  31.616  38.681  1.00  0.00    -0.200 F 
ATOM    107  F   UNL A   1      37.541  34.158  39.177  1.00  0.00    -0.200 F 
ENDBRANCH  74  97
ENDBRANCH  48  49
ENDBRANCH  41  43
ENDBRANCH  40  41
ENDBRANCH  39  40
ENDBRANCH  38  39
ENDBRANCH  37  38
ENDBRANCH  36  37
ENDBRANCH  35  36
ENDBRANCH  34  35
ENDBRANCH  33  34
ENDBRANCH  32  33
ENDBRANCH   1  32
TORSDOF 28
ENDMDL
MODEL 2
REMARK VINA RESULT:      -9.6      5.159      9.023
REMARK SMILES CCCCCNC(=O)Oc1cccc(-c2ccc([C@@H](C)C(=O)OCCOCCOCCOCCOC(=O)c3ccc(-c4c5nc(c(-c6c(F)c(F)c(F)c(F)c6F)c6ccc([nH]6)c(-c6c(F)c(F)c(F)c(F)c6F)c6nc(c(-c7c(F)c(F)c(F)c(F)c7F)c7ccc4[nH]7)C=C6)C=C5)cc3)cc2F)c1
REMARK SMILES IDX 26 1 25 2 24 3 23 4 21 5 22 6 19 7 20 8 18 9 15 10 16 11
REMARK SMILES IDX 102 12 17 13 101 14 103 15 14 16 10 17 11 18 104 19 12 20
REMARK SMILES IDX 13 21 9 22 7 23 6 24 8 26 5 27 4 28 3 29 2 30 1 31 27 32
REMARK SMILES IDX 28 33 29 34 30 35 31 36 32 37 33 38 34 39 35 40 36 41 37 42
REMARK SMILES IDX 38 43 39 44 100 45 40 46 99 47 41 48 42 49 43 50 93 51 44 52
REMARK SMILES IDX 98 53 92 54 94 55 45 56 97 57 91 58 90 59 46 61 78 62 58 63
REMARK SMILES IDX 77 64 59 65 62 66 76 67 95 68 60 69 61 70 75 72 96 73 63 74
REMARK SMILES IDX 47 75 48 76 56 77 49 78 50 79 54 80 57 81 51 82 52 83 55 84
REMARK SMILES IDX 53 85 79 86 80 87 88 88 81 89 82 90 86 91 89 92 83 93 84 94
REMARK SMILES IDX 87 95 85 96 64 97 65 98 73 99 66 100 67 101 71 102 74 103
REMARK SMILES IDX 68 104 69 105 72 106 70 107
REMARK H PARENT 6 25 94 60 62 71
REMARK Flexibility Score: inf
ROOT
ATOM      1  O   UNL A   1      36.365  22.065  25.807  1.00  0.00    -0.376 OA
ENDROOT
BRANCH   1   2
ATOM      2  C   UNL A   1      36.813  21.088  24.880  1.00  0.00     0.202 C 
BRANCH   2   3
ATOM      3  C   UNL A   1      36.470  19.598  25.065  1.00  0.00     0.261 C 
BRANCH   3   4
ATOM      4  O   UNL A   1      35.566  19.008  24.105  1.00  0.00    -0.463 OA
BRANCH   4   5
ATOM      5  C   UNL A   1      34.539  18.286  24.613  1.00  0.00     0.313 C 
ATOM      6  O   UNL A   1      34.663  17.132  25.021  1.00  0.00    -0.252 OA
BRANCH   5   7
ATOM      7  C   UNL A   1      33.174  18.977  24.628  1.00  0.00     0.126 C 
ATOM      8  C   UNL A   1      32.345  18.418  23.477  1.00  0.00     0.025 C 
BRANCH   7   9
ATOM      9  C   UNL A   1      33.053  20.500  24.714  1.00  0.00    -0.031 A 
ATOM     10  C   UNL A   1      32.876  23.357  25.014  1.00  0.00     0.018 A 
ATOM     11  C   UNL A   1      32.998  22.749  23.751  1.00  0.00     0.012 A 
ATOM     12  C   UNL A   1      32.835  22.501  26.119  1.00  0.00     0.131 A 
ATOM     13  C   UNL A   1      33.084  21.347  23.600  1.00  0.00     0.005 A 
ATOM     14  C   UNL A   1      32.905  21.108  25.979  1.00  0.00     0.044 A 
ATOM     15  F   UNL A   1      32.718  23.003  27.359  1.00  0.00    -0.206 F 
BRANCH  10  16
ATOM     16  C   UNL A   1      32.750  24.826  25.152  1.00  0.00    -0.012 A 
ATOM     17  C   UNL A   1      31.545  26.927  24.851  1.00  0.00     0.133 A 
ATOM     18  C   UNL A   1      32.592  27.644  25.425  1.00  0.00     0.047 A 
ATOM     19  C   UNL A   1      31.620  25.535  24.698  1.00  0.00     0.056 A 
ATOM     20  C   UNL A   1      33.721  26.960  25.870  1.00  0.00     0.004 A 
ATOM     21  C   UNL A   1      33.796  25.569  25.734  1.00  0.00     0.009 A 
BRANCH  17  22
ATOM     22  O   UNL A   1      30.479  27.683  24.327  1.00  0.00    -0.410 OA
BRANCH  22  23
ATOM     23  C   UNL A   1      30.641  28.211  23.055  1.00  0.00     0.412 C 
ATOM     24  N   UNL A   1      29.519  28.819  22.557  1.00  0.00    -0.321 N 
ATOM     25  H   UNL A   1      29.629  29.321  21.717  1.00  0.00     0.167 HD
ATOM     26  O   UNL A   1      31.663  28.157  22.382  1.00  0.00    -0.224 OA
BRANCH  24  27
ATOM     27  C   UNL A   1      28.189  28.808  23.130  1.00  0.00     0.119 C 
BRANCH  27  28
ATOM     28  C   UNL A   1      27.336  29.989  22.672  1.00  0.00     0.021 C 
BRANCH  28  29
ATOM     29  C   UNL A   1      27.707  31.348  23.282  1.00  0.00     0.002 C 
BRANCH  29  30
ATOM     30  C   UNL A   1      28.513  32.290  22.383  1.00  0.00    -0.003 C 
ATOM     31  C   UNL A   1      29.136  33.462  23.126  1.00  0.00     0.004 C 
ENDBRANCH  29  30
ENDBRANCH  28  29
ENDBRANCH  27  28
ENDBRANCH  24  27
ENDBRANCH  22  23
ENDBRANCH  17  22
ENDBRANCH  10  16
ENDBRANCH   7   9
ENDBRANCH   5   7
ENDBRANCH   4   5
ENDBRANCH   3   4
ENDBRANCH   2   3
ENDBRANCH   1   2
BRANCH   1  32
ATOM     32  C   UNL A   1      36.876  23.391  25.771  1.00  0.00     0.188 C 
BRANCH  32  33
ATOM     33  C   UNL A   1      38.374  23.668  25.966  1.00  0.00     0.188 C 
BRANCH  33  34
ATOM     34  O   UNL A   1      39.024  22.827  26.896  1.00  0.00    -0.377 OA
BRANCH  34  35
ATOM     35  C   UNL A   1      40.224  22.210  26.461  1.00  0.00     0.188 C 
BRANCH  35  36
ATOM     36  C   UNL A   1      40.415  20.718  26.797  1.00  0.00     0.188 C 
BRANCH  36  37
ATOM     37  O   UNL A   1      41.579  20.437  27.567  1.00  0.00    -0.376 OA
BRANCH  37  38
ATOM     38  C   UNL A   1      42.273  19.221  27.320  1.00  0.00     0.202 C 
BRANCH  38  39
ATOM     39  C   UNL A   1      42.679  18.911  25.872  1.00  0.00     0.261 C 
BRANCH  39  40
ATOM     40  O   UNL A   1      43.018  20.045  25.063  1.00  0.00    -0.460 OA
BRANCH  40  41
ATOM     41  C   UNL A   1      44.237  20.077  24.482  1.00  0.00     0.338 C 
ATOM     42  O   UNL A   1      44.690  19.294  23.677  1.00  0.00    -0.246 OA
BRANCH  41  43
ATOM     43  C   UNL A   1      44.852  21.383  24.826  1.00  0.00     0.060 A 
ATOM     44  C   UNL A   1      45.283  21.598  26.142  1.00  0.00     0.016 A 
ATOM     45  C   UNL A   1      45.000  22.385  23.866  1.00  0.00     0.016 A 
ATOM     46  C   UNL A   1      45.821  22.832  26.511  1.00  0.00     0.010 A 
ATOM     47  C   UNL A   1      45.515  23.631  24.241  1.00  0.00     0.010 A 
ATOM     48  C   UNL A   1      45.893  23.873  25.575  1.00  0.00    -0.014 A 
BRANCH  48  49
ATOM     49  C   UNL A   1      46.160  25.258  26.036  1.00  0.00     0.031 A 
ATOM     50  C   UNL A   1      45.011  26.061  26.584  1.00  0.00     0.074 A 
ATOM     51  C   UNL A   1      47.394  25.789  26.003  1.00  0.00     0.049 A 
ATOM     52  N   UNL A   1      44.981  27.300  27.005  1.00  0.00    -0.248 NA
ATOM     53  C   UNL A   1      43.716  25.365  26.670  1.00  0.00     0.031 C 
ATOM     54  C   UNL A   1      48.599  25.100  25.549  1.00  0.00     0.029 A 
ATOM     55  N   UNL A   1      47.835  27.041  26.358  1.00  0.00    -0.354 N 
ATOM     56  C   UNL A   1      43.670  27.532  27.400  1.00  0.00     0.074 A 
ATOM     57  C   UNL A   1      42.925  26.320  27.138  1.00  0.00     0.031 C 
ATOM     58  C   UNL A   1      49.643  25.943  25.642  1.00  0.00     0.029 A 
ATOM     59  C   UNL A   1      49.173  27.240  26.127  1.00  0.00     0.049 A 
ATOM     60  H   UNL A   1      47.246  27.731  26.741  1.00  0.00     0.167 HD
ATOM     61  C   UNL A   1      43.134  28.653  27.941  1.00  0.00     0.037 A 
ATOM     62  C   UNL A   1      49.924  28.351  26.269  1.00  0.00     0.037 A 
ATOM     63  C   UNL A   1      43.874  29.862  28.192  1.00  0.00     0.049 A 
ATOM     64  C   UNL A   1      49.283  29.619  26.782  1.00  0.00     0.074 A 
ATOM     65  C   UNL A   1      43.424  31.050  28.739  1.00  0.00     0.029 A 
ATOM     66  N   UNL A   1      45.218  30.040  27.901  1.00  0.00    -0.354 N 
ATOM     67  N   UNL A   1      48.047  29.827  27.169  1.00  0.00    -0.248 NA
ATOM     68  C   UNL A   1      50.146  30.805  26.880  1.00  0.00     0.031 C 
ATOM     69  C   UNL A   1      44.480  31.967  28.723  1.00  0.00     0.029 A 
ATOM     70  C   UNL A   1      45.607  31.329  28.231  1.00  0.00     0.049 A 
ATOM     71  H   UNL A   1      45.809  29.352  27.517  1.00  0.00     0.167 HD
ATOM     72  C   UNL A   1      47.995  31.152  27.587  1.00  0.00     0.074 A 
ATOM     73  C   UNL A   1      49.326  31.695  27.419  1.00  0.00     0.031 C 
ATOM     74  C   UNL A   1      46.939  31.854  28.070  1.00  0.00     0.037 A 
BRANCH  61  75
ATOM     75  C   UNL A   1      41.669  28.632  28.268  1.00  0.00     0.064 A 
ATOM     76  C   UNL A   1      40.694  28.971  27.318  1.00  0.00     0.173 A 
ATOM     77  C   UNL A   1      41.232  28.240  29.543  1.00  0.00     0.173 A 
ATOM     78  F   UNL A   1      41.057  29.368  26.088  1.00  0.00    -0.203 F 
ATOM     79  C   UNL A   1      39.339  28.948  27.641  1.00  0.00     0.198 A 
ATOM     80  C   UNL A   1      39.876  28.185  29.852  1.00  0.00     0.198 A 
ATOM     81  F   UNL A   1      42.122  27.902  30.489  1.00  0.00    -0.203 F 
ATOM     82  F   UNL A   1      38.429  29.326  26.733  1.00  0.00    -0.200 F 
ATOM     83  C   UNL A   1      38.932  28.546  28.904  1.00  0.00     0.200 A 
ATOM     84  F   UNL A   1      39.484  27.783  31.069  1.00  0.00    -0.200 F 
ATOM     85  F   UNL A   1      37.627  28.515  29.211  1.00  0.00    -0.200 F 
ENDBRANCH  61  75
BRANCH  62  86
ATOM     86  C   UNL A   1      51.368  28.329  25.909  1.00  0.00     0.064 A 
ATOM     87  C   UNL A   1      52.351  28.061  26.872  1.00  0.00     0.173 A 
ATOM     88  C   UNL A   1      51.796  28.609  24.603  1.00  0.00     0.173 A 
ATOM     89  F   UNL A   1      51.995  27.816  28.141  1.00  0.00    -0.203 F 
ATOM     90  C   UNL A   1      53.706  28.093  26.547  1.00  0.00     0.198 A 
ATOM     91  C   UNL A   1      53.150  28.609  24.272  1.00  0.00     0.198 A 
ATOM     92  F   UNL A   1      50.899  28.880  23.644  1.00  0.00    -0.203 F 
ATOM     93  F   UNL A   1      54.626  27.886  27.500  1.00  0.00    -0.200 F 
ATOM     94  C   UNL A   1      54.104  28.360  25.246  1.00  0.00     0.200 A 
ATOM     95  F   UNL A   1      53.529  28.858  23.012  1.00  0.00    -0.200 F 
ATOM     96  F   UNL A   1      55.407  28.390  24.935  1.00  0.00    -0.200 F 
ENDBRANCH  62  86
BRANCH  74  97
ATOM     97  C   UNL A   1      47.185  33.274  28.503  1.00  0.00     0.064 A 
ATOM     98  C   UNL A   1      46.961  34.361  27.644  1.00  0.00     0.173 A 
ATOM     99  C   UNL A   1      47.610  33.550  29.812  1.00  0.00     0.173 A 
ATOM    100  F   UNL A   1      46.566  34.152  26.379  1.00  0.00    -0.203 F 
ATOM    101  C   UNL A   1      47.179  35.668  28.072  1.00  0.00     0.198 A 
ATOM    102  C   UNL A   1      47.792  34.860  30.247  1.00  0.00     0.198 A 
ATOM    103  F   UNL A   1      47.830  32.550  30.678  1.00  0.00    -0.203 F 
ATOM    104  F   UNL A   1      47.008  36.688  27.218  1.00  0.00    -0.200 F 
ATOM    105  C   UNL A   1      47.586  35.917  29.374  1.00  0.00     0.200 A 
ATOM    106  F   UNL A   1      48.167  35.099  31.511  1.00  0.00    -0.200 F 
ATOM    107  F   UNL A   1      47.787  37.176  29.786  1.00  0.00    -0.200 F 
ENDBRANCH  74  97
ENDBRANCH  48  49
ENDBRANCH  41  43
ENDBRANCH  40  41
ENDBRANCH  39  40
ENDBRANCH  38  39
ENDBRANCH  37  38
ENDBRANCH  36  37
ENDBRANCH  35  36
ENDBRANCH  34  35
ENDBRANCH  33  34
ENDBRANCH  32  33
ENDBRANCH   1  32
TORSDOF 28
ENDMDL
MODEL 3
REMARK VINA RESULT:      -9.6      5.166      8.757
REMARK SMILES CCCCCNC(=O)Oc1cccc(-c2ccc([C@@H](C)C(=O)OCCOCCOCCOCCOC(=O)c3ccc(-c4c5nc(c(-c6c(F)c(F)c(F)c(F)c6F)c6ccc([nH]6)c(-c6c(F)c(F)c(F)c(F)c6F)c6nc(c(-c7c(F)c(F)c(F)c(F)c7F)c7ccc4[nH]7)C=C6)C=C5)cc3)cc2F)c1
REMARK SMILES IDX 26 1 25 2 24 3 23 4 21 5 22 6 19 7 20 8 18 9 15 10 16 11
REMARK SMILES IDX 102 12 17 13 101 14 103 15 14 16 10 17 11 18 104 19 12 20
REMARK SMILES IDX 13 21 9 22 7 23 6 24 8 26 5 27 4 28 3 29 2 30 1 31 27 32
REMARK SMILES IDX 28 33 29 34 30 35 31 36 32 37 33 38 34 39 35 40 36 41 37 42
REMARK SMILES IDX 38 43 39 44 100 45 40 46 99 47 41 48 42 49 43 50 93 51 44 52
REMARK SMILES IDX 98 53 92 54 94 55 45 56 97 57 91 58 90 59 46 61 78 62 58 63
REMARK SMILES IDX 77 64 59 65 62 66 76 67 95 68 60 69 61 70 75 72 96 73 63 74
REMARK SMILES IDX 47 75 48 76 56 77 49 78 50 79 54 80 57 81 51 82 52 83 55 84
REMARK SMILES IDX 53 85 79 86 80 87 88 88 81 89 82 90 86 91 89 92 83 93 84 94
REMARK SMILES IDX 87 95 85 96 64 97 65 98 73 99 66 100 67 101 71 102 74 103
REMARK SMILES IDX 68 104 69 105 72 106 70 107
REMARK H PARENT 6 25 94 60 62 71
REMARK Flexibility Score: inf
ROOT
ATOM      1  O   UNL A   1      33.625  24.981  21.954  1.00  0.00    -0.376 OA
ENDROOT
BRANCH   1   2
ATOM      2  C   UNL A   1      33.129  26.311  21.972  1.00  0.00     0.202 C 
BRANCH   2   3
ATOM      3  C   UNL A   1      31.622  26.596  22.108  1.00  0.00     0.261 C 
BRANCH   3   4
ATOM      4  O   UNL A   1      30.808  25.560  22.700  1.00  0.00    -0.463 OA
BRANCH   4   5
ATOM      5  C   UNL A   1      30.137  25.894  23.827  1.00  0.00     0.313 C 
ATOM      6  O   UNL A   1      29.022  26.412  23.818  1.00  0.00    -0.252 OA
BRANCH   5   7
ATOM      7  C   UNL A   1      30.860  25.621  25.147  1.00  0.00     0.126 C 
ATOM      8  C   UNL A   1      29.818  25.238  26.191  1.00  0.00     0.025 C 
BRANCH   7   9
ATOM      9  C   UNL A   1      31.881  26.611  25.715  1.00  0.00    -0.031 A 
ATOM     10  C   UNL A   1      33.696  28.522  26.872  1.00  0.00     0.018 A 
ATOM     11  C   UNL A   1      34.153  27.348  26.245  1.00  0.00     0.012 A 
ATOM     12  C   UNL A   1      32.312  28.719  26.896  1.00  0.00     0.131 A 
ATOM     13  C   UNL A   1      33.266  26.409  25.675  1.00  0.00     0.005 A 
ATOM     14  C   UNL A   1      31.423  27.800  26.321  1.00  0.00     0.044 A 
ATOM     15  F   UNL A   1      31.795  29.815  27.474  1.00  0.00    -0.206 F 
BRANCH  10  16
ATOM     16  C   UNL A   1      34.642  29.514  27.431  1.00  0.00    -0.012 A 
ATOM     17  C   UNL A   1      35.204  31.753  28.224  1.00  0.00     0.133 A 
ATOM     18  C   UNL A   1      36.518  31.365  28.477  1.00  0.00     0.047 A 
ATOM     19  C   UNL A   1      34.273  30.848  27.693  1.00  0.00     0.056 A 
ATOM     20  C   UNL A   1      36.902  30.053  28.214  1.00  0.00     0.004 A 
ATOM     21  C   UNL A   1      35.974  29.142  27.698  1.00  0.00     0.009 A 
BRANCH  17  22
ATOM     22  O   UNL A   1      34.904  33.116  28.410  1.00  0.00    -0.410 OA
BRANCH  22  23
ATOM     23  C   UNL A   1      35.041  33.628  29.691  1.00  0.00     0.412 C 
ATOM     24  N   UNL A   1      36.217  34.297  29.902  1.00  0.00    -0.321 N 
ATOM     25  H   UNL A   1      36.295  34.788  30.752  1.00  0.00     0.167 HD
ATOM     26  O   UNL A   1      34.226  33.511  30.599  1.00  0.00    -0.224 OA
BRANCH  24  27
ATOM     27  C   UNL A   1      37.358  34.366  29.012  1.00  0.00     0.119 C 
BRANCH  27  28
ATOM     28  C   UNL A   1      38.673  34.017  29.705  1.00  0.00     0.021 C 
BRANCH  28  29
ATOM     29  C   UNL A   1      39.734  35.127  29.704  1.00  0.00     0.002 C 
BRANCH  29  30
ATOM     30  C   UNL A   1      41.135  34.715  29.243  1.00  0.00    -0.003 C 
ATOM     31  C   UNL A   1      42.052  35.891  28.944  1.00  0.00     0.004 C 
ENDBRANCH  29  30
ENDBRANCH  28  29
ENDBRANCH  27  28
ENDBRANCH  24  27
ENDBRANCH  22  23
ENDBRANCH  17  22
ENDBRANCH  10  16
ENDBRANCH   7   9
ENDBRANCH   5   7
ENDBRANCH   4   5
ENDBRANCH   3   4
ENDBRANCH   2   3
ENDBRANCH   1   2
BRANCH   1  32
ATOM     32  C   UNL A   1      34.085  24.360  23.148  1.00  0.00     0.188 C 
BRANCH  32  33
ATOM     33  C   UNL A   1      34.927  23.077  23.098  1.00  0.00     0.188 C 
BRANCH  33  34
ATOM     34  O   UNL A   1      35.573  22.736  24.307  1.00  0.00    -0.377 OA
BRANCH  34  35
ATOM     35  C   UNL A   1      36.917  22.294  24.204  1.00  0.00     0.188 C 
BRANCH  35  36
ATOM     36  C   UNL A   1      37.676  22.028  25.518  1.00  0.00     0.188 C 
BRANCH  36  37
ATOM     37  O   UNL A   1      38.511  23.102  25.939  1.00  0.00    -0.376 OA
BRANCH  37  38
ATOM     38  C   UNL A   1      39.616  22.807  26.783  1.00  0.00     0.202 C 
BRANCH  38  39
ATOM     39  C   UNL A   1      40.070  23.892  27.770  1.00  0.00     0.261 C 
BRANCH  39  40
ATOM     40  O   UNL A   1      39.635  25.226  27.476  1.00  0.00    -0.460 OA
BRANCH  40  41
ATOM     41  C   UNL A   1      40.448  26.019  26.746  1.00  0.00     0.338 C 
ATOM     42  O   UNL A   1      40.713  25.919  25.569  1.00  0.00    -0.246 OA
BRANCH  41  43
ATOM     43  C   UNL A   1      40.786  27.193  27.588  1.00  0.00     0.060 A 
ATOM     44  C   UNL A   1      40.286  28.450  27.223  1.00  0.00     0.016 A 
ATOM     45  C   UNL A   1      41.590  27.060  28.722  1.00  0.00     0.016 A 
ATOM     46  C   UNL A   1      40.625  29.583  27.965  1.00  0.00     0.010 A 
ATOM     47  C   UNL A   1      41.951  28.198  29.451  1.00  0.00     0.010 A 
ATOM     48  C   UNL A   1      41.501  29.471  29.053  1.00  0.00    -0.014 A 
BRANCH  48  49
ATOM     49  C   UNL A   1      42.107  30.693  29.637  1.00  0.00     0.031 A 
ATOM     50  C   UNL A   1      41.391  31.372  30.774  1.00  0.00     0.074 A 
ATOM     51  C   UNL A   1      43.281  31.179  29.198  1.00  0.00     0.049 A 
ATOM     52  N   UNL A   1      41.694  32.471  31.416  1.00  0.00    -0.248 NA
ATOM     53  C   UNL A   1      40.162  30.716  31.250  1.00  0.00     0.031 C 
ATOM     54  C   UNL A   1      44.101  30.586  28.144  1.00  0.00     0.029 A 
ATOM     55  N   UNL A   1      43.986  32.293  29.587  1.00  0.00    -0.354 N 
ATOM     56  C   UNL A   1      40.695  32.639  32.366  1.00  0.00     0.074 A 
ATOM     57  C   UNL A   1      39.758  31.550  32.196  1.00  0.00     0.031 C 
ATOM     58  C   UNL A   1      45.194  31.349  27.963  1.00  0.00     0.029 A 
ATOM     59  C   UNL A   1      45.131  32.502  28.860  1.00  0.00     0.049 A 
ATOM     60  H   UNL A   1      43.695  32.885  30.318  1.00  0.00     0.167 HD
ATOM     61  C   UNL A   1      40.573  33.609  33.304  1.00  0.00     0.037 A 
ATOM     62  C   UNL A   1      46.012  33.522  28.901  1.00  0.00     0.037 A 
ATOM     63  C   UNL A   1      41.500  34.698  33.466  1.00  0.00     0.049 A 
ATOM     64  C   UNL A   1      45.802  34.645  29.889  1.00  0.00     0.074 A 
ATOM     65  C   UNL A   1      41.466  35.729  34.387  1.00  0.00     0.029 A 
ATOM     66  N   UNL A   1      42.624  34.901  32.679  1.00  0.00    -0.354 N 
ATOM     67  N   UNL A   1      44.865  34.790  30.795  1.00  0.00    -0.248 NA
ATOM     68  C   UNL A   1      46.777  35.745  29.859  1.00  0.00     0.031 C 
ATOM     69  C   UNL A   1      42.535  36.590  34.119  1.00  0.00     0.029 A 
ATOM     70  C   UNL A   1      43.276  36.058  33.075  1.00  0.00     0.049 A 
ATOM     71  H   UNL A   1      42.916  34.311  31.947  1.00  0.00     0.167 HD
ATOM     72  C   UNL A   1      45.157  35.973  31.463  1.00  0.00     0.074 A 
ATOM     73  C   UNL A   1      46.366  36.500  30.866  1.00  0.00     0.031 C 
ATOM     74  C   UNL A   1      44.485  36.567  32.481  1.00  0.00     0.037 A 
BRANCH  61  75
ATOM     75  C   UNL A   1      39.373  33.553  34.207  1.00  0.00     0.064 A 
ATOM     76  C   UNL A   1      38.165  34.180  33.871  1.00  0.00     0.173 A 
ATOM     77  C   UNL A   1      39.427  32.837  35.413  1.00  0.00     0.173 A 
ATOM     78  F   UNL A   1      38.064  34.890  32.736  1.00  0.00    -0.203 F 
ATOM     79  C   UNL A   1      37.064  34.118  34.722  1.00  0.00     0.198 A 
ATOM     80  C   UNL A   1      38.315  32.749  36.245  1.00  0.00     0.198 A 
ATOM     81  F   UNL A   1      40.558  32.215  35.781  1.00  0.00    -0.203 F 
ATOM     82  F   UNL A   1      35.936  34.769  34.405  1.00  0.00    -0.200 F 
ATOM     83  C   UNL A   1      37.138  33.396  35.903  1.00  0.00     0.200 A 
ATOM     84  F   UNL A   1      38.384  32.038  37.379  1.00  0.00    -0.200 F 
ATOM     85  F   UNL A   1      36.075  33.329  36.718  1.00  0.00    -0.200 F 
ENDBRANCH  61  75
BRANCH  62  86
ATOM     86  C   UNL A   1      47.172  33.546  27.969  1.00  0.00     0.064 A 
ATOM     87  C   UNL A   1      48.384  32.924  28.304  1.00  0.00     0.173 A 
ATOM     88  C   UNL A   1      47.105  34.218  26.740  1.00  0.00     0.173 A 
ATOM     89  F   UNL A   1      48.509  32.294  29.481  1.00  0.00    -0.203 F 
ATOM     90  C   UNL A   1      49.487  32.992  27.456  1.00  0.00     0.198 A 
ATOM     91  C   UNL A   1      48.200  34.257  25.878  1.00  0.00     0.198 A 
ATOM     92  F   UNL A   1      45.973  34.836  26.372  1.00  0.00    -0.203 F 
ATOM     93  F   UNL A   1      50.649  32.435  27.827  1.00  0.00    -0.200 F 
ATOM     94  C   UNL A   1      49.392  33.652  26.241  1.00  0.00     0.200 A 
ATOM     95  F   UNL A   1      48.100  34.888  24.700  1.00  0.00    -0.200 F 
ATOM     96  F   UNL A   1      50.454  33.716  25.426  1.00  0.00    -0.200 F 
ENDBRANCH  62  86
BRANCH  74  97
ATOM     97  C   UNL A   1      45.067  37.830  33.056  1.00  0.00     0.064 A 
ATOM     98  C   UNL A   1      44.537  39.095  32.755  1.00  0.00     0.173 A 
ATOM     99  C   UNL A   1      46.141  37.768  33.957  1.00  0.00     0.173 A 
ATOM    100  F   UNL A   1      43.518  39.211  31.891  1.00  0.00    -0.203 F 
ATOM    101  C   UNL A   1      45.081  40.250  33.312  1.00  0.00     0.198 A 
ATOM    102  C   UNL A   1      46.658  38.923  34.539  1.00  0.00     0.198 A 
ATOM    103  F   UNL A   1      46.681  36.586  34.288  1.00  0.00    -0.203 F 
ATOM    104  F   UNL A   1      44.592  41.450  32.969  1.00  0.00    -0.200 F 
ATOM    105  C   UNL A   1      46.134  40.162  34.209  1.00  0.00     0.200 A 
ATOM    106  F   UNL A   1      47.664  38.833  35.421  1.00  0.00    -0.200 F 
ATOM    107  F   UNL A   1      46.649  41.274  34.751  1.00  0.00    -0.200 F 
ENDBRANCH  74  97
ENDBRANCH  48  49
ENDBRANCH  41  43
ENDBRANCH  40  41
ENDBRANCH  39  40
ENDBRANCH  38  39
ENDBRANCH  37  38
ENDBRANCH  36  37
ENDBRANCH  35  36
ENDBRANCH  34  35
ENDBRANCH  33  34
ENDBRANCH  32  33
ENDBRANCH   1  32
TORSDOF 28
ENDMDL
