MODEL 1
REMARK VINA RESULT:      -9.8      0.000      0.000
REMARK SMILES CC1=NN(CC(=O)OCCOCCOCCOCCOC(=O)c2ccc(-c3c4nc(c(-c5c(F)c(F)c(F)c(F)c5F)c5ccc([nH]5)c(-c5c(F)c(F)c(F)c(F)c5F)c5nc(c(-c6c(F)c(F)c(F)c(F)c6F)c6ccc3[nH]6)C=C5)C=C4)cc2)C(=O)C1
REMARK SMILES IDX 15 1 14 2 13 3 12 4 11 5 10 6 9 7 8 8 6 9 7 10 5 11 4 12
REMARK SMILES IDX 1 13 2 14 3 15 88 16 86 17 87 18 16 19 17 20 18 21 19 22
REMARK SMILES IDX 20 23 21 24 22 25 23 26 24 27 85 28 25 29 84 30 26 31 27 32
REMARK SMILES IDX 28 33 78 34 29 35 83 36 77 37 79 38 30 39 82 40 76 41 75 42
REMARK SMILES IDX 31 44 63 45 43 46 62 47 44 48 47 49 61 50 80 51 45 52 46 53
REMARK SMILES IDX 60 55 81 56 48 57 32 58 33 59 41 60 34 61 35 62 39 63 42 64
REMARK SMILES IDX 36 65 37 66 40 67 38 68 64 69 65 70 73 71 66 72 67 73 71 74
REMARK SMILES IDX 74 75 68 76 69 77 72 78 70 79 49 80 50 81 58 82 51 83 52 84
REMARK SMILES IDX 56 85 59 86 53 87 54 88 57 89 55 90
REMARK H PARENT 79 43 47 54
REMARK Flexibility Score: inf
ROOT
ATOM      1  C   UNL A   1      31.848  24.932  26.729  1.00  0.00     0.188 C 
ENDROOT
BRANCH   1   2
ATOM      2  O   UNL A   1      31.524  23.649  27.242  1.00  0.00    -0.377 OA
BRANCH   2   3
ATOM      3  C   UNL A   1      32.025  22.504  26.579  1.00  0.00     0.188 C 
BRANCH   3   4
ATOM      4  C   UNL A   1      33.499  22.565  26.162  1.00  0.00     0.188 C 
BRANCH   4   5
ATOM      5  O   UNL A   1      33.934  21.839  25.029  1.00  0.00    -0.376 OA
BRANCH   5   6
ATOM      6  C   UNL A   1      34.316  22.521  23.842  1.00  0.00     0.202 C 
BRANCH   6   7
ATOM      7  C   UNL A   1      34.339  24.061  23.705  1.00  0.00     0.261 C 
BRANCH   7   8
ATOM      8  O   UNL A   1      34.387  24.622  22.375  1.00  0.00    -0.462 OA
BRANCH   8   9
ATOM      9  C   UNL A   1      33.390  25.474  22.034  1.00  0.00     0.327 C 
ATOM     10  O   UNL A   1      33.106  25.751  20.869  1.00  0.00    -0.250 OA
BRANCH   9  11
ATOM     11  C   UNL A   1      32.563  26.043  23.195  1.00  0.00     0.270 C 
BRANCH  11  12
ATOM     12  N   UNL A   1      31.716  27.222  23.076  1.00  0.00    -0.222 N 
ATOM     13  C   UNL A   1      28.445  28.679  22.753  1.00  0.00     0.064 C 
ATOM     14  C   UNL A   1      29.894  28.326  22.799  1.00  0.00     0.045 C 
ATOM     15  N   UNL A   1      30.342  27.117  22.944  1.00  0.00    -0.179 NA
ATOM     16  C   UNL A   1      30.970  29.355  22.659  1.00  0.00     0.155 C 
ATOM     17  C   UNL A   1      32.194  28.518  22.907  1.00  0.00     0.248 C 
ATOM     18  O   UNL A   1      33.350  28.905  22.904  1.00  0.00    -0.273 OA
ENDBRANCH  11  12
ENDBRANCH   9  11
ENDBRANCH   8   9
ENDBRANCH   7   8
ENDBRANCH   6   7
ENDBRANCH   5   6
ENDBRANCH   4   5
ENDBRANCH   3   4
ENDBRANCH   2   3
ENDBRANCH   1   2
BRANCH   1  19
ATOM     19  C   UNL A   1      30.714  25.845  26.233  1.00  0.00     0.188 C 
BRANCH  19  20
ATOM     20  O   UNL A   1      30.739  27.142  26.806  1.00  0.00    -0.376 OA
BRANCH  20  21
ATOM     21  C   UNL A   1      31.909  27.932  26.678  1.00  0.00     0.202 C 
BRANCH  21  22
ATOM     22  C   UNL A   1      31.765  29.445  26.436  1.00  0.00     0.261 C 
BRANCH  22  23
ATOM     23  O   UNL A   1      32.967  30.194  26.195  1.00  0.00    -0.460 OA
BRANCH  23  24
ATOM     24  C   UNL A   1      33.247  31.250  26.985  1.00  0.00     0.338 C 
ATOM     25  O   UNL A   1      32.518  32.191  27.243  1.00  0.00    -0.246 OA
BRANCH  24  26
ATOM     26  C   UNL A   1      34.540  30.972  27.653  1.00  0.00     0.060 A 
ATOM     27  C   UNL A   1      34.881  29.648  27.957  1.00  0.00     0.016 A 
ATOM     28  C   UNL A   1      35.424  32.011  27.955  1.00  0.00     0.016 A 
ATOM     29  C   UNL A   1      36.101  29.359  28.575  1.00  0.00     0.010 A 
ATOM     30  C   UNL A   1      36.634  31.723  28.598  1.00  0.00     0.010 A 
ATOM     31  C   UNL A   1      36.971  30.398  28.928  1.00  0.00    -0.014 A 
BRANCH  31  32
ATOM     32  C   UNL A   1      38.163  30.127  29.770  1.00  0.00     0.031 A 
ATOM     33  C   UNL A   1      39.216  29.190  29.248  1.00  0.00     0.074 A 
ATOM     34  C   UNL A   1      38.310  30.697  30.980  1.00  0.00     0.049 A 
ATOM     35  N   UNL A   1      40.277  28.711  29.845  1.00  0.00    -0.248 NA
ATOM     36  C   UNL A   1      39.045  28.729  27.861  1.00  0.00     0.031 C 
ATOM     37  C   UNL A   1      37.393  31.667  31.572  1.00  0.00     0.029 A 
ATOM     38  N   UNL A   1      39.281  30.523  31.937  1.00  0.00    -0.354 N 
ATOM     39  C   UNL A   1      40.892  27.884  28.913  1.00  0.00     0.074 A 
ATOM     40  C   UNL A   1      40.075  27.909  27.719  1.00  0.00     0.031 C 
ATOM     41  C   UNL A   1      37.832  31.986  32.803  1.00  0.00     0.029 A 
ATOM     42  C   UNL A   1      39.034  31.207  33.102  1.00  0.00     0.049 A 
ATOM     43  H   UNL A   1      40.078  29.961  31.799  1.00  0.00     0.167 HD
ATOM     44  C   UNL A   1      42.035  27.171  29.043  1.00  0.00     0.037 A 
ATOM     45  C   UNL A   1      39.679  31.174  34.285  1.00  0.00     0.037 A 
ATOM     46  C   UNL A   1      42.842  27.149  30.236  1.00  0.00     0.049 A 
ATOM     47  C   UNL A   1      40.890  30.287  34.442  1.00  0.00     0.074 A 
ATOM     48  C   UNL A   1      44.031  26.477  30.460  1.00  0.00     0.029 A 
ATOM     49  N   UNL A   1      42.533  27.818  31.411  1.00  0.00    -0.354 N 
ATOM     50  N   UNL A   1      41.481  29.526  33.551  1.00  0.00    -0.248 NA
ATOM     51  C   UNL A   1      41.519  30.246  35.771  1.00  0.00     0.031 C 
ATOM     52  C   UNL A   1      44.405  26.685  31.790  1.00  0.00     0.029 A 
ATOM     53  C   UNL A   1      43.485  27.539  32.378  1.00  0.00     0.049 A 
ATOM     54  H   UNL A   1      41.753  28.405  31.538  1.00  0.00     0.167 HD
ATOM     55  C   UNL A   1      42.557  28.936  34.204  1.00  0.00     0.074 A 
ATOM     56  C   UNL A   1      42.551  29.442  35.560  1.00  0.00     0.031 C 
ATOM     57  C   UNL A   1      43.467  28.052  33.724  1.00  0.00     0.037 A 
BRANCH  44  58
ATOM     58  C   UNL A   1      42.464  26.322  27.881  1.00  0.00     0.064 A 
ATOM     59  C   UNL A   1      43.405  26.770  26.943  1.00  0.00     0.173 A 
ATOM     60  C   UNL A   1      41.952  25.025  27.729  1.00  0.00     0.173 A 
ATOM     61  F   UNL A   1      43.917  28.006  27.035  1.00  0.00    -0.203 F 
ATOM     62  C   UNL A   1      43.797  25.960  25.879  1.00  0.00     0.198 A 
ATOM     63  C   UNL A   1      42.371  24.205  26.683  1.00  0.00     0.198 A 
ATOM     64  F   UNL A   1      41.052  24.545  28.600  1.00  0.00    -0.203 F 
ATOM     65  F   UNL A   1      44.662  26.427  24.967  1.00  0.00    -0.200 F 
ATOM     66  C   UNL A   1      43.286  24.677  25.755  1.00  0.00     0.200 A 
ATOM     67  F   UNL A   1      41.886  22.961  26.573  1.00  0.00    -0.200 F 
ATOM     68  F   UNL A   1      43.671  23.896  24.736  1.00  0.00    -0.200 F 
ENDBRANCH  44  58
BRANCH  45  69
ATOM     69  C   UNL A   1      39.171  31.970  35.435  1.00  0.00     0.064 A 
ATOM     70  C   UNL A   1      39.479  33.332  35.569  1.00  0.00     0.173 A 
ATOM     71  C   UNL A   1      38.393  31.380  36.443  1.00  0.00     0.173 A 
ATOM     72  F   UNL A   1      40.248  33.936  34.651  1.00  0.00    -0.203 F 
ATOM     73  C   UNL A   1      39.044  34.065  36.671  1.00  0.00     0.198 A 
ATOM     74  C   UNL A   1      37.931  32.121  37.528  1.00  0.00     0.198 A 
ATOM     75  F   UNL A   1      38.077  30.078  36.372  1.00  0.00    -0.203 F 
ATOM     76  F   UNL A   1      39.400  35.350  36.800  1.00  0.00    -0.200 F 
ATOM     77  C   UNL A   1      38.264  33.462  37.647  1.00  0.00     0.200 A 
ATOM     78  F   UNL A   1      37.171  31.535  38.463  1.00  0.00    -0.200 F 
ATOM     79  F   UNL A   1      37.845  34.168  38.705  1.00  0.00    -0.200 F 
ENDBRANCH  45  69
BRANCH  57  80
ATOM     80  C   UNL A   1      44.544  27.583  34.660  1.00  0.00     0.064 A 
ATOM     81  C   UNL A   1      44.404  26.408  35.412  1.00  0.00     0.173 A 
ATOM     82  C   UNL A   1      45.761  28.278  34.751  1.00  0.00     0.173 A 
ATOM     83  F   UNL A   1      43.256  25.714  35.373  1.00  0.00    -0.203 F 
ATOM     84  C   UNL A   1      45.434  25.955  36.233  1.00  0.00     0.198 A 
ATOM     85  C   UNL A   1      46.801  27.804  35.546  1.00  0.00     0.198 A 
ATOM     86  F   UNL A   1      45.951  29.404  34.045  1.00  0.00    -0.203 F 
ATOM     87  F   UNL A   1      45.263  24.850  36.972  1.00  0.00    -0.200 F 
ATOM     88  C   UNL A   1      46.635  26.647  36.290  1.00  0.00     0.200 A 
ATOM     89  F   UNL A   1      47.967  28.464  35.586  1.00  0.00    -0.200 F 
ATOM     90  F   UNL A   1      47.632  26.199  37.066  1.00  0.00    -0.200 F 
ENDBRANCH  57  80
ENDBRANCH  31  32
ENDBRANCH  24  26
ENDBRANCH  23  24
ENDBRANCH  22  23
ENDBRANCH  21  22
ENDBRANCH  20  21
ENDBRANCH  19  20
ENDBRANCH   1  19
TORSDOF 21
ENDMDL
MODEL 2
REMARK VINA RESULT:      -9.7      4.355      7.291
REMARK SMILES CC1=NN(CC(=O)OCCOCCOCCOCCOC(=O)c2ccc(-c3c4nc(c(-c5c(F)c(F)c(F)c(F)c5F)c5ccc([nH]5)c(-c5c(F)c(F)c(F)c(F)c5F)c5nc(c(-c6c(F)c(F)c(F)c(F)c6F)c6ccc3[nH]6)C=C5)C=C4)cc2)C(=O)C1
REMARK SMILES IDX 15 1 14 2 13 3 12 4 11 5 10 6 9 7 8 8 6 9 7 10 5 11 4 12
REMARK SMILES IDX 1 13 2 14 3 15 88 16 86 17 87 18 16 19 17 20 18 21 19 22
REMARK SMILES IDX 20 23 21 24 22 25 23 26 24 27 85 28 25 29 84 30 26 31 27 32
REMARK SMILES IDX 28 33 78 34 29 35 83 36 77 37 79 38 30 39 82 40 76 41 75 42
REMARK SMILES IDX 31 44 63 45 43 46 62 47 44 48 47 49 61 50 80 51 45 52 46 53
REMARK SMILES IDX 60 55 81 56 48 57 32 58 33 59 41 60 34 61 35 62 39 63 42 64
REMARK SMILES IDX 36 65 37 66 40 67 38 68 64 69 65 70 73 71 66 72 67 73 71 74
REMARK SMILES IDX 74 75 68 76 69 77 72 78 70 79 49 80 50 81 58 82 51 83 52 84
REMARK SMILES IDX 56 85 59 86 53 87 54 88 57 89 55 90
REMARK H PARENT 79 43 47 54
REMARK Flexibility Score: inf
ROOT
ATOM      1  C   UNL A   1      35.563  21.023  25.627  1.00  0.00     0.188 C 
ENDROOT
BRANCH   1   2
ATOM      2  O   UNL A   1      34.704  20.071  25.020  1.00  0.00    -0.377 OA
BRANCH   2   3
ATOM      3  C   UNL A   1      33.315  20.148  25.274  1.00  0.00     0.188 C 
BRANCH   3   4
ATOM      4  C   UNL A   1      32.486  20.917  24.240  1.00  0.00     0.188 C 
BRANCH   4   5
ATOM      5  O   UNL A   1      33.137  21.772  23.319  1.00  0.00    -0.376 OA
BRANCH   5   6
ATOM      6  C   UNL A   1      32.378  22.578  22.428  1.00  0.00     0.202 C 
BRANCH   6   7
ATOM      7  C   UNL A   1      32.965  23.769  21.634  1.00  0.00     0.261 C 
BRANCH   7   8
ATOM      8  O   UNL A   1      33.932  24.613  22.296  1.00  0.00    -0.462 OA
BRANCH   8   9
ATOM      9  C   UNL A   1      33.560  25.892  22.544  1.00  0.00     0.327 C 
ATOM     10  O   UNL A   1      33.783  26.823  21.772  1.00  0.00    -0.250 OA
BRANCH   9  11
ATOM     11  C   UNL A   1      32.766  26.124  23.837  1.00  0.00     0.270 C 
BRANCH  11  12
ATOM     12  N   UNL A   1      32.567  25.099  24.851  1.00  0.00    -0.222 N 
ATOM     13  C   UNL A   1      30.350  23.048  26.804  1.00  0.00     0.064 C 
ATOM     14  C   UNL A   1      31.462  23.830  26.188  1.00  0.00     0.045 C 
ATOM     15  N   UNL A   1      31.298  24.698  25.238  1.00  0.00    -0.179 NA
ATOM     16  C   UNL A   1      32.880  23.690  26.639  1.00  0.00     0.155 C 
ATOM     17  C   UNL A   1      33.582  24.563  25.637  1.00  0.00     0.248 C 
ATOM     18  O   UNL A   1      34.780  24.781  25.578  1.00  0.00    -0.273 OA
ENDBRANCH  11  12
ENDBRANCH   9  11
ENDBRANCH   8   9
ENDBRANCH   7   8
ENDBRANCH   6   7
ENDBRANCH   5   6
ENDBRANCH   4   5
ENDBRANCH   3   4
ENDBRANCH   2   3
ENDBRANCH   1   2
BRANCH   1  19
ATOM     19  C   UNL A   1      36.563  21.794  24.748  1.00  0.00     0.188 C 
BRANCH  19  20
ATOM     20  O   UNL A   1      37.851  21.203  24.702  1.00  0.00    -0.376 OA
BRANCH  20  21
ATOM     21  C   UNL A   1      37.985  19.815  24.959  1.00  0.00     0.202 C 
BRANCH  21  22
ATOM     22  C   UNL A   1      39.234  19.310  25.701  1.00  0.00     0.261 C 
BRANCH  22  23
ATOM     23  O   UNL A   1      40.284  20.260  25.950  1.00  0.00    -0.460 OA
BRANCH  23  24
ATOM     24  C   UNL A   1      40.767  20.384  27.202  1.00  0.00     0.338 C 
ATOM     25  O   UNL A   1      41.084  19.486  27.962  1.00  0.00    -0.246 OA
BRANCH  24  26
ATOM     26  C   UNL A   1      41.036  21.823  27.432  1.00  0.00     0.060 A 
ATOM     27  C   UNL A   1      40.406  22.774  26.618  1.00  0.00     0.016 A 
ATOM     28  C   UNL A   1      41.888  22.234  28.461  1.00  0.00     0.016 A 
ATOM     29  C   UNL A   1      40.634  24.137  26.824  1.00  0.00     0.010 A 
ATOM     30  C   UNL A   1      42.135  23.599  28.649  1.00  0.00     0.010 A 
ATOM     31  C   UNL A   1      41.524  24.558  27.820  1.00  0.00    -0.014 A 
BRANCH  31  32
ATOM     32  C   UNL A   1      41.937  25.981  27.909  1.00  0.00     0.031 A 
ATOM     33  C   UNL A   1      43.269  26.381  27.342  1.00  0.00     0.074 A 
ATOM     34  C   UNL A   1      41.147  26.903  28.488  1.00  0.00     0.049 A 
ATOM     35  N   UNL A   1      43.893  27.530  27.406  1.00  0.00    -0.248 NA
ATOM     36  C   UNL A   1      44.000  25.340  26.602  1.00  0.00     0.031 C 
ATOM     37  C   UNL A   1      39.810  26.655  29.021  1.00  0.00     0.029 A 
ATOM     38  N   UNL A   1      41.369  28.236  28.741  1.00  0.00    -0.354 N 
ATOM     39  C   UNL A   1      45.092  27.346  26.727  1.00  0.00     0.074 A 
ATOM     40  C   UNL A   1      45.118  25.972  26.278  1.00  0.00     0.031 C 
ATOM     41  C   UNL A   1      39.338  27.793  29.560  1.00  0.00     0.029 A 
ATOM     42  C   UNL A   1      40.358  28.836  29.451  1.00  0.00     0.049 A 
ATOM     43  H   UNL A   1      42.175  28.714  28.440  1.00  0.00     0.167 HD
ATOM     44  C   UNL A   1      46.077  28.246  26.500  1.00  0.00     0.037 A 
ATOM     45  C   UNL A   1      40.284  30.070  29.988  1.00  0.00     0.037 A 
ATOM     46  C   UNL A   1      46.045  29.612  26.952  1.00  0.00     0.049 A 
ATOM     47  C   UNL A   1      41.444  31.022  29.815  1.00  0.00     0.074 A 
ATOM     48  C   UNL A   1      46.983  30.609  26.752  1.00  0.00     0.029 A 
ATOM     49  N   UNL A   1      45.025  30.169  27.710  1.00  0.00    -0.354 N 
ATOM     50  N   UNL A   1      42.564  30.852  29.153  1.00  0.00    -0.248 NA
ATOM     51  C   UNL A   1      41.334  32.333  30.472  1.00  0.00     0.031 C 
ATOM     52  C   UNL A   1      46.564  31.748  27.445  1.00  0.00     0.029 A 
ATOM     53  C   UNL A   1      45.333  31.483  28.023  1.00  0.00     0.049 A 
ATOM     54  H   UNL A   1      44.203  29.700  27.983  1.00  0.00     0.167 HD
ATOM     55  C   UNL A   1      43.277  32.036  29.295  1.00  0.00     0.074 A 
ATOM     56  C   UNL A   1      42.457  32.925  30.090  1.00  0.00     0.031 C 
ATOM     57  C   UNL A   1      44.505  32.357  28.815  1.00  0.00     0.037 A 
BRANCH  44  58
ATOM     58  C   UNL A   1      47.296  27.772  25.761  1.00  0.00     0.064 A 
ATOM     59  C   UNL A   1      47.358  27.768  24.360  1.00  0.00     0.173 A 
ATOM     60  C   UNL A   1      48.432  27.354  26.469  1.00  0.00     0.173 A 
ATOM     61  F   UNL A   1      46.296  28.146  23.634  1.00  0.00    -0.203 F 
ATOM     62  C   UNL A   1      48.504  27.335  23.696  1.00  0.00     0.198 A 
ATOM     63  C   UNL A   1      49.588  26.953  25.803  1.00  0.00     0.198 A 
ATOM     64  F   UNL A   1      48.427  27.342  27.811  1.00  0.00    -0.203 F 
ATOM     65  F   UNL A   1      48.525  27.293  22.356  1.00  0.00    -0.200 F 
ATOM     66  C   UNL A   1      49.620  26.936  24.417  1.00  0.00     0.200 A 
ATOM     67  F   UNL A   1      50.668  26.581  26.502  1.00  0.00    -0.200 F 
ATOM     68  F   UNL A   1      50.724  26.529  23.776  1.00  0.00    -0.200 F 
ENDBRANCH  44  58
BRANCH  45  69
ATOM     69  C   UNL A   1      39.091  30.470  30.783  1.00  0.00     0.064 A 
ATOM     70  C   UNL A   1      38.014  31.141  30.187  1.00  0.00     0.173 A 
ATOM     71  C   UNL A   1      39.016  30.219  32.162  1.00  0.00     0.173 A 
ATOM     72  F   UNL A   1      38.050  31.435  28.880  1.00  0.00    -0.203 F 
ATOM     73  C   UNL A   1      36.918  31.558  30.941  1.00  0.00     0.198 A 
ATOM     74  C   UNL A   1      37.906  30.607  32.908  1.00  0.00     0.198 A 
ATOM     75  F   UNL A   1      40.024  29.590  32.786  1.00  0.00    -0.203 F 
ATOM     76  F   UNL A   1      35.928  32.244  30.355  1.00  0.00    -0.200 F 
ATOM     77  C   UNL A   1      36.861  31.284  32.300  1.00  0.00     0.200 A 
ATOM     78  F   UNL A   1      37.853  30.333  34.219  1.00  0.00    -0.200 F 
ATOM     79  F   UNL A   1      35.807  31.685  33.023  1.00  0.00    -0.200 F 
ENDBRANCH  45  69
BRANCH  57  80
ATOM     80  C   UNL A   1      45.034  33.730  29.115  1.00  0.00     0.064 A 
ATOM     81  C   UNL A   1      44.728  34.830  28.299  1.00  0.00     0.173 A 
ATOM     82  C   UNL A   1      45.795  33.963  30.271  1.00  0.00     0.173 A 
ATOM     83  F   UNL A   1      44.016  34.659  27.175  1.00  0.00    -0.203 F 
ATOM     84  C   UNL A   1      45.179  36.108  28.621  1.00  0.00     0.198 A 
ATOM     85  C   UNL A   1      46.215  35.247  30.607  1.00  0.00     0.198 A 
ATOM     86  F   UNL A   1      46.109  32.948  31.091  1.00  0.00    -0.203 F 
ATOM     87  F   UNL A   1      44.906  37.137  27.807  1.00  0.00    -0.200 F 
ATOM     88  C   UNL A   1      45.912  36.317  29.780  1.00  0.00     0.200 A 
ATOM     89  F   UNL A   1      46.909  35.450  31.737  1.00  0.00    -0.200 F 
ATOM     90  F   UNL A   1      46.328  37.551  30.098  1.00  0.00    -0.200 F 
ENDBRANCH  57  80
ENDBRANCH  31  32
ENDBRANCH  24  26
ENDBRANCH  23  24
ENDBRANCH  22  23
ENDBRANCH  21  22
ENDBRANCH  20  21
ENDBRANCH  19  20
ENDBRANCH   1  19
TORSDOF 21
ENDMDL
MODEL 3
REMARK VINA RESULT:      -9.5      3.015      8.129
REMARK SMILES CC1=NN(CC(=O)OCCOCCOCCOCCOC(=O)c2ccc(-c3c4nc(c(-c5c(F)c(F)c(F)c(F)c5F)c5ccc([nH]5)c(-c5c(F)c(F)c(F)c(F)c5F)c5nc(c(-c6c(F)c(F)c(F)c(F)c6F)c6ccc3[nH]6)C=C5)C=C4)cc2)C(=O)C1
REMARK SMILES IDX 15 1 14 2 13 3 12 4 11 5 10 6 9 7 8 8 6 9 7 10 5 11 4 12
REMARK SMILES IDX 1 13 2 14 3 15 88 16 86 17 87 18 16 19 17 20 18 21 19 22
REMARK SMILES IDX 20 23 21 24 22 25 23 26 24 27 85 28 25 29 84 30 26 31 27 32
REMARK SMILES IDX 28 33 78 34 29 35 83 36 77 37 79 38 30 39 82 40 76 41 75 42
REMARK SMILES IDX 31 44 63 45 43 46 62 47 44 48 47 49 61 50 80 51 45 52 46 53
REMARK SMILES IDX 60 55 81 56 48 57 32 58 33 59 41 60 34 61 35 62 39 63 42 64
REMARK SMILES IDX 36 65 37 66 40 67 38 68 64 69 65 70 73 71 66 72 67 73 71 74
REMARK SMILES IDX 74 75 68 76 69 77 72 78 70 79 49 80 50 81 58 82 51 83 52 84
REMARK SMILES IDX 56 85 59 86 53 87 54 88 57 89 55 90
REMARK H PARENT 79 43 47 54
REMARK Flexibility Score: inf
ROOT
ATOM      1  C   UNL A   1      40.202  20.645  26.433  1.00  0.00     0.188 C 
ENDROOT
BRANCH   1   2
ATOM      2  O   UNL A   1      39.395  21.809  26.506  1.00  0.00    -0.377 OA
BRANCH   2   3
ATOM      3  C   UNL A   1      38.395  22.007  25.525  1.00  0.00     0.188 C 
BRANCH   3   4
ATOM      4  C   UNL A   1      37.428  23.168  25.780  1.00  0.00     0.188 C 
BRANCH   4   5
ATOM      5  O   UNL A   1      36.067  22.897  26.051  1.00  0.00    -0.376 OA
BRANCH   5   6
ATOM      6  C   UNL A   1      35.081  23.105  25.049  1.00  0.00     0.202 C 
BRANCH   6   7
ATOM      7  C   UNL A   1      33.800  23.945  25.264  1.00  0.00     0.261 C 
BRANCH   7   8
ATOM      8  O   UNL A   1      32.592  23.253  25.647  1.00  0.00    -0.462 OA
BRANCH   8   9
ATOM      9  C   UNL A   1      31.563  24.015  26.092  1.00  0.00     0.327 C 
ATOM     10  O   UNL A   1      31.396  24.299  27.277  1.00  0.00    -0.250 OA
BRANCH   9  11
ATOM     11  C   UNL A   1      30.629  24.582  25.014  1.00  0.00     0.270 C 
BRANCH  11  12
ATOM     12  N   UNL A   1      30.903  25.808  24.278  1.00  0.00    -0.222 N 
ATOM     13  C   UNL A   1      30.590  29.375  23.958  1.00  0.00     0.064 C 
ATOM     14  C   UNL A   1      30.787  27.903  23.817  1.00  0.00     0.045 C 
ATOM     15  N   UNL A   1      30.430  27.035  24.713  1.00  0.00    -0.179 NA
ATOM     16  C   UNL A   1      31.405  27.295  22.600  1.00  0.00     0.155 C 
ATOM     17  C   UNL A   1      31.490  25.853  23.017  1.00  0.00     0.248 C 
ATOM     18  O   UNL A   1      31.933  24.931  22.356  1.00  0.00    -0.273 OA
ENDBRANCH  11  12
ENDBRANCH   9  11
ENDBRANCH   8   9
ENDBRANCH   7   8
ENDBRANCH   6   7
ENDBRANCH   5   6
ENDBRANCH   4   5
ENDBRANCH   3   4
ENDBRANCH   2   3
ENDBRANCH   1   2
BRANCH   1  19
ATOM     19  C   UNL A   1      41.226  20.374  27.548  1.00  0.00     0.188 C 
BRANCH  19  20
ATOM     20  O   UNL A   1      42.366  19.654  27.110  1.00  0.00    -0.376 OA
BRANCH  20  21
ATOM     21  C   UNL A   1      42.865  19.878  25.802  1.00  0.00     0.202 C 
BRANCH  21  22
ATOM     22  C   UNL A   1      43.940  20.958  25.588  1.00  0.00     0.261 C 
BRANCH  22  23
ATOM     23  O   UNL A   1      43.753  22.217  26.254  1.00  0.00    -0.460 OA
BRANCH  23  24
ATOM     24  C   UNL A   1      43.519  23.319  25.513  1.00  0.00     0.338 C 
ATOM     25  O   UNL A   1      43.557  23.411  24.299  1.00  0.00    -0.246 OA
BRANCH  24  26
ATOM     26  C   UNL A   1      43.009  24.367  26.426  1.00  0.00     0.060 A 
ATOM     27  C   UNL A   1      43.561  25.653  26.367  1.00  0.00     0.016 A 
ATOM     28  C   UNL A   1      41.971  24.090  27.322  1.00  0.00     0.016 A 
ATOM     29  C   UNL A   1      43.087  26.662  27.210  1.00  0.00     0.010 A 
ATOM     30  C   UNL A   1      41.516  25.095  28.183  1.00  0.00     0.010 A 
ATOM     31  C   UNL A   1      42.083  26.381  28.145  1.00  0.00    -0.014 A 
BRANCH  31  32
ATOM     32  C   UNL A   1      41.722  27.378  29.184  1.00  0.00     0.031 A 
ATOM     33  C   UNL A   1      42.525  27.419  30.453  1.00  0.00     0.074 A 
ATOM     34  C   UNL A   1      40.697  28.231  29.009  1.00  0.00     0.049 A 
ATOM     35  N   UNL A   1      42.328  28.114  31.544  1.00  0.00    -0.248 NA
ATOM     36  C   UNL A   1      43.713  26.552  30.499  1.00  0.00     0.031 C 
ATOM     37  C   UNL A   1      39.881  28.333  27.802  1.00  0.00     0.029 A 
ATOM     38  N   UNL A   1      40.155  29.163  29.862  1.00  0.00    -0.354 N 
ATOM     39  C   UNL A   1      43.357  27.760  32.408  1.00  0.00     0.074 A 
ATOM     40  C   UNL A   1      44.164  26.774  31.724  1.00  0.00     0.031 C 
ATOM     41  C   UNL A   1      38.926  29.259  27.999  1.00  0.00     0.029 A 
ATOM     42  C   UNL A   1      39.034  29.780  29.361  1.00  0.00     0.049 A 
ATOM     43  H   UNL A   1      40.535  29.368  30.747  1.00  0.00     0.167 HD
ATOM     44  C   UNL A   1      43.605  28.220  33.657  1.00  0.00     0.037 A 
ATOM     45  C   UNL A   1      38.173  30.633  29.951  1.00  0.00     0.037 A 
ATOM     46  C   UNL A   1      42.796  29.201  34.332  1.00  0.00     0.049 A 
ATOM     47  C   UNL A   1      38.409  31.048  31.383  1.00  0.00     0.074 A 
ATOM     48  C   UNL A   1      42.976  29.750  35.589  1.00  0.00     0.029 A 
ATOM     49  N   UNL A   1      41.642  29.767  33.810  1.00  0.00    -0.354 N 
ATOM     50  N   UNL A   1      39.396  30.730  32.188  1.00  0.00    -0.248 NA
ATOM     51  C   UNL A   1      37.406  31.934  31.994  1.00  0.00     0.031 C 
ATOM     52  C   UNL A   1      41.897  30.597  35.855  1.00  0.00     0.029 A 
ATOM     53  C   UNL A   1      41.076  30.626  34.739  1.00  0.00     0.049 A 
ATOM     54  H   UNL A   1      41.279  29.586  32.913  1.00  0.00     0.167 HD
ATOM     55  C   UNL A   1      39.144  31.390  33.384  1.00  0.00     0.074 A 
ATOM     56  C   UNL A   1      37.922  32.143  33.197  1.00  0.00     0.031 C 
ATOM     57  C   UNL A   1      39.859  31.371  34.537  1.00  0.00     0.037 A 
BRANCH  44  58
ATOM     58  C   UNL A   1      44.778  27.639  34.394  1.00  0.00     0.064 A 
ATOM     59  C   UNL A   1      44.662  26.484  35.180  1.00  0.00     0.173 A 
ATOM     60  C   UNL A   1      46.046  28.229  34.277  1.00  0.00     0.173 A 
ATOM     61  F   UNL A   1      43.470  25.888  35.335  1.00  0.00    -0.203 F 
ATOM     62  C   UNL A   1      45.766  25.956  35.844  1.00  0.00     0.198 A 
ATOM     63  C   UNL A   1      47.155  27.680  34.916  1.00  0.00     0.198 A 
ATOM     64  F   UNL A   1      46.213  29.333  33.534  1.00  0.00    -0.203 F 
ATOM     65  F   UNL A   1      45.623  24.879  36.630  1.00  0.00    -0.200 F 
ATOM     66  C   UNL A   1      47.013  26.549  35.705  1.00  0.00     0.200 A 
ATOM     67  F   UNL A   1      48.360  28.246  34.769  1.00  0.00    -0.200 F 
ATOM     68  F   UNL A   1      48.076  26.035  36.338  1.00  0.00    -0.200 F 
ENDBRANCH  44  58
BRANCH  45  69
ATOM     69  C   UNL A   1      36.978  31.121  29.210  1.00  0.00     0.064 A 
ATOM     70  C   UNL A   1      35.893  30.274  28.946  1.00  0.00     0.173 A 
ATOM     71  C   UNL A   1      36.910  32.434  28.720  1.00  0.00     0.173 A 
ATOM     72  F   UNL A   1      35.922  29.000  29.363  1.00  0.00    -0.203 F 
ATOM     73  C   UNL A   1      34.795  30.716  28.210  1.00  0.00     0.198 A 
ATOM     74  C   UNL A   1      35.799  32.885  28.012  1.00  0.00     0.198 A 
ATOM     75  F   UNL A   1      37.927  33.284  28.933  1.00  0.00    -0.203 F 
ATOM     76  F   UNL A   1      33.796  29.869  27.927  1.00  0.00    -0.200 F 
ATOM     77  C   UNL A   1      34.745  32.024  27.749  1.00  0.00     0.200 A 
ATOM     78  F   UNL A   1      35.753  34.152  27.576  1.00  0.00    -0.200 F 
ATOM     79  F   UNL A   1      33.689  32.448  27.043  1.00  0.00    -0.200 F 
ENDBRANCH  45  69
BRANCH  57  80
ATOM     80  C   UNL A   1      39.355  32.199  35.684  1.00  0.00     0.064 A 
ATOM     81  C   UNL A   1      38.485  31.667  36.648  1.00  0.00     0.173 A 
ATOM     82  C   UNL A   1      39.802  33.518  35.862  1.00  0.00     0.173 A 
ATOM     83  F   UNL A   1      38.016  30.417  36.517  1.00  0.00    -0.203 F 
ATOM     84  C   UNL A   1      38.070  32.429  37.738  1.00  0.00     0.198 A 
ATOM     85  C   UNL A   1      39.412  34.265  36.970  1.00  0.00     0.198 A 
ATOM     86  F   UNL A   1      40.641  34.073  34.974  1.00  0.00    -0.203 F 
ATOM     87  F   UNL A   1      37.209  31.912  38.625  1.00  0.00    -0.200 F 
ATOM     88  C   UNL A   1      38.543  33.723  37.903  1.00  0.00     0.200 A 
ATOM     89  F   UNL A   1      39.883  35.509  37.138  1.00  0.00    -0.200 F 
ATOM     90  F   UNL A   1      38.157  34.448  38.962  1.00  0.00    -0.200 F 
ENDBRANCH  57  80
ENDBRANCH  31  32
ENDBRANCH  24  26
ENDBRANCH  23  24
ENDBRANCH  22  23
ENDBRANCH  21  22
ENDBRANCH  20  21
ENDBRANCH  19  20
ENDBRANCH   1  19
TORSDOF 21
ENDMDL
