MODEL 1
REMARK VINA RESULT:      -9.0      0.000      0.000
REMARK SMILES O=C(Cc1ccc(F)cc1F)N[C@H](CCO)C(=O)OCCOCCOCCOCCOC(=O)c1ccc(-c2c3nc(c(-c4c(F)c(F)c(F)c(F)c4F)c4ccc([nH]4)c(-c4c(F)c(F)c(F)c(F)c4F)c4nc(c(-c5c(F)c(F)c(F)c(F)c5F)c5ccc2[nH]5)C=C4)C=C3)cc1
REMARK SMILES IDX 24 1 23 2 22 3 21 4 20 5 19 6 17 7 18 8 13 9 12 10 1 11 2 12
REMARK SMILES IDX 3 14 4 15 5 16 10 17 6 18 9 19 11 20 7 21 8 22 14 23 15 24
REMARK SMILES IDX 16 25 25 27 26 28 27 29 28 30 29 31 30 32 31 33 32 34 33 35
REMARK SMILES IDX 34 36 35 37 96 38 36 39 95 40 37 41 38 42 39 43 89 44 40 45
REMARK SMILES IDX 94 46 88 47 90 48 41 49 93 50 87 51 86 52 42 54 74 55 54 56
REMARK SMILES IDX 73 57 55 58 58 59 72 60 91 61 56 62 57 63 71 65 92 66 59 67
REMARK SMILES IDX 43 68 44 69 52 70 45 71 46 72 50 73 53 74 47 75 48 76 51 77
REMARK SMILES IDX 49 78 75 79 76 80 84 81 77 82 78 83 82 84 85 85 79 86 80 87
REMARK SMILES IDX 83 88 81 89 60 90 61 91 69 92 62 93 63 94 67 95 70 96 64 97
REMARK SMILES IDX 65 98 68 99 66 100
REMARK H PARENT 12 13 16 26 90 53 58 64
REMARK Flexibility Score: inf
ROOT
ATOM      1  C   UNL A   1      39.193  21.744  26.060  1.00  0.00     0.188 C 
ENDROOT
BRANCH   1   2
ATOM      2  C   UNL A   1      37.861  21.485  25.363  1.00  0.00     0.188 C 
BRANCH   2   3
ATOM      3  O   UNL A   1      36.964  22.587  25.418  1.00  0.00    -0.376 OA
BRANCH   3   4
ATOM      4  C   UNL A   1      36.622  23.105  24.137  1.00  0.00     0.202 C 
BRANCH   4   5
ATOM      5  C   UNL A   1      35.116  23.218  23.852  1.00  0.00     0.261 C 
BRANCH   5   6
ATOM      6  O   UNL A   1      34.194  22.600  24.775  1.00  0.00    -0.462 OA
BRANCH   6   7
ATOM      7  C   UNL A   1      33.648  23.404  25.712  1.00  0.00     0.328 C 
ATOM      8  O   UNL A   1      34.315  24.064  26.508  1.00  0.00    -0.250 OA
BRANCH   7   9
ATOM      9  C   UNL A   1      32.113  23.272  25.856  1.00  0.00     0.194 C 
BRANCH   9  10
ATOM     10  N   UNL A   1      31.494  24.264  24.963  1.00  0.00    -0.342 N 
ATOM     11  O   UNL A   1      31.123  22.821  23.211  1.00  0.00    -0.275 OA
ATOM     12  C   UNL A   1      31.073  23.951  23.686  1.00  0.00     0.225 C 
ATOM     13  H   UNL A   1      31.375  25.186  25.289  1.00  0.00     0.164 HD
BRANCH  12  14
ATOM     14  C   UNL A   1      30.557  25.112  22.864  1.00  0.00     0.138 C 
BRANCH  14  15
ATOM     15  C   UNL A   1      31.455  26.322  22.877  1.00  0.00    -0.003 A 
ATOM     16  C   UNL A   1      32.851  26.185  22.878  1.00  0.00     0.010 A 
ATOM     17  C   UNL A   1      30.899  27.605  22.837  1.00  0.00     0.129 A 
ATOM     18  C   UNL A   1      33.661  27.321  22.849  1.00  0.00     0.040 A 
ATOM     19  C   UNL A   1      31.698  28.737  22.814  1.00  0.00     0.078 A 
ATOM     20  F   UNL A   1      29.568  27.751  22.786  1.00  0.00    -0.207 F 
ATOM     21  C   UNL A   1      33.077  28.584  22.823  1.00  0.00     0.126 A 
ATOM     22  F   UNL A   1      33.859  29.670  22.793  1.00  0.00    -0.207 F 
ENDBRANCH  14  15
ENDBRANCH  12  14
ENDBRANCH   9  10
BRANCH   9  23
ATOM     23  C   UNL A   1      31.254  23.125  27.124  1.00  0.00     0.065 C 
BRANCH  23  24
ATOM     24  C   UNL A   1      29.763  22.880  27.080  1.00  0.00     0.159 C 
BRANCH  24  25
ATOM     25  O   UNL A   1      29.048  24.084  26.904  1.00  0.00    -0.396 OA
ATOM     26  H   UNL A   1      28.167  23.888  26.550  1.00  0.00     0.210 HD
ENDBRANCH  24  25
ENDBRANCH  23  24
ENDBRANCH   9  23
ENDBRANCH   7   9
ENDBRANCH   6   7
ENDBRANCH   5   6
ENDBRANCH   4   5
ENDBRANCH   3   4
ENDBRANCH   2   3
ENDBRANCH   1   2
BRANCH   1  27
ATOM     27  O   UNL A   1      40.108  20.662  26.130  1.00  0.00    -0.377 OA
BRANCH  27  28
ATOM     28  C   UNL A   1      41.165  20.691  27.083  1.00  0.00     0.188 C 
BRANCH  28  29
ATOM     29  C   UNL A   1      42.140  21.866  27.022  1.00  0.00     0.188 C 
BRANCH  29  30
ATOM     30  O   UNL A   1      43.324  21.719  26.238  1.00  0.00    -0.376 OA
BRANCH  30  31
ATOM     31  C   UNL A   1      43.412  22.375  24.977  1.00  0.00     0.202 C 
BRANCH  31  32
ATOM     32  C   UNL A   1      43.256  23.888  25.026  1.00  0.00     0.261 C 
BRANCH  32  33
ATOM     33  O   UNL A   1      44.534  24.530  25.135  1.00  0.00    -0.460 OA
BRANCH  33  34
ATOM     34  C   UNL A   1      45.029  24.609  26.386  1.00  0.00     0.338 C 
ATOM     35  O   UNL A   1      46.088  24.160  26.803  1.00  0.00    -0.246 OA
BRANCH  34  36
ATOM     36  C   UNL A   1      44.141  25.438  27.211  1.00  0.00     0.060 A 
ATOM     37  C   UNL A   1      44.294  26.829  27.158  1.00  0.00     0.016 A 
ATOM     38  C   UNL A   1      43.242  24.849  28.104  1.00  0.00     0.016 A 
ATOM     39  C   UNL A   1      43.604  27.634  28.057  1.00  0.00     0.010 A 
ATOM     40  C   UNL A   1      42.555  25.656  29.008  1.00  0.00     0.010 A 
ATOM     41  C   UNL A   1      42.775  27.043  29.020  1.00  0.00    -0.014 A 
BRANCH  41  42
ATOM     42  C   UNL A   1      42.286  27.850  30.159  1.00  0.00     0.031 A 
ATOM     43  C   UNL A   1      41.006  28.620  29.992  1.00  0.00     0.074 A 
ATOM     44  C   UNL A   1      42.967  27.879  31.317  1.00  0.00     0.049 A 
ATOM     45  N   UNL A   1      40.429  29.456  30.815  1.00  0.00    -0.248 NA
ATOM     46  C   UNL A   1      40.277  28.424  28.727  1.00  0.00     0.031 C 
ATOM     47  C   UNL A   1      44.193  27.134  31.592  1.00  0.00     0.029 A 
ATOM     48  N   UNL A   1      42.725  28.575  32.474  1.00  0.00    -0.354 N 
ATOM     49  C   UNL A   1      39.281  29.891  30.164  1.00  0.00     0.074 A 
ATOM     50  C   UNL A   1      39.251  29.250  28.871  1.00  0.00     0.031 C 
ATOM     51  C   UNL A   1      44.609  27.425  32.836  1.00  0.00     0.029 A 
ATOM     52  C   UNL A   1      43.700  28.408  33.425  1.00  0.00     0.049 A 
ATOM     53  H   UNL A   1      41.930  29.140  32.608  1.00  0.00     0.167 HD
ATOM     54  C   UNL A   1      38.336  30.743  30.620  1.00  0.00     0.037 A 
ATOM     55  C   UNL A   1      43.851  29.007  34.622  1.00  0.00     0.037 A 
ATOM     56  C   UNL A   1      38.371  31.360  31.919  1.00  0.00     0.049 A 
ATOM     57  C   UNL A   1      42.814  30.002  35.076  1.00  0.00     0.074 A 
ATOM     58  C   UNL A   1      37.450  32.222  32.485  1.00  0.00     0.029 A 
ATOM     59  N   UNL A   1      39.381  31.178  32.851  1.00  0.00    -0.354 N 
ATOM     60  N   UNL A   1      41.719  30.395  34.467  1.00  0.00    -0.248 NA
ATOM     61  C   UNL A   1      43.026  30.637  36.385  1.00  0.00     0.031 C 
ATOM     62  C   UNL A   1      37.931  32.608  33.737  1.00  0.00     0.029 A 
ATOM     63  C   UNL A   1      39.118  31.935  33.979  1.00  0.00     0.049 A 
ATOM     64  H   UNL A   1      40.168  30.599  32.729  1.00  0.00     0.167 HD
ATOM     65  C   UNL A   1      41.102  31.293  35.327  1.00  0.00     0.074 A 
ATOM     66  C   UNL A   1      41.934  31.378  36.509  1.00  0.00     0.031 C 
ATOM     67  C   UNL A   1      39.951  31.988  35.155  1.00  0.00     0.037 A 
BRANCH  54  68
ATOM     68  C   UNL A   1      37.180  31.075  29.724  1.00  0.00     0.064 A 
ATOM     69  C   UNL A   1      36.216  30.099  29.425  1.00  0.00     0.173 A 
ATOM     70  C   UNL A   1      37.090  32.310  29.068  1.00  0.00     0.173 A 
ATOM     71  F   UNL A   1      36.261  28.900  30.025  1.00  0.00    -0.203 F 
ATOM     72  C   UNL A   1      35.226  30.336  28.476  1.00  0.00     0.198 A 
ATOM     73  C   UNL A   1      36.082  32.554  28.138  1.00  0.00     0.198 A 
ATOM     74  F   UNL A   1      37.979  33.281  29.330  1.00  0.00    -0.203 F 
ATOM     75  F   UNL A   1      34.349  29.371  28.169  1.00  0.00    -0.200 F 
ATOM     76  C   UNL A   1      35.161  31.563  27.832  1.00  0.00     0.200 A 
ATOM     77  F   UNL A   1      36.006  33.746  27.531  1.00  0.00    -0.200 F 
ATOM     78  F   UNL A   1      34.214  31.787  26.911  1.00  0.00    -0.200 F 
ENDBRANCH  54  68
BRANCH  55  79
ATOM     79  C   UNL A   1      45.039  28.697  35.463  1.00  0.00     0.064 A 
ATOM     80  C   UNL A   1      46.212  29.462  35.378  1.00  0.00     0.173 A 
ATOM     81  C   UNL A   1      45.021  27.636  36.378  1.00  0.00     0.173 A 
ATOM     82  F   UNL A   1      46.282  30.492  34.521  1.00  0.00    -0.203 F 
ATOM     83  C   UNL A   1      47.323  29.170  36.165  1.00  0.00     0.198 A 
ATOM     84  C   UNL A   1      46.121  27.366  37.190  1.00  0.00     0.198 A 
ATOM     85  F   UNL A   1      43.916  26.888  36.516  1.00  0.00    -0.203 F 
ATOM     86  F   UNL A   1      48.440  29.901  36.042  1.00  0.00    -0.200 F 
ATOM     87  C   UNL A   1      47.275  28.128  37.077  1.00  0.00     0.200 A 
ATOM     88  F   UNL A   1      46.057  26.379  38.095  1.00  0.00    -0.200 F 
ATOM     89  F   UNL A   1      48.333  27.865  37.855  1.00  0.00    -0.200 F 
ENDBRANCH  55  79
BRANCH  67  90
ATOM     90  C   UNL A   1      39.491  32.875  36.276  1.00  0.00     0.064 A 
ATOM     91  C   UNL A   1      40.013  34.172  36.409  1.00  0.00     0.173 A 
ATOM     92  C   UNL A   1      38.615  32.414  37.267  1.00  0.00     0.173 A 
ATOM     93  F   UNL A   1      40.867  34.656  35.494  1.00  0.00    -0.203 F 
ATOM     94  C   UNL A   1      39.690  34.965  37.506  1.00  0.00     0.198 A 
ATOM     95  C   UNL A   1      38.266  33.224  38.344  1.00  0.00     0.198 A 
ATOM     96  F   UNL A   1      38.082  31.186  37.179  1.00  0.00    -0.203 F 
ATOM     97  F   UNL A   1      40.238  36.181  37.637  1.00  0.00    -0.200 F 
ATOM     98  C   UNL A   1      38.814  34.491  38.470  1.00  0.00     0.200 A 
ATOM     99  F   UNL A   1      37.399  32.775  39.262  1.00  0.00    -0.200 F 
ATOM    100  F   UNL A   1      38.495  35.259  39.522  1.00  0.00    -0.200 F 
ENDBRANCH  67  90
ENDBRANCH  41  42
ENDBRANCH  34  36
ENDBRANCH  33  34
ENDBRANCH  32  33
ENDBRANCH  31  32
ENDBRANCH  30  31
ENDBRANCH  29  30
ENDBRANCH  28  29
ENDBRANCH  27  28
ENDBRANCH   1  27
TORSDOF 26
ENDMDL
MODEL 2
REMARK VINA RESULT:      -8.9      1.921      2.823
REMARK SMILES O=C(Cc1ccc(F)cc1F)N[C@H](CCO)C(=O)OCCOCCOCCOCCOC(=O)c1ccc(-c2c3nc(c(-c4c(F)c(F)c(F)c(F)c4F)c4ccc([nH]4)c(-c4c(F)c(F)c(F)c(F)c4F)c4nc(c(-c5c(F)c(F)c(F)c(F)c5F)c5ccc2[nH]5)C=C4)C=C3)cc1
REMARK SMILES IDX 24 1 23 2 22 3 21 4 20 5 19 6 17 7 18 8 13 9 12 10 1 11 2 12
REMARK SMILES IDX 3 14 4 15 5 16 10 17 6 18 9 19 11 20 7 21 8 22 14 23 15 24
REMARK SMILES IDX 16 25 25 27 26 28 27 29 28 30 29 31 30 32 31 33 32 34 33 35
REMARK SMILES IDX 34 36 35 37 96 38 36 39 95 40 37 41 38 42 39 43 89 44 40 45
REMARK SMILES IDX 94 46 88 47 90 48 41 49 93 50 87 51 86 52 42 54 74 55 54 56
REMARK SMILES IDX 73 57 55 58 58 59 72 60 91 61 56 62 57 63 71 65 92 66 59 67
REMARK SMILES IDX 43 68 44 69 52 70 45 71 46 72 50 73 53 74 47 75 48 76 51 77
REMARK SMILES IDX 49 78 75 79 76 80 84 81 77 82 78 83 82 84 85 85 79 86 80 87
REMARK SMILES IDX 83 88 81 89 60 90 61 91 69 92 62 93 63 94 67 95 70 96 64 97
REMARK SMILES IDX 65 98 68 99 66 100
REMARK H PARENT 12 13 16 26 90 53 58 64
REMARK Flexibility Score: inf
ROOT
ATOM      1  C   UNL A   1      41.924  22.267  26.394  1.00  0.00     0.188 C 
ENDROOT
BRANCH   1   2
ATOM      2  C   UNL A   1      40.477  22.101  26.848  1.00  0.00     0.188 C 
BRANCH   2   3
ATOM      3  O   UNL A   1      39.670  21.372  25.931  1.00  0.00    -0.376 OA
BRANCH   3   4
ATOM      4  C   UNL A   1      38.377  21.937  25.740  1.00  0.00     0.202 C 
BRANCH   4   5
ATOM      5  C   UNL A   1      37.421  21.115  24.862  1.00  0.00     0.261 C 
BRANCH   5   6
ATOM      6  O   UNL A   1      36.001  21.298  25.037  1.00  0.00    -0.462 OA
BRANCH   6   7
ATOM      7  C   UNL A   1      35.229  20.199  24.905  1.00  0.00     0.328 C 
ATOM      8  O   UNL A   1      35.684  19.056  24.855  1.00  0.00    -0.250 OA
BRANCH   7   9
ATOM      9  C   UNL A   1      33.740  20.490  24.604  1.00  0.00     0.194 C 
BRANCH   9  10
ATOM     10  N   UNL A   1      33.272  21.483  25.583  1.00  0.00    -0.342 N 
ATOM     11  O   UNL A   1      33.470  23.309  24.198  1.00  0.00    -0.275 OA
ATOM     12  C   UNL A   1      33.206  22.832  25.297  1.00  0.00     0.225 C 
ATOM     13  H   UNL A   1      32.996  21.174  26.476  1.00  0.00     0.164 HD
BRANCH  12  14
ATOM     14  C   UNL A   1      32.806  23.727  26.450  1.00  0.00     0.138 C 
BRANCH  14  15
ATOM     15  C   UNL A   1      32.264  25.068  26.029  1.00  0.00    -0.003 A 
ATOM     16  C   UNL A   1      33.069  26.216  26.067  1.00  0.00     0.010 A 
ATOM     17  C   UNL A   1      30.957  25.171  25.543  1.00  0.00     0.129 A 
ATOM     18  C   UNL A   1      32.557  27.439  25.632  1.00  0.00     0.040 A 
ATOM     19  C   UNL A   1      30.440  26.384  25.115  1.00  0.00     0.078 A 
ATOM     20  F   UNL A   1      30.193  24.075  25.454  1.00  0.00    -0.207 F 
ATOM     21  C   UNL A   1      31.247  27.511  25.167  1.00  0.00     0.126 A 
ATOM     22  F   UNL A   1      30.760  28.687  24.749  1.00  0.00    -0.207 F 
ENDBRANCH  14  15
ENDBRANCH  12  14
ENDBRANCH   9  10
BRANCH   9  23
ATOM     23  C   UNL A   1      32.593  19.516  24.282  1.00  0.00     0.065 C 
BRANCH  23  24
ATOM     24  C   UNL A   1      32.283  18.305  25.133  1.00  0.00     0.159 C 
BRANCH  24  25
ATOM     25  O   UNL A   1      32.873  18.409  26.411  1.00  0.00    -0.396 OA
ATOM     26  H   UNL A   1      32.217  18.188  27.090  1.00  0.00     0.210 HD
ENDBRANCH  24  25
ENDBRANCH  23  24
ENDBRANCH   9  23
ENDBRANCH   7   9
ENDBRANCH   6   7
ENDBRANCH   5   6
ENDBRANCH   4   5
ENDBRANCH   3   4
ENDBRANCH   2   3
ENDBRANCH   1   2
BRANCH   1  27
ATOM     27  O   UNL A   1      42.844  22.783  27.342  1.00  0.00    -0.377 OA
BRANCH  27  28
ATOM     28  C   UNL A   1      44.244  22.665  27.105  1.00  0.00     0.188 C 
BRANCH  28  29
ATOM     29  C   UNL A   1      45.001  23.930  26.706  1.00  0.00     0.188 C 
BRANCH  29  30
ATOM     30  O   UNL A   1      46.246  23.784  26.023  1.00  0.00    -0.376 OA
BRANCH  30  31
ATOM     31  C   UNL A   1      47.368  24.552  26.446  1.00  0.00     0.202 C 
BRANCH  31  32
ATOM     32  C   UNL A   1      47.757  25.690  25.513  1.00  0.00     0.261 C 
BRANCH  32  33
ATOM     33  O   UNL A   1      46.592  26.351  25.000  1.00  0.00    -0.460 OA
BRANCH  33  34
ATOM     34  C   UNL A   1      46.597  27.693  25.119  1.00  0.00     0.338 C 
ATOM     35  O   UNL A   1      47.303  28.497  24.525  1.00  0.00    -0.246 OA
BRANCH  34  36
ATOM     36  C   UNL A   1      45.517  28.107  26.025  1.00  0.00     0.060 A 
ATOM     37  C   UNL A   1      45.321  29.476  26.243  1.00  0.00     0.016 A 
ATOM     38  C   UNL A   1      44.777  27.155  26.733  1.00  0.00     0.016 A 
ATOM     39  C   UNL A   1      44.439  29.899  27.229  1.00  0.00     0.010 A 
ATOM     40  C   UNL A   1      43.896  27.580  27.725  1.00  0.00     0.010 A 
ATOM     41  C   UNL A   1      43.765  28.950  28.009  1.00  0.00    -0.014 A 
BRANCH  41  42
ATOM     42  C   UNL A   1      43.073  29.376  29.244  1.00  0.00     0.031 A 
ATOM     43  C   UNL A   1      41.621  29.755  29.155  1.00  0.00     0.074 A 
ATOM     44  C   UNL A   1      43.727  29.409  30.417  1.00  0.00     0.049 A 
ATOM     45  N   UNL A   1      40.832  30.236  30.080  1.00  0.00    -0.248 NA
ATOM     46  C   UNL A   1      40.968  29.568  27.847  1.00  0.00     0.031 C 
ATOM     47  C   UNL A   1      45.122  29.021  30.615  1.00  0.00     0.029 A 
ATOM     48  N   UNL A   1      43.303  29.801  31.662  1.00  0.00    -0.354 N 
ATOM     49  C   UNL A   1      39.600  30.419  29.464  1.00  0.00     0.074 A 
ATOM     50  C   UNL A   1      39.746  30.023  28.083  1.00  0.00     0.031 C 
ATOM     51  C   UNL A   1      45.446  29.209  31.905  1.00  0.00     0.029 A 
ATOM     52  C   UNL A   1      44.295  29.769  32.611  1.00  0.00     0.049 A 
ATOM     53  H   UNL A   1      42.378  30.078  31.855  1.00  0.00     0.167 HD
ATOM     54  C   UNL A   1      38.450  30.869  30.016  1.00  0.00     0.037 A 
ATOM     55  C   UNL A   1      44.276  30.178  33.894  1.00  0.00     0.037 A 
ATOM     56  C   UNL A   1      38.317  31.242  31.398  1.00  0.00     0.049 A 
ATOM     57  C   UNL A   1      42.995  30.736  34.463  1.00  0.00     0.074 A 
ATOM     58  C   UNL A   1      37.188  31.690  32.060  1.00  0.00     0.029 A 
ATOM     59  N   UNL A   1      39.345  31.211  32.326  1.00  0.00    -0.354 N 
ATOM     60  N   UNL A   1      41.828  30.887  33.884  1.00  0.00    -0.248 NA
ATOM     61  C   UNL A   1      43.025  31.177  35.865  1.00  0.00     0.031 C 
ATOM     62  C   UNL A   1      37.548  31.985  33.376  1.00  0.00     0.029 A 
ATOM     63  C   UNL A   1      38.883  31.658  33.552  1.00  0.00     0.049 A 
ATOM     64  H   UNL A   1      40.266  30.916  32.143  1.00  0.00     0.167 HD
ATOM     65  C   UNL A   1      40.982  31.408  34.854  1.00  0.00     0.074 A 
ATOM     66  C   UNL A   1      41.765  31.534  36.065  1.00  0.00     0.031 C 
ATOM     67  C   UNL A   1      39.676  31.755  34.752  1.00  0.00     0.037 A 
BRANCH  54  68
ATOM     68  C   UNL A   1      37.239  30.992  29.141  1.00  0.00     0.064 A 
ATOM     69  C   UNL A   1      36.823  32.253  28.685  1.00  0.00     0.173 A 
ATOM     70  C   UNL A   1      36.424  29.888  28.854  1.00  0.00     0.173 A 
ATOM     71  F   UNL A   1      37.567  33.341  28.936  1.00  0.00    -0.203 F 
ATOM     72  C   UNL A   1      35.619  32.408  28.004  1.00  0.00     0.198 A 
ATOM     73  C   UNL A   1      35.233  30.043  28.149  1.00  0.00     0.198 A 
ATOM     74  F   UNL A   1      36.786  28.660  29.255  1.00  0.00    -0.203 F 
ATOM     75  F   UNL A   1      35.218  33.629  27.625  1.00  0.00    -0.200 F 
ATOM     76  C   UNL A   1      34.824  31.303  27.738  1.00  0.00     0.200 A 
ATOM     77  F   UNL A   1      34.475  28.973  27.874  1.00  0.00    -0.200 F 
ATOM     78  F   UNL A   1      33.660  31.455  27.093  1.00  0.00    -0.200 F 
ENDBRANCH  54  68
BRANCH  55  79
ATOM     79  C   UNL A   1      45.510  30.092  34.719  1.00  0.00     0.064 A 
ATOM     80  C   UNL A   1      46.440  31.143  34.749  1.00  0.00     0.173 A 
ATOM     81  C   UNL A   1      45.781  28.963  35.504  1.00  0.00     0.173 A 
ATOM     82  F   UNL A   1      46.230  32.249  34.020  1.00  0.00    -0.203 F 
ATOM     83  C   UNL A   1      47.597  31.062  35.521  1.00  0.00     0.198 A 
ATOM     84  C   UNL A   1      46.921  28.897  36.303  1.00  0.00     0.198 A 
ATOM     85  F   UNL A   1      44.913  27.941  35.529  1.00  0.00    -0.203 F 
ATOM     86  F   UNL A   1      48.482  32.069  35.509  1.00  0.00    -0.200 F 
ATOM     87  C   UNL A   1      47.833  29.942  36.304  1.00  0.00     0.200 A 
ATOM     88  F   UNL A   1      47.127  27.829  37.085  1.00  0.00    -0.200 F 
ATOM     89  F   UNL A   1      48.930  29.876  37.070  1.00  0.00    -0.200 F 
ENDBRANCH  55  79
BRANCH  67  90
ATOM     90  C   UNL A   1      38.987  32.269  35.983  1.00  0.00     0.064 A 
ATOM     91  C   UNL A   1      39.147  33.607  36.375  1.00  0.00     0.173 A 
ATOM     92  C   UNL A   1      38.253  31.420  36.824  1.00  0.00     0.173 A 
ATOM     93  F   UNL A   1      39.852  34.457  35.612  1.00  0.00    -0.203 F 
ATOM     94  C   UNL A   1      38.615  34.072  37.575  1.00  0.00     0.198 A 
ATOM     95  C   UNL A   1      37.693  31.897  38.005  1.00  0.00     0.198 A 
ATOM     96  F   UNL A   1      38.064  30.136  36.489  1.00  0.00    -0.203 F 
ATOM     97  F   UNL A   1      38.820  35.341  37.951  1.00  0.00    -0.200 F 
ATOM     98  C   UNL A   1      37.885  33.217  38.386  1.00  0.00     0.200 A 
ATOM     99  F   UNL A   1      36.966  31.078  38.777  1.00  0.00    -0.200 F 
ATOM    100  F   UNL A   1      37.364  33.666  39.537  1.00  0.00    -0.200 F 
ENDBRANCH  67  90
ENDBRANCH  41  42
ENDBRANCH  34  36
ENDBRANCH  33  34
ENDBRANCH  32  33
ENDBRANCH  31  32
ENDBRANCH  30  31
ENDBRANCH  29  30
ENDBRANCH  28  29
ENDBRANCH  27  28
ENDBRANCH   1  27
TORSDOF 26
ENDMDL
MODEL 3
REMARK VINA RESULT:      -8.8      1.020      2.114
REMARK SMILES O=C(Cc1ccc(F)cc1F)N[C@H](CCO)C(=O)OCCOCCOCCOCCOC(=O)c1ccc(-c2c3nc(c(-c4c(F)c(F)c(F)c(F)c4F)c4ccc([nH]4)c(-c4c(F)c(F)c(F)c(F)c4F)c4nc(c(-c5c(F)c(F)c(F)c(F)c5F)c5ccc2[nH]5)C=C4)C=C3)cc1
REMARK SMILES IDX 24 1 23 2 22 3 21 4 20 5 19 6 17 7 18 8 13 9 12 10 1 11 2 12
REMARK SMILES IDX 3 14 4 15 5 16 10 17 6 18 9 19 11 20 7 21 8 22 14 23 15 24
REMARK SMILES IDX 16 25 25 27 26 28 27 29 28 30 29 31 30 32 31 33 32 34 33 35
REMARK SMILES IDX 34 36 35 37 96 38 36 39 95 40 37 41 38 42 39 43 89 44 40 45
REMARK SMILES IDX 94 46 88 47 90 48 41 49 93 50 87 51 86 52 42 54 74 55 54 56
REMARK SMILES IDX 73 57 55 58 58 59 72 60 91 61 56 62 57 63 71 65 92 66 59 67
REMARK SMILES IDX 43 68 44 69 52 70 45 71 46 72 50 73 53 74 47 75 48 76 51 77
REMARK SMILES IDX 49 78 75 79 76 80 84 81 77 82 78 83 82 84 85 85 79 86 80 87
REMARK SMILES IDX 83 88 81 89 60 90 61 91 69 92 62 93 63 94 67 95 70 96 64 97
REMARK SMILES IDX 65 98 68 99 66 100
REMARK H PARENT 12 13 16 26 90 53 58 64
REMARK Flexibility Score: inf
ROOT
ATOM      1  C   UNL A   1      39.047  21.576  25.874  1.00  0.00     0.188 C 
ENDROOT
BRANCH   1   2
ATOM      2  C   UNL A   1      37.794  21.239  25.072  1.00  0.00     0.188 C 
BRANCH   2   3
ATOM      3  O   UNL A   1      36.800  22.255  25.112  1.00  0.00    -0.376 OA
BRANCH   3   4
ATOM      4  C   UNL A   1      36.671  22.970  23.888  1.00  0.00     0.202 C 
BRANCH   4   5
ATOM      5  C   UNL A   1      35.230  23.278  23.452  1.00  0.00     0.261 C 
BRANCH   5   6
ATOM      6  O   UNL A   1      34.148  22.632  24.156  1.00  0.00    -0.462 OA
BRANCH   6   7
ATOM      7  C   UNL A   1      33.613  23.309  25.194  1.00  0.00     0.328 C 
ATOM      8  O   UNL A   1      34.025  23.209  26.349  1.00  0.00    -0.250 OA
BRANCH   7   9
ATOM      9  C   UNL A   1      32.300  24.060  24.864  1.00  0.00     0.194 C 
BRANCH   9  10
ATOM     10  N   UNL A   1      32.664  25.364  24.289  1.00  0.00    -0.342 N 
ATOM     11  O   UNL A   1      33.310  26.337  26.271  1.00  0.00    -0.275 OA
ATOM     12  C   UNL A   1      33.117  26.415  25.062  1.00  0.00     0.225 C 
ATOM     13  H   UNL A   1      32.582  25.492  23.316  1.00  0.00     0.164 HD
BRANCH  12  14
ATOM     14  C   UNL A   1      33.345  27.718  24.327  1.00  0.00     0.138 C 
BRANCH  14  15
ATOM     15  C   UNL A   1      32.079  28.401  23.881  1.00  0.00    -0.003 A 
ATOM     16  C   UNL A   1      31.426  28.014  22.701  1.00  0.00     0.010 A 
ATOM     17  C   UNL A   1      31.510  29.403  24.673  1.00  0.00     0.129 A 
ATOM     18  C   UNL A   1      30.233  28.633  22.330  1.00  0.00     0.040 A 
ATOM     19  C   UNL A   1      30.327  30.028  24.307  1.00  0.00     0.078 A 
ATOM     20  F   UNL A   1      32.094  29.749  25.827  1.00  0.00    -0.207 F 
ATOM     21  C   UNL A   1      29.700  29.637  23.134  1.00  0.00     0.126 A 
ATOM     22  F   UNL A   1      28.553  30.229  22.774  1.00  0.00    -0.207 F 
ENDBRANCH  14  15
ENDBRANCH  12  14
ENDBRANCH   9  10
BRANCH   9  23
ATOM     23  C   UNL A   1      31.019  24.214  25.702  1.00  0.00     0.065 C 
BRANCH  23  24
ATOM     24  C   UNL A   1      30.536  23.152  26.664  1.00  0.00     0.159 C 
BRANCH  24  25
ATOM     25  O   UNL A   1      31.534  22.816  27.605  1.00  0.00    -0.396 OA
ATOM     26  H   UNL A   1      31.722  23.586  28.164  1.00  0.00     0.210 HD
ENDBRANCH  24  25
ENDBRANCH  23  24
ENDBRANCH   9  23
ENDBRANCH   7   9
ENDBRANCH   6   7
ENDBRANCH   5   6
ENDBRANCH   4   5
ENDBRANCH   3   4
ENDBRANCH   2   3
ENDBRANCH   1   2
BRANCH   1  27
ATOM     27  O   UNL A   1      40.009  20.546  26.034  1.00  0.00    -0.377 OA
BRANCH  27  28
ATOM     28  C   UNL A   1      41.019  20.671  27.030  1.00  0.00     0.188 C 
BRANCH  28  29
ATOM     29  C   UNL A   1      41.914  21.908  26.978  1.00  0.00     0.188 C 
BRANCH  29  30
ATOM     30  O   UNL A   1      43.130  21.830  26.234  1.00  0.00    -0.376 OA
BRANCH  30  31
ATOM     31  C   UNL A   1      43.205  22.444  24.952  1.00  0.00     0.202 C 
BRANCH  31  32
ATOM     32  C   UNL A   1      43.307  23.962  24.970  1.00  0.00     0.261 C 
BRANCH  32  33
ATOM     33  O   UNL A   1      44.675  24.381  25.069  1.00  0.00    -0.460 OA
BRANCH  33  34
ATOM     34  C   UNL A   1      45.167  24.434  26.322  1.00  0.00     0.338 C 
ATOM     35  O   UNL A   1      46.196  23.924  26.747  1.00  0.00    -0.246 OA
BRANCH  34  36
ATOM     36  C   UNL A   1      44.325  25.316  27.141  1.00  0.00     0.060 A 
ATOM     37  C   UNL A   1      44.478  26.701  26.996  1.00  0.00     0.016 A 
ATOM     38  C   UNL A   1      43.473  24.786  28.113  1.00  0.00     0.016 A 
ATOM     39  C   UNL A   1      43.838  27.561  27.879  1.00  0.00     0.010 A 
ATOM     40  C   UNL A   1      42.835  25.650  29.001  1.00  0.00     0.010 A 
ATOM     41  C   UNL A   1      43.058  27.035  28.917  1.00  0.00    -0.014 A 
BRANCH  41  42
ATOM     42  C   UNL A   1      42.632  27.911  30.029  1.00  0.00     0.031 A 
ATOM     43  C   UNL A   1      41.333  28.655  29.894  1.00  0.00     0.074 A 
ATOM     44  C   UNL A   1      43.384  28.025  31.137  1.00  0.00     0.049 A 
ATOM     45  N   UNL A   1      40.798  29.540  30.695  1.00  0.00    -0.248 NA
ATOM     46  C   UNL A   1      40.528  28.368  28.694  1.00  0.00     0.031 C 
ATOM     47  C   UNL A   1      44.635  27.312  31.382  1.00  0.00     0.029 A 
ATOM     48  N   UNL A   1      43.205  28.794  32.258  1.00  0.00    -0.354 N 
ATOM     49  C   UNL A   1      39.605  29.919  30.091  1.00  0.00     0.074 A 
ATOM     50  C   UNL A   1      39.502  29.192  28.847  1.00  0.00     0.031 C 
ATOM     51  C   UNL A   1      45.124  27.690  32.574  1.00  0.00     0.029 A 
ATOM     52  C   UNL A   1      44.241  28.701  33.154  1.00  0.00     0.049 A 
ATOM     53  H   UNL A   1      42.412  29.359  32.405  1.00  0.00     0.167 HD
ATOM     54  C   UNL A   1      38.678  30.790  30.549  1.00  0.00     0.037 A 
ATOM     55  C   UNL A   1      44.459  29.381  34.296  1.00  0.00     0.037 A 
ATOM     56  C   UNL A   1      38.787  31.493  31.799  1.00  0.00     0.049 A 
ATOM     57  C   UNL A   1      43.438  30.394  34.748  1.00  0.00     0.074 A 
ATOM     58  C   UNL A   1      37.891  32.382  32.365  1.00  0.00     0.029 A 
ATOM     59  N   UNL A   1      39.856  31.384  32.674  1.00  0.00    -0.354 N 
ATOM     60  N   UNL A   1      42.303  30.734  34.186  1.00  0.00    -0.248 NA
ATOM     61  C   UNL A   1      43.724  31.117  35.996  1.00  0.00     0.031 C 
ATOM     62  C   UNL A   1      38.445  32.856  33.555  1.00  0.00     0.029 A 
ATOM     63  C   UNL A   1      39.654  32.212  33.765  1.00  0.00     0.049 A 
ATOM     64  H   UNL A   1      40.642  30.806  32.541  1.00  0.00     0.167 HD
ATOM     65  C   UNL A   1      41.728  31.682  35.022  1.00  0.00     0.074 A 
ATOM     66  C   UNL A   1      42.632  31.854  36.140  1.00  0.00     0.031 C 
ATOM     67  C   UNL A   1      40.559  32.352  34.878  1.00  0.00     0.037 A 
BRANCH  54  68
ATOM     68  C   UNL A   1      37.463  31.049  29.708  1.00  0.00     0.064 A 
ATOM     69  C   UNL A   1      36.504  30.042  29.526  1.00  0.00     0.173 A 
ATOM     70  C   UNL A   1      37.309  32.243  28.990  1.00  0.00     0.173 A 
ATOM     71  F   UNL A   1      36.609  28.880  30.189  1.00  0.00    -0.203 F 
ATOM     72  C   UNL A   1      35.453  30.206  28.628  1.00  0.00     0.198 A 
ATOM     73  C   UNL A   1      36.241  32.416  28.112  1.00  0.00     0.198 A 
ATOM     74  F   UNL A   1      38.191  33.242  29.142  1.00  0.00    -0.203 F 
ATOM     75  F   UNL A   1      34.579  29.211  28.431  1.00  0.00    -0.200 F 
ATOM     76  C   UNL A   1      35.323  31.393  27.921  1.00  0.00     0.200 A 
ATOM     77  F   UNL A   1      36.104  33.569  27.445  1.00  0.00    -0.200 F 
ATOM     78  F   UNL A   1      34.318  31.547  27.049  1.00  0.00    -0.200 F 
ENDBRANCH  54  68
BRANCH  55  79
ATOM     79  C   UNL A   1      45.701  29.139  35.078  1.00  0.00     0.064 A 
ATOM     80  C   UNL A   1      45.744  28.179  36.100  1.00  0.00     0.173 A 
ATOM     81  C   UNL A   1      46.876  29.857  34.814  1.00  0.00     0.173 A 
ATOM     82  F   UNL A   1      44.649  27.460  36.394  1.00  0.00    -0.203 F 
ATOM     83  C   UNL A   1      46.906  27.955  36.834  1.00  0.00     0.198 A 
ATOM     84  C   UNL A   1      48.048  29.608  35.524  1.00  0.00     0.198 A 
ATOM     85  F   UNL A   1      46.896  30.770  33.831  1.00  0.00    -0.203 F 
ATOM     86  F   UNL A   1      46.910  27.050  37.823  1.00  0.00    -0.200 F 
ATOM     87  C   UNL A   1      48.061  28.663  36.539  1.00  0.00     0.200 A 
ATOM     88  F   UNL A   1      49.171  30.270  35.212  1.00  0.00    -0.200 F 
ATOM     89  F   UNL A   1      49.188  28.427  37.225  1.00  0.00    -0.200 F 
ENDBRANCH  55  79
BRANCH  67  90
ATOM     90  C   UNL A   1      40.159  33.308  35.965  1.00  0.00     0.064 A 
ATOM     91  C   UNL A   1      39.207  32.929  36.925  1.00  0.00     0.173 A 
ATOM     92  C   UNL A   1      40.640  34.624  36.000  1.00  0.00     0.173 A 
ATOM     93  F   UNL A   1      38.705  31.684  36.926  1.00  0.00    -0.203 F 
ATOM     94  C   UNL A   1      38.736  33.839  37.867  1.00  0.00     0.198 A 
ATOM     95  C   UNL A   1      40.193  35.521  36.966  1.00  0.00     0.198 A 
ATOM     96  F   UNL A   1      41.557  35.032  35.111  1.00  0.00    -0.203 F 
ATOM     97  F   UNL A   1      37.793  33.468  38.743  1.00  0.00    -0.200 F 
ATOM     98  C   UNL A   1      39.234  35.133  37.889  1.00  0.00     0.200 A 
ATOM     99  F   UNL A   1      40.693  36.764  37.003  1.00  0.00    -0.200 F 
ATOM    100  F   UNL A   1      38.787  36.008  38.802  1.00  0.00    -0.200 F 
ENDBRANCH  67  90
ENDBRANCH  41  42
ENDBRANCH  34  36
ENDBRANCH  33  34
ENDBRANCH  32  33
ENDBRANCH  31  32
ENDBRANCH  30  31
ENDBRANCH  29  30
ENDBRANCH  28  29
ENDBRANCH  27  28
ENDBRANCH   1  27
TORSDOF 26
ENDMDL
