MODEL 1
REMARK VINA RESULT:     -10.4      0.000      0.000
REMARK SMILES C[C@H]1[C@@H](C(=O)OCCOCCOCCOCCOC(=O)c2ccc(-c3c4nc(c(-c5c(F)c(F)c(F)c(F)c5F)c5ccc([nH]5)c(-c5c(F)c(F)c(F)c(F)c5F)c5nc(c(-c6c(F)c(F)c(F)c(F)c6F)c6ccc3[nH]6)C=C5)C=C4)cc2)CCN1C(=O)N1CCn2cnnc2C1
REMARK SMILES IDX 12 1 11 2 10 3 9 4 8 5 7 6 6 7 4 8 5 9 3 10 1 11 2 12 86 13
REMARK SMILES IDX 84 14 85 15 87 16 88 17 89 18 90 19 97 20 91 21 96 22 92 23
REMARK SMILES IDX 95 24 93 25 94 26 13 27 14 28 15 29 16 30 17 31 18 32 19 33
REMARK SMILES IDX 20 34 21 35 22 36 83 37 23 38 82 39 24 40 25 41 26 42 76 43
REMARK SMILES IDX 27 44 81 45 75 46 77 47 28 48 80 49 74 50 73 51 29 53 61 54
REMARK SMILES IDX 41 55 60 56 42 57 45 58 59 59 78 60 43 61 44 62 58 64 79 65
REMARK SMILES IDX 46 66 30 67 31 68 39 69 32 70 33 71 37 72 40 73 34 74 35 75
REMARK SMILES IDX 38 76 36 77 62 78 63 79 71 80 64 81 65 82 69 83 72 84 66 85
REMARK SMILES IDX 67 86 70 87 68 88 47 89 48 90 56 91 49 92 50 93 54 94 57 95
REMARK SMILES IDX 51 96 52 97 55 98 53 99
REMARK H PARENT 77 52 45 63
REMARK Flexibility Score: inf
ROOT
ATOM      1  O   UNL A   1      32.540  29.345  24.208  1.00  0.00    -0.377 OA
ENDROOT
BRANCH   1   2
ATOM      2  C   UNL A   1      31.140  29.304  23.985  1.00  0.00     0.188 C 
BRANCH   2   3
ATOM      3  C   UNL A   1      30.471  28.991  22.630  1.00  0.00     0.188 C 
BRANCH   3   4
ATOM      4  O   UNL A   1      29.624  27.868  22.629  1.00  0.00    -0.376 OA
BRANCH   4   5
ATOM      5  C   UNL A   1      29.888  26.742  23.433  1.00  0.00     0.202 C 
BRANCH   5   6
ATOM      6  C   UNL A   1      31.034  25.747  23.189  1.00  0.00     0.261 C 
BRANCH   6   7
ATOM      7  O   UNL A   1      32.380  26.221  23.302  1.00  0.00    -0.463 OA
BRANCH   7   8
ATOM      8  C   UNL A   1      33.331  25.582  22.588  1.00  0.00     0.311 C 
ATOM      9  O   UNL A   1      33.615  25.870  21.429  1.00  0.00    -0.252 OA
BRANCH   8  10
ATOM     10  C   UNL A   1      34.096  24.506  23.355  1.00  0.00     0.123 C 
ATOM     11  C   UNL A   1      32.693  22.542  22.271  1.00  0.00     0.032 C 
ATOM     12  C   UNL A   1      33.723  23.011  23.297  1.00  0.00     0.098 C 
ATOM     13  N   UNL A   1      33.357  22.651  24.668  1.00  0.00    -0.321 N 
ATOM     14  C   UNL A   1      34.183  24.864  24.853  1.00  0.00     0.039 C 
ATOM     15  C   UNL A   1      33.659  23.673  25.637  1.00  0.00     0.122 C 
BRANCH  13  16
ATOM     16  C   UNL A   1      32.873  21.436  25.090  1.00  0.00     0.320 C 
ATOM     17  O   UNL A   1      31.682  21.141  25.020  1.00  0.00    -0.248 OA
BRANCH  16  18
ATOM     18  N   UNL A   1      33.809  20.618  25.723  1.00  0.00    -0.315 N 
ATOM     19  C   UNL A   1      35.133  20.463  25.082  1.00  0.00     0.144 C 
ATOM     20  C   UNL A   1      33.277  19.413  26.383  1.00  0.00     0.199 C 
ATOM     21  C   UNL A   1      35.433  19.019  24.626  1.00  0.00     0.146 C 
ATOM     22  C   UNL A   1      33.159  18.416  25.283  1.00  0.00     0.152 A 
ATOM     23  N   UNL A   1      34.204  18.295  24.408  1.00  0.00    -0.314 N 
ATOM     24  N   UNL A   1      32.119  17.776  24.799  1.00  0.00    -0.134 NA
ATOM     25  C   UNL A   1      33.734  17.634  23.330  1.00  0.00     0.226 A 
ATOM     26  N   UNL A   1      32.490  17.271  23.565  1.00  0.00    -0.139 NA
ENDBRANCH  16  18
ENDBRANCH  13  16
ENDBRANCH   8  10
ENDBRANCH   7   8
ENDBRANCH   6   7
ENDBRANCH   5   6
ENDBRANCH   4   5
ENDBRANCH   3   4
ENDBRANCH   2   3
ENDBRANCH   1   2
BRANCH   1  27
ATOM     27  C   UNL A   1      33.041  29.289  25.524  1.00  0.00     0.188 C 
BRANCH  27  28
ATOM     28  C   UNL A   1      32.182  29.957  26.609  1.00  0.00     0.188 C 
BRANCH  28  29
ATOM     29  O   UNL A   1      31.483  31.110  26.163  1.00  0.00    -0.376 OA
BRANCH  29  30
ATOM     30  C   UNL A   1      31.679  32.318  26.886  1.00  0.00     0.202 C 
BRANCH  30  31
ATOM     31  C   UNL A   1      33.030  32.542  27.590  1.00  0.00     0.261 C 
BRANCH  31  32
ATOM     32  O   UNL A   1      33.577  33.867  27.516  1.00  0.00    -0.460 OA
BRANCH  32  33
ATOM     33  C   UNL A   1      33.438  34.666  28.588  1.00  0.00     0.338 C 
ATOM     34  O   UNL A   1      32.529  35.445  28.830  1.00  0.00    -0.246 OA
BRANCH  33  35
ATOM     35  C   UNL A   1      34.495  34.303  29.548  1.00  0.00     0.060 A 
ATOM     36  C   UNL A   1      35.833  34.423  29.147  1.00  0.00     0.016 A 
ATOM     37  C   UNL A   1      34.172  33.849  30.829  1.00  0.00     0.016 A 
ATOM     38  C   UNL A   1      36.852  34.045  30.013  1.00  0.00     0.010 A 
ATOM     39  C   UNL A   1      35.196  33.438  31.687  1.00  0.00     0.010 A 
ATOM     40  C   UNL A   1      36.534  33.492  31.260  1.00  0.00    -0.014 A 
BRANCH  40  41
ATOM     41  C   UNL A   1      37.589  32.737  31.976  1.00  0.00     0.031 A 
ATOM     42  C   UNL A   1      38.246  31.594  31.248  1.00  0.00     0.074 A 
ATOM     43  C   UNL A   1      38.018  33.110  33.193  1.00  0.00     0.049 A 
ATOM     44  N   UNL A   1      39.230  30.821  31.626  1.00  0.00    -0.248 NA
ATOM     45  C   UNL A   1      37.721  31.288  29.906  1.00  0.00     0.031 C 
ATOM     46  C   UNL A   1      37.490  34.228  33.969  1.00  0.00     0.029 A 
ATOM     47  N   UNL A   1      39.012  32.586  33.980  1.00  0.00    -0.354 N 
ATOM     48  C   UNL A   1      39.442  29.943  30.570  1.00  0.00     0.074 A 
ATOM     49  C   UNL A   1      38.458  30.248  29.557  1.00  0.00     0.031 C 
ATOM     50  C   UNL A   1      38.168  34.308  35.129  1.00  0.00     0.029 A 
ATOM     51  C   UNL A   1      39.159  33.233  35.182  1.00  0.00     0.049 A 
ATOM     52  H   UNL A   1      39.567  31.820  33.709  1.00  0.00     0.167 HD
ATOM     53  C   UNL A   1      40.385  28.979  30.449  1.00  0.00     0.037 A 
ATOM     54  C   UNL A   1      39.993  32.973  36.207  1.00  0.00     0.037 A 
ATOM     55  C   UNL A   1      41.357  28.676  31.464  1.00  0.00     0.049 A 
ATOM     56  C   UNL A   1      40.984  31.842  36.079  1.00  0.00     0.074 A 
ATOM     57  C   UNL A   1      42.358  27.722  31.444  1.00  0.00     0.029 A 
ATOM     58  N   UNL A   1      41.444  29.320  32.692  1.00  0.00    -0.354 N 
ATOM     59  N   UNL A   1      41.198  31.032  35.070  1.00  0.00    -0.248 NA
ATOM     60  C   UNL A   1      41.859  31.599  37.234  1.00  0.00     0.031 C 
ATOM     61  C   UNL A   1      43.007  27.744  32.682  1.00  0.00     0.029 A 
ATOM     62  C   UNL A   1      42.463  28.763  33.447  1.00  0.00     0.049 A 
ATOM     63  H   UNL A   1      40.865  30.062  32.982  1.00  0.00     0.167 HD
ATOM     64  C   UNL A   1      42.253  30.211  35.451  1.00  0.00     0.074 A 
ATOM     65  C   UNL A   1      42.645  30.634  36.779  1.00  0.00     0.031 C 
ATOM     66  C   UNL A   1      42.844  29.200  34.767  1.00  0.00     0.037 A 
BRANCH  53  67
ATOM     67  C   UNL A   1      40.380  28.162  29.190  1.00  0.00     0.064 A 
ATOM     68  C   UNL A   1      39.630  26.982  29.073  1.00  0.00     0.173 A 
ATOM     69  C   UNL A   1      41.127  28.576  28.076  1.00  0.00     0.173 A 
ATOM     70  F   UNL A   1      38.914  26.530  30.114  1.00  0.00    -0.203 F 
ATOM     71  C   UNL A   1      39.651  26.231  27.900  1.00  0.00     0.198 A 
ATOM     72  C   UNL A   1      41.118  27.842  26.893  1.00  0.00     0.198 A 
ATOM     73  F   UNL A   1      41.863  29.696  28.133  1.00  0.00    -0.203 F 
ATOM     74  F   UNL A   1      38.972  25.078  27.832  1.00  0.00    -0.200 F 
ATOM     75  C   UNL A   1      40.388  26.667  26.808  1.00  0.00     0.200 A 
ATOM     76  F   UNL A   1      41.820  28.272  25.836  1.00  0.00    -0.200 F 
ATOM     77  F   UNL A   1      40.402  25.948  25.678  1.00  0.00    -0.200 F 
ENDBRANCH  53  67
BRANCH  54  78
ATOM     78  C   UNL A   1      39.931  33.792  37.448  1.00  0.00     0.064 A 
ATOM     79  C   UNL A   1      39.020  33.497  38.472  1.00  0.00     0.173 A 
ATOM     80  C   UNL A   1      40.761  34.911  37.618  1.00  0.00     0.173 A 
ATOM     81  F   UNL A   1      38.187  32.453  38.348  1.00  0.00    -0.203 F 
ATOM     82  C   UNL A   1      38.923  34.303  39.605  1.00  0.00     0.198 A 
ATOM     83  C   UNL A   1      40.686  35.696  38.766  1.00  0.00     0.198 A 
ATOM     84  F   UNL A   1      41.647  35.240  36.668  1.00  0.00    -0.203 F 
ATOM     85  F   UNL A   1      38.004  34.032  40.541  1.00  0.00    -0.200 F 
ATOM     86  C   UNL A   1      39.760  35.398  39.754  1.00  0.00     0.200 A 
ATOM     87  F   UNL A   1      41.506  36.746  38.911  1.00  0.00    -0.200 F 
ATOM     88  F   UNL A   1      39.667  36.173  40.843  1.00  0.00    -0.200 F 
ENDBRANCH  54  78
BRANCH  66  89
ATOM     89  C   UNL A   1      44.012  28.515  35.421  1.00  0.00     0.064 A 
ATOM     90  C   UNL A   1      45.332  28.951  35.229  1.00  0.00     0.173 A 
ATOM     91  C   UNL A   1      43.804  27.415  36.270  1.00  0.00     0.173 A 
ATOM     92  F   UNL A   1      45.590  29.990  34.421  1.00  0.00    -0.203 F 
ATOM     93  C   UNL A   1      46.400  28.285  35.825  1.00  0.00     0.198 A 
ATOM     94  C   UNL A   1      44.871  26.779  36.897  1.00  0.00     0.198 A 
ATOM     95  F   UNL A   1      42.562  26.964  36.500  1.00  0.00    -0.203 F 
ATOM     96  F   UNL A   1      47.657  28.677  35.572  1.00  0.00    -0.200 F 
ATOM     97  C   UNL A   1      46.169  27.204  36.663  1.00  0.00     0.200 A 
ATOM     98  F   UNL A   1      44.643  25.747  37.721  1.00  0.00    -0.200 F 
ATOM     99  F   UNL A   1      47.199  26.566  37.236  1.00  0.00    -0.200 F 
ENDBRANCH  66  89
ENDBRANCH  40  41
ENDBRANCH  33  35
ENDBRANCH  32  33
ENDBRANCH  31  32
ENDBRANCH  30  31
ENDBRANCH  29  30
ENDBRANCH  28  29
ENDBRANCH  27  28
ENDBRANCH   1  27
TORSDOF 22
ENDMDL
MODEL 2
REMARK VINA RESULT:     -10.3      1.619      2.485
REMARK SMILES C[C@H]1[C@@H](C(=O)OCCOCCOCCOCCOC(=O)c2ccc(-c3c4nc(c(-c5c(F)c(F)c(F)c(F)c5F)c5ccc([nH]5)c(-c5c(F)c(F)c(F)c(F)c5F)c5nc(c(-c6c(F)c(F)c(F)c(F)c6F)c6ccc3[nH]6)C=C5)C=C4)cc2)CCN1C(=O)N1CCn2cnnc2C1
REMARK SMILES IDX 12 1 11 2 10 3 9 4 8 5 7 6 6 7 4 8 5 9 3 10 1 11 2 12 86 13
REMARK SMILES IDX 84 14 85 15 87 16 88 17 89 18 90 19 97 20 91 21 96 22 92 23
REMARK SMILES IDX 95 24 93 25 94 26 13 27 14 28 15 29 16 30 17 31 18 32 19 33
REMARK SMILES IDX 20 34 21 35 22 36 83 37 23 38 82 39 24 40 25 41 26 42 76 43
REMARK SMILES IDX 27 44 81 45 75 46 77 47 28 48 80 49 74 50 73 51 29 53 61 54
REMARK SMILES IDX 41 55 60 56 42 57 45 58 59 59 78 60 43 61 44 62 58 64 79 65
REMARK SMILES IDX 46 66 30 67 31 68 39 69 32 70 33 71 37 72 40 73 34 74 35 75
REMARK SMILES IDX 38 76 36 77 62 78 63 79 71 80 64 81 65 82 69 83 72 84 66 85
REMARK SMILES IDX 67 86 70 87 68 88 47 89 48 90 56 91 49 92 50 93 54 94 57 95
REMARK SMILES IDX 51 96 52 97 55 98 53 99
REMARK H PARENT 77 52 45 63
REMARK Flexibility Score: inf
ROOT
ATOM      1  O   UNL A   1      34.083  28.916  26.053  1.00  0.00    -0.377 OA
ENDROOT
BRANCH   1   2
ATOM      2  C   UNL A   1      33.423  29.026  24.802  1.00  0.00     0.188 C 
BRANCH   2   3
ATOM      3  C   UNL A   1      33.960  28.462  23.469  1.00  0.00     0.188 C 
BRANCH   3   4
ATOM      4  O   UNL A   1      33.031  28.441  22.413  1.00  0.00    -0.376 OA
BRANCH   4   5
ATOM      5  C   UNL A   1      31.826  29.168  22.473  1.00  0.00     0.202 C 
BRANCH   5   6
ATOM      6  C   UNL A   1      30.562  28.699  23.212  1.00  0.00     0.261 C 
BRANCH   6   7
ATOM      7  O   UNL A   1      29.804  27.625  22.646  1.00  0.00    -0.463 OA
BRANCH   7   8
ATOM      8  C   UNL A   1      29.307  26.696  23.491  1.00  0.00     0.311 C 
ATOM      9  O   UNL A   1      28.250  26.831  24.100  1.00  0.00    -0.252 OA
BRANCH   8  10
ATOM     10  C   UNL A   1      30.125  25.410  23.585  1.00  0.00     0.123 C 
ATOM     11  C   UNL A   1      30.619  25.748  26.162  1.00  0.00     0.032 C 
ATOM     12  C   UNL A   1      30.872  24.983  24.865  1.00  0.00     0.098 C 
ATOM     13  N   UNL A   1      32.288  24.955  24.494  1.00  0.00    -0.321 N 
ATOM     14  C   UNL A   1      31.162  25.341  22.445  1.00  0.00     0.039 C 
ATOM     15  C   UNL A   1      32.521  25.099  23.080  1.00  0.00     0.122 C 
BRANCH  13  16
ATOM     16  C   UNL A   1      33.346  24.709  25.335  1.00  0.00     0.320 C 
ATOM     17  O   UNL A   1      34.123  25.591  25.692  1.00  0.00    -0.248 OA
BRANCH  16  18
ATOM     18  N   UNL A   1      33.549  23.365  25.647  1.00  0.00    -0.315 N 
ATOM     19  C   UNL A   1      34.503  23.046  26.731  1.00  0.00     0.144 C 
ATOM     20  C   UNL A   1      33.542  22.426  24.511  1.00  0.00     0.199 C 
ATOM     21  C   UNL A   1      35.736  22.249  26.255  1.00  0.00     0.146 C 
ATOM     22  C   UNL A   1      34.925  22.502  23.965  1.00  0.00     0.152 A 
ATOM     23  N   UNL A   1      35.969  22.475  24.849  1.00  0.00    -0.314 N 
ATOM     24  N   UNL A   1      35.373  22.858  22.783  1.00  0.00    -0.134 NA
ATOM     25  C   UNL A   1      37.055  22.918  24.181  1.00  0.00     0.226 A 
ATOM     26  N   UNL A   1      36.728  23.110  22.920  1.00  0.00    -0.139 NA
ENDBRANCH  16  18
ENDBRANCH  13  16
ENDBRANCH   8  10
ENDBRANCH   7   8
ENDBRANCH   6   7
ENDBRANCH   5   6
ENDBRANCH   4   5
ENDBRANCH   3   4
ENDBRANCH   2   3
ENDBRANCH   1   2
BRANCH   1  27
ATOM     27  C   UNL A   1      33.326  28.737  27.228  1.00  0.00     0.188 C 
BRANCH  27  28
ATOM     28  C   UNL A   1      31.934  29.388  27.249  1.00  0.00     0.188 C 
BRANCH  28  29
ATOM     29  O   UNL A   1      31.797  30.484  26.355  1.00  0.00    -0.376 OA
BRANCH  29  30
ATOM     30  C   UNL A   1      31.869  31.793  26.905  1.00  0.00     0.202 C 
BRANCH  30  31
ATOM     31  C   UNL A   1      33.173  32.229  27.596  1.00  0.00     0.261 C 
BRANCH  31  32
ATOM     32  O   UNL A   1      33.572  33.595  27.404  1.00  0.00    -0.460 OA
BRANCH  32  33
ATOM     33  C   UNL A   1      33.457  34.437  28.445  1.00  0.00     0.338 C 
ATOM     34  O   UNL A   1      32.549  35.219  28.679  1.00  0.00    -0.246 OA
BRANCH  33  35
ATOM     35  C   UNL A   1      34.542  34.120  29.390  1.00  0.00     0.060 A 
ATOM     36  C   UNL A   1      35.867  34.277  28.964  1.00  0.00     0.016 A 
ATOM     37  C   UNL A   1      34.256  33.672  30.682  1.00  0.00     0.016 A 
ATOM     38  C   UNL A   1      36.913  33.943  29.816  1.00  0.00     0.010 A 
ATOM     39  C   UNL A   1      35.307  33.306  31.527  1.00  0.00     0.010 A 
ATOM     40  C   UNL A   1      36.636  33.396  31.076  1.00  0.00    -0.014 A 
BRANCH  40  41
ATOM     41  C   UNL A   1      37.726  32.685  31.781  1.00  0.00     0.031 A 
ATOM     42  C   UNL A   1      38.357  31.508  31.086  1.00  0.00     0.074 A 
ATOM     43  C   UNL A   1      38.207  33.123  32.956  1.00  0.00     0.049 A 
ATOM     44  N   UNL A   1      39.363  30.760  31.458  1.00  0.00    -0.248 NA
ATOM     45  C   UNL A   1      37.775  31.129  29.787  1.00  0.00     0.031 C 
ATOM     46  C   UNL A   1      37.707  34.278  33.696  1.00  0.00     0.029 A 
ATOM     47  N   UNL A   1      39.238  32.646  33.725  1.00  0.00    -0.354 N 
ATOM     48  C   UNL A   1      39.533  29.829  30.442  1.00  0.00     0.074 A 
ATOM     49  C   UNL A   1      38.502  30.075  29.459  1.00  0.00     0.031 C 
ATOM     50  C   UNL A   1      38.436  34.422  34.818  1.00  0.00     0.029 A 
ATOM     51  C   UNL A   1      39.435  33.356  34.883  1.00  0.00     0.049 A 
ATOM     52  H   UNL A   1      39.786  31.869  33.469  1.00  0.00     0.167 HD
ATOM     53  C   UNL A   1      40.476  28.864  30.329  1.00  0.00     0.037 A 
ATOM     54  C   UNL A   1      40.316  33.154  35.881  1.00  0.00     0.037 A 
ATOM     55  C   UNL A   1      41.495  28.619  31.314  1.00  0.00     0.049 A 
ATOM     56  C   UNL A   1      41.308  32.022  35.769  1.00  0.00     0.074 A 
ATOM     57  C   UNL A   1      42.500  27.669  31.298  1.00  0.00     0.029 A 
ATOM     58  N   UNL A   1      41.632  29.327  32.500  1.00  0.00    -0.354 N 
ATOM     59  N   UNL A   1      41.482  31.161  34.794  1.00  0.00    -0.248 NA
ATOM     60  C   UNL A   1      42.236  31.843  36.893  1.00  0.00     0.031 C 
ATOM     61  C   UNL A   1      43.204  27.759  32.503  1.00  0.00     0.029 A 
ATOM     62  C   UNL A   1      42.688  28.815  33.237  1.00  0.00     0.049 A 
ATOM     63  H   UNL A   1      41.062  30.081  32.778  1.00  0.00     0.167 HD
ATOM     64  C   UNL A   1      42.558  30.366  35.170  1.00  0.00     0.074 A 
ATOM     65  C   UNL A   1      43.007  30.859  36.455  1.00  0.00     0.031 C 
ATOM     66  C   UNL A   1      43.125  29.322  34.514  1.00  0.00     0.037 A 
BRANCH  53  67
ATOM     67  C   UNL A   1      40.420  27.982  29.116  1.00  0.00     0.064 A 
ATOM     68  C   UNL A   1      41.139  28.279  27.948  1.00  0.00     0.173 A 
ATOM     69  C   UNL A   1      39.646  26.811  29.128  1.00  0.00     0.173 A 
ATOM     70  F   UNL A   1      41.879  29.397  27.876  1.00  0.00    -0.203 F 
ATOM     71  C   UNL A   1      41.062  27.454  26.828  1.00  0.00     0.198 A 
ATOM     72  C   UNL A   1      39.599  25.971  28.019  1.00  0.00     0.198 A 
ATOM     73  F   UNL A   1      38.938  26.479  30.218  1.00  0.00    -0.203 F 
ATOM     74  F   UNL A   1      41.712  27.789  25.705  1.00  0.00    -0.200 F 
ATOM     75  C   UNL A   1      40.299  26.296  26.868  1.00  0.00     0.200 A 
ATOM     76  F   UNL A   1      38.872  24.846  28.065  1.00  0.00    -0.200 F 
ATOM     77  F   UNL A   1      40.231  25.500  25.794  1.00  0.00    -0.200 F 
ENDBRANCH  53  67
BRANCH  54  78
ATOM     78  C   UNL A   1      40.304  34.037  37.079  1.00  0.00     0.064 A 
ATOM     79  C   UNL A   1      39.437  33.796  38.154  1.00  0.00     0.173 A 
ATOM     80  C   UNL A   1      41.139  35.163  37.155  1.00  0.00     0.173 A 
ATOM     81  F   UNL A   1      38.602  32.748  38.120  1.00  0.00    -0.203 F 
ATOM     82  C   UNL A   1      39.386  34.661  39.246  1.00  0.00     0.198 A 
ATOM     83  C   UNL A   1      41.110  36.007  38.263  1.00  0.00     0.198 A 
ATOM     84  F   UNL A   1      41.984  35.441  36.154  1.00  0.00    -0.203 F 
ATOM     85  F   UNL A   1      38.507  34.439  40.233  1.00  0.00    -0.200 F 
ATOM     86  C   UNL A   1      40.227  35.762  39.303  1.00  0.00     0.200 A 
ATOM     87  F   UNL A   1      41.934  37.062  38.319  1.00  0.00    -0.200 F 
ATOM     88  F   UNL A   1      40.178  36.593  40.353  1.00  0.00    -0.200 F 
ENDBRANCH  54  78
BRANCH  66  89
ATOM     89  C   UNL A   1      44.326  28.678  35.149  1.00  0.00     0.064 A 
ATOM     90  C   UNL A   1      45.632  29.119  34.888  1.00  0.00     0.173 A 
ATOM     91  C   UNL A   1      44.164  27.613  36.051  1.00  0.00     0.173 A 
ATOM     92  F   UNL A   1      45.845  30.126  34.028  1.00  0.00    -0.203 F 
ATOM     93  C   UNL A   1      46.730  28.490  35.469  1.00  0.00     0.198 A 
ATOM     94  C   UNL A   1      45.262  27.015  36.662  1.00  0.00     0.198 A 
ATOM     95  F   UNL A   1      42.937  27.159  36.349  1.00  0.00    -0.203 F 
ATOM     96  F   UNL A   1      47.971  28.884  35.150  1.00  0.00    -0.200 F 
ATOM     97  C   UNL A   1      46.545  27.443  36.360  1.00  0.00     0.200 A 
ATOM     98  F   UNL A   1      45.078  26.017  37.537  1.00  0.00    -0.200 F 
ATOM     99  F   UNL A   1      47.604  26.841  36.918  1.00  0.00    -0.200 F 
ENDBRANCH  66  89
ENDBRANCH  40  41
ENDBRANCH  33  35
ENDBRANCH  32  33
ENDBRANCH  31  32
ENDBRANCH  30  31
ENDBRANCH  29  30
ENDBRANCH  28  29
ENDBRANCH  27  28
ENDBRANCH   1  27
TORSDOF 22
ENDMDL
MODEL 3
REMARK VINA RESULT:     -10.2      4.012      8.919
REMARK SMILES C[C@H]1[C@@H](C(=O)OCCOCCOCCOCCOC(=O)c2ccc(-c3c4nc(c(-c5c(F)c(F)c(F)c(F)c5F)c5ccc([nH]5)c(-c5c(F)c(F)c(F)c(F)c5F)c5nc(c(-c6c(F)c(F)c(F)c(F)c6F)c6ccc3[nH]6)C=C5)C=C4)cc2)CCN1C(=O)N1CCn2cnnc2C1
REMARK SMILES IDX 12 1 11 2 10 3 9 4 8 5 7 6 6 7 4 8 5 9 3 10 1 11 2 12 86 13
REMARK SMILES IDX 84 14 85 15 87 16 88 17 89 18 90 19 97 20 91 21 96 22 92 23
REMARK SMILES IDX 95 24 93 25 94 26 13 27 14 28 15 29 16 30 17 31 18 32 19 33
REMARK SMILES IDX 20 34 21 35 22 36 83 37 23 38 82 39 24 40 25 41 26 42 76 43
REMARK SMILES IDX 27 44 81 45 75 46 77 47 28 48 80 49 74 50 73 51 29 53 61 54
REMARK SMILES IDX 41 55 60 56 42 57 45 58 59 59 78 60 43 61 44 62 58 64 79 65
REMARK SMILES IDX 46 66 30 67 31 68 39 69 32 70 33 71 37 72 40 73 34 74 35 75
REMARK SMILES IDX 38 76 36 77 62 78 63 79 71 80 64 81 65 82 69 83 72 84 66 85
REMARK SMILES IDX 67 86 70 87 68 88 47 89 48 90 56 91 49 92 50 93 54 94 57 95
REMARK SMILES IDX 51 96 52 97 55 98 53 99
REMARK H PARENT 77 52 45 63
REMARK Flexibility Score: inf
ROOT
ATOM      1  O   UNL A   1      41.880  22.292  27.091  1.00  0.00    -0.377 OA
ENDROOT
BRANCH   1   2
ATOM      2  C   UNL A   1      41.594  20.909  27.225  1.00  0.00     0.188 C 
BRANCH   2   3
ATOM      3  C   UNL A   1      40.395  20.189  26.572  1.00  0.00     0.188 C 
BRANCH   3   4
ATOM      4  O   UNL A   1      39.777  20.893  25.523  1.00  0.00    -0.376 OA
BRANCH   4   5
ATOM      5  C   UNL A   1      38.568  21.591  25.710  1.00  0.00     0.202 C 
BRANCH   5   6
ATOM      6  C   UNL A   1      37.314  21.410  24.840  1.00  0.00     0.261 C 
BRANCH   6   7
ATOM      7  O   UNL A   1      36.032  21.517  25.466  1.00  0.00    -0.463 OA
BRANCH   7   8
ATOM      8  C   UNL A   1      34.958  21.706  24.669  1.00  0.00     0.311 C 
ATOM      9  O   UNL A   1      34.103  20.848  24.470  1.00  0.00    -0.252 OA
BRANCH   8  10
ATOM     10  C   UNL A   1      34.838  23.108  24.077  1.00  0.00     0.123 C 
ATOM     11  C   UNL A   1      33.981  24.146  26.354  1.00  0.00     0.032 C 
ATOM     12  C   UNL A   1      34.253  24.301  24.859  1.00  0.00     0.098 C 
ATOM     13  N   UNL A   1      33.064  24.709  24.109  1.00  0.00    -0.321 N 
ATOM     14  C   UNL A   1      34.080  23.068  22.734  1.00  0.00     0.039 C 
ATOM     15  C   UNL A   1      32.938  24.066  22.826  1.00  0.00     0.122 C 
BRANCH  13  16
ATOM     16  C   UNL A   1      32.167  25.685  24.471  1.00  0.00     0.320 C 
ATOM     17  O   UNL A   1      30.960  25.469  24.561  1.00  0.00    -0.248 OA
BRANCH  16  18
ATOM     18  N   UNL A   1      32.708  26.963  24.600  1.00  0.00    -0.315 N 
ATOM     19  C   UNL A   1      32.219  27.810  25.710  1.00  0.00     0.144 C 
ATOM     20  C   UNL A   1      33.005  27.673  23.343  1.00  0.00     0.199 C 
ATOM     21  C   UNL A   1      31.488  29.084  25.239  1.00  0.00     0.146 C 
ATOM     22  C   UNL A   1      31.702  28.272  22.946  1.00  0.00     0.152 A 
ATOM     23  N   UNL A   1      30.959  28.899  23.909  1.00  0.00    -0.314 N 
ATOM     24  N   UNL A   1      30.960  28.104  21.875  1.00  0.00    -0.134 NA
ATOM     25  C   UNL A   1      29.709  29.023  23.417  1.00  0.00     0.226 A 
ATOM     26  N   UNL A   1      29.698  28.592  22.173  1.00  0.00    -0.139 NA
ENDBRANCH  16  18
ENDBRANCH  13  16
ENDBRANCH   8  10
ENDBRANCH   7   8
ENDBRANCH   6   7
ENDBRANCH   5   6
ENDBRANCH   4   5
ENDBRANCH   3   4
ENDBRANCH   2   3
ENDBRANCH   1   2
BRANCH   1  27
ATOM     27  C   UNL A   1      43.111  22.798  27.556  1.00  0.00     0.188 C 
BRANCH  27  28
ATOM     28  C   UNL A   1      44.333  22.552  26.658  1.00  0.00     0.188 C 
BRANCH  28  29
ATOM     29  O   UNL A   1      44.297  23.259  25.427  1.00  0.00    -0.376 OA
BRANCH  29  30
ATOM     30  C   UNL A   1      45.467  23.234  24.621  1.00  0.00     0.202 C 
BRANCH  30  31
ATOM     31  C   UNL A   1      46.607  24.214  24.950  1.00  0.00     0.261 C 
BRANCH  31  32
ATOM     32  O   UNL A   1      46.310  25.243  25.906  1.00  0.00    -0.460 OA
BRANCH  32  33
ATOM     33  C   UNL A   1      45.991  26.462  25.440  1.00  0.00     0.338 C 
ATOM     34  O   UNL A   1      46.278  26.950  24.358  1.00  0.00    -0.246 OA
BRANCH  33  35
ATOM     35  C   UNL A   1      45.046  27.066  26.396  1.00  0.00     0.060 A 
ATOM     36  C   UNL A   1      44.911  28.460  26.414  1.00  0.00     0.016 A 
ATOM     37  C   UNL A   1      44.302  26.266  27.268  1.00  0.00     0.016 A 
ATOM     38  C   UNL A   1      44.063  29.063  27.335  1.00  0.00     0.010 A 
ATOM     39  C   UNL A   1      43.475  26.873  28.216  1.00  0.00     0.010 A 
ATOM     40  C   UNL A   1      43.392  28.276  28.280  1.00  0.00    -0.014 A 
BRANCH  40  41
ATOM     41  C   UNL A   1      42.837  28.948  29.478  1.00  0.00     0.031 A 
ATOM     42  C   UNL A   1      41.421  29.454  29.400  1.00  0.00     0.074 A 
ATOM     43  C   UNL A   1      43.528  29.022  30.627  1.00  0.00     0.049 A 
ATOM     44  N   UNL A   1      40.686  30.018  30.322  1.00  0.00    -0.248 NA
ATOM     45  C   UNL A   1      40.742  29.295  28.103  1.00  0.00     0.031 C 
ATOM     46  C   UNL A   1      44.884  28.522  30.831  1.00  0.00     0.029 A 
ATOM     47  N   UNL A   1      43.168  29.540  31.845  1.00  0.00    -0.354 N 
ATOM     48  C   UNL A   1      39.462  30.277  29.718  1.00  0.00     0.074 A 
ATOM     49  C   UNL A   1      39.566  29.851  28.341  1.00  0.00     0.031 C 
ATOM     50  C   UNL A   1      45.246  28.759  32.105  1.00  0.00     0.029 A 
ATOM     51  C   UNL A   1      44.154  29.447  32.795  1.00  0.00     0.049 A 
ATOM     52  H   UNL A   1      42.286  29.940  32.021  1.00  0.00     0.167 HD
ATOM     53  C   UNL A   1      38.344  30.808  30.267  1.00  0.00     0.037 A 
ATOM     54  C   UNL A   1      44.169  29.880  34.070  1.00  0.00     0.037 A 
ATOM     55  C   UNL A   1      38.249  31.237  31.637  1.00  0.00     0.049 A 
ATOM     56  C   UNL A   1      42.936  30.539  34.637  1.00  0.00     0.074 A 
ATOM     57  C   UNL A   1      37.164  31.786  32.296  1.00  0.00     0.029 A 
ATOM     58  N   UNL A   1      39.286  31.173  32.557  1.00  0.00    -0.354 N 
ATOM     59  N   UNL A   1      41.773  30.758  34.071  1.00  0.00    -0.248 NA
ATOM     60  C   UNL A   1      43.016  31.001  36.029  1.00  0.00     0.031 C 
ATOM     61  C   UNL A   1      37.564  32.115  33.595  1.00  0.00     0.029 A 
ATOM     62  C   UNL A   1      38.874  31.700  33.771  1.00  0.00     0.049 A 
ATOM     63  H   UNL A   1      40.182  30.808  32.375  1.00  0.00     0.167 HD
ATOM     64  C   UNL A   1      40.975  31.347  35.044  1.00  0.00     0.074 A 
ATOM     65  C   UNL A   1      41.782  31.434  36.243  1.00  0.00     0.031 C 
ATOM     66  C   UNL A   1      39.690  31.775  34.957  1.00  0.00     0.037 A 
BRANCH  53  67
ATOM     67  C   UNL A   1      37.153  30.987  29.372  1.00  0.00     0.064 A 
ATOM     68  C   UNL A   1      36.828  32.229  28.805  1.00  0.00     0.173 A 
ATOM     69  C   UNL A   1      36.330  29.892  29.064  1.00  0.00     0.173 A 
ATOM     70  F   UNL A   1      37.570  33.313  29.084  1.00  0.00    -0.203 F 
ATOM     71  C   UNL A   1      35.709  32.376  27.989  1.00  0.00     0.198 A 
ATOM     72  C   UNL A   1      35.233  30.035  28.219  1.00  0.00     0.198 A 
ATOM     73  F   UNL A   1      36.593  28.682  29.579  1.00  0.00    -0.203 F 
ATOM     74  F   UNL A   1      35.388  33.584  27.506  1.00  0.00    -0.200 F 
ATOM     75  C   UNL A   1      34.918  31.277  27.690  1.00  0.00     0.200 A 
ATOM     76  F   UNL A   1      34.477  28.969  27.921  1.00  0.00    -0.200 F 
ATOM     77  F   UNL A   1      33.847  31.417  26.899  1.00  0.00    -0.200 F 
ENDBRANCH  53  67
BRANCH  54  78
ATOM     78  C   UNL A   1      45.391  29.710  34.903  1.00  0.00     0.064 A 
ATOM     79  C   UNL A   1      46.399  30.683  34.927  1.00  0.00     0.173 A 
ATOM     80  C   UNL A   1      45.589  28.549  35.667  1.00  0.00     0.173 A 
ATOM     81  F   UNL A   1      46.269  31.800  34.196  1.00  0.00    -0.203 F 
ATOM     82  C   UNL A   1      47.569  30.492  35.660  1.00  0.00     0.198 A 
ATOM     83  C   UNL A   1      46.744  28.374  36.426  1.00  0.00     0.198 A 
ATOM     84  F   UNL A   1      44.659  27.584  35.677  1.00  0.00    -0.203 F 
ATOM     85  F   UNL A   1      48.541  31.413  35.619  1.00  0.00    -0.200 F 
ATOM     86  C   UNL A   1      47.738  29.340  36.414  1.00  0.00     0.200 A 
ATOM     87  F   UNL A   1      46.897  27.265  37.162  1.00  0.00    -0.200 F 
ATOM     88  F   UNL A   1      48.862  29.156  37.119  1.00  0.00    -0.200 F 
ENDBRANCH  54  78
BRANCH  66  89
ATOM     89  C   UNL A   1      39.062  32.330  36.205  1.00  0.00     0.064 A 
ATOM     90  C   UNL A   1      39.264  33.657  36.613  1.00  0.00     0.173 A 
ATOM     91  C   UNL A   1      38.226  31.524  36.995  1.00  0.00     0.173 A 
ATOM     92  F   UNL A   1      40.060  34.469  35.901  1.00  0.00    -0.203 F 
ATOM     93  C   UNL A   1      38.692  34.142  37.786  1.00  0.00     0.198 A 
ATOM     94  C   UNL A   1      37.622  32.024  38.145  1.00  0.00     0.198 A 
ATOM     95  F   UNL A   1      37.986  30.252  36.646  1.00  0.00    -0.203 F 
ATOM     96  F   UNL A   1      38.956  35.392  38.192  1.00  0.00    -0.200 F 
ATOM     97  C   UNL A   1      37.866  33.328  38.548  1.00  0.00     0.200 A 
ATOM     98  F   UNL A   1      36.810  31.241  38.868  1.00  0.00    -0.200 F 
ATOM     99  F   UNL A   1      37.316  33.797  39.676  1.00  0.00    -0.200 F 
ENDBRANCH  66  89
ENDBRANCH  40  41
ENDBRANCH  33  35
ENDBRANCH  32  33
ENDBRANCH  31  32
ENDBRANCH  30  31
ENDBRANCH  29  30
ENDBRANCH  28  29
ENDBRANCH  27  28
ENDBRANCH   1  27
TORSDOF 22
ENDMDL
