MODEL 1
REMARK VINA RESULT:     -10.2      0.000      0.000
REMARK SMILES C[C@H](O)[C@@H](NC(=O)c1ccc(Cl)c(S(C)(=O)=O)c1)C(=O)OCCOCCOCCOCCOC(=O)c1ccc(-c2c3nc(c(-c4c(F)c(F)c(F)c(F)c4F)c4ccc([nH]4)c(-c4c(F)c(F)c(F)c(F)c4F)c4nc(c(-c5c(F)c(F)c(F)c(F)c5F)c5ccc2[nH]5)C=C4)C=C3)cc1
REMARK SMILES IDX 26 1 25 2 24 3 23 4 22 5 21 6 19 7 20 8 4 9 2 10 1 11 3 12
REMARK SMILES IDX 5 14 6 15 7 17 8 18 9 19 18 20 10 21 13 22 11 23 12 24 14 25
REMARK SMILES IDX 15 26 16 27 17 28 27 29 28 30 29 31 30 32 31 33 32 34 33 35
REMARK SMILES IDX 34 36 35 37 36 38 37 39 98 40 38 41 97 42 39 43 40 44 41 45
REMARK SMILES IDX 91 46 42 47 96 48 90 49 92 50 43 51 95 52 89 53 88 54 44 56
REMARK SMILES IDX 76 57 56 58 75 59 57 60 60 61 74 62 93 63 58 64 59 65 73 67
REMARK SMILES IDX 94 68 61 69 45 70 46 71 54 72 47 73 48 74 52 75 55 76 49 77
REMARK SMILES IDX 50 78 53 79 51 80 77 81 78 82 86 83 79 84 80 85 84 86 87 87
REMARK SMILES IDX 81 88 82 89 85 90 83 91 62 92 63 93 71 94 64 95 65 96 69 97
REMARK SMILES IDX 72 98 66 99 67 100 70 101 68 102
REMARK H PARENT 3 13 5 16 92 55 60 66
REMARK Flexibility Score: inf
ROOT
ATOM      1  C   UNL A   1      34.251  35.291  28.412  1.00  0.00     0.188 C 
ENDROOT
BRANCH   1   2
ATOM      2  C   UNL A   1      33.533  34.018  27.953  1.00  0.00     0.188 C 
BRANCH   2   3
ATOM      3  O   UNL A   1      34.390  32.908  27.784  1.00  0.00    -0.376 OA
BRANCH   3   4
ATOM      4  C   UNL A   1      33.886  31.602  28.014  1.00  0.00     0.202 C 
BRANCH   4   5
ATOM      5  C   UNL A   1      34.331  30.357  27.233  1.00  0.00     0.261 C 
BRANCH   5   6
ATOM      6  O   UNL A   1      33.605  29.115  27.134  1.00  0.00    -0.462 OA
BRANCH   6   7
ATOM      7  C   UNL A   1      33.022  28.892  25.919  1.00  0.00     0.331 C 
ATOM      8  O   UNL A   1      32.600  29.785  25.184  1.00  0.00    -0.250 OA
BRANCH   7   9
ATOM      9  C   UNL A   1      32.657  27.449  25.602  1.00  0.00     0.221 C 
BRANCH   9  10
ATOM     10  C   UNL A   1      31.622  26.748  26.509  1.00  0.00     0.145 C 
ATOM     11  C   UNL A   1      30.293  26.408  25.846  1.00  0.00     0.041 C 
BRANCH  10  12
ATOM     12  O   UNL A   1      31.327  27.667  27.589  1.00  0.00    -0.391 OA
ATOM     13  H   UNL A   1      31.010  28.507  27.221  1.00  0.00     0.211 HD
ENDBRANCH  10  12
ENDBRANCH   9  10
BRANCH   9  14
ATOM     14  N   UNL A   1      32.326  27.162  24.177  1.00  0.00    -0.336 N 
ATOM     15  C   UNL A   1      32.222  26.018  23.436  1.00  0.00     0.252 C 
ATOM     16  H   UNL A   1      32.141  27.976  23.655  1.00  0.00     0.164 HD
ATOM     17  O   UNL A   1      31.529  25.989  22.422  1.00  0.00    -0.269 OA
BRANCH  15  18
ATOM     18  C   UNL A   1      33.082  24.853  23.690  1.00  0.00     0.041 A 
ATOM     19  C   UNL A   1      34.381  24.778  23.189  1.00  0.00     0.015 A 
ATOM     20  C   UNL A   1      32.595  23.853  24.540  1.00  0.00     0.035 A 
ATOM     21  C   UNL A   1      35.171  23.658  23.487  1.00  0.00     0.023 A 
ATOM     22  C   UNL A   1      33.389  22.732  24.840  1.00  0.00     0.086 A 
ATOM     23  C   UNL A   1      34.682  22.628  24.311  1.00  0.00     0.059 A 
ATOM     24  Cl  UNL A   1      35.732  21.283  24.552  1.00  0.00    -0.083 Cl
BRANCH  22  25
ATOM     25  S   UNL A   1      32.610  21.417  25.755  1.00  0.00     0.177 S 
ATOM     26  C   UNL A   1      33.527  21.370  27.267  1.00  0.00     0.164 C 
ATOM     27  O   UNL A   1      31.262  21.856  26.073  1.00  0.00    -0.224 OA
ATOM     28  O   UNL A   1      32.787  20.174  25.032  1.00  0.00    -0.224 OA
ENDBRANCH  22  25
ENDBRANCH  15  18
ENDBRANCH   9  14
ENDBRANCH   7   9
ENDBRANCH   6   7
ENDBRANCH   5   6
ENDBRANCH   4   5
ENDBRANCH   3   4
ENDBRANCH   2   3
ENDBRANCH   1   2
BRANCH   1  29
ATOM     29  O   UNL A   1      33.475  36.261  29.103  1.00  0.00    -0.377 OA
BRANCH  29  30
ATOM     30  C   UNL A   1      32.884  35.917  30.357  1.00  0.00     0.188 C 
BRANCH  30  31
ATOM     31  C   UNL A   1      33.627  36.353  31.623  1.00  0.00     0.188 C 
BRANCH  31  32
ATOM     32  O   UNL A   1      33.470  35.512  32.766  1.00  0.00    -0.376 OA
BRANCH  32  33
ATOM     33  C   UNL A   1      34.652  35.013  33.381  1.00  0.00     0.202 C 
BRANCH  33  34
ATOM     34  C   UNL A   1      35.864  34.923  32.454  1.00  0.00     0.261 C 
BRANCH  34  35
ATOM     35  O   UNL A   1      35.657  34.041  31.335  1.00  0.00    -0.460 OA
BRANCH  35  36
ATOM     36  C   UNL A   1      35.359  32.757  31.640  1.00  0.00     0.338 C 
ATOM     37  O   UNL A   1      34.328  32.327  32.139  1.00  0.00    -0.246 OA
BRANCH  36  38
ATOM     38  C   UNL A   1      36.443  31.881  31.165  1.00  0.00     0.060 A 
ATOM     39  C   UNL A   1      37.160  31.101  32.084  1.00  0.00     0.016 A 
ATOM     40  C   UNL A   1      36.807  31.902  29.818  1.00  0.00     0.016 A 
ATOM     41  C   UNL A   1      38.265  30.360  31.662  1.00  0.00     0.010 A 
ATOM     42  C   UNL A   1      37.919  31.175  29.401  1.00  0.00     0.010 A 
ATOM     43  C   UNL A   1      38.671  30.425  30.325  1.00  0.00    -0.014 A 
BRANCH  43  44
ATOM     44  C   UNL A   1      39.962  29.851  29.882  1.00  0.00     0.031 A 
ATOM     45  C   UNL A   1      41.164  30.749  29.824  1.00  0.00     0.074 A 
ATOM     46  C   UNL A   1      40.044  28.575  29.476  1.00  0.00     0.049 A 
ATOM     47  N   UNL A   1      42.336  30.541  29.285  1.00  0.00    -0.248 NA
ATOM     48  C   UNL A   1      41.013  32.072  30.452  1.00  0.00     0.031 C 
ATOM     49  C   UNL A   1      38.964  27.594  29.546  1.00  0.00     0.029 A 
ATOM     50  N   UNL A   1      41.084  27.897  28.891  1.00  0.00    -0.354 N 
ATOM     51  C   UNL A   1      43.058  31.709  29.494  1.00  0.00     0.074 A 
ATOM     52  C   UNL A   1      42.182  32.633  30.182  1.00  0.00     0.031 C 
ATOM     53  C   UNL A   1      39.388  26.443  28.998  1.00  0.00     0.029 A 
ATOM     54  C   UNL A   1      40.748  26.627  28.493  1.00  0.00     0.049 A 
ATOM     55  H   UNL A   1      41.982  28.282  28.769  1.00  0.00     0.167 HD
ATOM     56  C   UNL A   1      44.338  31.980  29.145  1.00  0.00     0.037 A 
ATOM     57  C   UNL A   1      41.448  25.737  27.764  1.00  0.00     0.037 A 
ATOM     58  C   UNL A   1      45.193  31.056  28.448  1.00  0.00     0.049 A 
ATOM     59  C   UNL A   1      42.828  26.104  27.277  1.00  0.00     0.074 A 
ATOM     60  C   UNL A   1      46.510  31.222  28.057  1.00  0.00     0.029 A 
ATOM     61  N   UNL A   1      44.806  29.791  28.026  1.00  0.00    -0.354 N 
ATOM     62  N   UNL A   1      43.516  27.200  27.487  1.00  0.00    -0.248 NA
ATOM     63  C   UNL A   1      43.523  25.113  26.444  1.00  0.00     0.031 C 
ATOM     64  C   UNL A   1      46.898  30.084  27.341  1.00  0.00     0.029 A 
ATOM     65  C   UNL A   1      45.846  29.182  27.342  1.00  0.00     0.049 A 
ATOM     66  H   UNL A   1      43.924  29.387  28.189  1.00  0.00     0.167 HD
ATOM     67  C   UNL A   1      44.733  27.020  26.840  1.00  0.00     0.074 A 
ATOM     68  C   UNL A   1      44.692  25.703  26.239  1.00  0.00     0.031 C 
ATOM     69  C   UNL A   1      45.789  27.867  26.752  1.00  0.00     0.037 A 
BRANCH  56  70
ATOM     70  C   UNL A   1      44.871  33.346  29.476  1.00  0.00     0.064 A 
ATOM     71  C   UNL A   1      45.528  33.612  30.687  1.00  0.00     0.173 A 
ATOM     72  C   UNL A   1      44.730  34.404  28.564  1.00  0.00     0.173 A 
ATOM     73  F   UNL A   1      45.679  32.641  31.601  1.00  0.00    -0.203 F 
ATOM     74  C   UNL A   1      45.986  34.892  30.990  1.00  0.00     0.198 A 
ATOM     75  C   UNL A   1      45.222  35.674  28.855  1.00  0.00     0.198 A 
ATOM     76  F   UNL A   1      44.117  34.206  27.387  1.00  0.00    -0.203 F 
ATOM     77  F   UNL A   1      46.553  35.136  32.180  1.00  0.00    -0.200 F 
ATOM     78  C   UNL A   1      45.837  35.920  30.071  1.00  0.00     0.200 A 
ATOM     79  F   UNL A   1      45.091  36.662  27.958  1.00  0.00    -0.200 F 
ATOM     80  F   UNL A   1      46.280  37.152  30.363  1.00  0.00    -0.200 F 
ENDBRANCH  56  70
BRANCH  57  81
ATOM     81  C   UNL A   1      40.851  24.416  27.435  1.00  0.00     0.064 A 
ATOM     82  C   UNL A   1      39.789  24.318  26.525  1.00  0.00     0.173 A 
ATOM     83  C   UNL A   1      41.322  23.230  28.018  1.00  0.00     0.173 A 
ATOM     84  F   UNL A   1      39.284  25.426  25.963  1.00  0.00    -0.203 F 
ATOM     85  C   UNL A   1      39.214  23.086  26.220  1.00  0.00     0.198 A 
ATOM     86  C   UNL A   1      40.765  21.995  27.689  1.00  0.00     0.198 A 
ATOM     87  F   UNL A   1      42.330  23.268  28.901  1.00  0.00    -0.203 F 
ATOM     88  F   UNL A   1      38.174  23.026  25.379  1.00  0.00    -0.200 F 
ATOM     89  C   UNL A   1      39.708  21.926  26.796  1.00  0.00     0.200 A 
ATOM     90  F   UNL A   1      41.251  20.875  28.240  1.00  0.00    -0.200 F 
ATOM     91  F   UNL A   1      39.159  20.740  26.495  1.00  0.00    -0.200 F 
ENDBRANCH  57  81
BRANCH  69  92
ATOM     92  C   UNL A   1      47.002  27.392  26.004  1.00  0.00     0.064 A 
ATOM     93  C   UNL A   1      47.157  27.622  24.630  1.00  0.00     0.173 A 
ATOM     94  C   UNL A   1      48.054  26.759  26.685  1.00  0.00     0.173 A 
ATOM     95  F   UNL A   1      46.176  28.210  23.928  1.00  0.00    -0.203 F 
ATOM     96  C   UNL A   1      48.314  27.225  23.963  1.00  0.00     0.198 A 
ATOM     97  C   UNL A   1      49.222  26.392  26.022  1.00  0.00     0.198 A 
ATOM     98  F   UNL A   1      47.961  26.519  28.002  1.00  0.00    -0.203 F 
ATOM     99  F   UNL A   1      48.423  27.421  22.641  1.00  0.00    -0.200 F 
ATOM    100  C   UNL A   1      49.348  26.621  24.660  1.00  0.00     0.200 A 
ATOM    101  F   UNL A   1      50.227  25.825  26.702  1.00  0.00    -0.200 F 
ATOM    102  F   UNL A   1      50.467  26.255  24.020  1.00  0.00    -0.200 F 
ENDBRANCH  69  92
ENDBRANCH  43  44
ENDBRANCH  36  38
ENDBRANCH  35  36
ENDBRANCH  34  35
ENDBRANCH  33  34
ENDBRANCH  32  33
ENDBRANCH  31  32
ENDBRANCH  30  31
ENDBRANCH  29  30
ENDBRANCH   1  29
TORSDOF 25
ENDMDL
MODEL 2
REMARK VINA RESULT:      -9.7      5.325     11.208
REMARK SMILES C[C@H](O)[C@@H](NC(=O)c1ccc(Cl)c(S(C)(=O)=O)c1)C(=O)OCCOCCOCCOCCOC(=O)c1ccc(-c2c3nc(c(-c4c(F)c(F)c(F)c(F)c4F)c4ccc([nH]4)c(-c4c(F)c(F)c(F)c(F)c4F)c4nc(c(-c5c(F)c(F)c(F)c(F)c5F)c5ccc2[nH]5)C=C4)C=C3)cc1
REMARK SMILES IDX 26 1 25 2 24 3 23 4 22 5 21 6 19 7 20 8 4 9 2 10 1 11 3 12
REMARK SMILES IDX 5 14 6 15 7 17 8 18 9 19 18 20 10 21 13 22 11 23 12 24 14 25
REMARK SMILES IDX 15 26 16 27 17 28 27 29 28 30 29 31 30 32 31 33 32 34 33 35
REMARK SMILES IDX 34 36 35 37 36 38 37 39 98 40 38 41 97 42 39 43 40 44 41 45
REMARK SMILES IDX 91 46 42 47 96 48 90 49 92 50 43 51 95 52 89 53 88 54 44 56
REMARK SMILES IDX 76 57 56 58 75 59 57 60 60 61 74 62 93 63 58 64 59 65 73 67
REMARK SMILES IDX 94 68 61 69 45 70 46 71 54 72 47 73 48 74 52 75 55 76 49 77
REMARK SMILES IDX 50 78 53 79 51 80 77 81 78 82 86 83 79 84 80 85 84 86 87 87
REMARK SMILES IDX 81 88 82 89 85 90 83 91 62 92 63 93 71 94 64 95 65 96 69 97
REMARK SMILES IDX 72 98 66 99 67 100 70 101 68 102
REMARK H PARENT 3 13 5 16 92 55 60 66
REMARK Flexibility Score: inf
ROOT
ATOM      1  C   UNL A   1      40.436  22.689  27.073  1.00  0.00     0.188 C 
ENDROOT
BRANCH   1   2
ATOM      2  C   UNL A   1      39.010  22.612  26.517  1.00  0.00     0.188 C 
BRANCH   2   3
ATOM      3  O   UNL A   1      38.911  21.907  25.297  1.00  0.00    -0.376 OA
BRANCH   3   4
ATOM      4  C   UNL A   1      37.796  21.059  25.076  1.00  0.00     0.202 C 
BRANCH   4   5
ATOM      5  C   UNL A   1      36.437  21.223  25.774  1.00  0.00     0.261 C 
BRANCH   5   6
ATOM      6  O   UNL A   1      35.569  22.370  25.677  1.00  0.00    -0.462 OA
BRANCH   6   7
ATOM      7  C   UNL A   1      34.447  22.302  26.452  1.00  0.00     0.331 C 
ATOM      8  O   UNL A   1      34.431  21.865  27.603  1.00  0.00    -0.250 OA
BRANCH   7   9
ATOM      9  C   UNL A   1      33.122  22.543  25.742  1.00  0.00     0.221 C 
BRANCH   9  10
ATOM     10  C   UNL A   1      32.586  21.432  24.813  1.00  0.00     0.145 C 
ATOM     11  C   UNL A   1      32.019  21.910  23.482  1.00  0.00     0.041 C 
BRANCH  10  12
ATOM     12  O   UNL A   1      31.501  20.786  25.522  1.00  0.00    -0.391 OA
ATOM     13  H   UNL A   1      31.766  19.886  25.768  1.00  0.00     0.211 HD
ENDBRANCH  10  12
ENDBRANCH   9  10
BRANCH   9  14
ATOM     14  N   UNL A   1      32.008  23.038  26.600  1.00  0.00    -0.336 N 
ATOM     15  C   UNL A   1      31.169  24.116  26.542  1.00  0.00     0.252 C 
ATOM     16  H   UNL A   1      31.839  22.462  27.380  1.00  0.00     0.164 HD
ATOM     17  O   UNL A   1      30.073  24.087  27.095  1.00  0.00    -0.269 OA
BRANCH  15  18
ATOM     18  C   UNL A   1      31.612  25.411  26.006  1.00  0.00     0.041 A 
ATOM     19  C   UNL A   1      31.918  26.484  26.841  1.00  0.00     0.015 A 
ATOM     20  C   UNL A   1      31.817  25.512  24.625  1.00  0.00     0.035 A 
ATOM     21  C   UNL A   1      32.367  27.688  26.281  1.00  0.00     0.023 A 
ATOM     22  C   UNL A   1      32.270  26.720  24.064  1.00  0.00     0.086 A 
ATOM     23  C   UNL A   1      32.543  27.817  24.891  1.00  0.00     0.059 A 
ATOM     24  Cl  UNL A   1      33.045  29.366  24.327  1.00  0.00    -0.083 Cl
BRANCH  22  25
ATOM     25  S   UNL A   1      32.298  26.819  22.286  1.00  0.00     0.177 S 
ATOM     26  C   UNL A   1      31.935  25.163  21.777  1.00  0.00     0.164 C 
ATOM     27  O   UNL A   1      31.180  27.655  21.884  1.00  0.00    -0.224 OA
ATOM     28  O   UNL A   1      33.632  27.185  21.857  1.00  0.00    -0.224 OA
ENDBRANCH  22  25
ENDBRANCH  15  18
ENDBRANCH   9  14
ENDBRANCH   7   9
ENDBRANCH   6   7
ENDBRANCH   5   6
ENDBRANCH   4   5
ENDBRANCH   3   4
ENDBRANCH   2   3
ENDBRANCH   1   2
BRANCH   1  29
ATOM     29  O   UNL A   1      41.489  22.248  26.226  1.00  0.00    -0.377 OA
BRANCH  29  30
ATOM     30  C   UNL A   1      42.526  21.431  26.770  1.00  0.00     0.188 C 
BRANCH  30  31
ATOM     31  C   UNL A   1      43.248  20.484  25.808  1.00  0.00     0.188 C 
BRANCH  31  32
ATOM     32  O   UNL A   1      44.420  20.999  25.177  1.00  0.00    -0.376 OA
BRANCH  32  33
ATOM     33  C   UNL A   1      45.160  21.992  25.877  1.00  0.00     0.202 C 
BRANCH  33  34
ATOM     34  C   UNL A   1      45.544  23.211  25.039  1.00  0.00     0.261 C 
BRANCH  34  35
ATOM     35  O   UNL A   1      45.426  24.452  25.758  1.00  0.00    -0.460 OA
BRANCH  35  36
ATOM     36  C   UNL A   1      44.216  25.057  25.700  1.00  0.00     0.338 C 
ATOM     37  O   UNL A   1      43.416  25.040  24.776  1.00  0.00    -0.246 OA
BRANCH  36  38
ATOM     38  C   UNL A   1      43.921  25.677  27.003  1.00  0.00     0.060 A 
ATOM     39  C   UNL A   1      43.216  24.950  27.974  1.00  0.00     0.016 A 
ATOM     40  C   UNL A   1      44.266  27.011  27.227  1.00  0.00     0.016 A 
ATOM     41  C   UNL A   1      42.828  25.567  29.164  1.00  0.00     0.010 A 
ATOM     42  C   UNL A   1      43.864  27.629  28.409  1.00  0.00     0.010 A 
ATOM     43  C   UNL A   1      43.118  26.921  29.368  1.00  0.00    -0.014 A 
BRANCH  43  44
ATOM     44  C   UNL A   1      42.528  27.674  30.498  1.00  0.00     0.031 A 
ATOM     45  C   UNL A   1      41.257  28.439  30.265  1.00  0.00     0.074 A 
ATOM     46  C   UNL A   1      43.148  27.729  31.687  1.00  0.00     0.049 A 
ATOM     47  N   UNL A   1      40.665  29.325  31.022  1.00  0.00    -0.248 NA
ATOM     48  C   UNL A   1      40.568  28.174  28.991  1.00  0.00     0.031 C 
ATOM     49  C   UNL A   1      44.349  26.980  32.049  1.00  0.00     0.029 A 
ATOM     50  N   UNL A   1      42.865  28.480  32.800  1.00  0.00    -0.354 N 
ATOM     51  C   UNL A   1      39.544  29.735  30.312  1.00  0.00     0.074 A 
ATOM     52  C   UNL A   1      39.555  29.023  29.052  1.00  0.00     0.031 C 
ATOM     53  C   UNL A   1      44.718  27.329  33.293  1.00  0.00     0.029 A 
ATOM     54  C   UNL A   1      43.811  28.363  33.789  1.00  0.00     0.049 A 
ATOM     55  H   UNL A   1      42.063  29.046  32.882  1.00  0.00     0.167 HD
ATOM     56  C   UNL A   1      38.592  30.623  30.685  1.00  0.00     0.037 A 
ATOM     57  C   UNL A   1      43.946  29.050  34.940  1.00  0.00     0.037 A 
ATOM     58  C   UNL A   1      38.602  31.334  31.936  1.00  0.00     0.049 A 
ATOM     59  C   UNL A   1      42.942  30.123  35.280  1.00  0.00     0.074 A 
ATOM     60  C   UNL A   1      37.681  32.246  32.421  1.00  0.00     0.029 A 
ATOM     61  N   UNL A   1      39.597  31.220  32.897  1.00  0.00    -0.354 N 
ATOM     62  N   UNL A   1      41.875  30.500  34.619  1.00  0.00    -0.248 NA
ATOM     63  C   UNL A   1      43.170  30.873  36.524  1.00  0.00     0.031 C 
ATOM     64  C   UNL A   1      38.153  32.732  33.645  1.00  0.00     0.029 A 
ATOM     65  C   UNL A   1      39.334  32.076  33.955  1.00  0.00     0.049 A 
ATOM     66  H   UNL A   1      40.375  30.619  32.837  1.00  0.00     0.167 HD
ATOM     67  C   UNL A   1      41.288  31.507  35.378  1.00  0.00     0.074 A 
ATOM     68  C   UNL A   1      42.114  31.674  36.555  1.00  0.00     0.031 C 
ATOM     69  C   UNL A   1      40.167  32.226  35.123  1.00  0.00     0.037 A 
BRANCH  56  70
ATOM     70  C   UNL A   1      37.486  30.902  29.706  1.00  0.00     0.064 A 
ATOM     71  C   UNL A   1      37.413  32.110  28.994  1.00  0.00     0.173 A 
ATOM     72  C   UNL A   1      36.488  29.944  29.469  1.00  0.00     0.173 A 
ATOM     73  F   UNL A   1      38.332  33.067  29.191  1.00  0.00    -0.203 F 
ATOM     74  C   UNL A   1      36.363  32.363  28.115  1.00  0.00     0.198 A 
ATOM     75  C   UNL A   1      35.460  30.186  28.562  1.00  0.00     0.198 A 
ATOM     76  F   UNL A   1      36.512  28.768  30.114  1.00  0.00    -0.203 F 
ATOM     77  F   UNL A   1      36.280  33.549  27.496  1.00  0.00    -0.200 F 
ATOM     78  C   UNL A   1      35.391  31.399  27.896  1.00  0.00     0.200 A 
ATOM     79  F   UNL A   1      34.530  29.246  28.339  1.00  0.00    -0.200 F 
ATOM     80  F   UNL A   1      34.381  31.644  27.048  1.00  0.00    -0.200 F 
ENDBRANCH  56  70
BRANCH  57  81
ATOM     81  C   UNL A   1      45.084  28.754  35.848  1.00  0.00     0.064 A 
ATOM     82  C   UNL A   1      44.943  27.837  36.897  1.00  0.00     0.173 A 
ATOM     83  C   UNL A   1      46.332  29.377  35.690  1.00  0.00     0.173 A 
ATOM     84  F   UNL A   1      43.762  27.237  37.108  1.00  0.00    -0.203 F 
ATOM     85  C   UNL A   1      46.001  27.562  37.761  1.00  0.00     0.198 A 
ATOM     86  C   UNL A   1      47.398  29.079  36.536  1.00  0.00     0.198 A 
ATOM     87  F   UNL A   1      46.519  30.269  34.706  1.00  0.00    -0.203 F 
ATOM     88  F   UNL A   1      45.825  26.712  38.782  1.00  0.00    -0.200 F 
ATOM     89  C   UNL A   1      47.229  28.177  37.575  1.00  0.00     0.200 A 
ATOM     90  F   UNL A   1      48.587  29.668  36.348  1.00  0.00    -0.200 F 
ATOM     91  F   UNL A   1      48.248  27.905  38.402  1.00  0.00    -0.200 F 
ENDBRANCH  57  81
BRANCH  69  92
ATOM     92  C   UNL A   1      39.746  33.243  36.146  1.00  0.00     0.064 A 
ATOM     93  C   UNL A   1      38.879  32.914  37.197  1.00  0.00     0.173 A 
ATOM     94  C   UNL A   1      40.272  34.544  36.113  1.00  0.00     0.173 A 
ATOM     95  F   UNL A   1      38.335  31.689  37.267  1.00  0.00    -0.203 F 
ATOM     96  C   UNL A   1      38.543  33.854  38.169  1.00  0.00     0.198 A 
ATOM     97  C   UNL A   1      39.961  35.470  37.104  1.00  0.00     0.198 A 
ATOM     98  F   UNL A   1      41.112  34.910  35.132  1.00  0.00    -0.203 F 
ATOM     99  F   UNL A   1      37.681  33.529  39.143  1.00  0.00    -0.200 F 
ATOM    100  C   UNL A   1      39.092  35.126  38.129  1.00  0.00     0.200 A 
ATOM    101  F   UNL A   1      40.508  36.693  37.072  1.00  0.00    -0.200 F 
ATOM    102  F   UNL A   1      38.783  36.023  39.075  1.00  0.00    -0.200 F 
ENDBRANCH  69  92
ENDBRANCH  43  44
ENDBRANCH  36  38
ENDBRANCH  35  36
ENDBRANCH  34  35
ENDBRANCH  33  34
ENDBRANCH  32  33
ENDBRANCH  31  32
ENDBRANCH  30  31
ENDBRANCH  29  30
ENDBRANCH   1  29
TORSDOF 25
ENDMDL
MODEL 3
REMARK VINA RESULT:      -9.5      1.511      7.241
REMARK SMILES C[C@H](O)[C@@H](NC(=O)c1ccc(Cl)c(S(C)(=O)=O)c1)C(=O)OCCOCCOCCOCCOC(=O)c1ccc(-c2c3nc(c(-c4c(F)c(F)c(F)c(F)c4F)c4ccc([nH]4)c(-c4c(F)c(F)c(F)c(F)c4F)c4nc(c(-c5c(F)c(F)c(F)c(F)c5F)c5ccc2[nH]5)C=C4)C=C3)cc1
REMARK SMILES IDX 26 1 25 2 24 3 23 4 22 5 21 6 19 7 20 8 4 9 2 10 1 11 3 12
REMARK SMILES IDX 5 14 6 15 7 17 8 18 9 19 18 20 10 21 13 22 11 23 12 24 14 25
REMARK SMILES IDX 15 26 16 27 17 28 27 29 28 30 29 31 30 32 31 33 32 34 33 35
REMARK SMILES IDX 34 36 35 37 36 38 37 39 98 40 38 41 97 42 39 43 40 44 41 45
REMARK SMILES IDX 91 46 42 47 96 48 90 49 92 50 43 51 95 52 89 53 88 54 44 56
REMARK SMILES IDX 76 57 56 58 75 59 57 60 60 61 74 62 93 63 58 64 59 65 73 67
REMARK SMILES IDX 94 68 61 69 45 70 46 71 54 72 47 73 48 74 52 75 55 76 49 77
REMARK SMILES IDX 50 78 53 79 51 80 77 81 78 82 86 83 79 84 80 85 84 86 87 87
REMARK SMILES IDX 81 88 82 89 85 90 83 91 62 92 63 93 71 94 64 95 65 96 69 97
REMARK SMILES IDX 72 98 66 99 67 100 70 101 68 102
REMARK H PARENT 3 13 5 16 92 55 60 66
REMARK Flexibility Score: inf
ROOT
ATOM      1  C   UNL A   1      34.867  33.094  29.685  1.00  0.00     0.188 C 
ENDROOT
BRANCH   1   2
ATOM      2  C   UNL A   1      34.982  33.067  28.157  1.00  0.00     0.188 C 
BRANCH   2   3
ATOM      3  O   UNL A   1      35.348  31.807  27.635  1.00  0.00    -0.376 OA
BRANCH   3   4
ATOM      4  C   UNL A   1      34.423  30.734  27.704  1.00  0.00     0.202 C 
BRANCH   4   5
ATOM      5  C   UNL A   1      34.730  29.301  27.241  1.00  0.00     0.261 C 
BRANCH   5   6
ATOM      6  O   UNL A   1      33.756  28.304  26.872  1.00  0.00    -0.462 OA
BRANCH   6   7
ATOM      7  C   UNL A   1      33.556  28.176  25.527  1.00  0.00     0.331 C 
ATOM      8  O   UNL A   1      33.385  29.126  24.762  1.00  0.00    -0.250 OA
BRANCH   7   9
ATOM      9  C   UNL A   1      33.277  26.768  25.019  1.00  0.00     0.221 C 
BRANCH   9  10
ATOM     10  C   UNL A   1      31.900  26.144  25.335  1.00  0.00     0.145 C 
ATOM     11  C   UNL A   1      30.701  26.860  24.726  1.00  0.00     0.041 C 
BRANCH  10  12
ATOM     12  O   UNL A   1      31.738  26.204  26.773  1.00  0.00    -0.391 OA
ATOM     13  H   UNL A   1      32.367  25.598  27.195  1.00  0.00     0.211 HD
ENDBRANCH  10  12
ENDBRANCH   9  10
BRANCH   9  14
ATOM     14  N   UNL A   1      33.606  26.519  23.587  1.00  0.00    -0.336 N 
ATOM     15  C   UNL A   1      33.774  25.393  22.830  1.00  0.00     0.252 C 
ATOM     16  H   UNL A   1      33.729  27.349  23.071  1.00  0.00     0.164 HD
ATOM     17  O   UNL A   1      33.611  25.424  21.614  1.00  0.00    -0.269 OA
BRANCH  15  18
ATOM     18  C   UNL A   1      34.350  24.163  23.395  1.00  0.00     0.041 A 
ATOM     19  C   UNL A   1      35.650  23.759  23.095  1.00  0.00     0.015 A 
ATOM     20  C   UNL A   1      33.588  23.451  24.328  1.00  0.00     0.035 A 
ATOM     21  C   UNL A   1      36.164  22.595  23.685  1.00  0.00     0.023 A 
ATOM     22  C   UNL A   1      34.105  22.286  24.921  1.00  0.00     0.086 A 
ATOM     23  C   UNL A   1      35.396  21.849  24.598  1.00  0.00     0.059 A 
ATOM     24  Cl  UNL A   1      36.123  20.410  25.206  1.00  0.00    -0.083 Cl
BRANCH  22  25
ATOM     25  S   UNL A   1      32.988  21.335  25.931  1.00  0.00     0.177 S 
ATOM     26  C   UNL A   1      31.610  22.423  26.155  1.00  0.00     0.164 C 
ATOM     27  O   UNL A   1      32.533  20.212  25.129  1.00  0.00    -0.224 OA
ATOM     28  O   UNL A   1      33.619  21.070  27.208  1.00  0.00    -0.224 OA
ENDBRANCH  22  25
ENDBRANCH  15  18
ENDBRANCH   9  14
ENDBRANCH   7   9
ENDBRANCH   6   7
ENDBRANCH   5   6
ENDBRANCH   4   5
ENDBRANCH   3   4
ENDBRANCH   2   3
ENDBRANCH   1   2
BRANCH   1  29
ATOM     29  O   UNL A   1      33.666  33.617  30.237  1.00  0.00    -0.377 OA
BRANCH  29  30
ATOM     30  C   UNL A   1      33.534  35.029  30.407  1.00  0.00     0.188 C 
BRANCH  30  31
ATOM     31  C   UNL A   1      34.259  35.661  31.598  1.00  0.00     0.188 C 
BRANCH  31  32
ATOM     32  O   UNL A   1      34.089  35.010  32.857  1.00  0.00    -0.376 OA
BRANCH  32  33
ATOM     33  C   UNL A   1      35.230  34.387  33.433  1.00  0.00     0.202 C 
BRANCH  33  34
ATOM     34  C   UNL A   1      35.162  32.862  33.494  1.00  0.00     0.261 C 
BRANCH  34  35
ATOM     35  O   UNL A   1      36.198  32.218  32.730  1.00  0.00    -0.460 OA
BRANCH  35  36
ATOM     36  C   UNL A   1      37.266  31.775  33.435  1.00  0.00     0.338 C 
ATOM     37  O   UNL A   1      37.287  31.389  34.595  1.00  0.00    -0.246 OA
BRANCH  36  38
ATOM     38  C   UNL A   1      38.438  31.704  32.546  1.00  0.00     0.060 A 
ATOM     39  C   UNL A   1      38.306  32.046  31.193  1.00  0.00     0.016 A 
ATOM     40  C   UNL A   1      39.648  31.212  33.038  1.00  0.00     0.016 A 
ATOM     41  C   UNL A   1      39.379  31.869  30.318  1.00  0.00     0.010 A 
ATOM     42  C   UNL A   1      40.713  31.021  32.161  1.00  0.00     0.010 A 
ATOM     43  C   UNL A   1      40.575  31.319  30.793  1.00  0.00    -0.014 A 
BRANCH  43  44
ATOM     44  C   UNL A   1      41.650  30.896  29.868  1.00  0.00     0.031 A 
ATOM     45  C   UNL A   1      41.589  29.516  29.280  1.00  0.00     0.074 A 
ATOM     46  C   UNL A   1      42.693  31.701  29.611  1.00  0.00     0.049 A 
ATOM     47  N   UNL A   1      42.499  28.849  28.619  1.00  0.00    -0.248 NA
ATOM     48  C   UNL A   1      40.329  28.783  29.481  1.00  0.00     0.031 C 
ATOM     49  C   UNL A   1      42.829  33.081  30.072  1.00  0.00     0.029 A 
ATOM     50  N   UNL A   1      43.854  31.454  28.922  1.00  0.00    -0.354 N 
ATOM     51  C   UNL A   1      41.928  27.614  28.338  1.00  0.00     0.074 A 
ATOM     52  C   UNL A   1      40.606  27.614  28.926  1.00  0.00     0.031 C 
ATOM     53  C   UNL A   1      44.023  33.553  29.676  1.00  0.00     0.029 A 
ATOM     54  C   UNL A   1      44.751  32.492  28.982  1.00  0.00     0.049 A 
ATOM     55  H   UNL A   1      44.026  30.617  28.433  1.00  0.00     0.167 HD
ATOM     56  C   UNL A   1      42.462  26.579  27.647  1.00  0.00     0.037 A 
ATOM     57  C   UNL A   1      46.030  32.553  28.562  1.00  0.00     0.037 A 
ATOM     58  C   UNL A   1      43.785  26.590  27.080  1.00  0.00     0.049 A 
ATOM     59  C   UNL A   1      46.648  31.344  27.904  1.00  0.00     0.074 A 
ATOM     60  C   UNL A   1      44.421  25.602  26.349  1.00  0.00     0.029 A 
ATOM     61  N   UNL A   1      44.681  27.644  27.194  1.00  0.00    -0.354 N 
ATOM     62  N   UNL A   1      46.106  30.184  27.623  1.00  0.00    -0.248 NA
ATOM     63  C   UNL A   1      48.061  31.453  27.513  1.00  0.00     0.031 C 
ATOM     64  C   UNL A   1      45.725  26.032  26.079  1.00  0.00     0.029 A 
ATOM     65  C   UNL A   1      45.880  27.313  26.583  1.00  0.00     0.049 A 
ATOM     66  H   UNL A   1      44.493  28.500  27.642  1.00  0.00     0.167 HD
ATOM     67  C   UNL A   1      47.098  29.437  26.998  1.00  0.00     0.074 A 
ATOM     68  C   UNL A   1      48.272  30.281  26.931  1.00  0.00     0.031 C 
ATOM     69  C   UNL A   1      47.040  28.168  26.522  1.00  0.00     0.037 A 
BRANCH  56  70
ATOM     70  C   UNL A   1      41.627  25.337  27.507  1.00  0.00     0.064 A 
ATOM     71  C   UNL A   1      40.539  25.272  26.622  1.00  0.00     0.173 A 
ATOM     72  C   UNL A   1      41.925  24.192  28.261  1.00  0.00     0.173 A 
ATOM     73  F   UNL A   1      40.202  26.341  25.886  1.00  0.00    -0.203 F 
ATOM     74  C   UNL A   1      39.757  24.123  26.530  1.00  0.00     0.198 A 
ATOM     75  C   UNL A   1      41.163  23.032  28.139  1.00  0.00     0.198 A 
ATOM     76  F   UNL A   1      42.959  24.194  29.116  1.00  0.00    -0.203 F 
ATOM     77  F   UNL A   1      38.685  24.107  25.726  1.00  0.00    -0.200 F 
ATOM     78  C   UNL A   1      40.074  23.003  27.284  1.00  0.00     0.200 A 
ATOM     79  F   UNL A   1      41.481  21.946  28.857  1.00  0.00    -0.200 F 
ATOM     80  F   UNL A   1      39.321  21.897  27.193  1.00  0.00    -0.200 F 
ENDBRANCH  56  70
BRANCH  57  81
ATOM     81  C   UNL A   1      46.816  33.797  28.765  1.00  0.00     0.064 A 
ATOM     82  C   UNL A   1      47.469  34.040  29.982  1.00  0.00     0.173 A 
ATOM     83  C   UNL A   1      46.934  34.766  27.758  1.00  0.00     0.173 A 
ATOM     84  F   UNL A   1      47.363  33.158  30.987  1.00  0.00    -0.203 F 
ATOM     85  C   UNL A   1      48.199  35.209  30.187  1.00  0.00     0.198 A 
ATOM     86  C   UNL A   1      47.689  35.921  27.953  1.00  0.00     0.198 A 
ATOM     87  F   UNL A   1      46.324  34.587  26.577  1.00  0.00    -0.203 F 
ATOM     88  F   UNL A   1      48.778  35.435  31.373  1.00  0.00    -0.200 F 
ATOM     89  C   UNL A   1      48.315  36.144  29.170  1.00  0.00     0.200 A 
ATOM     90  F   UNL A   1      47.808  36.818  26.965  1.00  0.00    -0.200 F 
ATOM     91  F   UNL A   1      49.025  37.264  29.365  1.00  0.00    -0.200 F 
ENDBRANCH  57  81
BRANCH  69  92
ATOM     92  C   UNL A   1      48.271  27.618  25.859  1.00  0.00     0.064 A 
ATOM     93  C   UNL A   1      48.420  27.618  24.465  1.00  0.00     0.173 A 
ATOM     94  C   UNL A   1      49.345  27.150  26.632  1.00  0.00     0.173 A 
ATOM     95  F   UNL A   1      47.418  28.041  23.679  1.00  0.00    -0.203 F 
ATOM     96  C   UNL A   1      49.591  27.156  23.870  1.00  0.00     0.198 A 
ATOM     97  C   UNL A   1      50.527  26.720  26.035  1.00  0.00     0.198 A 
ATOM     98  F   UNL A   1      49.259  27.134  27.972  1.00  0.00    -0.203 F 
ATOM     99  F   UNL A   1      49.695  27.129  22.533  1.00  0.00    -0.200 F 
ATOM    100  C   UNL A   1      50.647  26.719  24.654  1.00  0.00     0.200 A 
ATOM    101  F   UNL A   1      51.552  26.314  26.797  1.00  0.00    -0.200 F 
ATOM    102  F   UNL A   1      51.780  26.292  24.080  1.00  0.00    -0.200 F 
ENDBRANCH  69  92
ENDBRANCH  43  44
ENDBRANCH  36  38
ENDBRANCH  35  36
ENDBRANCH  34  35
ENDBRANCH  33  34
ENDBRANCH  32  33
ENDBRANCH  31  32
ENDBRANCH  30  31
ENDBRANCH  29  30
ENDBRANCH   1  29
TORSDOF 25
ENDMDL
