MODEL 1
REMARK VINA RESULT:      -6.6      0.000      0.000
REMARK SMILES CCOC(=O)c1cccc(NC(=O)CCC(=O)OCCOCCOCCOCCOC(=O)c2ccc(-c3c4nc(c(-c5c(F)c(F)c(F)c(F)c5F)c5ccc([nH]5)c(-c5c(F)c(F)c(F)c(F)c5F)c5nc(c(-c6c(F)c(F)c(F)c(F)c6F)c6ccc3[nH]6)C=C5)C=C4)cc2)c1
REMARK SMILES IDX 22 1 21 2 20 3 19 4 18 5 16 6 17 7 15 8 14 9 12 10 11 11
REMARK SMILES IDX 13 13 10 14 6 15 7 16 96 17 8 18 9 19 4 20 5 21 3 22 2 23
REMARK SMILES IDX 1 24 23 25 24 26 25 27 26 28 27 29 28 30 29 31 30 32 31 33
REMARK SMILES IDX 32 34 33 35 34 36 95 37 35 38 94 39 36 40 37 41 38 42 88 43
REMARK SMILES IDX 39 44 93 45 87 46 89 47 40 48 92 49 86 50 85 51 41 53 73 54
REMARK SMILES IDX 53 55 72 56 54 57 57 58 71 59 90 60 55 61 56 62 70 64 91 65
REMARK SMILES IDX 58 66 42 67 43 68 51 69 44 70 45 71 49 72 52 73 46 74 47 75
REMARK SMILES IDX 50 76 48 77 74 78 75 79 83 80 76 81 77 82 81 83 84 84 78 85
REMARK SMILES IDX 79 86 82 87 80 88 59 89 60 90 68 91 61 92 62 93 66 94 69 95
REMARK SMILES IDX 63 96 64 97 67 98 65 99
REMARK H PARENT 11 12 89 52 57 63
REMARK Flexibility Score: inf
ROOT
ATOM      1  C   UNL A   1      37.043  33.669  35.560  1.00  0.00     0.188 C 
ENDROOT
BRANCH   1   2
ATOM      2  O   UNL A   1      37.263  32.316  35.987  1.00  0.00    -0.376 OA
BRANCH   2   3
ATOM      3  C   UNL A   1      38.593  31.812  36.594  1.00  0.00     0.202 C 
BRANCH   3   4
ATOM      4  C   UNL A   1      40.175  30.549  35.749  1.00  0.00     0.261 C 
BRANCH   4   5
ATOM      5  O   UNL A   1      40.598  29.036  36.280  1.00  0.00    -0.463 OA
BRANCH   5   6
ATOM      6  C   UNL A   1      41.882  28.596  36.270  1.00  0.00     0.306 C 
ATOM      7  O   UNL A   1      42.787  29.128  36.901  1.00  0.00    -0.252 OA
BRANCH   6   8
ATOM      8  C   UNL A   1      42.064  27.283  35.498  1.00  0.00     0.132 C 
BRANCH   8   9
ATOM      9  C   UNL A   1      42.078  27.227  33.959  1.00  0.00     0.112 C 
BRANCH   9  10
ATOM     10  C   UNL A   1      40.990  27.943  33.198  1.00  0.00     0.224 C 
ATOM     11  N   UNL A   1      41.245  29.056  32.460  1.00  0.00    -0.326 N 
ATOM     12  H   UNL A   1      40.447  29.514  32.110  1.00  0.00     0.169 HD
ATOM     13  O   UNL A   1      39.824  27.542  33.249  1.00  0.00    -0.275 OA
BRANCH  11  14
ATOM     14  C   UNL A   1      42.465  29.650  32.118  1.00  0.00     0.042 A 
ATOM     15  C   UNL A   1      44.475  31.907  32.903  1.00  0.00     0.062 A 
ATOM     16  C   UNL A   1      45.280  31.759  31.305  1.00  0.00     0.016 A 
ATOM     17  C   UNL A   1      43.079  30.857  33.307  1.00  0.00     0.041 A 
ATOM     18  C   UNL A   1      44.706  30.560  30.090  1.00  0.00     0.003 A 
ATOM     19  C   UNL A   1      43.311  29.478  30.508  1.00  0.00     0.026 A 
BRANCH  15  20
ATOM     20  C   UNL A   1      45.155  32.704  33.943  1.00  0.00     0.338 C 
ATOM     21  O   UNL A   1      44.834  33.843  34.225  1.00  0.00    -0.246 OA
BRANCH  20  22
ATOM     22  O   UNL A   1      46.226  32.007  34.399  1.00  0.00    -0.462 OA
BRANCH  22  23
ATOM     23  C   UNL A   1      45.934  30.709  34.955  1.00  0.00     0.230 C 
ATOM     24  C   UNL A   1      46.643  30.472  36.280  1.00  0.00     0.049 C 
ENDBRANCH  22  23
ENDBRANCH  20  22
ENDBRANCH  15  20
ENDBRANCH  11  14
ENDBRANCH   9  10
ENDBRANCH   8   9
ENDBRANCH   6   8
ENDBRANCH   5   6
ENDBRANCH   4   5
ENDBRANCH   3   4
ENDBRANCH   2   3
ENDBRANCH   1   2
BRANCH   1  25
ATOM     25  C   UNL A   1      35.689  34.214  35.068  1.00  0.00     0.188 C 
BRANCH  25  26
ATOM     26  O   UNL A   1      34.936  33.545  34.076  1.00  0.00    -0.377 OA
BRANCH  26  27
ATOM     27  C   UNL A   1      35.457  33.270  32.794  1.00  0.00     0.188 C 
BRANCH  27  28
ATOM     28  C   UNL A   1      35.911  31.823  32.550  1.00  0.00     0.188 C 
BRANCH  28  29
ATOM     29  O   UNL A   1      37.241  31.431  32.893  1.00  0.00    -0.376 OA
BRANCH  29  30
ATOM     30  C   UNL A   1      37.582  30.055  32.869  1.00  0.00     0.202 C 
BRANCH  30  31
ATOM     31  C   UNL A   1      37.019  29.295  31.655  1.00  0.00     0.261 C 
BRANCH  31  32
ATOM     32  O   UNL A   1      37.812  29.367  30.455  1.00  0.00    -0.460 OA
BRANCH  32  33
ATOM     33  C   UNL A   1      37.497  30.363  29.588  1.00  0.00     0.338 C 
ATOM     34  O   UNL A   1      36.482  30.470  28.922  1.00  0.00    -0.246 OA
BRANCH  33  35
ATOM     35  C   UNL A   1      38.526  31.434  29.662  1.00  0.00     0.060 A 
ATOM     36  C   UNL A   1      39.865  31.066  29.876  1.00  0.00     0.016 A 
ATOM     37  C   UNL A   1      38.190  32.783  29.514  1.00  0.00     0.016 A 
ATOM     38  C   UNL A   1      40.853  32.044  30.025  1.00  0.00     0.010 A 
ATOM     39  C   UNL A   1      39.174  33.764  29.693  1.00  0.00     0.010 A 
ATOM     40  C   UNL A   1      40.496  33.397  30.009  1.00  0.00    -0.014 A 
BRANCH  40  41
ATOM     41  C   UNL A   1      41.398  34.397  30.642  1.00  0.00     0.031 A 
ATOM     42  C   UNL A   1      41.392  34.474  32.147  1.00  0.00     0.074 A 
ATOM     43  C   UNL A   1      42.217  35.192  29.933  1.00  0.00     0.049 A 
ATOM     44  N   UNL A   1      42.013  35.299  32.950  1.00  0.00    -0.248 NA
ATOM     45  C   UNL A   1      40.561  33.474  32.840  1.00  0.00     0.031 C 
ATOM     46  C   UNL A   1      42.377  35.170  28.482  1.00  0.00     0.029 A 
ATOM     47  N   UNL A   1      43.070  36.185  30.352  1.00  0.00    -0.354 N 
ATOM     48  C   UNL A   1      41.638  34.925  34.235  1.00  0.00     0.074 A 
ATOM     49  C   UNL A   1      40.708  33.827  34.106  1.00  0.00     0.031 C 
ATOM     50  C   UNL A   1      43.266  36.117  28.128  1.00  0.00     0.029 A 
ATOM     51  C   UNL A   1      43.706  36.838  29.325  1.00  0.00     0.049 A 
ATOM     52  H   UNL A   1      43.212  36.409  31.301  1.00  0.00     0.167 HD
ATOM     53  C   UNL A   1      42.039  35.441  35.421  1.00  0.00     0.037 A 
ATOM     54  C   UNL A   1      44.527  37.907  29.352  1.00  0.00     0.037 A 
ATOM     55  C   UNL A   1      42.953  36.544  35.548  1.00  0.00     0.049 A 
ATOM     56  C   UNL A   1      44.869  38.546  30.678  1.00  0.00     0.074 A 
ATOM     57  C   UNL A   1      43.419  37.151  36.700  1.00  0.00     0.029 A 
ATOM     58  N   UNL A   1      43.532  37.211  34.479  1.00  0.00    -0.354 N 
ATOM     59  N   UNL A   1      44.516  38.187  31.889  1.00  0.00    -0.248 NA
ATOM     60  C   UNL A   1      45.725  39.741  30.638  1.00  0.00     0.031 C 
ATOM     61  C   UNL A   1      44.229  38.228  36.326  1.00  0.00     0.029 A 
ATOM     62  C   UNL A   1      44.329  38.245  34.943  1.00  0.00     0.049 A 
ATOM     63  H   UNL A   1      43.397  36.985  33.530  1.00  0.00     0.167 HD
ATOM     64  C   UNL A   1      45.139  39.082  32.753  1.00  0.00     0.074 A 
ATOM     65  C   UNL A   1      45.897  39.998  31.927  1.00  0.00     0.031 C 
ATOM     66  C   UNL A   1      45.094  39.137  34.109  1.00  0.00     0.037 A 
BRANCH  53  67
ATOM     67  C   UNL A   1      41.451  34.840  36.666  1.00  0.00     0.064 A 
ATOM     68  C   UNL A   1      42.037  33.735  37.306  1.00  0.00     0.173 A 
ATOM     69  C   UNL A   1      40.279  35.372  37.225  1.00  0.00     0.173 A 
ATOM     70  F   UNL A   1      43.150  33.177  36.805  1.00  0.00    -0.203 F 
ATOM     71  C   UNL A   1      41.448  33.161  38.430  1.00  0.00     0.198 A 
ATOM     72  C   UNL A   1      39.715  34.819  38.372  1.00  0.00     0.198 A 
ATOM     73  F   UNL A   1      39.677  36.428  36.657  1.00  0.00    -0.203 F 
ATOM     74  F   UNL A   1      41.988  32.064  38.980  1.00  0.00    -0.200 F 
ATOM     75  C   UNL A   1      40.292  33.707  38.965  1.00  0.00     0.200 A 
ATOM     76  F   UNL A   1      38.605  35.357  38.896  1.00  0.00    -0.200 F 
ATOM     77  F   UNL A   1      39.726  33.154  40.047  1.00  0.00    -0.200 F 
ENDBRANCH  53  67
BRANCH  54  78
ATOM     78  C   UNL A   1      45.084  38.459  28.085  1.00  0.00     0.064 A 
ATOM     79  C   UNL A   1      46.336  38.045  27.608  1.00  0.00     0.173 A 
ATOM     80  C   UNL A   1      44.395  39.431  27.344  1.00  0.00     0.173 A 
ATOM     81  F   UNL A   1      47.048  37.140  28.295  1.00  0.00    -0.203 F 
ATOM     82  C   UNL A   1      46.884  38.593  26.450  1.00  0.00     0.198 A 
ATOM     83  C   UNL A   1      44.931  39.955  26.169  1.00  0.00     0.198 A 
ATOM     84  F   UNL A   1      43.197  39.869  27.759  1.00  0.00    -0.203 F 
ATOM     85  F   UNL A   1      48.104  38.214  26.045  1.00  0.00    -0.200 F 
ATOM     86  C   UNL A   1      46.178  39.543  25.727  1.00  0.00     0.200 A 
ATOM     87  F   UNL A   1      44.239  40.864  25.467  1.00  0.00    -0.200 F 
ATOM     88  F   UNL A   1      46.703  40.065  24.611  1.00  0.00    -0.200 F 
ENDBRANCH  54  78
BRANCH  66  89
ATOM     89  C   UNL A   1      45.932  40.180  34.795  1.00  0.00     0.064 A 
ATOM     90  C   UNL A   1      47.256  39.932  35.188  1.00  0.00     0.173 A 
ATOM     91  C   UNL A   1      45.416  41.469  35.009  1.00  0.00     0.173 A 
ATOM     92  F   UNL A   1      47.794  38.716  35.018  1.00  0.00    -0.203 F 
ATOM     93  C   UNL A   1      48.021  40.927  35.795  1.00  0.00     0.198 A 
ATOM     94  C   UNL A   1      46.196  42.471  35.580  1.00  0.00     0.198 A 
ATOM     95  F   UNL A   1      44.160  41.764  34.642  1.00  0.00    -0.203 F 
ATOM     96  F   UNL A   1      49.266  40.651  36.209  1.00  0.00    -0.200 F 
ATOM     97  C   UNL A   1      47.494  42.195  35.981  1.00  0.00     0.200 A 
ATOM     98  F   UNL A   1      45.691  43.701  35.740  1.00  0.00    -0.200 F 
ATOM     99  F   UNL A   1      48.237  43.154  36.552  1.00  0.00    -0.200 F 
ENDBRANCH  66  89
ENDBRANCH  40  41
ENDBRANCH  33  35
ENDBRANCH  32  33
ENDBRANCH  31  32
ENDBRANCH  30  31
ENDBRANCH  29  30
ENDBRANCH  28  29
ENDBRANCH  27  28
ENDBRANCH  26  27
ENDBRANCH  25  26
ENDBRANCH   1  25
TORSDOF 26
ENDMDL
MODEL 2
REMARK VINA RESULT:      -6.4      6.036     11.070
REMARK SMILES CCOC(=O)c1cccc(NC(=O)CCC(=O)OCCOCCOCCOCCOC(=O)c2ccc(-c3c4nc(c(-c5c(F)c(F)c(F)c(F)c5F)c5ccc([nH]5)c(-c5c(F)c(F)c(F)c(F)c5F)c5nc(c(-c6c(F)c(F)c(F)c(F)c6F)c6ccc3[nH]6)C=C5)C=C4)cc2)c1
REMARK SMILES IDX 22 1 21 2 20 3 19 4 18 5 16 6 17 7 15 8 14 9 12 10 11 11
REMARK SMILES IDX 13 13 10 14 6 15 7 16 96 17 8 18 9 19 4 20 5 21 3 22 2 23
REMARK SMILES IDX 1 24 23 25 24 26 25 27 26 28 27 29 28 30 29 31 30 32 31 33
REMARK SMILES IDX 32 34 33 35 34 36 95 37 35 38 94 39 36 40 37 41 38 42 88 43
REMARK SMILES IDX 39 44 93 45 87 46 89 47 40 48 92 49 86 50 85 51 41 53 73 54
REMARK SMILES IDX 53 55 72 56 54 57 57 58 71 59 90 60 55 61 56 62 70 64 91 65
REMARK SMILES IDX 58 66 42 67 43 68 51 69 44 70 45 71 49 72 52 73 46 74 47 75
REMARK SMILES IDX 50 76 48 77 74 78 75 79 83 80 76 81 77 82 81 83 84 84 78 85
REMARK SMILES IDX 79 86 82 87 80 88 59 89 60 90 68 91 61 92 62 93 66 94 69 95
REMARK SMILES IDX 63 96 64 97 67 98 65 99
REMARK H PARENT 11 12 89 52 57 63
REMARK Flexibility Score: inf
ROOT
ATOM      1  C   UNL A   1      45.004  30.326  27.137  1.00  0.00     0.188 C 
ENDROOT
BRANCH   1   2
ATOM      2  O   UNL A   1      44.103  29.368  27.712  1.00  0.00    -0.376 OA
BRANCH   2   3
ATOM      3  C   UNL A   1      43.376  28.273  26.895  1.00  0.00     0.202 C 
BRANCH   3   4
ATOM      4  C   UNL A   1      41.245  27.797  26.702  1.00  0.00     0.261 C 
BRANCH   4   5
ATOM      5  O   UNL A   1      40.407  26.698  27.620  1.00  0.00    -0.463 OA
BRANCH   5   6
ATOM      6  C   UNL A   1      40.533  25.359  27.442  1.00  0.00     0.306 C 
ATOM      7  O   UNL A   1      41.210  24.637  28.164  1.00  0.00    -0.252 OA
BRANCH   6   8
ATOM      8  C   UNL A   1      39.632  24.811  26.328  1.00  0.00     0.132 C 
BRANCH   8   9
ATOM      9  C   UNL A   1      38.539  23.760  26.593  1.00  0.00     0.112 C 
BRANCH   9  10
ATOM     10  C   UNL A   1      38.798  22.328  26.193  1.00  0.00     0.224 C 
ATOM     11  N   UNL A   1      37.869  21.590  25.531  1.00  0.00    -0.326 N 
ATOM     12  H   UNL A   1      38.090  20.636  25.432  1.00  0.00     0.169 HD
ATOM     13  O   UNL A   1      39.866  21.782  26.483  1.00  0.00    -0.275 OA
BRANCH  11  14
ATOM     14  C   UNL A   1      36.648  21.974  24.967  1.00  0.00     0.042 A 
ATOM     15  C   UNL A   1      33.651  21.156  24.647  1.00  0.00     0.062 A 
ATOM     16  C   UNL A   1      33.464  22.333  23.304  1.00  0.00     0.016 A 
ATOM     17  C   UNL A   1      35.232  20.981  25.473  1.00  0.00     0.041 A 
ATOM     18  C   UNL A   1      34.849  23.353  22.769  1.00  0.00     0.003 A 
ATOM     19  C   UNL A   1      36.441  23.196  23.624  1.00  0.00     0.026 A 
BRANCH  15  20
ATOM     20  C   UNL A   1      32.426  20.558  25.211  1.00  0.00     0.338 C 
ATOM     21  O   UNL A   1      31.464  21.216  25.561  1.00  0.00    -0.246 OA
BRANCH  20  22
ATOM     22  O   UNL A   1      32.624  19.226  25.377  1.00  0.00    -0.462 OA
BRANCH  22  23
ATOM     23  C   UNL A   1      32.459  18.420  24.193  1.00  0.00     0.230 C 
ATOM     24  C   UNL A   1      33.742  17.704  23.796  1.00  0.00     0.049 C 
ENDBRANCH  22  23
ENDBRANCH  20  22
ENDBRANCH  15  20
ENDBRANCH  11  14
ENDBRANCH   9  10
ENDBRANCH   8   9
ENDBRANCH   6   8
ENDBRANCH   5   6
ENDBRANCH   4   5
ENDBRANCH   3   4
ENDBRANCH   2   3
ENDBRANCH   1   2
BRANCH   1  25
ATOM     25  C   UNL A   1      46.243  29.959  26.300  1.00  0.00     0.188 C 
BRANCH  25  26
ATOM     26  O   UNL A   1      47.548  30.007  26.843  1.00  0.00    -0.377 OA
BRANCH  26  27
ATOM     27  C   UNL A   1      48.471  28.952  26.678  1.00  0.00     0.188 C 
BRANCH  27  28
ATOM     28  C   UNL A   1      47.962  27.551  27.048  1.00  0.00     0.188 C 
BRANCH  28  29
ATOM     29  O   UNL A   1      47.845  26.550  26.036  1.00  0.00    -0.376 OA
BRANCH  29  30
ATOM     30  C   UNL A   1      47.838  25.183  26.414  1.00  0.00     0.202 C 
BRANCH  30  31
ATOM     31  C   UNL A   1      46.513  24.461  26.114  1.00  0.00     0.261 C 
BRANCH  31  32
ATOM     32  O   UNL A   1      45.393  24.854  26.929  1.00  0.00    -0.460 OA
BRANCH  32  33
ATOM     33  C   UNL A   1      45.209  24.149  28.074  1.00  0.00     0.338 C 
ATOM     34  O   UNL A   1      45.302  22.942  28.222  1.00  0.00    -0.246 OA
BRANCH  33  35
ATOM     35  C   UNL A   1      45.009  25.085  29.212  1.00  0.00     0.060 A 
ATOM     36  C   UNL A   1      44.160  24.697  30.262  1.00  0.00     0.016 A 
ATOM     37  C   UNL A   1      45.652  26.325  29.260  1.00  0.00     0.016 A 
ATOM     38  C   UNL A   1      43.887  25.575  31.314  1.00  0.00     0.010 A 
ATOM     39  C   UNL A   1      45.357  27.218  30.299  1.00  0.00     0.010 A 
ATOM     40  C   UNL A   1      44.426  26.867  31.296  1.00  0.00    -0.014 A 
BRANCH  40  41
ATOM     41  C   UNL A   1      43.778  27.939  32.097  1.00  0.00     0.031 A 
ATOM     42  C   UNL A   1      44.375  28.246  33.447  1.00  0.00     0.074 A 
ATOM     43  C   UNL A   1      42.723  28.645  31.655  1.00  0.00     0.049 A 
ATOM     44  N   UNL A   1      43.968  29.068  34.380  1.00  0.00    -0.248 NA
ATOM     45  C   UNL A   1      45.606  27.513  33.789  1.00  0.00     0.031 C 
ATOM     46  C   UNL A   1      42.096  28.503  30.344  1.00  0.00     0.029 A 
ATOM     47  N   UNL A   1      41.988  29.625  32.278  1.00  0.00    -0.354 N 
ATOM     48  C   UNL A   1      44.885  28.940  35.417  1.00  0.00     0.074 A 
ATOM     49  C   UNL A   1      45.845  27.937  35.017  1.00  0.00     0.031 C 
ATOM     50  C   UNL A   1      41.058  29.358  30.264  1.00  0.00     0.029 A 
ATOM     51  C   UNL A   1      40.927  30.077  31.533  1.00  0.00     0.049 A 
ATOM     52  H   UNL A   1      42.202  29.971  33.175  1.00  0.00     0.167 HD
ATOM     53  C   UNL A   1      44.933  29.607  36.595  1.00  0.00     0.037 A 
ATOM     54  C   UNL A   1      39.951  30.951  31.854  1.00  0.00     0.037 A 
ATOM     55  C   UNL A   1      43.968  30.594  36.998  1.00  0.00     0.049 A 
ATOM     56  C   UNL A   1      39.953  31.596  33.221  1.00  0.00     0.074 A 
ATOM     57  C   UNL A   1      43.916  31.322  38.173  1.00  0.00     0.029 A 
ATOM     58  N   UNL A   1      42.877  30.983  36.235  1.00  0.00    -0.354 N 
ATOM     59  N   UNL A   1      40.822  31.476  34.195  1.00  0.00    -0.248 NA
ATOM     60  C   UNL A   1      38.834  32.498  33.530  1.00  0.00     0.031 C 
ATOM     61  C   UNL A   1      42.757  32.104  38.148  1.00  0.00     0.029 A 
ATOM     62  C   UNL A   1      42.128  31.921  36.927  1.00  0.00     0.049 A 
ATOM     63  H   UNL A   1      42.665  30.643  35.336  1.00  0.00     0.167 HD
ATOM     64  C   UNL A   1      40.380  32.317  35.212  1.00  0.00     0.074 A 
ATOM     65  C   UNL A   1      39.167  32.945  34.732  1.00  0.00     0.031 C 
ATOM     66  C   UNL A   1      40.932  32.553  36.429  1.00  0.00     0.037 A 
BRANCH  53  67
ATOM     67  C   UNL A   1      46.043  29.248  37.543  1.00  0.00     0.064 A 
ATOM     68  C   UNL A   1      45.925  28.190  38.458  1.00  0.00     0.173 A 
ATOM     69  C   UNL A   1      47.241  29.979  37.540  1.00  0.00     0.173 A 
ATOM     70  F   UNL A   1      44.794  27.469  38.514  1.00  0.00    -0.203 F 
ATOM     71  C   UNL A   1      46.946  27.906  39.362  1.00  0.00     0.198 A 
ATOM     72  C   UNL A   1      48.275  29.667  38.419  1.00  0.00     0.198 A 
ATOM     73  F   UNL A   1      47.409  30.999  36.685  1.00  0.00    -0.203 F 
ATOM     74  F   UNL A   1      46.780  26.937  40.273  1.00  0.00    -0.200 F 
ATOM     75  C   UNL A   1      48.121  28.640  39.338  1.00  0.00     0.200 A 
ATOM     76  F   UNL A   1      49.416  30.369  38.384  1.00  0.00    -0.200 F 
ATOM     77  F   UNL A   1      49.103  28.366  40.208  1.00  0.00    -0.200 F 
ENDBRANCH  53  67
BRANCH  54  78
ATOM     78  C   UNL A   1      38.877  31.271  30.872  1.00  0.00     0.064 A 
ATOM     79  C   UNL A   1      37.793  30.401  30.680  1.00  0.00     0.173 A 
ATOM     80  C   UNL A   1      38.926  32.431  30.084  1.00  0.00     0.173 A 
ATOM     81  F   UNL A   1      37.715  29.264  31.387  1.00  0.00    -0.203 F 
ATOM     82  C   UNL A   1      36.811  30.671  29.729  1.00  0.00     0.198 A 
ATOM     83  C   UNL A   1      37.926  32.715  29.156  1.00  0.00     0.198 A 
ATOM     84  F   UNL A   1      39.944  33.294  30.221  1.00  0.00    -0.203 F 
ATOM     85  F   UNL A   1      35.815  29.797  29.533  1.00  0.00    -0.200 F 
ATOM     86  C   UNL A   1      36.875  31.831  28.972  1.00  0.00     0.200 A 
ATOM     87  F   UNL A   1      37.985  33.843  28.435  1.00  0.00    -0.200 F 
ATOM     88  F   UNL A   1      35.928  32.092  28.062  1.00  0.00    -0.200 F 
ENDBRANCH  54  78
BRANCH  66  89
ATOM     89  C   UNL A   1      40.271  33.577  37.310  1.00  0.00     0.064 A 
ATOM     90  C   UNL A   1      39.238  33.241  38.199  1.00  0.00     0.173 A 
ATOM     91  C   UNL A   1      40.722  34.907  37.304  1.00  0.00     0.173 A 
ATOM     92  F   UNL A   1      38.762  31.988  38.237  1.00  0.00    -0.203 F 
ATOM     93  C   UNL A   1      38.664  34.204  39.026  1.00  0.00     0.198 A 
ATOM     94  C   UNL A   1      40.172  35.858  38.160  1.00  0.00     0.198 A 
ATOM     95  F   UNL A   1      41.715  35.281  36.483  1.00  0.00    -0.203 F 
ATOM     96  F   UNL A   1      37.644  33.871  39.830  1.00  0.00    -0.200 F 
ATOM     97  C   UNL A   1      39.138  35.507  39.013  1.00  0.00     0.200 A 
ATOM     98  F   UNL A   1      40.646  37.111  38.159  1.00  0.00    -0.200 F 
ATOM     99  F   UNL A   1      38.593  36.428  39.821  1.00  0.00    -0.200 F 
ENDBRANCH  66  89
ENDBRANCH  40  41
ENDBRANCH  33  35
ENDBRANCH  32  33
ENDBRANCH  31  32
ENDBRANCH  30  31
ENDBRANCH  29  30
ENDBRANCH  28  29
ENDBRANCH  27  28
ENDBRANCH  26  27
ENDBRANCH  25  26
ENDBRANCH   1  25
TORSDOF 26
ENDMDL
MODEL 3
REMARK VINA RESULT:      -6.3      5.634     10.010
REMARK SMILES CCOC(=O)c1cccc(NC(=O)CCC(=O)OCCOCCOCCOCCOC(=O)c2ccc(-c3c4nc(c(-c5c(F)c(F)c(F)c(F)c5F)c5ccc([nH]5)c(-c5c(F)c(F)c(F)c(F)c5F)c5nc(c(-c6c(F)c(F)c(F)c(F)c6F)c6ccc3[nH]6)C=C5)C=C4)cc2)c1
REMARK SMILES IDX 22 1 21 2 20 3 19 4 18 5 16 6 17 7 15 8 14 9 12 10 11 11
REMARK SMILES IDX 13 13 10 14 6 15 7 16 96 17 8 18 9 19 4 20 5 21 3 22 2 23
REMARK SMILES IDX 1 24 23 25 24 26 25 27 26 28 27 29 28 30 29 31 30 32 31 33
REMARK SMILES IDX 32 34 33 35 34 36 95 37 35 38 94 39 36 40 37 41 38 42 88 43
REMARK SMILES IDX 39 44 93 45 87 46 89 47 40 48 92 49 86 50 85 51 41 53 73 54
REMARK SMILES IDX 53 55 72 56 54 57 57 58 71 59 90 60 55 61 56 62 70 64 91 65
REMARK SMILES IDX 58 66 42 67 43 68 51 69 44 70 45 71 49 72 52 73 46 74 47 75
REMARK SMILES IDX 50 76 48 77 74 78 75 79 83 80 76 81 77 82 81 83 84 84 78 85
REMARK SMILES IDX 79 86 82 87 80 88 59 89 60 90 68 91 61 92 62 93 66 94 69 95
REMARK SMILES IDX 63 96 64 97 67 98 65 99
REMARK H PARENT 11 12 89 52 57 63
REMARK Flexibility Score: inf
ROOT
ATOM      1  C   UNL A   1      41.961  27.386  26.560  1.00  0.00     0.188 C 
ENDROOT
BRANCH   1   2
ATOM      2  O   UNL A   1      43.318  27.004  26.294  1.00  0.00    -0.376 OA
BRANCH   2   3
ATOM      3  C   UNL A   1      43.722  25.932  25.254  1.00  0.00     0.202 C 
BRANCH   3   4
ATOM      4  C   UNL A   1      43.210  23.806  25.104  1.00  0.00     0.261 C 
BRANCH   4   5
ATOM      5  O   UNL A   1      44.217  22.535  25.455  1.00  0.00    -0.463 OA
BRANCH   5   6
ATOM      6  C   UNL A   1      44.443  21.524  24.578  1.00  0.00     0.306 C 
ATOM      7  O   UNL A   1      44.675  21.696  23.388  1.00  0.00    -0.252 OA
BRANCH   6   8
ATOM      8  C   UNL A   1      44.514  20.147  25.250  1.00  0.00     0.132 C 
BRANCH   8   9
ATOM      9  C   UNL A   1      43.329  19.165  25.246  1.00  0.00     0.112 C 
BRANCH   9  10
ATOM     10  C   UNL A   1      42.833  18.622  26.563  1.00  0.00     0.224 C 
ATOM     11  N   UNL A   1      42.209  19.414  27.475  1.00  0.00    -0.326 N 
ATOM     12  H   UNL A   1      42.041  18.990  28.347  1.00  0.00     0.169 HD
ATOM     13  O   UNL A   1      43.005  17.436  26.854  1.00  0.00    -0.275 OA
BRANCH  11  14
ATOM     14  C   UNL A   1      41.767  20.737  27.367  1.00  0.00     0.042 A 
ATOM     15  C   UNL A   1      42.151  23.622  28.498  1.00  0.00     0.062 A 
ATOM     16  C   UNL A   1      40.598  24.130  27.754  1.00  0.00     0.016 A 
ATOM     17  C   UNL A   1      42.732  21.938  28.303  1.00  0.00     0.041 A 
ATOM     18  C   UNL A   1      39.605  22.967  26.803  1.00  0.00     0.003 A 
ATOM     19  C   UNL A   1      40.206  21.270  26.581  1.00  0.00     0.026 A 
BRANCH  15  20
ATOM     20  C   UNL A   1      43.039  24.678  29.024  1.00  0.00     0.338 C 
ATOM     21  O   UNL A   1      42.626  25.724  29.489  1.00  0.00    -0.246 OA
BRANCH  20  22
ATOM     22  O   UNL A   1      44.327  24.331  28.778  1.00  0.00    -0.462 OA
BRANCH  22  23
ATOM     23  C   UNL A   1      45.256  25.428  28.663  1.00  0.00     0.230 C 
ATOM     24  C   UNL A   1      46.261  25.460  29.805  1.00  0.00     0.049 C 
ENDBRANCH  22  23
ENDBRANCH  20  22
ENDBRANCH  15  20
ENDBRANCH  11  14
ENDBRANCH   9  10
ENDBRANCH   8   9
ENDBRANCH   6   8
ENDBRANCH   5   6
ENDBRANCH   4   5
ENDBRANCH   3   4
ENDBRANCH   2   3
ENDBRANCH   1   2
BRANCH   1  25
ATOM     25  C   UNL A   1      41.546  28.471  27.572  1.00  0.00     0.188 C 
BRANCH  25  26
ATOM     26  O   UNL A   1      40.346  28.376  28.313  1.00  0.00    -0.377 OA
BRANCH  26  27
ATOM     27  C   UNL A   1      39.368  29.392  28.293  1.00  0.00     0.188 C 
BRANCH  27  28
ATOM     28  C   UNL A   1      37.923  28.929  28.056  1.00  0.00     0.188 C 
BRANCH  28  29
ATOM     29  O   UNL A   1      36.888  29.357  28.942  1.00  0.00    -0.376 OA
BRANCH  29  30
ATOM     30  C   UNL A   1      37.240  29.868  30.218  1.00  0.00     0.202 C 
BRANCH  30  31
ATOM     31  C   UNL A   1      37.083  31.393  30.343  1.00  0.00     0.261 C 
BRANCH  31  32
ATOM     32  O   UNL A   1      38.245  32.100  30.815  1.00  0.00    -0.460 OA
BRANCH  32  33
ATOM     33  C   UNL A   1      38.130  33.450  30.904  1.00  0.00     0.338 C 
ATOM     34  O   UNL A   1      37.162  34.086  31.284  1.00  0.00    -0.246 OA
BRANCH  33  35
ATOM     35  C   UNL A   1      39.441  34.084  30.603  1.00  0.00     0.060 A 
ATOM     36  C   UNL A   1      39.657  34.603  29.315  1.00  0.00     0.016 A 
ATOM     37  C   UNL A   1      40.445  34.181  31.569  1.00  0.00     0.016 A 
ATOM     38  C   UNL A   1      40.899  35.141  28.968  1.00  0.00     0.010 A 
ATOM     39  C   UNL A   1      41.700  34.694  31.214  1.00  0.00     0.010 A 
ATOM     40  C   UNL A   1      41.948  35.119  29.894  1.00  0.00    -0.014 A 
BRANCH  40  41
ATOM     41  C   UNL A   1      43.351  35.213  29.411  1.00  0.00     0.031 A 
ATOM     42  C   UNL A   1      43.936  36.595  29.263  1.00  0.00     0.074 A 
ATOM     43  C   UNL A   1      44.103  34.134  29.137  1.00  0.00     0.049 A 
ATOM     44  N   UNL A   1      45.097  36.971  28.790  1.00  0.00    -0.248 NA
ATOM     45  C   UNL A   1      43.082  37.708  29.711  1.00  0.00     0.031 C 
ATOM     46  C   UNL A   1      43.689  32.745  29.307  1.00  0.00     0.029 A 
ATOM     47  N   UNL A   1      45.384  34.047  28.646  1.00  0.00    -0.354 N 
ATOM     48  C   UNL A   1      45.103  38.358  28.875  1.00  0.00     0.074 A 
ATOM     49  C   UNL A   1      43.822  38.760  29.406  1.00  0.00     0.031 C 
ATOM     50  C   UNL A   1      44.694  31.940  28.913  1.00  0.00     0.029 A 
ATOM     51  C   UNL A   1      45.806  32.759  28.427  1.00  0.00     0.049 A 
ATOM     52  H   UNL A   1      45.947  34.835  28.468  1.00  0.00     0.167 HD
ATOM     53  C   UNL A   1      46.094  39.224  28.551  1.00  0.00     0.037 A 
ATOM     54  C   UNL A   1      46.948  32.302  27.875  1.00  0.00     0.037 A 
ATOM     55  C   UNL A   1      47.363  38.823  28.008  1.00  0.00     0.049 A 
ATOM     56  C   UNL A   1      47.993  33.289  27.407  1.00  0.00     0.074 A 
ATOM     57  C   UNL A   1      48.432  39.618  27.635  1.00  0.00     0.029 A 
ATOM     58  N   UNL A   1      47.729  37.510  27.751  1.00  0.00    -0.354 N 
ATOM     59  N   UNL A   1      47.998  34.597  27.493  1.00  0.00    -0.248 NA
ATOM     60  C   UNL A   1      49.192  32.731  26.764  1.00  0.00     0.031 C 
ATOM     61  C   UNL A   1      49.420  38.790  27.092  1.00  0.00     0.029 A 
ATOM     62  C   UNL A   1      48.998  37.474  27.196  1.00  0.00     0.049 A 
ATOM     63  H   UNL A   1      47.170  36.721  27.935  1.00  0.00     0.167 HD
ATOM     64  C   UNL A   1      49.212  35.014  26.957  1.00  0.00     0.074 A 
ATOM     65  C   UNL A   1      49.920  33.818  26.554  1.00  0.00     0.031 C 
ATOM     66  C   UNL A   1      49.699  36.273  26.817  1.00  0.00     0.037 A 
BRANCH  53  67
ATOM     67  C   UNL A   1      45.813  40.689  28.736  1.00  0.00     0.064 A 
ATOM     68  C   UNL A   1      45.277  41.478  27.705  1.00  0.00     0.173 A 
ATOM     69  C   UNL A   1      46.091  41.314  29.961  1.00  0.00     0.173 A 
ATOM     70  F   UNL A   1      45.009  40.934  26.508  1.00  0.00    -0.203 F 
ATOM     71  C   UNL A   1      45.073  42.844  27.881  1.00  0.00     0.198 A 
ATOM     72  C   UNL A   1      45.847  42.673  30.145  1.00  0.00     0.198 A 
ATOM     73  F   UNL A   1      46.602  40.608  30.981  1.00  0.00    -0.203 F 
ATOM     74  F   UNL A   1      44.627  43.589  26.859  1.00  0.00    -0.200 F 
ATOM     75  C   UNL A   1      45.351  43.439  29.101  1.00  0.00     0.200 A 
ATOM     76  F   UNL A   1      46.104  43.243  31.330  1.00  0.00    -0.200 F 
ATOM     77  F   UNL A   1      45.153  44.754  29.269  1.00  0.00    -0.200 F 
ENDBRANCH  53  67
BRANCH  54  78
ATOM     78  C   UNL A   1      47.173  30.837  27.719  1.00  0.00     0.064 A 
ATOM     79  C   UNL A   1      47.883  30.110  28.686  1.00  0.00     0.173 A 
ATOM     80  C   UNL A   1      46.715  30.141  26.590  1.00  0.00     0.173 A 
ATOM     81  F   UNL A   1      48.368  30.735  29.770  1.00  0.00    -0.203 F 
ATOM     82  C   UNL A   1      48.139  28.750  28.523  1.00  0.00     0.198 A 
ATOM     83  C   UNL A   1      46.945  28.774  26.444  1.00  0.00     0.198 A 
ATOM     84  F   UNL A   1      46.038  30.788  25.631  1.00  0.00    -0.203 F 
ATOM     85  F   UNL A   1      48.862  28.093  29.439  1.00  0.00    -0.200 F 
ATOM     86  C   UNL A   1      47.664  28.081  27.405  1.00  0.00     0.200 A 
ATOM     87  F   UNL A   1      46.473  28.130  25.368  1.00  0.00    -0.200 F 
ATOM     88  F   UNL A   1      47.906  26.773  27.252  1.00  0.00    -0.200 F 
ENDBRANCH  54  78
BRANCH  66  89
ATOM     89  C   UNL A   1      51.089  36.428  26.263  1.00  0.00     0.064 A 
ATOM     90  C   UNL A   1      51.330  36.582  24.889  1.00  0.00     0.173 A 
ATOM     91  C   UNL A   1      52.192  36.481  27.131  1.00  0.00     0.173 A 
ATOM     92  F   UNL A   1      50.315  36.527  24.015  1.00  0.00    -0.203 F 
ATOM     93  C   UNL A   1      52.625  36.754  24.405  1.00  0.00     0.198 A 
ATOM     94  C   UNL A   1      53.480  36.692  26.647  1.00  0.00     0.198 A 
ATOM     95  F   UNL A   1      52.017  36.351  28.454  1.00  0.00    -0.203 F 
ATOM     96  F   UNL A   1      52.837  36.847  23.084  1.00  0.00    -0.200 F 
ATOM     97  C   UNL A   1      53.696  36.819  25.283  1.00  0.00     0.200 A 
ATOM     98  F   UNL A   1      54.509  36.773  27.500  1.00  0.00    -0.200 F 
ATOM     99  F   UNL A   1      54.939  36.999  24.816  1.00  0.00    -0.200 F 
ENDBRANCH  66  89
ENDBRANCH  40  41
ENDBRANCH  33  35
ENDBRANCH  32  33
ENDBRANCH  31  32
ENDBRANCH  30  31
ENDBRANCH  29  30
ENDBRANCH  28  29
ENDBRANCH  27  28
ENDBRANCH  26  27
ENDBRANCH  25  26
ENDBRANCH   1  25
TORSDOF 26
ENDMDL
