MODEL 1
REMARK VINA RESULT:     -12.5      0.000      0.000
REMARK SMILES CC1(C)[C@@]2(C(=O)OCCOCCOCCOCCOC(=O)c3ccc(-c4c5nc(c(-c6c(F)c(F)c(F)c(F)c6F)c6ccc([nH]6)c(-c6c(F)c(F)c(F)c(F)c6F)c6nc(c(-c7c(F)c(F)c(F)c(F)c7F)c7ccc4[nH]7)C=C6)C=C5)cc3)CC[C@]1(C)/C(=N/NC(=O)c1ccc(Cl)cc1)C2
REMARK SMILES IDX 13 1 12 2 11 3 10 4 9 5 8 6 7 7 5 8 6 9 4 10 1 11 2 12 3 13
REMARK SMILES IDX 87 14 85 15 101 16 86 17 88 18 89 19 90 20 91 21 92 22 93 24
REMARK SMILES IDX 94 25 95 26 100 27 96 28 99 29 97 30 98 31 14 32 15 33 16 34
REMARK SMILES IDX 17 35 18 36 19 37 20 38 21 39 22 40 23 41 84 42 24 43 83 44
REMARK SMILES IDX 25 45 26 46 27 47 77 48 28 49 82 50 76 51 78 52 29 53 81 54
REMARK SMILES IDX 75 55 74 56 30 58 62 59 42 60 61 61 43 62 46 63 60 64 79 65
REMARK SMILES IDX 44 66 45 67 59 69 80 70 47 71 31 72 32 73 40 74 33 75 34 76
REMARK SMILES IDX 38 77 41 78 35 79 36 80 39 81 37 82 63 83 64 84 72 85 65 86
REMARK SMILES IDX 66 87 70 88 73 89 67 90 68 91 71 92 69 93 48 94 49 95 57 96
REMARK SMILES IDX 50 97 51 98 55 99 58 100 52 101 53 102 56 103 54 104
REMARK H PARENT 91 23 78 57 46 68
REMARK Flexibility Score: inf
ROOT
ATOM      1  O   UNL A   1      32.814  36.823  29.642  1.00  0.00    -0.377 OA
ENDROOT
BRANCH   1   2
ATOM      2  C   UNL A   1      33.653  36.010  28.844  1.00  0.00     0.188 C 
BRANCH   2   3
ATOM      3  C   UNL A   1      33.242  34.564  28.577  1.00  0.00     0.188 C 
BRANCH   3   4
ATOM      4  O   UNL A   1      34.237  33.612  28.257  1.00  0.00    -0.376 OA
BRANCH   4   5
ATOM      5  C   UNL A   1      34.035  32.241  28.582  1.00  0.00     0.202 C 
BRANCH   5   6
ATOM      6  C   UNL A   1      34.512  31.153  27.618  1.00  0.00     0.261 C 
BRANCH   6   7
ATOM      7  O   UNL A   1      33.435  30.364  27.070  1.00  0.00    -0.463 OA
BRANCH   7   8
ATOM      8  C   UNL A   1      33.751  29.090  26.721  1.00  0.00     0.313 C 
ATOM      9  O   UNL A   1      34.847  28.580  26.912  1.00  0.00    -0.252 OA
BRANCH   8  10
ATOM     10  C   UNL A   1      32.632  28.396  25.964  1.00  0.00     0.079 C 
ATOM     11  C   UNL A   1      33.599  28.921  23.600  1.00  0.00     0.013 C 
ATOM     12  C   UNL A   1      32.967  27.870  24.537  1.00  0.00    -0.008 C 
ATOM     13  C   UNL A   1      33.889  26.631  24.481  1.00  0.00     0.013 C 
ATOM     14  C   UNL A   1      31.467  27.545  24.240  1.00  0.00     0.014 C 
ATOM     15  C   UNL A   1      31.496  29.443  25.702  1.00  0.00     0.021 C 
ATOM     16  C   UNL A   1      31.970  27.166  26.631  1.00  0.00     0.073 C 
ATOM     17  C   UNL A   1      30.749  28.883  24.479  1.00  0.00     0.014 C 
ATOM     18  C   UNL A   1      31.173  26.891  22.906  1.00  0.00     0.018 C 
ATOM     19  C   UNL A   1      31.096  26.711  25.492  1.00  0.00     0.046 C 
ATOM     20  N   UNL A   1      30.192  25.790  25.407  1.00  0.00    -0.181 NA
BRANCH  20  21
ATOM     21  N   UNL A   1      29.817  24.897  26.359  1.00  0.00    -0.243 N 
ATOM     22  C   UNL A   1      30.227  23.654  26.783  1.00  0.00     0.271 C 
ATOM     23  H   UNL A   1      29.052  25.226  26.884  1.00  0.00     0.194 HD
ATOM     24  O   UNL A   1      29.534  23.023  27.585  1.00  0.00    -0.267 OA
BRANCH  22  25
ATOM     25  C   UNL A   1      31.486  23.039  26.351  1.00  0.00     0.041 A 
ATOM     26  C   UNL A   1      31.566  22.592  25.023  1.00  0.00     0.015 A 
ATOM     27  C   UNL A   1      32.591  22.943  27.206  1.00  0.00     0.015 A 
ATOM     28  C   UNL A   1      32.790  22.158  24.513  1.00  0.00     0.021 A 
ATOM     29  C   UNL A   1      33.812  22.493  26.692  1.00  0.00     0.021 A 
ATOM     30  C   UNL A   1      33.912  22.133  25.343  1.00  0.00     0.041 A 
ATOM     31  Cl  UNL A   1      35.444  21.720  24.680  1.00  0.00    -0.084 Cl
ENDBRANCH  22  25
ENDBRANCH  20  21
ENDBRANCH   8  10
ENDBRANCH   7   8
ENDBRANCH   6   7
ENDBRANCH   5   6
ENDBRANCH   4   5
ENDBRANCH   3   4
ENDBRANCH   2   3
ENDBRANCH   1   2
BRANCH   1  32
ATOM     32  C   UNL A   1      33.267  37.188  30.940  1.00  0.00     0.188 C 
BRANCH  32  33
ATOM     33  C   UNL A   1      32.770  36.395  32.152  1.00  0.00     0.188 C 
BRANCH  33  34
ATOM     34  O   UNL A   1      32.890  34.975  32.138  1.00  0.00    -0.376 OA
BRANCH  34  35
ATOM     35  C   UNL A   1      34.181  34.374  32.202  1.00  0.00     0.202 C 
BRANCH  35  36
ATOM     36  C   UNL A   1      34.315  33.229  33.200  1.00  0.00     0.261 C 
BRANCH  36  37
ATOM     37  O   UNL A   1      35.085  32.150  32.643  1.00  0.00    -0.460 OA
BRANCH  37  38
ATOM     38  C   UNL A   1      36.300  31.962  33.202  1.00  0.00     0.338 C 
ATOM     39  O   UNL A   1      36.674  32.307  34.308  1.00  0.00    -0.246 OA
BRANCH  38  40
ATOM     40  C   UNL A   1      37.120  31.118  32.316  1.00  0.00     0.060 A 
ATOM     41  C   UNL A   1      38.085  30.298  32.912  1.00  0.00     0.016 A 
ATOM     42  C   UNL A   1      37.016  31.208  30.925  1.00  0.00     0.016 A 
ATOM     43  C   UNL A   1      39.016  29.638  32.119  1.00  0.00     0.010 A 
ATOM     44  C   UNL A   1      37.955  30.550  30.130  1.00  0.00     0.010 A 
ATOM     45  C   UNL A   1      38.993  29.815  30.728  1.00  0.00    -0.014 A 
BRANCH  45  46
ATOM     46  C   UNL A   1      40.178  29.417  29.935  1.00  0.00     0.031 A 
ATOM     47  C   UNL A   1      41.287  30.418  29.752  1.00  0.00     0.074 A 
ATOM     48  C   UNL A   1      40.291  28.174  29.440  1.00  0.00     0.049 A 
ATOM     49  N   UNL A   1      42.424  30.297  29.114  1.00  0.00    -0.248 NA
ATOM     50  C   UNL A   1      41.083  31.736  30.372  1.00  0.00     0.031 C 
ATOM     51  C   UNL A   1      39.305  27.109  29.602  1.00  0.00     0.029 A 
ATOM     52  N   UNL A   1      41.296  27.600  28.705  1.00  0.00    -0.354 N 
ATOM     53  C   UNL A   1      43.067  31.521  29.257  1.00  0.00     0.074 A 
ATOM     54  C   UNL A   1      42.175  32.384  30.001  1.00  0.00     0.031 C 
ATOM     55  C   UNL A   1      39.757  26.004  28.987  1.00  0.00     0.029 A 
ATOM     56  C   UNL A   1      41.046  26.296  28.365  1.00  0.00     0.049 A 
ATOM     57  H   UNL A   1      42.116  28.079  28.446  1.00  0.00     0.167 HD
ATOM     58  C   UNL A   1      44.295  31.888  28.820  1.00  0.00     0.037 A 
ATOM     59  C   UNL A   1      41.779  25.443  27.624  1.00  0.00     0.037 A 
ATOM     60  C   UNL A   1      45.169  31.027  28.066  1.00  0.00     0.049 A 
ATOM     61  C   UNL A   1      43.101  25.905  27.066  1.00  0.00     0.074 A 
ATOM     62  C   UNL A   1      46.433  31.294  27.570  1.00  0.00     0.029 A 
ATOM     63  N   UNL A   1      44.858  29.728  27.685  1.00  0.00    -0.354 N 
ATOM     64  N   UNL A   1      43.714  27.054  27.220  1.00  0.00    -0.248 NA
ATOM     65  C   UNL A   1      43.835  24.942  26.234  1.00  0.00     0.031 C 
ATOM     66  C   UNL A   1      46.859  30.180  26.838  1.00  0.00     0.029 A 
ATOM     67  C   UNL A   1      45.893  29.190  26.936  1.00  0.00     0.049 A 
ATOM     68  H   UNL A   1      44.023  29.258  27.914  1.00  0.00     0.167 HD
ATOM     69  C   UNL A   1      44.921  26.940  26.540  1.00  0.00     0.074 A 
ATOM     70  C   UNL A   1      44.956  25.602  25.984  1.00  0.00     0.031 C 
ATOM     71  C   UNL A   1      45.912  27.855  26.391  1.00  0.00     0.037 A 
BRANCH  58  72
ATOM     72  C   UNL A   1      44.741  33.293  29.117  1.00  0.00     0.064 A 
ATOM     73  C   UNL A   1      44.484  34.355  28.233  1.00  0.00     0.173 A 
ATOM     74  C   UNL A   1      45.445  33.582  30.296  1.00  0.00     0.173 A 
ATOM     75  F   UNL A   1      43.828  34.134  27.084  1.00  0.00    -0.203 F 
ATOM     76  C   UNL A   1      44.954  35.640  28.497  1.00  0.00     0.198 A 
ATOM     77  C   UNL A   1      45.881  34.876  30.574  1.00  0.00     0.198 A 
ATOM     78  F   UNL A   1      45.714  32.610  31.180  1.00  0.00    -0.203 F 
ATOM     79  F   UNL A   1      44.759  36.620  27.605  1.00  0.00    -0.200 F 
ATOM     80  C   UNL A   1      45.648  35.900  29.669  1.00  0.00     0.200 A 
ATOM     81  F   UNL A   1      46.538  35.129  31.715  1.00  0.00    -0.200 F 
ATOM     82  F   UNL A   1      46.102  37.136  29.921  1.00  0.00    -0.200 F 
ENDBRANCH  58  72
BRANCH  59  83
ATOM     83  C   UNL A   1      41.291  24.060  27.384  1.00  0.00     0.064 A 
ATOM     84  C   UNL A   1      41.952  22.958  27.942  1.00  0.00     0.173 A 
ATOM     85  C   UNL A   1      40.165  23.810  26.587  1.00  0.00     0.173 A 
ATOM     86  F   UNL A   1      43.049  23.144  28.691  1.00  0.00    -0.203 F 
ATOM     87  C   UNL A   1      41.517  21.657  27.699  1.00  0.00     0.198 A 
ATOM     88  C   UNL A   1      39.711  22.511  26.369  1.00  0.00     0.198 A 
ATOM     89  F   UNL A   1      39.496  24.829  26.028  1.00  0.00    -0.203 F 
ATOM     90  F   UNL A   1      42.195  20.620  28.206  1.00  0.00    -0.200 F 
ATOM     91  C   UNL A   1      40.393  21.434  26.918  1.00  0.00     0.200 A 
ATOM     92  F   UNL A   1      38.617  22.301  25.625  1.00  0.00    -0.200 F 
ATOM     93  F   UNL A   1      39.970  20.183  26.688  1.00  0.00    -0.200 F 
ENDBRANCH  59  83
BRANCH  71  94
ATOM     94  C   UNL A   1      47.139  27.419  25.638  1.00  0.00     0.064 A 
ATOM     95  C   UNL A   1      48.195  26.742  26.265  1.00  0.00     0.173 A 
ATOM     96  C   UNL A   1      47.253  27.677  24.262  1.00  0.00     0.173 A 
ATOM     97  F   UNL A   1      48.145  26.480  27.580  1.00  0.00    -0.203 F 
ATOM     98  C   UNL A   1      49.338  26.381  25.554  1.00  0.00     0.198 A 
ATOM     99  C   UNL A   1      48.380  27.280  23.547  1.00  0.00     0.198 A 
ATOM    100  F   UNL A   1      46.269  28.312  23.608  1.00  0.00    -0.203 F 
ATOM    101  F   UNL A   1      50.364  25.800  26.191  1.00  0.00    -0.200 F 
ATOM    102  C   UNL A   1      49.427  26.646  24.196  1.00  0.00     0.200 A 
ATOM    103  F   UNL A   1      48.455  27.520  22.231  1.00  0.00    -0.200 F 
ATOM    104  F   UNL A   1      50.528  26.299  23.515  1.00  0.00    -0.200 F 
ENDBRANCH  71  94
ENDBRANCH  45  46
ENDBRANCH  38  40
ENDBRANCH  37  38
ENDBRANCH  36  37
ENDBRANCH  35  36
ENDBRANCH  34  35
ENDBRANCH  33  34
ENDBRANCH  32  33
ENDBRANCH   1  32
TORSDOF 22
ENDMDL
MODEL 2
REMARK VINA RESULT:     -12.4      5.312     11.138
REMARK SMILES CC1(C)[C@@]2(C(=O)OCCOCCOCCOCCOC(=O)c3ccc(-c4c5nc(c(-c6c(F)c(F)c(F)c(F)c6F)c6ccc([nH]6)c(-c6c(F)c(F)c(F)c(F)c6F)c6nc(c(-c7c(F)c(F)c(F)c(F)c7F)c7ccc4[nH]7)C=C6)C=C5)cc3)CC[C@]1(C)/C(=N/NC(=O)c1ccc(Cl)cc1)C2
REMARK SMILES IDX 13 1 12 2 11 3 10 4 9 5 8 6 7 7 5 8 6 9 4 10 1 11 2 12 3 13
REMARK SMILES IDX 87 14 85 15 101 16 86 17 88 18 89 19 90 20 91 21 92 22 93 24
REMARK SMILES IDX 94 25 95 26 100 27 96 28 99 29 97 30 98 31 14 32 15 33 16 34
REMARK SMILES IDX 17 35 18 36 19 37 20 38 21 39 22 40 23 41 84 42 24 43 83 44
REMARK SMILES IDX 25 45 26 46 27 47 77 48 28 49 82 50 76 51 78 52 29 53 81 54
REMARK SMILES IDX 75 55 74 56 30 58 62 59 42 60 61 61 43 62 46 63 60 64 79 65
REMARK SMILES IDX 44 66 45 67 59 69 80 70 47 71 31 72 32 73 40 74 33 75 34 76
REMARK SMILES IDX 38 77 41 78 35 79 36 80 39 81 37 82 63 83 64 84 72 85 65 86
REMARK SMILES IDX 66 87 70 88 73 89 67 90 68 91 71 92 69 93 48 94 49 95 57 96
REMARK SMILES IDX 50 97 51 98 55 99 58 100 52 101 53 102 56 103 54 104
REMARK H PARENT 91 23 78 57 46 68
REMARK Flexibility Score: inf
ROOT
ATOM      1  O   UNL A   1      43.334  19.503  24.766  1.00  0.00    -0.377 OA
ENDROOT
BRANCH   1   2
ATOM      2  C   UNL A   1      42.914  18.974  26.009  1.00  0.00     0.188 C 
BRANCH   2   3
ATOM      3  C   UNL A   1      41.927  19.776  26.855  1.00  0.00     0.188 C 
BRANCH   3   4
ATOM      4  O   UNL A   1      40.607  19.961  26.384  1.00  0.00    -0.376 OA
BRANCH   4   5
ATOM      5  C   UNL A   1      39.954  21.209  26.584  1.00  0.00     0.202 C 
BRANCH   5   6
ATOM      6  C   UNL A   1      38.968  21.728  25.536  1.00  0.00     0.261 C 
BRANCH   6   7
ATOM      7  O   UNL A   1      37.587  21.565  25.921  1.00  0.00    -0.463 OA
BRANCH   7   8
ATOM      8  C   UNL A   1      36.808  22.673  25.821  1.00  0.00     0.313 C 
ATOM      9  O   UNL A   1      37.100  23.760  26.300  1.00  0.00    -0.252 OA
BRANCH   8  10
ATOM     10  C   UNL A   1      35.476  22.393  25.146  1.00  0.00     0.079 C 
ATOM     11  C   UNL A   1      34.219  21.816  27.357  1.00  0.00     0.013 C 
ATOM     12  C   UNL A   1      34.195  22.574  26.012  1.00  0.00    -0.008 C 
ATOM     13  C   UNL A   1      33.815  24.035  26.346  1.00  0.00     0.013 C 
ATOM     14  C   UNL A   1      33.287  21.931  24.913  1.00  0.00     0.014 C 
ATOM     15  C   UNL A   1      35.434  20.876  24.758  1.00  0.00     0.021 C 
ATOM     16  C   UNL A   1      35.137  23.197  23.868  1.00  0.00     0.073 C 
ATOM     17  C   UNL A   1      33.931  20.557  24.668  1.00  0.00     0.014 C 
ATOM     18  C   UNL A   1      31.802  21.899  25.202  1.00  0.00     0.018 C 
ATOM     19  C   UNL A   1      33.712  22.751  23.669  1.00  0.00     0.046 C 
ATOM     20  N   UNL A   1      32.862  22.962  22.717  1.00  0.00    -0.181 NA
BRANCH  20  21
ATOM     21  N   UNL A   1      33.019  23.740  21.615  1.00  0.00    -0.243 N 
ATOM     22  C   UNL A   1      32.822  25.061  21.285  1.00  0.00     0.271 C 
ATOM     23  H   UNL A   1      33.365  23.222  20.852  1.00  0.00     0.194 HD
ATOM     24  O   UNL A   1      32.899  25.414  20.106  1.00  0.00    -0.267 OA
BRANCH  22  25
ATOM     25  C   UNL A   1      32.553  26.100  22.283  1.00  0.00     0.041 A 
ATOM     26  C   UNL A   1      33.611  26.480  23.124  1.00  0.00     0.015 A 
ATOM     27  C   UNL A   1      31.307  26.734  22.371  1.00  0.00     0.015 A 
ATOM     28  C   UNL A   1      33.460  27.578  23.971  1.00  0.00     0.021 A 
ATOM     29  C   UNL A   1      31.158  27.824  23.234  1.00  0.00     0.021 A 
ATOM     30  C   UNL A   1      32.242  28.259  24.005  1.00  0.00     0.041 A 
ATOM     31  Cl  UNL A   1      32.098  29.687  24.954  1.00  0.00    -0.084 Cl
ENDBRANCH  22  25
ENDBRANCH  20  21
ENDBRANCH   8  10
ENDBRANCH   7   8
ENDBRANCH   6   7
ENDBRANCH   5   6
ENDBRANCH   4   5
ENDBRANCH   3   4
ENDBRANCH   2   3
ENDBRANCH   1   2
BRANCH   1  32
ATOM     32  C   UNL A   1      44.668  19.247  24.342  1.00  0.00     0.188 C 
BRANCH  32  33
ATOM     33  C   UNL A   1      45.831  19.824  25.154  1.00  0.00     0.188 C 
BRANCH  33  34
ATOM     34  O   UNL A   1      45.705  21.135  25.696  1.00  0.00    -0.376 OA
BRANCH  34  35
ATOM     35  C   UNL A   1      46.152  22.258  24.940  1.00  0.00     0.202 C 
BRANCH  35  36
ATOM     36  C   UNL A   1      45.811  23.619  25.537  1.00  0.00     0.261 C 
BRANCH  36  37
ATOM     37  O   UNL A   1      44.943  24.360  24.662  1.00  0.00    -0.460 OA
BRANCH  37  38
ATOM     38  C   UNL A   1      43.648  23.974  24.673  1.00  0.00     0.338 C 
ATOM     39  O   UNL A   1      43.168  22.961  24.202  1.00  0.00    -0.246 OA
BRANCH  38  40
ATOM     40  C   UNL A   1      42.867  24.914  25.496  1.00  0.00     0.060 A 
ATOM     41  C   UNL A   1      43.319  26.236  25.575  1.00  0.00     0.016 A 
ATOM     42  C   UNL A   1      41.777  24.482  26.256  1.00  0.00     0.016 A 
ATOM     43  C   UNL A   1      42.743  27.110  26.490  1.00  0.00     0.010 A 
ATOM     44  C   UNL A   1      41.203  25.359  27.179  1.00  0.00     0.010 A 
ATOM     45  C   UNL A   1      41.726  26.653  27.341  1.00  0.00    -0.014 A 
BRANCH  45  46
ATOM     46  C   UNL A   1      41.375  27.456  28.534  1.00  0.00     0.031 A 
ATOM     47  C   UNL A   1      42.249  27.345  29.755  1.00  0.00     0.074 A 
ATOM     48  C   UNL A   1      40.338  28.308  28.512  1.00  0.00     0.049 A 
ATOM     49  N   UNL A   1      42.153  27.955  30.908  1.00  0.00    -0.248 NA
ATOM     50  C   UNL A   1      43.386  26.416  29.660  1.00  0.00     0.031 C 
ATOM     51  C   UNL A   1      39.458  28.535  27.368  1.00  0.00     0.029 A 
ATOM     52  N   UNL A   1      39.858  29.146  29.484  1.00  0.00    -0.354 N 
ATOM     53  C   UNL A   1      43.213  27.485  31.673  1.00  0.00     0.074 A 
ATOM     54  C   UNL A   1      43.912  26.504  30.870  1.00  0.00     0.031 C 
ATOM     55  C   UNL A   1      38.544  29.460  27.703  1.00  0.00     0.029 A 
ATOM     56  C   UNL A   1      38.758  29.864  29.091  1.00  0.00     0.049 A 
ATOM     57  H   UNL A   1      40.263  29.224  30.378  1.00  0.00     0.167 HD
ATOM     58  C   UNL A   1      43.581  27.846  32.925  1.00  0.00     0.037 A 
ATOM     59  C   UNL A   1      38.007  30.740  29.785  1.00  0.00     0.037 A 
ATOM     60  C   UNL A   1      42.869  28.811  33.723  1.00  0.00     0.049 A 
ATOM     61  C   UNL A   1      38.379  31.056  31.212  1.00  0.00     0.074 A 
ATOM     62  C   UNL A   1      43.149  29.252  35.005  1.00  0.00     0.029 A 
ATOM     63  N   UNL A   1      41.720  29.476  33.315  1.00  0.00    -0.354 N 
ATOM     64  N   UNL A   1      39.393  30.624  31.923  1.00  0.00    -0.248 NA
ATOM     65  C   UNL A   1      37.499  31.989  31.928  1.00  0.00     0.031 C 
ATOM     66  C   UNL A   1      42.136  30.136  35.393  1.00  0.00     0.029 A 
ATOM     67  C   UNL A   1      41.262  30.302  34.330  1.00  0.00     0.049 A 
ATOM     68  H   UNL A   1      41.293  29.375  32.433  1.00  0.00     0.167 HD
ATOM     69  C   UNL A   1      39.296  31.261  33.155  1.00  0.00     0.074 A 
ATOM     70  C   UNL A   1      38.130  32.119  33.085  1.00  0.00     0.031 C 
ATOM     71  C   UNL A   1      40.100  31.151  34.243  1.00  0.00     0.037 A 
BRANCH  58  72
ATOM     72  C   UNL A   1      44.782  27.162  33.515  1.00  0.00     0.064 A 
ATOM     73  C   UNL A   1      46.078  27.690  33.381  1.00  0.00     0.173 A 
ATOM     74  C   UNL A   1      44.641  25.954  34.215  1.00  0.00     0.173 A 
ATOM     75  F   UNL A   1      46.274  28.835  32.709  1.00  0.00    -0.203 F 
ATOM     76  C   UNL A   1      47.187  27.012  33.884  1.00  0.00     0.198 A 
ATOM     77  C   UNL A   1      45.748  25.297  34.749  1.00  0.00     0.198 A 
ATOM     78  F   UNL A   1      43.429  25.404  34.379  1.00  0.00    -0.203 F 
ATOM     79  F   UNL A   1      48.418  27.500  33.681  1.00  0.00    -0.200 F 
ATOM     80  C   UNL A   1      47.020  25.820  34.572  1.00  0.00     0.200 A 
ATOM     81  F   UNL A   1      45.584  24.153  35.427  1.00  0.00    -0.200 F 
ATOM     82  F   UNL A   1      48.087  25.167  35.053  1.00  0.00    -0.200 F 
ENDBRANCH  58  72
BRANCH  59  83
ATOM     83  C   UNL A   1      36.843  31.398  29.137  1.00  0.00     0.064 A 
ATOM     84  C   UNL A   1      36.863  32.767  28.843  1.00  0.00     0.173 A 
ATOM     85  C   UNL A   1      35.686  30.677  28.808  1.00  0.00     0.173 A 
ATOM     86  F   UNL A   1      37.937  33.504  29.161  1.00  0.00    -0.203 F 
ATOM     87  C   UNL A   1      35.765  33.396  28.261  1.00  0.00     0.198 A 
ATOM     88  C   UNL A   1      34.599  31.299  28.197  1.00  0.00     0.198 A 
ATOM     89  F   UNL A   1      35.614  29.363  29.069  1.00  0.00    -0.203 F 
ATOM     90  F   UNL A   1      35.794  34.716  28.033  1.00  0.00    -0.200 F 
ATOM     91  C   UNL A   1      34.636  32.660  27.931  1.00  0.00     0.200 A 
ATOM     92  F   UNL A   1      33.516  30.583  27.869  1.00  0.00    -0.200 F 
ATOM     93  F   UNL A   1      33.582  33.264  27.366  1.00  0.00    -0.200 F 
ENDBRANCH  59  83
BRANCH  71  94
ATOM     94  C   UNL A   1      39.771  32.018  35.427  1.00  0.00     0.064 A 
ATOM     95  C   UNL A   1      40.381  33.266  35.628  1.00  0.00     0.173 A 
ATOM     96  C   UNL A   1      38.821  31.596  36.371  1.00  0.00     0.173 A 
ATOM     97  F   UNL A   1      41.304  33.714  34.764  1.00  0.00    -0.203 F 
ATOM     98  C   UNL A   1      40.088  34.034  36.753  1.00  0.00     0.198 A 
ATOM     99  C   UNL A   1      38.503  32.385  37.473  1.00  0.00     0.198 A 
ATOM    100  F   UNL A   1      38.199  30.417  36.225  1.00  0.00    -0.203 F 
ATOM    101  F   UNL A   1      40.737  35.188  36.960  1.00  0.00    -0.200 F 
ATOM    102  C   UNL A   1      39.146  33.596  37.671  1.00  0.00     0.200 A 
ATOM    103  F   UNL A   1      37.579  31.967  38.349  1.00  0.00    -0.200 F 
ATOM    104  F   UNL A   1      38.867  34.337  38.752  1.00  0.00    -0.200 F 
ENDBRANCH  71  94
ENDBRANCH  45  46
ENDBRANCH  38  40
ENDBRANCH  37  38
ENDBRANCH  36  37
ENDBRANCH  35  36
ENDBRANCH  34  35
ENDBRANCH  33  34
ENDBRANCH  32  33
ENDBRANCH   1  32
TORSDOF 22
ENDMDL
MODEL 3
REMARK VINA RESULT:     -12.1      0.698      7.047
REMARK SMILES CC1(C)[C@@]2(C(=O)OCCOCCOCCOCCOC(=O)c3ccc(-c4c5nc(c(-c6c(F)c(F)c(F)c(F)c6F)c6ccc([nH]6)c(-c6c(F)c(F)c(F)c(F)c6F)c6nc(c(-c7c(F)c(F)c(F)c(F)c7F)c7ccc4[nH]7)C=C6)C=C5)cc3)CC[C@]1(C)/C(=N/NC(=O)c1ccc(Cl)cc1)C2
REMARK SMILES IDX 13 1 12 2 11 3 10 4 9 5 8 6 7 7 5 8 6 9 4 10 1 11 2 12 3 13
REMARK SMILES IDX 87 14 85 15 101 16 86 17 88 18 89 19 90 20 91 21 92 22 93 24
REMARK SMILES IDX 94 25 95 26 100 27 96 28 99 29 97 30 98 31 14 32 15 33 16 34
REMARK SMILES IDX 17 35 18 36 19 37 20 38 21 39 22 40 23 41 84 42 24 43 83 44
REMARK SMILES IDX 25 45 26 46 27 47 77 48 28 49 82 50 76 51 78 52 29 53 81 54
REMARK SMILES IDX 75 55 74 56 30 58 62 59 42 60 61 61 43 62 46 63 60 64 79 65
REMARK SMILES IDX 44 66 45 67 59 69 80 70 47 71 31 72 32 73 40 74 33 75 34 76
REMARK SMILES IDX 38 77 41 78 35 79 36 80 39 81 37 82 63 83 64 84 72 85 65 86
REMARK SMILES IDX 66 87 70 88 73 89 67 90 68 91 71 92 69 93 48 94 49 95 57 96
REMARK SMILES IDX 50 97 51 98 55 99 58 100 52 101 53 102 56 103 54 104
REMARK H PARENT 91 23 78 57 46 68
REMARK Flexibility Score: inf
ROOT
ATOM      1  O   UNL A   1      32.679  36.742  29.729  1.00  0.00    -0.377 OA
ENDROOT
BRANCH   1   2
ATOM      2  C   UNL A   1      33.470  35.980  28.838  1.00  0.00     0.188 C 
BRANCH   2   3
ATOM      3  C   UNL A   1      33.128  34.506  28.626  1.00  0.00     0.188 C 
BRANCH   3   4
ATOM      4  O   UNL A   1      34.147  33.613  28.222  1.00  0.00    -0.376 OA
BRANCH   4   5
ATOM      5  C   UNL A   1      34.030  32.226  28.519  1.00  0.00     0.202 C 
BRANCH   5   6
ATOM      6  C   UNL A   1      34.548  31.189  27.521  1.00  0.00     0.261 C 
BRANCH   6   7
ATOM      7  O   UNL A   1      33.496  30.419  26.901  1.00  0.00    -0.463 OA
BRANCH   7   8
ATOM      8  C   UNL A   1      33.778  29.112  26.666  1.00  0.00     0.313 C 
ATOM      9  O   UNL A   1      34.843  28.580  26.945  1.00  0.00    -0.252 OA
BRANCH   8  10
ATOM     10  C   UNL A   1      32.667  28.400  25.913  1.00  0.00     0.079 C 
ATOM     11  C   UNL A   1      33.663  28.863  23.548  1.00  0.00     0.013 C 
ATOM     12  C   UNL A   1      33.018  27.837  24.504  1.00  0.00    -0.008 C 
ATOM     13  C   UNL A   1      33.938  26.595  24.491  1.00  0.00     0.013 C 
ATOM     14  C   UNL A   1      31.521  27.506  24.196  1.00  0.00     0.014 C 
ATOM     15  C   UNL A   1      31.536  29.441  25.610  1.00  0.00     0.021 C 
ATOM     16  C   UNL A   1      31.995  27.189  26.603  1.00  0.00     0.073 C 
ATOM     17  C   UNL A   1      30.802  28.851  24.393  1.00  0.00     0.014 C 
ATOM     18  C   UNL A   1      31.242  26.819  22.877  1.00  0.00     0.018 C 
ATOM     19  C   UNL A   1      31.133  26.706  25.465  1.00  0.00     0.046 C 
ATOM     20  N   UNL A   1      30.229  25.784  25.392  1.00  0.00    -0.181 NA
BRANCH  20  21
ATOM     21  N   UNL A   1      29.842  24.916  26.363  1.00  0.00    -0.243 N 
ATOM     22  C   UNL A   1      30.235  23.677  26.814  1.00  0.00     0.271 C 
ATOM     23  H   UNL A   1      29.079  25.266  26.879  1.00  0.00     0.194 HD
ATOM     24  O   UNL A   1      29.533  23.072  27.627  1.00  0.00    -0.267 OA
BRANCH  22  25
ATOM     25  C   UNL A   1      31.487  23.037  26.397  1.00  0.00     0.041 A 
ATOM     26  C   UNL A   1      31.554  22.536  25.088  1.00  0.00     0.015 A 
ATOM     27  C   UNL A   1      32.598  22.969  27.246  1.00  0.00     0.015 A 
ATOM     28  C   UNL A   1      32.771  22.074  24.586  1.00  0.00     0.021 A 
ATOM     29  C   UNL A   1      33.812  22.490  26.741  1.00  0.00     0.021 A 
ATOM     30  C   UNL A   1      33.899  22.076  25.408  1.00  0.00     0.041 A 
ATOM     31  Cl  UNL A   1      35.424  21.626  24.750  1.00  0.00    -0.084 Cl
ENDBRANCH  22  25
ENDBRANCH  20  21
ENDBRANCH   8  10
ENDBRANCH   7   8
ENDBRANCH   6   7
ENDBRANCH   5   6
ENDBRANCH   4   5
ENDBRANCH   3   4
ENDBRANCH   2   3
ENDBRANCH   1   2
BRANCH   1  32
ATOM     32  C   UNL A   1      33.184  36.985  31.037  1.00  0.00     0.188 C 
BRANCH  32  33
ATOM     33  C   UNL A   1      32.585  36.219  32.220  1.00  0.00     0.188 C 
BRANCH  33  34
ATOM     34  O   UNL A   1      33.146  34.958  32.575  1.00  0.00    -0.376 OA
BRANCH  34  35
ATOM     35  C   UNL A   1      34.559  34.821  32.692  1.00  0.00     0.202 C 
BRANCH  35  36
ATOM     36  C   UNL A   1      35.208  33.887  31.676  1.00  0.00     0.261 C 
BRANCH  36  37
ATOM     37  O   UNL A   1      36.532  33.512  32.095  1.00  0.00    -0.460 OA
BRANCH  37  38
ATOM     38  C   UNL A   1      36.628  32.300  32.683  1.00  0.00     0.338 C 
ATOM     39  O   UNL A   1      35.995  31.879  33.633  1.00  0.00    -0.246 OA
BRANCH  38  40
ATOM     40  C   UNL A   1      37.544  31.451  31.901  1.00  0.00     0.060 A 
ATOM     41  C   UNL A   1      38.625  30.871  32.576  1.00  0.00     0.016 A 
ATOM     42  C   UNL A   1      37.406  31.313  30.517  1.00  0.00     0.016 A 
ATOM     43  C   UNL A   1      39.627  30.232  31.855  1.00  0.00     0.010 A 
ATOM     44  C   UNL A   1      38.415  30.676  29.794  1.00  0.00     0.010 A 
ATOM     45  C   UNL A   1      39.556  30.190  30.456  1.00  0.00    -0.014 A 
BRANCH  45  46
ATOM     46  C   UNL A   1      40.773  29.843  29.687  1.00  0.00     0.031 A 
ATOM     47  C   UNL A   1      40.888  28.455  29.116  1.00  0.00     0.074 A 
ATOM     48  C   UNL A   1      41.726  30.758  29.453  1.00  0.00     0.049 A 
ATOM     49  N   UNL A   1      41.846  27.924  28.400  1.00  0.00    -0.248 NA
ATOM     50  C   UNL A   1      39.768  27.542  29.393  1.00  0.00     0.031 C 
ATOM     51  C   UNL A   1      41.694  32.145  29.912  1.00  0.00     0.029 A 
ATOM     52  N   UNL A   1      42.905  30.655  28.761  1.00  0.00    -0.354 N 
ATOM     53  C   UNL A   1      41.444  26.618  28.143  1.00  0.00     0.074 A 
ATOM     54  C   UNL A   1      40.179  26.424  28.818  1.00  0.00     0.031 C 
ATOM     55  C   UNL A   1      42.804  32.769  29.483  1.00  0.00     0.029 A 
ATOM     56  C   UNL A   1      43.634  31.816  28.748  1.00  0.00     0.049 A 
ATOM     57  H   UNL A   1      43.199  29.827  28.318  1.00  0.00     0.167 HD
ATOM     58  C   UNL A   1      42.065  25.672  27.399  1.00  0.00     0.037 A 
ATOM     59  C   UNL A   1      44.842  32.069  28.210  1.00  0.00     0.037 A 
ATOM     60  C   UNL A   1      43.332  25.869  26.745  1.00  0.00     0.049 A 
ATOM     61  C   UNL A   1      45.559  30.971  27.468  1.00  0.00     0.074 A 
ATOM     62  C   UNL A   1      44.055  24.980  25.970  1.00  0.00     0.029 A 
ATOM     63  N   UNL A   1      44.074  27.041  26.804  1.00  0.00    -0.354 N 
ATOM     64  N   UNL A   1      45.167  29.746  27.210  1.00  0.00    -0.248 NA
ATOM     65  C   UNL A   1      46.889  31.298  26.937  1.00  0.00     0.031 C 
ATOM     66  C   UNL A   1      45.261  25.594  25.611  1.00  0.00     0.029 A 
ATOM     67  C   UNL A   1      45.261  26.890  26.102  1.00  0.00     0.049 A 
ATOM     68  H   UNL A   1      43.798  27.861  27.275  1.00  0.00     0.167 HD
ATOM     69  C   UNL A   1      46.182  29.169  26.455  1.00  0.00     0.074 A 
ATOM     70  C   UNL A   1      47.200  30.186  26.287  1.00  0.00     0.031 C 
ATOM     71  C   UNL A   1      46.263  27.915  25.944  1.00  0.00     0.037 A 
BRANCH  58  72
ATOM     72  C   UNL A   1      41.396  24.329  27.295  1.00  0.00     0.064 A 
ATOM     73  C   UNL A   1      41.922  23.187  27.921  1.00  0.00     0.173 A 
ATOM     74  C   UNL A   1      40.218  24.178  26.548  1.00  0.00     0.173 A 
ATOM     75  F   UNL A   1      43.055  23.270  28.636  1.00  0.00    -0.203 F 
ATOM     76  C   UNL A   1      41.320  21.940  27.766  1.00  0.00     0.198 A 
ATOM     77  C   UNL A   1      39.598  22.936  26.425  1.00  0.00     0.198 A 
ATOM     78  F   UNL A   1      39.666  25.234  25.931  1.00  0.00    -0.203 F 
ATOM     79  F   UNL A   1      41.881  20.853  28.315  1.00  0.00    -0.200 F 
ATOM     80  C   UNL A   1      40.157  21.816  27.022  1.00  0.00     0.200 A 
ATOM     81  F   UNL A   1      38.465  22.821  25.718  1.00  0.00    -0.200 F 
ATOM     82  F   UNL A   1      39.580  20.616  26.871  1.00  0.00    -0.200 F 
ENDBRANCH  58  72
BRANCH  59  83
ATOM     83  C   UNL A   1      45.439  33.425  28.332  1.00  0.00     0.064 A 
ATOM     84  C   UNL A   1      45.099  34.443  27.432  1.00  0.00     0.173 A 
ATOM     85  C   UNL A   1      46.367  33.726  29.339  1.00  0.00     0.173 A 
ATOM     86  F   UNL A   1      44.236  34.197  26.436  1.00  0.00    -0.203 F 
ATOM     87  C   UNL A   1      45.677  35.708  27.523  1.00  0.00     0.198 A 
ATOM     88  C   UNL A   1      46.921  35.000  29.449  1.00  0.00     0.198 A 
ATOM     89  F   UNL A   1      46.728  32.787  30.225  1.00  0.00    -0.203 F 
ATOM     90  F   UNL A   1      45.369  36.650  26.622  1.00  0.00    -0.200 F 
ATOM     91  C   UNL A   1      46.583  35.988  28.536  1.00  0.00     0.200 A 
ATOM     92  F   UNL A   1      47.785  35.269  30.436  1.00  0.00    -0.200 F 
ATOM     93  F   UNL A   1      47.134  37.206  28.627  1.00  0.00    -0.200 F 
ENDBRANCH  59  83
BRANCH  71  94
ATOM     94  C   UNL A   1      47.474  27.592  25.112  1.00  0.00     0.064 A 
ATOM     95  C   UNL A   1      47.495  27.788  23.722  1.00  0.00     0.173 A 
ATOM     96  C   UNL A   1      48.635  27.086  25.718  1.00  0.00     0.173 A 
ATOM     97  F   UNL A   1      46.410  28.257  23.089  1.00  0.00    -0.203 F 
ATOM     98  C   UNL A   1      48.615  27.446  22.967  1.00  0.00     0.198 A 
ATOM     99  C   UNL A   1      49.766  26.783  24.965  1.00  0.00     0.198 A 
ATOM    100  F   UNL A   1      48.675  26.889  27.044  1.00  0.00    -0.203 F 
ATOM    101  F   UNL A   1      48.586  27.575  21.634  1.00  0.00    -0.200 F 
ATOM    102  C   UNL A   1      49.751  26.950  23.589  1.00  0.00     0.200 A 
ATOM    103  F   UNL A   1      50.868  26.321  25.571  1.00  0.00    -0.200 F 
ATOM    104  F   UNL A   1      50.826  26.621  22.860  1.00  0.00    -0.200 F 
ENDBRANCH  71  94
ENDBRANCH  45  46
ENDBRANCH  38  40
ENDBRANCH  37  38
ENDBRANCH  36  37
ENDBRANCH  35  36
ENDBRANCH  34  35
ENDBRANCH  33  34
ENDBRANCH  32  33
ENDBRANCH   1  32
TORSDOF 22
ENDMDL
