MODEL 1
REMARK VINA RESULT:     -11.5      0.000      0.000
REMARK SMILES CC1(C)O[C@H]2CC3[C@@H]4CCC5=CC(=O)C=C[C@]5(C)[C@@]4(F)[C@H](O)C[C@@]3(C)[C@@]2(C(=O)OCCOCCOCCOCCOC(=O)c2ccc(-c3c4nc(c(-c5c(F)c(F)c(F)c(F)c5F)c5ccc([nH]5)c(-c5c(F)c(F)c(F)c(F)c5F)c5nc(c(-c6c(F)c(F)c(F)c(F)c6F)c6ccc3[nH]6)C=C5)C=C4)cc2)O1
REMARK SMILES IDX 36 1 35 2 34 3 33 4 32 5 31 6 30 7 29 8 27 9 28 10 26 11
REMARK SMILES IDX 1 12 2 13 3 14 4 15 107 16 5 17 6 18 24 19 7 20 23 21 25 22
REMARK SMILES IDX 8 23 21 24 9 25 19 26 10 27 17 28 20 29 11 30 16 31 18 32
REMARK SMILES IDX 12 33 15 34 13 35 14 36 22 37 37 39 38 40 39 41 40 42 41 43
REMARK SMILES IDX 42 44 43 45 44 46 45 47 106 48 46 49 105 50 47 51 48 52
REMARK SMILES IDX 49 53 99 54 50 55 104 56 98 57 100 58 51 59 103 60 97 61
REMARK SMILES IDX 96 62 52 64 84 65 64 66 83 67 65 68 68 69 82 70 101 71 66 72
REMARK SMILES IDX 67 73 81 75 102 76 69 77 53 78 54 79 62 80 55 81 56 82 60 83
REMARK SMILES IDX 63 84 57 85 58 86 61 87 59 88 85 89 86 90 94 91 87 92 88 93
REMARK SMILES IDX 92 94 95 95 89 96 90 97 93 98 91 99 70 100 71 101 79 102
REMARK SMILES IDX 72 103 73 104 77 105 80 106 74 107 75 108 78 109 76 110
REMARK H PARENT 22 38 100 63 68 74
REMARK Flexibility Score: inf
ROOT
ATOM      1  C   UNL A   1      35.842  32.878  28.734  1.00  0.00     0.188 C 
ENDROOT
BRANCH   1   2
ATOM      2  O   UNL A   1      35.905  32.054  27.583  1.00  0.00    -0.377 OA
BRANCH   2   3
ATOM      3  C   UNL A   1      36.396  30.750  27.836  1.00  0.00     0.188 C 
BRANCH   3   4
ATOM      4  C   UNL A   1      35.326  29.632  27.756  1.00  0.00     0.188 C 
BRANCH   4   5
ATOM      5  O   UNL A   1      33.942  29.944  27.627  1.00  0.00    -0.376 OA
BRANCH   5   6
ATOM      6  C   UNL A   1      33.351  29.980  26.340  1.00  0.00     0.202 C 
BRANCH   6   7
ATOM      7  C   UNL A   1      31.824  30.022  26.208  1.00  0.00     0.261 C 
BRANCH   7   8
ATOM      8  O   UNL A   1      31.214  28.873  25.617  1.00  0.00    -0.461 OA
BRANCH   8   9
ATOM      9  C   UNL A   1      31.392  27.653  26.205  1.00  0.00     0.341 C 
ATOM     10  O   UNL A   1      31.481  27.456  27.406  1.00  0.00    -0.249 OA
BRANCH   9  11
ATOM     11  C   UNL A   1      31.541  26.591  25.104  1.00  0.00     0.200 C 
ATOM     12  C   UNL A   1      33.718  25.689  22.472  1.00  0.00     0.075 C 
ATOM     13  C   UNL A   1      33.073  26.811  23.314  1.00  0.00     0.165 C 
ATOM     14  C   UNL A   1      34.022  28.000  23.211  1.00  0.00     0.075 C 
ATOM     15  O   UNL A   1      31.807  27.191  22.782  1.00  0.00    -0.344 OA
ATOM     16  O   UNL A   1      32.917  26.390  24.683  1.00  0.00    -0.329 OA
ATOM     17  C   UNL A   1      30.799  26.878  23.763  1.00  0.00     0.166 C 
ATOM     18  C   UNL A   1      30.107  25.522  23.330  1.00  0.00     0.040 C 
ATOM     19  C   UNL A   1      30.860  25.235  25.603  1.00  0.00     0.016 C 
ATOM     20  C   UNL A   1      30.847  24.529  24.231  1.00  0.00     0.008 C 
ATOM     21  C   UNL A   1      31.513  24.393  26.707  1.00  0.00     0.046 C 
ATOM     22  C   UNL A   1      29.441  25.578  26.162  1.00  0.00     0.015 C 
ATOM     23  C   UNL A   1      31.445  23.132  23.978  1.00  0.00     0.035 C 
ATOM     24  C   UNL A   1      32.478  23.310  26.267  1.00  0.00     0.154 C 
ATOM     25  C   UNL A   1      30.825  22.303  22.871  1.00  0.00     0.012 C 
ATOM     26  C   UNL A   1      31.856  22.331  25.223  1.00  0.00     0.152 C 
ATOM     27  C   UNL A   1      31.914  21.355  22.350  1.00  0.00     0.032 C 
ATOM     28  C   UNL A   1      32.839  21.141  24.825  1.00  0.00     0.044 C 
ATOM     29  F   UNL A   1      30.709  21.810  25.762  1.00  0.00    -0.239 F 
ATOM     30  C   UNL A   1      32.538  20.515  23.438  1.00  0.00    -0.053 C 
ATOM     31  C   UNL A   1      32.833  20.029  25.874  1.00  0.00    -0.009 C 
ATOM     32  C   UNL A   1      34.310  21.659  24.750  1.00  0.00     0.024 C 
ATOM     33  C   UNL A   1      32.920  19.253  23.157  1.00  0.00     0.052 C 
ATOM     34  C   UNL A   1      33.193  18.767  25.602  1.00  0.00     0.048 C 
ATOM     35  C   UNL A   1      33.508  18.390  24.208  1.00  0.00     0.178 C 
ATOM     36  O   UNL A   1      34.162  17.394  23.937  1.00  0.00    -0.290 OA
BRANCH  24  37
ATOM     37  O   UNL A   1      32.891  22.624  27.455  1.00  0.00    -0.390 OA
ATOM     38  H   UNL A   1      33.050  21.690  27.251  1.00  0.00     0.211 HD
ENDBRANCH  24  37
ENDBRANCH   9  11
ENDBRANCH   8   9
ENDBRANCH   7   8
ENDBRANCH   6   7
ENDBRANCH   5   6
ENDBRANCH   4   5
ENDBRANCH   3   4
ENDBRANCH   2   3
ENDBRANCH   1   2
BRANCH   1  39
ATOM     39  C   UNL A   1      34.508  32.852  29.508  1.00  0.00     0.188 C 
BRANCH  39  40
ATOM     40  O   UNL A   1      33.422  33.401  28.776  1.00  0.00    -0.376 OA
BRANCH  40  41
ATOM     41  C   UNL A   1      32.970  34.720  29.012  1.00  0.00     0.202 C 
BRANCH  41  42
ATOM     42  C   UNL A   1      33.862  35.652  29.846  1.00  0.00     0.261 C 
BRANCH  42  43
ATOM     43  O   UNL A   1      33.222  36.339  30.924  1.00  0.00    -0.460 OA
BRANCH  43  44
ATOM     44  C   UNL A   1      32.757  35.581  31.936  1.00  0.00     0.338 C 
ATOM     45  O   UNL A   1      31.590  35.332  32.195  1.00  0.00    -0.246 OA
BRANCH  44  46
ATOM     46  C   UNL A   1      33.915  34.923  32.569  1.00  0.00     0.060 A 
ATOM     47  C   UNL A   1      35.155  35.575  32.541  1.00  0.00     0.016 A 
ATOM     48  C   UNL A   1      33.772  33.690  33.211  1.00  0.00     0.016 A 
ATOM     49  C   UNL A   1      36.269  34.977  33.121  1.00  0.00     0.010 A 
ATOM     50  C   UNL A   1      34.897  33.071  33.757  1.00  0.00     0.010 A 
ATOM     51  C   UNL A   1      36.155  33.696  33.673  1.00  0.00    -0.014 A 
BRANCH  51  52
ATOM     52  C   UNL A   1      37.386  32.905  33.891  1.00  0.00     0.031 A 
ATOM     53  C   UNL A   1      38.159  33.165  35.154  1.00  0.00     0.074 A 
ATOM     54  C   UNL A   1      37.779  31.956  33.027  1.00  0.00     0.049 A 
ATOM     55  N   UNL A   1      39.283  32.642  35.569  1.00  0.00    -0.248 NA
ATOM     56  C   UNL A   1      37.580  34.157  36.078  1.00  0.00     0.031 C 
ATOM     57  C   UNL A   1      37.074  31.579  31.805  1.00  0.00     0.029 A 
ATOM     58  N   UNL A   1      38.880  31.139  33.053  1.00  0.00    -0.354 N 
ATOM     59  C   UNL A   1      39.545  33.244  36.792  1.00  0.00     0.074 A 
ATOM     60  C   UNL A   1      38.487  34.195  37.040  1.00  0.00     0.031 C 
ATOM     61  C   UNL A   1      37.770  30.608  31.187  1.00  0.00     0.029 A 
ATOM     62  C   UNL A   1      38.983  30.325  31.953  1.00  0.00     0.049 A 
ATOM     63  H   UNL A   1      39.533  31.136  33.789  1.00  0.00     0.167 HD
ATOM     64  C   UNL A   1      40.575  33.014  37.639  1.00  0.00     0.037 A 
ATOM     65  C   UNL A   1      39.964  29.470  31.603  1.00  0.00     0.037 A 
ATOM     66  C   UNL A   1      41.628  32.071  37.380  1.00  0.00     0.049 A 
ATOM     67  C   UNL A   1      41.151  29.301  32.520  1.00  0.00     0.074 A 
ATOM     68  C   UNL A   1      42.722  31.761  38.167  1.00  0.00     0.029 A 
ATOM     69  N   UNL A   1      41.723  31.293  36.235  1.00  0.00    -0.354 N 
ATOM     70  N   UNL A   1      41.391  29.859  33.683  1.00  0.00    -0.248 NA
ATOM     71  C   UNL A   1      42.203  28.376  32.075  1.00  0.00     0.031 C 
ATOM     72  C   UNL A   1      43.510  30.840  37.472  1.00  0.00     0.029 A 
ATOM     73  C   UNL A   1      42.870  30.520  36.283  1.00  0.00     0.049 A 
ATOM     74  H   UNL A   1      41.070  31.290  35.497  1.00  0.00     0.167 HD
ATOM     75  C   UNL A   1      42.596  29.325  34.125  1.00  0.00     0.074 A 
ATOM     76  C   UNL A   1      43.032  28.391  33.110  1.00  0.00     0.031 C 
ATOM     77  C   UNL A   1      43.278  29.581  35.269  1.00  0.00     0.037 A 
BRANCH  64  78
ATOM     78  C   UNL A   1      40.625  33.824  38.902  1.00  0.00     0.064 A 
ATOM     79  C   UNL A   1      39.934  33.435  40.060  1.00  0.00     0.173 A 
ATOM     80  C   UNL A   1      41.390  34.999  38.958  1.00  0.00     0.173 A 
ATOM     81  F   UNL A   1      39.172  32.332  40.053  1.00  0.00    -0.203 F 
ATOM     82  C   UNL A   1      39.985  34.208  41.217  1.00  0.00     0.198 A 
ATOM     83  C   UNL A   1      41.465  35.750  40.127  1.00  0.00     0.198 A 
ATOM     84  F   UNL A   1      42.068  35.418  37.879  1.00  0.00    -0.203 F 
ATOM     85  F   UNL A   1      39.271  33.848  42.293  1.00  0.00    -0.200 F 
ATOM     86  C   UNL A   1      40.756  35.360  41.253  1.00  0.00     0.200 A 
ATOM     87  F   UNL A   1      42.222  36.856  40.163  1.00  0.00    -0.200 F 
ATOM     88  F   UNL A   1      40.811  36.098  42.370  1.00  0.00    -0.200 F 
ENDBRANCH  64  78
BRANCH  65  89
ATOM     89  C   UNL A   1      39.881  28.718  30.321  1.00  0.00     0.064 A 
ATOM     90  C   UNL A   1      39.307  27.441  30.267  1.00  0.00     0.173 A 
ATOM     91  C   UNL A   1      40.406  29.247  29.131  1.00  0.00     0.173 A 
ATOM     92  F   UNL A   1      38.814  26.881  31.381  1.00  0.00    -0.203 F 
ATOM     93  C   UNL A   1      39.285  26.710  29.081  1.00  0.00     0.198 A 
ATOM     94  C   UNL A   1      40.352  28.529  27.939  1.00  0.00     0.198 A 
ATOM     95  F   UNL A   1      40.970  30.464  29.128  1.00  0.00    -0.203 F 
ATOM     96  F   UNL A   1      38.783  25.468  29.071  1.00  0.00    -0.200 F 
ATOM     97  C   UNL A   1      39.803  27.257  27.917  1.00  0.00     0.200 A 
ATOM     98  F   UNL A   1      40.842  29.067  26.813  1.00  0.00    -0.200 F 
ATOM     99  F   UNL A   1      39.781  26.554  26.775  1.00  0.00    -0.200 F 
ENDBRANCH  65  89
BRANCH  77 100
ATOM    100  C   UNL A   1      44.536  28.796  35.518  1.00  0.00     0.064 A 
ATOM    101  C   UNL A   1      45.797  29.270  35.131  1.00  0.00     0.173 A 
ATOM    102  C   UNL A   1      44.476  27.570  36.201  1.00  0.00     0.173 A 
ATOM    103  F   UNL A   1      45.909  30.431  34.468  1.00  0.00    -0.203 F 
ATOM    104  C   UNL A   1      46.949  28.531  35.389  1.00  0.00     0.198 A 
ATOM    105  C   UNL A   1      45.633  26.852  36.490  1.00  0.00     0.198 A 
ATOM    106  F   UNL A   1      43.296  27.076  36.604  1.00  0.00    -0.203 F 
ATOM    107  F   UNL A   1      48.139  28.976  34.961  1.00  0.00    -0.200 F 
ATOM    108  C   UNL A   1      46.867  27.328  36.076  1.00  0.00     0.200 A 
ATOM    109  F   UNL A   1      45.552  25.702  37.172  1.00  0.00    -0.200 F 
ATOM    110  F   UNL A   1      47.978  26.624  36.333  1.00  0.00    -0.200 F 
ENDBRANCH  77 100
ENDBRANCH  51  52
ENDBRANCH  44  46
ENDBRANCH  43  44
ENDBRANCH  42  43
ENDBRANCH  41  42
ENDBRANCH  40  41
ENDBRANCH  39  40
ENDBRANCH   1  39
TORSDOF 21
ENDMDL
MODEL 2
REMARK VINA RESULT:     -10.6      6.330     10.404
REMARK SMILES CC1(C)O[C@H]2CC3[C@@H]4CCC5=CC(=O)C=C[C@]5(C)[C@@]4(F)[C@H](O)C[C@@]3(C)[C@@]2(C(=O)OCCOCCOCCOCCOC(=O)c2ccc(-c3c4nc(c(-c5c(F)c(F)c(F)c(F)c5F)c5ccc([nH]5)c(-c5c(F)c(F)c(F)c(F)c5F)c5nc(c(-c6c(F)c(F)c(F)c(F)c6F)c6ccc3[nH]6)C=C5)C=C4)cc2)O1
REMARK SMILES IDX 36 1 35 2 34 3 33 4 32 5 31 6 30 7 29 8 27 9 28 10 26 11
REMARK SMILES IDX 1 12 2 13 3 14 4 15 107 16 5 17 6 18 24 19 7 20 23 21 25 22
REMARK SMILES IDX 8 23 21 24 9 25 19 26 10 27 17 28 20 29 11 30 16 31 18 32
REMARK SMILES IDX 12 33 15 34 13 35 14 36 22 37 37 39 38 40 39 41 40 42 41 43
REMARK SMILES IDX 42 44 43 45 44 46 45 47 106 48 46 49 105 50 47 51 48 52
REMARK SMILES IDX 49 53 99 54 50 55 104 56 98 57 100 58 51 59 103 60 97 61
REMARK SMILES IDX 96 62 52 64 84 65 64 66 83 67 65 68 68 69 82 70 101 71 66 72
REMARK SMILES IDX 67 73 81 75 102 76 69 77 53 78 54 79 62 80 55 81 56 82 60 83
REMARK SMILES IDX 63 84 57 85 58 86 61 87 59 88 85 89 86 90 94 91 87 92 88 93
REMARK SMILES IDX 92 94 95 95 89 96 90 97 93 98 91 99 70 100 71 101 79 102
REMARK SMILES IDX 72 103 73 104 77 105 80 106 74 107 75 108 78 109 76 110
REMARK H PARENT 22 38 100 63 68 74
REMARK Flexibility Score: inf
ROOT
ATOM      1  C   UNL A   1      33.563  36.360  33.200  1.00  0.00     0.188 C 
ENDROOT
BRANCH   1   2
ATOM      2  O   UNL A   1      34.762  36.077  33.901  1.00  0.00    -0.377 OA
BRANCH   2   3
ATOM      3  C   UNL A   1      35.387  34.868  33.507  1.00  0.00     0.188 C 
BRANCH   3   4
ATOM      4  C   UNL A   1      36.565  34.428  34.412  1.00  0.00     0.188 C 
BRANCH   4   5
ATOM      5  O   UNL A   1      37.855  35.015  34.280  1.00  0.00    -0.376 OA
BRANCH   5   6
ATOM      6  C   UNL A   1      39.010  34.209  34.440  1.00  0.00     0.202 C 
BRANCH   6   7
ATOM      7  C   UNL A   1      39.876  34.367  35.695  1.00  0.00     0.261 C 
BRANCH   7   8
ATOM      8  O   UNL A   1      41.143  33.705  35.670  1.00  0.00    -0.461 OA
BRANCH   8   9
ATOM      9  C   UNL A   1      41.291  32.533  36.354  1.00  0.00     0.341 C 
ATOM     10  O   UNL A   1      40.795  32.284  37.441  1.00  0.00    -0.249 OA
BRANCH   9  11
ATOM     11  C   UNL A   1      42.247  31.619  35.569  1.00  0.00     0.200 C 
ATOM     12  C   UNL A   1      45.635  30.621  35.528  1.00  0.00     0.075 C 
ATOM     13  C   UNL A   1      44.599  31.734  35.795  1.00  0.00     0.165 C 
ATOM     14  C   UNL A   1      45.266  32.688  36.780  1.00  0.00     0.075 C 
ATOM     15  O   UNL A   1      44.295  32.450  34.601  1.00  0.00    -0.344 OA
ATOM     16  O   UNL A   1      43.390  31.179  36.349  1.00  0.00    -0.329 OA
ATOM     17  C   UNL A   1      42.903  32.239  34.296  1.00  0.00     0.166 C 
ATOM     18  C   UNL A   1      42.818  31.137  33.163  1.00  0.00     0.040 C 
ATOM     19  C   UNL A   1      41.414  30.392  34.977  1.00  0.00     0.016 C 
ATOM     20  C   UNL A   1      42.501  29.895  34.001  1.00  0.00     0.008 C 
ATOM     21  C   UNL A   1      40.885  29.288  35.902  1.00  0.00     0.046 C 
ATOM     22  C   UNL A   1      40.136  30.961  34.278  1.00  0.00     0.015 C 
ATOM     23  C   UNL A   1      43.026  28.448  33.965  1.00  0.00     0.035 C 
ATOM     24  C   UNL A   1      41.784  28.088  36.125  1.00  0.00     0.154 C 
ATOM     25  C   UNL A   1      43.540  27.929  32.637  1.00  0.00     0.012 C 
ATOM     26  C   UNL A   1      42.242  27.417  34.793  1.00  0.00     0.152 C 
ATOM     27  C   UNL A   1      44.579  26.844  32.944  1.00  0.00     0.032 C 
ATOM     28  C   UNL A   1      43.115  26.104  35.027  1.00  0.00     0.044 C 
ATOM     29  F   UNL A   1      41.121  27.094  34.074  1.00  0.00    -0.239 F 
ATOM     30  C   UNL A   1      44.047  25.750  33.839  1.00  0.00    -0.053 C 
ATOM     31  C   UNL A   1      42.238  24.892  35.338  1.00  0.00    -0.009 C 
ATOM     32  C   UNL A   1      44.050  26.292  36.263  1.00  0.00     0.024 C 
ATOM     33  C   UNL A   1      44.471  24.484  33.653  1.00  0.00     0.052 C 
ATOM     34  C   UNL A   1      42.642  23.629  35.141  1.00  0.00     0.048 C 
ATOM     35  C   UNL A   1      43.946  23.381  34.492  1.00  0.00     0.178 C 
ATOM     36  O   UNL A   1      44.528  22.311  34.592  1.00  0.00    -0.290 OA
BRANCH  24  37
ATOM     37  O   UNL A   1      41.049  27.177  36.952  1.00  0.00    -0.390 OA
ATOM     38  H   UNL A   1      41.049  27.499  37.867  1.00  0.00     0.211 HD
ENDBRANCH  24  37
ENDBRANCH   9  11
ENDBRANCH   8   9
ENDBRANCH   7   8
ENDBRANCH   6   7
ENDBRANCH   5   6
ENDBRANCH   4   5
ENDBRANCH   3   4
ENDBRANCH   2   3
ENDBRANCH   1   2
BRANCH   1  39
ATOM     39  C   UNL A   1      33.680  37.387  32.055  1.00  0.00     0.188 C 
BRANCH  39  40
ATOM     40  O   UNL A   1      33.081  36.949  30.844  1.00  0.00    -0.376 OA
BRANCH  40  41
ATOM     41  C   UNL A   1      32.762  35.588  30.634  1.00  0.00     0.202 C 
BRANCH  41  42
ATOM     42  C   UNL A   1      33.648  34.776  29.677  1.00  0.00     0.261 C 
BRANCH  42  43
ATOM     43  O   UNL A   1      34.899  34.327  30.204  1.00  0.00    -0.460 OA
BRANCH  43  44
ATOM     44  C   UNL A   1      34.909  33.118  30.797  1.00  0.00     0.338 C 
ATOM     45  O   UNL A   1      33.966  32.542  31.317  1.00  0.00    -0.246 OA
BRANCH  44  46
ATOM     46  C   UNL A   1      36.222  32.501  30.529  1.00  0.00     0.060 A 
ATOM     47  C   UNL A   1      36.945  31.968  31.604  1.00  0.00     0.016 A 
ATOM     48  C   UNL A   1      36.721  32.423  29.225  1.00  0.00     0.016 A 
ATOM     49  C   UNL A   1      38.190  31.389  31.386  1.00  0.00     0.010 A 
ATOM     50  C   UNL A   1      37.987  31.878  29.012  1.00  0.00     0.010 A 
ATOM     51  C   UNL A   1      38.741  31.401  30.100  1.00  0.00    -0.014 A 
BRANCH  51  52
ATOM     52  C   UNL A   1      40.197  31.186  29.949  1.00  0.00     0.031 A 
ATOM     53  C   UNL A   1      41.100  32.358  30.220  1.00  0.00     0.074 A 
ATOM     54  C   UNL A   1      40.706  29.985  29.635  1.00  0.00     0.049 A 
ATOM     55  N   UNL A   1      42.400  32.450  30.126  1.00  0.00    -0.248 NA
ATOM     56  C   UNL A   1      40.438  33.600  30.658  1.00  0.00     0.031 C 
ATOM     57  C   UNL A   1      39.929  28.768  29.411  1.00  0.00     0.029 A 
ATOM     58  N   UNL A   1      42.008  29.599  29.443  1.00  0.00    -0.354 N 
ATOM     59  C   UNL A   1      42.708  33.756  30.485  1.00  0.00     0.074 A 
ATOM     60  C   UNL A   1      41.462  34.430  30.765  1.00  0.00     0.031 C 
ATOM     61  C   UNL A   1      40.772  27.768  29.099  1.00  0.00     0.029 A 
ATOM     62  C   UNL A   1      42.140  28.285  29.067  1.00  0.00     0.049 A 
ATOM     63  H   UNL A   1      42.774  30.204  29.565  1.00  0.00     0.167 HD
ATOM     64  C   UNL A   1      43.926  34.336  30.581  1.00  0.00     0.037 A 
ATOM     65  C   UNL A   1      43.243  27.597  28.713  1.00  0.00     0.037 A 
ATOM     66  C   UNL A   1      45.161  33.659  30.292  1.00  0.00     0.049 A 
ATOM     67  C   UNL A   1      44.582  28.295  28.739  1.00  0.00     0.074 A 
ATOM     68  C   UNL A   1      46.451  34.152  30.355  1.00  0.00     0.029 A 
ATOM     69  N   UNL A   1      45.254  32.340  29.873  1.00  0.00    -0.354 N 
ATOM     70  N   UNL A   1      44.873  29.524  29.092  1.00  0.00    -0.248 NA
ATOM     71  C   UNL A   1      45.747  27.504  28.318  1.00  0.00     0.031 C 
ATOM     72  C   UNL A   1      47.320  33.150  29.915  1.00  0.00     0.029 A 
ATOM     73  C   UNL A   1      46.579  32.008  29.649  1.00  0.00     0.049 A 
ATOM     74  H   UNL A   1      44.490  31.729  29.754  1.00  0.00     0.167 HD
ATOM     75  C   UNL A   1      46.254  29.641  28.976  1.00  0.00     0.074 A 
ATOM     76  C   UNL A   1      46.742  28.354  28.530  1.00  0.00     0.031 C 
ATOM     77  C   UNL A   1      47.047  30.714  29.221  1.00  0.00     0.037 A 
BRANCH  64  78
ATOM     78  C   UNL A   1      43.973  35.783  30.982  1.00  0.00     0.064 A 
ATOM     79  C   UNL A   1      44.083  36.177  32.324  1.00  0.00     0.173 A 
ATOM     80  C   UNL A   1      43.922  36.788  30.005  1.00  0.00     0.173 A 
ATOM     81  F   UNL A   1      44.113  35.257  33.299  1.00  0.00    -0.203 F 
ATOM     82  C   UNL A   1      44.111  37.525  32.673  1.00  0.00     0.198 A 
ATOM     83  C   UNL A   1      43.987  38.133  30.356  1.00  0.00     0.198 A 
ATOM     84  F   UNL A   1      43.815  36.466  28.707  1.00  0.00    -0.203 F 
ATOM     85  F   UNL A   1      44.158  37.879  33.965  1.00  0.00    -0.200 F 
ATOM     86  C   UNL A   1      44.072  38.501  31.690  1.00  0.00     0.200 A 
ATOM     87  F   UNL A   1      43.961  39.075  29.402  1.00  0.00    -0.200 F 
ATOM     88  F   UNL A   1      44.109  39.798  32.027  1.00  0.00    -0.200 F 
ENDBRANCH  64  78
BRANCH  65  89
ATOM     89  C   UNL A   1      43.136  26.175  28.291  1.00  0.00     0.064 A 
ATOM     90  C   UNL A   1      42.863  25.834  26.959  1.00  0.00     0.173 A 
ATOM     91  C   UNL A   1      43.267  25.128  29.217  1.00  0.00     0.173 A 
ATOM     92  F   UNL A   1      42.704  26.797  26.040  1.00  0.00    -0.203 F 
ATOM     93  C   UNL A   1      42.701  24.504  26.575  1.00  0.00     0.198 A 
ATOM     94  C   UNL A   1      43.138  23.799  28.825  1.00  0.00     0.198 A 
ATOM     95  F   UNL A   1      43.524  25.399  30.505  1.00  0.00    -0.203 F 
ATOM     96  F   UNL A   1      42.383  24.210  25.307  1.00  0.00    -0.200 F 
ATOM     97  C   UNL A   1      42.843  23.487  27.506  1.00  0.00     0.200 A 
ATOM     98  F   UNL A   1      43.290  22.818  29.726  1.00  0.00    -0.200 F 
ATOM     99  F   UNL A   1      42.686  22.208  27.137  1.00  0.00    -0.200 F 
ENDBRANCH  65  89
BRANCH  77 100
ATOM    100  C   UNL A   1      48.531  30.529  29.074  1.00  0.00     0.064 A 
ATOM    101  C   UNL A   1      49.208  30.855  27.890  1.00  0.00     0.173 A 
ATOM    102  C   UNL A   1      49.293  30.061  30.157  1.00  0.00     0.173 A 
ATOM    103  F   UNL A   1      48.526  31.297  26.822  1.00  0.00    -0.203 F 
ATOM    104  C   UNL A   1      50.587  30.690  27.785  1.00  0.00     0.198 A 
ATOM    105  C   UNL A   1      50.676  29.934  30.061  1.00  0.00     0.198 A 
ATOM    106  F   UNL A   1      48.698  29.745  31.317  1.00  0.00    -0.203 F 
ATOM    107  F   UNL A   1      51.205  30.955  26.626  1.00  0.00    -0.200 F 
ATOM    108  C   UNL A   1      51.320  30.239  28.872  1.00  0.00     0.200 A 
ATOM    109  F   UNL A   1      51.383  29.517  31.120  1.00  0.00    -0.200 F 
ATOM    110  F   UNL A   1      52.648  30.091  28.773  1.00  0.00    -0.200 F 
ENDBRANCH  77 100
ENDBRANCH  51  52
ENDBRANCH  44  46
ENDBRANCH  43  44
ENDBRANCH  42  43
ENDBRANCH  41  42
ENDBRANCH  40  41
ENDBRANCH  39  40
ENDBRANCH   1  39
TORSDOF 21
ENDMDL
MODEL 3
REMARK VINA RESULT:     -10.4      7.455     10.690
REMARK SMILES CC1(C)O[C@H]2CC3[C@@H]4CCC5=CC(=O)C=C[C@]5(C)[C@@]4(F)[C@H](O)C[C@@]3(C)[C@@]2(C(=O)OCCOCCOCCOCCOC(=O)c2ccc(-c3c4nc(c(-c5c(F)c(F)c(F)c(F)c5F)c5ccc([nH]5)c(-c5c(F)c(F)c(F)c(F)c5F)c5nc(c(-c6c(F)c(F)c(F)c(F)c6F)c6ccc3[nH]6)C=C5)C=C4)cc2)O1
REMARK SMILES IDX 36 1 35 2 34 3 33 4 32 5 31 6 30 7 29 8 27 9 28 10 26 11
REMARK SMILES IDX 1 12 2 13 3 14 4 15 107 16 5 17 6 18 24 19 7 20 23 21 25 22
REMARK SMILES IDX 8 23 21 24 9 25 19 26 10 27 17 28 20 29 11 30 16 31 18 32
REMARK SMILES IDX 12 33 15 34 13 35 14 36 22 37 37 39 38 40 39 41 40 42 41 43
REMARK SMILES IDX 42 44 43 45 44 46 45 47 106 48 46 49 105 50 47 51 48 52
REMARK SMILES IDX 49 53 99 54 50 55 104 56 98 57 100 58 51 59 103 60 97 61
REMARK SMILES IDX 96 62 52 64 84 65 64 66 83 67 65 68 68 69 82 70 101 71 66 72
REMARK SMILES IDX 67 73 81 75 102 76 69 77 53 78 54 79 62 80 55 81 56 82 60 83
REMARK SMILES IDX 63 84 57 85 58 86 61 87 59 88 85 89 86 90 94 91 87 92 88 93
REMARK SMILES IDX 92 94 95 95 89 96 90 97 93 98 91 99 70 100 71 101 79 102
REMARK SMILES IDX 72 103 73 104 77 105 80 106 74 107 75 108 78 109 76 110
REMARK H PARENT 22 38 100 63 68 74
REMARK Flexibility Score: inf
ROOT
ATOM      1  C   UNL A   1      40.987  27.957  28.518  1.00  0.00     0.188 C 
ENDROOT
BRANCH   1   2
ATOM      2  O   UNL A   1      40.463  29.252  28.759  1.00  0.00    -0.377 OA
BRANCH   2   3
ATOM      3  C   UNL A   1      39.314  29.559  27.991  1.00  0.00     0.188 C 
BRANCH   3   4
ATOM      4  C   UNL A   1      37.972  29.402  28.750  1.00  0.00     0.188 C 
BRANCH   4   5
ATOM      5  O   UNL A   1      36.832  28.826  28.120  1.00  0.00    -0.376 OA
BRANCH   5   6
ATOM      6  C   UNL A   1      35.864  29.669  27.519  1.00  0.00     0.202 C 
BRANCH   6   7
ATOM      7  C   UNL A   1      34.396  29.231  27.480  1.00  0.00     0.261 C 
BRANCH   7   8
ATOM      8  O   UNL A   1      33.992  28.494  26.324  1.00  0.00    -0.461 OA
BRANCH   8   9
ATOM      9  C   UNL A   1      32.721  28.649  25.851  1.00  0.00     0.341 C 
ATOM     10  O   UNL A   1      31.938  29.516  26.205  1.00  0.00    -0.249 OA
BRANCH   9  11
ATOM     11  C   UNL A   1      32.417  27.509  24.865  1.00  0.00     0.200 C 
ATOM     12  C   UNL A   1      33.534  26.219  21.772  1.00  0.00     0.075 C 
ATOM     13  C   UNL A   1      33.291  27.453  22.667  1.00  0.00     0.165 C 
ATOM     14  C   UNL A   1      34.245  28.527  22.154  1.00  0.00     0.075 C 
ATOM     15  O   UNL A   1      31.955  27.929  22.535  1.00  0.00    -0.344 OA
ATOM     16  O   UNL A   1      33.559  27.139  24.047  1.00  0.00    -0.329 OA
ATOM     17  C   UNL A   1      31.302  27.787  23.811  1.00  0.00     0.166 C 
ATOM     18  C   UNL A   1      30.402  26.486  23.751  1.00  0.00     0.040 C 
ATOM     19  C   UNL A   1      31.833  26.267  25.680  1.00  0.00     0.016 C 
ATOM     20  C   UNL A   1      31.316  25.480  24.458  1.00  0.00     0.008 C 
ATOM     21  C   UNL A   1      32.743  25.433  26.592  1.00  0.00     0.046 C 
ATOM     22  C   UNL A   1      30.706  26.792  26.629  1.00  0.00     0.015 C 
ATOM     23  C   UNL A   1      31.686  24.015  24.160  1.00  0.00     0.035 C 
ATOM     24  C   UNL A   1      33.422  24.229  25.971  1.00  0.00     0.154 C 
ATOM     25  C   UNL A   1      30.675  23.187  23.393  1.00  0.00     0.012 C 
ATOM     26  C   UNL A   1      32.418  23.256  25.278  1.00  0.00     0.152 C 
ATOM     27  C   UNL A   1      31.455  22.099  22.643  1.00  0.00     0.032 C 
ATOM     28  C   UNL A   1      33.119  21.946  24.701  1.00  0.00     0.044 C 
ATOM     29  F   UNL A   1      31.473  22.893  26.202  1.00  0.00    -0.239 F 
ATOM     30  C   UNL A   1      32.333  21.269  23.548  1.00  0.00    -0.053 C 
ATOM     31  C   UNL A   1      33.370  20.910  25.796  1.00  0.00    -0.009 C 
ATOM     32  C   UNL A   1      34.521  22.302  24.111  1.00  0.00     0.024 C 
ATOM     33  C   UNL A   1      32.502  19.958  23.280  1.00  0.00     0.052 C 
ATOM     34  C   UNL A   1      33.521  19.603  25.543  1.00  0.00     0.048 C 
ATOM     35  C   UNL A   1      33.331  19.107  24.165  1.00  0.00     0.178 C 
ATOM     36  O   UNL A   1      33.780  18.032  23.793  1.00  0.00    -0.290 OA
BRANCH  24  37
ATOM     37  O   UNL A   1      34.146  23.581  27.024  1.00  0.00    -0.390 OA
ATOM     38  H   UNL A   1      34.457  22.715  26.717  1.00  0.00     0.211 HD
ENDBRANCH  24  37
ENDBRANCH   9  11
ENDBRANCH   8   9
ENDBRANCH   7   8
ENDBRANCH   6   7
ENDBRANCH   5   6
ENDBRANCH   4   5
ENDBRANCH   3   4
ENDBRANCH   2   3
ENDBRANCH   1   2
BRANCH   1  39
ATOM     39  C   UNL A   1      40.838  27.428  27.076  1.00  0.00     0.188 C 
BRANCH  39  40
ATOM     40  O   UNL A   1      40.035  26.260  26.986  1.00  0.00    -0.376 OA
BRANCH  40  41
ATOM     41  C   UNL A   1      40.050  25.279  28.005  1.00  0.00     0.202 C 
BRANCH  41  42
ATOM     42  C   UNL A   1      40.457  23.848  27.624  1.00  0.00     0.261 C 
BRANCH  42  43
ATOM     43  O   UNL A   1      41.351  23.720  26.516  1.00  0.00    -0.460 OA
BRANCH  43  44
ATOM     44  C   UNL A   1      42.637  23.439  26.802  1.00  0.00     0.338 C 
ATOM     45  O   UNL A   1      43.161  22.336  26.842  1.00  0.00    -0.246 OA
BRANCH  44  46
ATOM     46  C   UNL A   1      43.370  24.717  26.861  1.00  0.00     0.060 A 
ATOM     47  C   UNL A   1      43.595  25.417  25.668  1.00  0.00     0.016 A 
ATOM     48  C   UNL A   1      43.806  25.235  28.084  1.00  0.00     0.016 A 
ATOM     49  C   UNL A   1      44.291  26.620  25.688  1.00  0.00     0.010 A 
ATOM     50  C   UNL A   1      44.539  26.422  28.099  1.00  0.00     0.010 A 
ATOM     51  C   UNL A   1      44.820  27.092  26.895  1.00  0.00    -0.014 A 
BRANCH  51  52
ATOM     52  C   UNL A   1      45.894  28.108  26.850  1.00  0.00     0.031 A 
ATOM     53  C   UNL A   1      45.499  29.541  27.079  1.00  0.00     0.074 A 
ATOM     54  C   UNL A   1      47.180  27.770  26.664  1.00  0.00     0.049 A 
ATOM     55  N   UNL A   1      46.232  30.623  27.055  1.00  0.00    -0.248 NA
ATOM     56  C   UNL A   1      44.076  29.783  27.375  1.00  0.00     0.031 C 
ATOM     57  C   UNL A   1      47.682  26.409  26.493  1.00  0.00     0.029 A 
ATOM     58  N   UNL A   1      48.298  28.559  26.583  1.00  0.00    -0.354 N 
ATOM     59  C   UNL A   1      45.360  31.669  27.326  1.00  0.00     0.074 A 
ATOM     60  C   UNL A   1      44.040  31.101  27.476  1.00  0.00     0.031 C 
ATOM     61  C   UNL A   1      49.014  26.459  26.314  1.00  0.00     0.029 A 
ATOM     62  C   UNL A   1      49.447  27.855  26.322  1.00  0.00     0.049 A 
ATOM     63  H   UNL A   1      48.279  29.537  26.701  1.00  0.00     0.167 HD
ATOM     64  C   UNL A   1      45.639  32.987  27.449  1.00  0.00     0.037 A 
ATOM     65  C   UNL A   1      50.697  28.302  26.092  1.00  0.00     0.037 A 
ATOM     66  C   UNL A   1      46.955  33.544  27.290  1.00  0.00     0.049 A 
ATOM     67  C   UNL A   1      50.966  29.788  26.141  1.00  0.00     0.074 A 
ATOM     68  C   UNL A   1      47.351  34.865  27.389  1.00  0.00     0.029 A 
ATOM     69  N   UNL A   1      48.089  32.805  26.984  1.00  0.00    -0.354 N 
ATOM     70  N   UNL A   1      50.144  30.774  26.411  1.00  0.00    -0.248 NA
ATOM     71  C   UNL A   1      52.342  30.219  25.857  1.00  0.00     0.031 C 
ATOM     72  C   UNL A   1      48.713  34.933  27.085  1.00  0.00     0.029 A 
ATOM     73  C   UNL A   1      49.182  33.647  26.867  1.00  0.00     0.049 A 
ATOM     74  H   UNL A   1      48.114  31.828  26.869  1.00  0.00     0.167 HD
ATOM     75  C   UNL A   1      50.909  31.934  26.370  1.00  0.00     0.074 A 
ATOM     76  C   UNL A   1      52.262  31.527  26.058  1.00  0.00     0.031 C 
ATOM     77  C   UNL A   1      50.527  33.220  26.575  1.00  0.00     0.037 A 
BRANCH  64  78
ATOM     78  C   UNL A   1      44.493  33.913  27.733  1.00  0.00     0.064 A 
ATOM     79  C   UNL A   1      43.992  34.097  29.031  1.00  0.00     0.173 A 
ATOM     80  C   UNL A   1      43.897  34.640  26.692  1.00  0.00     0.173 A 
ATOM     81  F   UNL A   1      44.512  33.410  30.059  1.00  0.00    -0.203 F 
ATOM     82  C   UNL A   1      42.919  34.952  29.270  1.00  0.00     0.198 A 
ATOM     83  C   UNL A   1      42.847  35.520  26.940  1.00  0.00     0.198 A 
ATOM     84  F   UNL A   1      44.334  34.501  25.431  1.00  0.00    -0.203 F 
ATOM     85  F   UNL A   1      42.421  35.068  30.509  1.00  0.00    -0.200 F 
ATOM     86  C   UNL A   1      42.354  35.669  28.227  1.00  0.00     0.200 A 
ATOM     87  F   UNL A   1      42.310  36.222  25.932  1.00  0.00    -0.200 F 
ATOM     88  F   UNL A   1      41.327  36.498  28.460  1.00  0.00    -0.200 F 
ENDBRANCH  64  78
BRANCH  65  89
ATOM     89  C   UNL A   1      51.791  27.342  25.780  1.00  0.00     0.064 A 
ATOM     90  C   UNL A   1      52.076  26.974  24.458  1.00  0.00     0.173 A 
ATOM     91  C   UNL A   1      52.548  26.745  26.800  1.00  0.00     0.173 A 
ATOM     92  F   UNL A   1      51.364  27.497  23.449  1.00  0.00    -0.203 F 
ATOM     93  C   UNL A   1      53.057  26.029  24.169  1.00  0.00     0.198 A 
ATOM     94  C   UNL A   1      53.552  25.825  26.507  1.00  0.00     0.198 A 
ATOM     95  F   UNL A   1      52.315  27.059  28.082  1.00  0.00    -0.203 F 
ATOM     96  F   UNL A   1      53.269  25.652  22.900  1.00  0.00    -0.200 F 
ATOM     97  C   UNL A   1      53.798  25.459  25.193  1.00  0.00     0.200 A 
ATOM     98  F   UNL A   1      54.275  25.287  27.499  1.00  0.00    -0.200 F 
ATOM     99  F   UNL A   1      54.742  24.548  24.915  1.00  0.00    -0.200 F 
ENDBRANCH  65  89
BRANCH  77 100
ATOM    100  C   UNL A   1      51.595  34.276  26.532  1.00  0.00     0.064 A 
ATOM    101  C   UNL A   1      52.352  34.616  27.662  1.00  0.00     0.173 A 
ATOM    102  C   UNL A   1      51.897  34.923  25.322  1.00  0.00     0.173 A 
ATOM    103  F   UNL A   1      52.098  34.035  28.845  1.00  0.00    -0.203 F 
ATOM    104  C   UNL A   1      53.348  35.587  27.592  1.00  0.00     0.198 A 
ATOM    105  C   UNL A   1      52.919  35.865  25.246  1.00  0.00     0.198 A 
ATOM    106  F   UNL A   1      51.212  34.628  24.208  1.00  0.00    -0.203 F 
ATOM    107  F   UNL A   1      54.020  35.936  28.697  1.00  0.00    -0.200 F 
ATOM    108  C   UNL A   1      53.636  36.203  26.383  1.00  0.00     0.200 A 
ATOM    109  F   UNL A   1      53.208  36.444  24.073  1.00  0.00    -0.200 F 
ATOM    110  F   UNL A   1      54.603  37.129  26.315  1.00  0.00    -0.200 F 
ENDBRANCH  77 100
ENDBRANCH  51  52
ENDBRANCH  44  46
ENDBRANCH  43  44
ENDBRANCH  42  43
ENDBRANCH  41  42
ENDBRANCH  40  41
ENDBRANCH  39  40
ENDBRANCH   1  39
TORSDOF 21
ENDMDL
