MODEL 1
REMARK VINA RESULT:     -10.6      0.000      0.000
REMARK SMILES CCc1cccc2c3c([nH]c12)[C@](CC)(CC(=O)OCCOCCOCCOCCOC(=O)c1ccc(-c2c4nc(c(-c5c(F)c(F)c(F)c(F)c5F)c5ccc([nH]5)c(-c5c(F)c(F)c(F)c(F)c5F)c5nc(c(-c6c(F)c(F)c(F)c(F)c6F)c6ccc2[nH]6)C=C5)C=C4)cc1)OCC3
REMARK SMILES IDX 24 1 23 2 22 3 21 4 20 5 19 6 18 7 16 8 17 9 15 10 12 11
REMARK SMILES IDX 3 12 4 13 11 14 5 15 7 16 10 17 6 18 8 19 9 20 98 22 97 23
REMARK SMILES IDX 96 24 2 25 1 26 13 27 14 28 25 29 26 30 27 31 28 32 29 33
REMARK SMILES IDX 30 34 31 35 32 36 33 37 34 38 95 39 35 40 94 41 36 42 37 43
REMARK SMILES IDX 38 44 88 45 39 46 93 47 87 48 89 49 40 50 92 51 86 52 85 53
REMARK SMILES IDX 41 55 73 56 53 57 72 58 54 59 57 60 71 61 90 62 55 63 56 64
REMARK SMILES IDX 70 66 91 67 58 68 42 69 43 70 51 71 44 72 45 73 49 74 52 75
REMARK SMILES IDX 46 76 47 77 50 78 48 79 74 80 75 81 83 82 76 83 77 84 81 85
REMARK SMILES IDX 84 86 78 87 79 88 82 89 80 90 59 91 60 92 68 93 61 94 62 95
REMARK SMILES IDX 66 96 69 97 63 98 64 99 67 100 65 101
REMARK H PARENT 10 21 89 54 57 65
REMARK Flexibility Score: inf
ROOT
ATOM      1  O   UNL A   1      40.673  20.429  27.541  1.00  0.00    -0.377 OA
ENDROOT
BRANCH   1   2
ATOM      2  C   UNL A   1      40.643  21.828  27.428  1.00  0.00     0.188 C 
BRANCH   2   3
ATOM      3  C   UNL A   1      39.768  22.337  26.281  1.00  0.00     0.188 C 
BRANCH   3   4
ATOM      4  O   UNL A   1      38.367  22.058  26.227  1.00  0.00    -0.376 OA
BRANCH   4   5
ATOM      5  C   UNL A   1      37.830  21.357  25.116  1.00  0.00     0.202 C 
BRANCH   5   6
ATOM      6  C   UNL A   1      36.741  22.120  24.314  1.00  0.00     0.261 C 
BRANCH   6   7
ATOM      7  O   UNL A   1      36.215  23.359  24.878  1.00  0.00    -0.463 OA
BRANCH   7   8
ATOM      8  C   UNL A   1      35.176  23.222  25.730  1.00  0.00     0.309 C 
ATOM      9  O   UNL A   1      35.307  23.255  26.955  1.00  0.00    -0.252 OA
BRANCH   8  10
ATOM     10  C   UNL A   1      33.825  22.823  25.147  1.00  0.00     0.164 C 
BRANCH  10  11
ATOM     11  C   UNL A   1      32.370  23.362  25.272  1.00  0.00     0.118 C 
ATOM     12  C   UNL A   1      32.345  28.472  25.730  1.00  0.00    -0.024 A 
ATOM     13  C   UNL A   1      31.923  29.464  24.821  1.00  0.00     0.006 A 
ATOM     14  C   UNL A   1      32.094  27.127  25.362  1.00  0.00     0.049 A 
ATOM     15  C   UNL A   1      30.941  29.190  23.892  1.00  0.00     0.001 A 
ATOM     16  C   UNL A   1      31.166  26.821  24.363  1.00  0.00     0.003 A 
ATOM     17  N   UNL A   1      32.554  25.912  25.857  1.00  0.00    -0.356 N 
ATOM     18  C   UNL A   1      30.458  27.888  23.769  1.00  0.00     0.010 A 
ATOM     19  C   UNL A   1      31.170  25.402  24.203  1.00  0.00    -0.014 A 
ATOM     20  C   UNL A   1      32.085  24.859  25.091  1.00  0.00     0.052 A 
ATOM     21  H   UNL A   1      33.136  25.815  26.646  1.00  0.00     0.166 HD
ATOM     22  C   UNL A   1      30.420  24.528  23.264  1.00  0.00     0.066 C 
ATOM     23  C   UNL A   1      31.079  23.141  23.188  1.00  0.00     0.166 C 
ATOM     24  O   UNL A   1      31.430  22.607  24.465  1.00  0.00    -0.368 OA
BRANCH  12  25
ATOM     25  C   UNL A   1      32.832  28.949  27.079  1.00  0.00     0.034 C 
ATOM     26  C   UNL A   1      32.488  30.443  27.234  1.00  0.00     0.009 C 
ENDBRANCH  12  25
BRANCH  11  27
ATOM     27  C   UNL A   1      31.908  23.034  26.741  1.00  0.00     0.039 C 
ATOM     28  C   UNL A   1      30.398  23.030  26.969  1.00  0.00     0.007 C 
ENDBRANCH  11  27
ENDBRANCH  10  11
ENDBRANCH   8  10
ENDBRANCH   7   8
ENDBRANCH   6   7
ENDBRANCH   5   6
ENDBRANCH   4   5
ENDBRANCH   3   4
ENDBRANCH   2   3
ENDBRANCH   1   2
BRANCH   1  29
ATOM     29  C   UNL A   1      41.881  19.734  27.408  1.00  0.00     0.188 C 
BRANCH  29  30
ATOM     30  C   UNL A   1      42.321  19.441  25.980  1.00  0.00     0.188 C 
BRANCH  30  31
ATOM     31  O   UNL A   1      43.493  18.655  25.933  1.00  0.00    -0.376 OA
BRANCH  31  32
ATOM     32  C   UNL A   1      44.351  18.746  24.804  1.00  0.00     0.202 C 
BRANCH  32  33
ATOM     33  C   UNL A   1      45.631  19.600  24.798  1.00  0.00     0.261 C 
BRANCH  33  34
ATOM     34  O   UNL A   1      45.450  20.969  25.103  1.00  0.00    -0.460 OA
BRANCH  34  35
ATOM     35  C   UNL A   1      44.814  21.825  24.283  1.00  0.00     0.338 C 
ATOM     36  O   UNL A   1      44.626  21.755  23.097  1.00  0.00    -0.246 OA
BRANCH  35  37
ATOM     37  C   UNL A   1      44.110  22.629  25.301  1.00  0.00     0.060 A 
ATOM     38  C   UNL A   1      43.084  23.497  24.896  1.00  0.00     0.016 A 
ATOM     39  C   UNL A   1      44.865  22.864  26.456  1.00  0.00     0.016 A 
ATOM     40  C   UNL A   1      42.912  24.679  25.596  1.00  0.00     0.010 A 
ATOM     41  C   UNL A   1      44.722  24.071  27.122  1.00  0.00     0.010 A 
ATOM     42  C   UNL A   1      43.779  24.994  26.666  1.00  0.00    -0.014 A 
BRANCH  42  43
ATOM     43  C   UNL A   1      43.417  26.133  27.511  1.00  0.00     0.031 A 
ATOM     44  C   UNL A   1      44.398  27.215  27.241  1.00  0.00     0.074 A 
ATOM     45  C   UNL A   1      42.326  26.288  28.289  1.00  0.00     0.049 A 
ATOM     46  N   UNL A   1      45.298  27.675  28.044  1.00  0.00    -0.248 NA
ATOM     47  C   UNL A   1      44.590  27.605  25.827  1.00  0.00     0.031 C 
ATOM     48  C   UNL A   1      41.176  25.397  28.433  1.00  0.00     0.029 A 
ATOM     49  N   UNL A   1      41.971  27.350  29.077  1.00  0.00    -0.354 N 
ATOM     50  C   UNL A   1      46.034  28.564  27.273  1.00  0.00     0.074 A 
ATOM     51  C   UNL A   1      45.732  28.284  25.897  1.00  0.00     0.031 C 
ATOM     52  C   UNL A   1      40.172  26.043  29.073  1.00  0.00     0.029 A 
ATOM     53  C   UNL A   1      40.632  27.361  29.471  1.00  0.00     0.049 A 
ATOM     54  H   UNL A   1      42.611  28.049  29.345  1.00  0.00     0.167 HD
ATOM     55  C   UNL A   1      46.565  29.683  27.825  1.00  0.00     0.037 A 
ATOM     56  C   UNL A   1      39.949  28.416  29.999  1.00  0.00     0.037 A 
ATOM     57  C   UNL A   1      46.707  29.545  29.248  1.00  0.00     0.049 A 
ATOM     58  C   UNL A   1      40.961  29.372  30.518  1.00  0.00     0.074 A 
ATOM     59  C   UNL A   1      47.432  28.703  30.067  1.00  0.00     0.029 A 
ATOM     60  N   UNL A   1      45.714  30.080  30.029  1.00  0.00    -0.354 N 
ATOM     61  N   UNL A   1      41.735  29.127  31.538  1.00  0.00    -0.248 NA
ATOM     62  C   UNL A   1      41.426  30.404  29.607  1.00  0.00     0.031 C 
ATOM     63  C   UNL A   1      46.587  28.445  31.185  1.00  0.00     0.029 A 
ATOM     64  C   UNL A   1      45.419  29.193  31.033  1.00  0.00     0.049 A 
ATOM     65  H   UNL A   1      45.285  30.955  29.893  1.00  0.00     0.167 HD
ATOM     66  C   UNL A   1      42.969  29.633  31.162  1.00  0.00     0.074 A 
ATOM     67  C   UNL A   1      42.702  30.469  29.995  1.00  0.00     0.031 C 
ATOM     68  C   UNL A   1      44.120  29.092  31.657  1.00  0.00     0.037 A 
BRANCH  55  69
ATOM     69  C   UNL A   1      46.538  31.006  27.109  1.00  0.00     0.064 A 
ATOM     70  C   UNL A   1      47.726  31.737  26.967  1.00  0.00     0.173 A 
ATOM     71  C   UNL A   1      45.348  31.701  26.784  1.00  0.00     0.173 A 
ATOM     72  F   UNL A   1      48.903  31.194  27.309  1.00  0.00    -0.203 F 
ATOM     73  C   UNL A   1      47.718  33.070  26.546  1.00  0.00     0.198 A 
ATOM     74  C   UNL A   1      45.349  33.004  26.299  1.00  0.00     0.198 A 
ATOM     75  F   UNL A   1      44.132  31.199  27.030  1.00  0.00    -0.203 F 
ATOM     76  F   UNL A   1      48.862  33.766  26.529  1.00  0.00    -0.200 F 
ATOM     77  C   UNL A   1      46.533  33.698  26.203  1.00  0.00     0.200 A 
ATOM     78  F   UNL A   1      44.184  33.597  26.006  1.00  0.00    -0.200 F 
ATOM     79  F   UNL A   1      46.522  34.985  25.836  1.00  0.00    -0.200 F 
ENDBRANCH  55  69
BRANCH  56  80
ATOM     80  C   UNL A   1      38.546  28.851  29.729  1.00  0.00     0.064 A 
ATOM     81  C   UNL A   1      37.694  29.251  30.778  1.00  0.00     0.173 A 
ATOM     82  C   UNL A   1      38.113  29.180  28.431  1.00  0.00     0.173 A 
ATOM     83  F   UNL A   1      38.039  29.021  32.054  1.00  0.00    -0.203 F 
ATOM     84  C   UNL A   1      36.513  29.971  30.543  1.00  0.00     0.198 A 
ATOM     85  C   UNL A   1      36.932  29.892  28.196  1.00  0.00     0.198 A 
ATOM     86  F   UNL A   1      38.873  28.911  27.361  1.00  0.00    -0.203 F 
ATOM     87  F   UNL A   1      35.770  30.399  31.573  1.00  0.00    -0.200 F 
ATOM     88  C   UNL A   1      36.143  30.304  29.251  1.00  0.00     0.200 A 
ATOM     89  F   UNL A   1      36.606  30.237  26.943  1.00  0.00    -0.200 F 
ATOM     90  F   UNL A   1      35.055  31.055  29.026  1.00  0.00    -0.200 F 
ENDBRANCH  56  80
BRANCH  68  91
ATOM     91  C   UNL A   1      44.006  28.153  32.829  1.00  0.00     0.064 A 
ATOM     92  C   UNL A   1      43.841  26.761  32.723  1.00  0.00     0.173 A 
ATOM     93  C   UNL A   1      44.232  28.679  34.108  1.00  0.00     0.173 A 
ATOM     94  F   UNL A   1      43.703  26.168  31.528  1.00  0.00    -0.203 F 
ATOM     95  C   UNL A   1      43.880  25.943  33.854  1.00  0.00     0.198 A 
ATOM     96  C   UNL A   1      44.312  27.856  35.227  1.00  0.00     0.198 A 
ATOM     97  F   UNL A   1      44.436  29.997  34.264  1.00  0.00    -0.203 F 
ATOM     98  F   UNL A   1      43.715  24.618  33.731  1.00  0.00    -0.200 F 
ATOM     99  C   UNL A   1      44.130  26.490  35.102  1.00  0.00     0.200 A 
ATOM    100  F   UNL A   1      44.601  28.387  36.423  1.00  0.00    -0.200 F 
ATOM    101  F   UNL A   1      44.225  25.697  36.178  1.00  0.00    -0.200 F 
ENDBRANCH  68  91
ENDBRANCH  42  43
ENDBRANCH  35  37
ENDBRANCH  34  35
ENDBRANCH  33  34
ENDBRANCH  32  33
ENDBRANCH  31  32
ENDBRANCH  30  31
ENDBRANCH  29  30
ENDBRANCH   1  29
TORSDOF 23
ENDMDL
MODEL 2
REMARK VINA RESULT:     -10.2      1.328      1.949
REMARK SMILES CCc1cccc2c3c([nH]c12)[C@](CC)(CC(=O)OCCOCCOCCOCCOC(=O)c1ccc(-c2c4nc(c(-c5c(F)c(F)c(F)c(F)c5F)c5ccc([nH]5)c(-c5c(F)c(F)c(F)c(F)c5F)c5nc(c(-c6c(F)c(F)c(F)c(F)c6F)c6ccc2[nH]6)C=C5)C=C4)cc1)OCC3
REMARK SMILES IDX 24 1 23 2 22 3 21 4 20 5 19 6 18 7 16 8 17 9 15 10 12 11
REMARK SMILES IDX 3 12 4 13 11 14 5 15 7 16 10 17 6 18 8 19 9 20 98 22 97 23
REMARK SMILES IDX 96 24 2 25 1 26 13 27 14 28 25 29 26 30 27 31 28 32 29 33
REMARK SMILES IDX 30 34 31 35 32 36 33 37 34 38 95 39 35 40 94 41 36 42 37 43
REMARK SMILES IDX 38 44 88 45 39 46 93 47 87 48 89 49 40 50 92 51 86 52 85 53
REMARK SMILES IDX 41 55 73 56 53 57 72 58 54 59 57 60 71 61 90 62 55 63 56 64
REMARK SMILES IDX 70 66 91 67 58 68 42 69 43 70 51 71 44 72 45 73 49 74 52 75
REMARK SMILES IDX 46 76 47 77 50 78 48 79 74 80 75 81 83 82 76 83 77 84 81 85
REMARK SMILES IDX 84 86 78 87 79 88 82 89 80 90 59 91 60 92 68 93 61 94 62 95
REMARK SMILES IDX 66 96 69 97 63 98 64 99 67 100 65 101
REMARK H PARENT 10 21 89 54 57 65
REMARK Flexibility Score: inf
ROOT
ATOM      1  O   UNL A   1      39.538  20.889  26.739  1.00  0.00    -0.377 OA
ENDROOT
BRANCH   1   2
ATOM      2  C   UNL A   1      39.441  22.247  26.395  1.00  0.00     0.188 C 
BRANCH   2   3
ATOM      3  C   UNL A   1      38.123  22.620  25.712  1.00  0.00     0.188 C 
BRANCH   3   4
ATOM      4  O   UNL A   1      36.958  21.801  25.835  1.00  0.00    -0.376 OA
BRANCH   4   5
ATOM      5  C   UNL A   1      36.761  20.718  24.939  1.00  0.00     0.202 C 
BRANCH   5   6
ATOM      6  C   UNL A   1      35.337  20.097  24.955  1.00  0.00     0.261 C 
BRANCH   6   7
ATOM      7  O   UNL A   1      34.219  20.933  24.530  1.00  0.00    -0.463 OA
BRANCH   7   8
ATOM      8  C   UNL A   1      33.191  21.026  25.403  1.00  0.00     0.309 C 
ATOM      9  O   UNL A   1      32.463  20.072  25.682  1.00  0.00    -0.252 OA
BRANCH   8  10
ATOM     10  C   UNL A   1      32.812  22.413  25.910  1.00  0.00     0.164 C 
BRANCH  10  11
ATOM     11  C   UNL A   1      31.753  23.481  25.507  1.00  0.00     0.118 C 
ATOM     12  C   UNL A   1      33.869  28.149  25.264  1.00  0.00    -0.024 A 
ATOM     13  C   UNL A   1      34.141  28.966  24.148  1.00  0.00     0.006 A 
ATOM     14  C   UNL A   1      33.144  26.958  25.015  1.00  0.00     0.049 A 
ATOM     15  C   UNL A   1      33.376  28.868  23.004  1.00  0.00     0.001 A 
ATOM     16  C   UNL A   1      32.428  26.792  23.826  1.00  0.00     0.003 A 
ATOM     17  N   UNL A   1      32.900  25.825  25.782  1.00  0.00    -0.356 N 
ATOM     18  C   UNL A   1      32.413  27.865  22.908  1.00  0.00     0.010 A 
ATOM     19  C   UNL A   1      31.845  25.489  23.862  1.00  0.00    -0.014 A 
ATOM     20  C   UNL A   1      32.203  24.877  25.053  1.00  0.00     0.052 A 
ATOM     21  H   UNL A   1      33.185  25.712  26.719  1.00  0.00     0.166 HD
ATOM     22  C   UNL A   1      31.021  24.765  22.860  1.00  0.00     0.066 C 
ATOM     23  C   UNL A   1      31.004  23.260  23.173  1.00  0.00     0.166 C 
ATOM     24  O   UNL A   1      30.787  22.969  24.554  1.00  0.00    -0.368 OA
BRANCH  12  25
ATOM     25  C   UNL A   1      34.197  28.724  26.623  1.00  0.00     0.034 C 
ATOM     26  C   UNL A   1      32.885  29.111  27.331  1.00  0.00     0.009 C 
ENDBRANCH  12  25
BRANCH  11  27
ATOM     27  C   UNL A   1      30.876  23.733  26.791  1.00  0.00     0.039 C 
ATOM     28  C   UNL A   1      29.781  22.701  27.049  1.00  0.00     0.007 C 
ENDBRANCH  11  27
ENDBRANCH  10  11
ENDBRANCH   8  10
ENDBRANCH   7   8
ENDBRANCH   6   7
ENDBRANCH   5   6
ENDBRANCH   4   5
ENDBRANCH   3   4
ENDBRANCH   2   3
ENDBRANCH   1   2
BRANCH   1  29
ATOM     29  C   UNL A   1      40.584  20.106  26.238  1.00  0.00     0.188 C 
BRANCH  29  30
ATOM     30  C   UNL A   1      41.980  20.699  26.382  1.00  0.00     0.188 C 
BRANCH  30  31
ATOM     31  O   UNL A   1      42.936  19.728  26.754  1.00  0.00    -0.376 OA
BRANCH  31  32
ATOM     32  C   UNL A   1      43.371  18.773  25.795  1.00  0.00     0.202 C 
BRANCH  32  33
ATOM     33  C   UNL A   1      44.801  18.752  25.230  1.00  0.00     0.261 C 
BRANCH  33  34
ATOM     34  O   UNL A   1      45.390  20.020  25.020  1.00  0.00    -0.460 OA
BRANCH  34  35
ATOM     35  C   UNL A   1      45.108  20.793  23.956  1.00  0.00     0.338 C 
ATOM     36  O   UNL A   1      44.627  20.493  22.896  1.00  0.00    -0.246 OA
BRANCH  35  37
ATOM     37  C   UNL A   1      45.196  22.114  24.608  1.00  0.00     0.060 A 
ATOM     38  C   UNL A   1      45.851  22.223  25.845  1.00  0.00     0.016 A 
ATOM     39  C   UNL A   1      44.181  23.000  24.227  1.00  0.00     0.016 A 
ATOM     40  C   UNL A   1      45.382  23.157  26.754  1.00  0.00     0.010 A 
ATOM     41  C   UNL A   1      43.683  23.897  25.159  1.00  0.00     0.010 A 
ATOM     42  C   UNL A   1      44.253  23.944  26.432  1.00  0.00    -0.014 A 
BRANCH  42  43
ATOM     43  C   UNL A   1      43.940  25.062  27.323  1.00  0.00     0.031 A 
ATOM     44  C   UNL A   1      45.021  26.068  27.169  1.00  0.00     0.074 A 
ATOM     45  C   UNL A   1      42.823  25.268  28.052  1.00  0.00     0.049 A 
ATOM     46  N   UNL A   1      45.910  26.404  28.044  1.00  0.00    -0.248 NA
ATOM     47  C   UNL A   1      45.325  26.517  25.793  1.00  0.00     0.031 C 
ATOM     48  C   UNL A   1      41.597  24.473  28.083  1.00  0.00     0.029 A 
ATOM     49  N   UNL A   1      42.515  26.311  28.882  1.00  0.00    -0.354 N 
ATOM     50  C   UNL A   1      46.759  27.268  27.365  1.00  0.00     0.074 A 
ATOM     51  C   UNL A   1      46.513  27.090  25.961  1.00  0.00     0.031 C 
ATOM     52  C   UNL A   1      40.616  25.168  28.708  1.00  0.00     0.029 A 
ATOM     53  C   UNL A   1      41.161  26.417  29.208  1.00  0.00     0.049 A 
ATOM     54  H   UNL A   1      43.194  26.937  29.225  1.00  0.00     0.167 HD
ATOM     55  C   UNL A   1      47.350  28.304  28.009  1.00  0.00     0.037 A 
ATOM     56  C   UNL A   1      40.540  27.496  29.761  1.00  0.00     0.037 A 
ATOM     57  C   UNL A   1      47.400  28.076  29.428  1.00  0.00     0.049 A 
ATOM     58  C   UNL A   1      41.597  28.332  30.388  1.00  0.00     0.074 A 
ATOM     59  C   UNL A   1      48.005  27.131  30.231  1.00  0.00     0.029 A 
ATOM     60  N   UNL A   1      46.412  28.651  30.187  1.00  0.00    -0.354 N 
ATOM     61  N   UNL A   1      42.289  27.965  31.430  1.00  0.00    -0.248 NA
ATOM     62  C   UNL A   1      42.197  29.368  29.565  1.00  0.00     0.031 C 
ATOM     63  C   UNL A   1      47.080  26.886  31.287  1.00  0.00     0.029 A 
ATOM     64  C   UNL A   1      45.988  27.740  31.119  1.00  0.00     0.049 A 
ATOM     65  H   UNL A   1      46.067  29.566  30.081  1.00  0.00     0.167 HD
ATOM     66  C   UNL A   1      43.581  28.382  31.149  1.00  0.00     0.074 A 
ATOM     67  C   UNL A   1      43.450  29.301  30.021  1.00  0.00     0.031 C 
ATOM     68  C   UNL A   1      44.652  27.717  31.668  1.00  0.00     0.037 A 
BRANCH  55  69
ATOM     69  C   UNL A   1      47.474  29.661  27.373  1.00  0.00     0.064 A 
ATOM     70  C   UNL A   1      48.713  30.318  27.384  1.00  0.00     0.173 A 
ATOM     71  C   UNL A   1      46.366  30.451  26.981  1.00  0.00     0.173 A 
ATOM     72  F   UNL A   1      49.816  29.679  27.801  1.00  0.00    -0.203 F 
ATOM     73  C   UNL A   1      48.829  31.668  27.044  1.00  0.00     0.198 A 
ATOM     74  C   UNL A   1      46.494  31.775  26.576  1.00  0.00     0.198 A 
ATOM     75  F   UNL A   1      45.104  30.020  27.085  1.00  0.00    -0.203 F 
ATOM     76  F   UNL A   1      50.010  32.286  27.172  1.00  0.00    -0.200 F 
ATOM     77  C   UNL A   1      47.722  32.392  26.631  1.00  0.00     0.200 A 
ATOM     78  F   UNL A   1      45.402  32.460  26.212  1.00  0.00    -0.200 F 
ATOM     79  F   UNL A   1      47.827  33.694  26.340  1.00  0.00    -0.200 F 
ENDBRANCH  55  69
BRANCH  56  80
ATOM     80  C   UNL A   1      39.196  28.065  29.446  1.00  0.00     0.064 A 
ATOM     81  C   UNL A   1      38.259  28.328  30.466  1.00  0.00     0.173 A 
ATOM     82  C   UNL A   1      38.916  28.648  28.195  1.00  0.00     0.173 A 
ATOM     83  F   UNL A   1      38.458  27.853  31.705  1.00  0.00    -0.203 F 
ATOM     84  C   UNL A   1      37.146  29.156  30.258  1.00  0.00     0.198 A 
ATOM     85  C   UNL A   1      37.803  29.468  27.986  1.00  0.00     0.198 A 
ATOM     86  F   UNL A   1      39.770  28.524  27.170  1.00  0.00    -0.203 F 
ATOM     87  F   UNL A   1      36.322  29.443  31.275  1.00  0.00    -0.200 F 
ATOM     88  C   UNL A   1      36.929  29.737  29.020  1.00  0.00     0.200 A 
ATOM     89  F   UNL A   1      37.626  30.052  26.793  1.00  0.00    -0.200 F 
ATOM     90  F   UNL A   1      35.909  30.588  28.837  1.00  0.00    -0.200 F 
ENDBRANCH  56  80
BRANCH  68  91
ATOM     91  C   UNL A   1      44.394  26.729  32.775  1.00  0.00     0.064 A 
ATOM     92  C   UNL A   1      44.158  27.078  34.117  1.00  0.00     0.173 A 
ATOM     93  C   UNL A   1      44.227  25.383  32.420  1.00  0.00     0.173 A 
ATOM     94  F   UNL A   1      44.215  28.354  34.521  1.00  0.00    -0.203 F 
ATOM     95  C   UNL A   1      43.793  26.113  35.057  1.00  0.00     0.198 A 
ATOM     96  C   UNL A   1      43.822  24.433  33.352  1.00  0.00     0.198 A 
ATOM     97  F   UNL A   1      44.400  25.000  31.146  1.00  0.00    -0.203 F 
ATOM     98  F   UNL A   1      43.576  26.466  36.333  1.00  0.00    -0.200 F 
ATOM     99  C   UNL A   1      43.610  24.795  34.671  1.00  0.00     0.200 A 
ATOM    100  F   UNL A   1      43.602  23.169  32.960  1.00  0.00    -0.200 F 
ATOM    101  F   UNL A   1      43.202  23.881  35.563  1.00  0.00    -0.200 F 
ENDBRANCH  68  91
ENDBRANCH  42  43
ENDBRANCH  35  37
ENDBRANCH  34  35
ENDBRANCH  33  34
ENDBRANCH  32  33
ENDBRANCH  31  32
ENDBRANCH  30  31
ENDBRANCH  29  30
ENDBRANCH   1  29
TORSDOF 23
ENDMDL
MODEL 3
REMARK VINA RESULT:      -9.7      3.826      9.292
REMARK SMILES CCc1cccc2c3c([nH]c12)[C@](CC)(CC(=O)OCCOCCOCCOCCOC(=O)c1ccc(-c2c4nc(c(-c5c(F)c(F)c(F)c(F)c5F)c5ccc([nH]5)c(-c5c(F)c(F)c(F)c(F)c5F)c5nc(c(-c6c(F)c(F)c(F)c(F)c6F)c6ccc2[nH]6)C=C5)C=C4)cc1)OCC3
REMARK SMILES IDX 24 1 23 2 22 3 21 4 20 5 19 6 18 7 16 8 17 9 15 10 12 11
REMARK SMILES IDX 3 12 4 13 11 14 5 15 7 16 10 17 6 18 8 19 9 20 98 22 97 23
REMARK SMILES IDX 96 24 2 25 1 26 13 27 14 28 25 29 26 30 27 31 28 32 29 33
REMARK SMILES IDX 30 34 31 35 32 36 33 37 34 38 95 39 35 40 94 41 36 42 37 43
REMARK SMILES IDX 38 44 88 45 39 46 93 47 87 48 89 49 40 50 92 51 86 52 85 53
REMARK SMILES IDX 41 55 73 56 53 57 72 58 54 59 57 60 71 61 90 62 55 63 56 64
REMARK SMILES IDX 70 66 91 67 58 68 42 69 43 70 51 71 44 72 45 73 49 74 52 75
REMARK SMILES IDX 46 76 47 77 50 78 48 79 74 80 75 81 83 82 76 83 77 84 81 85
REMARK SMILES IDX 84 86 78 87 79 88 82 89 80 90 59 91 60 92 68 93 61 94 62 95
REMARK SMILES IDX 66 96 69 97 63 98 64 99 67 100 65 101
REMARK H PARENT 10 21 89 54 57 65
REMARK Flexibility Score: inf
ROOT
ATOM      1  O   UNL A   1      32.903  30.012  26.606  1.00  0.00    -0.377 OA
ENDROOT
BRANCH   1   2
ATOM      2  C   UNL A   1      32.876  29.307  25.391  1.00  0.00     0.188 C 
BRANCH   2   3
ATOM      3  C   UNL A   1      31.479  28.836  24.981  1.00  0.00     0.188 C 
BRANCH   3   4
ATOM      4  O   UNL A   1      31.006  28.975  23.640  1.00  0.00    -0.376 OA
BRANCH   4   5
ATOM      5  C   UNL A   1      29.903  28.198  23.199  1.00  0.00     0.202 C 
BRANCH   5   6
ATOM      6  C   UNL A   1      29.761  26.806  23.874  1.00  0.00     0.261 C 
BRANCH   6   7
ATOM      7  O   UNL A   1      29.827  25.621  23.024  1.00  0.00    -0.463 OA
BRANCH   7   8
ATOM      8  C   UNL A   1      31.055  25.078  22.870  1.00  0.00     0.309 C 
ATOM      9  O   UNL A   1      31.853  25.462  22.012  1.00  0.00    -0.252 OA
BRANCH   8  10
ATOM     10  C   UNL A   1      31.382  23.819  23.666  1.00  0.00     0.164 C 
BRANCH  10  11
ATOM     11  C   UNL A   1      32.329  23.484  24.854  1.00  0.00     0.118 C 
ATOM     12  C   UNL A   1      33.810  18.574  24.680  1.00  0.00    -0.024 A 
ATOM     13  C   UNL A   1      35.071  18.015  24.388  1.00  0.00     0.006 A 
ATOM     14  C   UNL A   1      33.752  19.986  24.785  1.00  0.00     0.049 A 
ATOM     15  C   UNL A   1      36.227  18.721  24.646  1.00  0.00     0.001 A 
ATOM     16  C   UNL A   1      34.916  20.738  24.960  1.00  0.00     0.003 A 
ATOM     17  N   UNL A   1      32.693  20.885  24.822  1.00  0.00    -0.356 N 
ATOM     18  C   UNL A   1      36.141  20.044  25.077  1.00  0.00     0.010 A 
ATOM     19  C   UNL A   1      34.531  22.112  24.992  1.00  0.00    -0.014 A 
ATOM     20  C   UNL A   1      33.156  22.190  24.838  1.00  0.00     0.052 A 
ATOM     21  H   UNL A   1      31.742  20.629  24.836  1.00  0.00     0.166 HD
ATOM     22  C   UNL A   1      35.347  23.348  25.113  1.00  0.00     0.066 C 
ATOM     23  C   UNL A   1      34.530  24.571  24.667  1.00  0.00     0.166 C 
ATOM     24  O   UNL A   1      33.202  24.591  25.195  1.00  0.00    -0.368 OA
BRANCH  12  25
ATOM     25  C   UNL A   1      32.708  17.608  25.050  1.00  0.00     0.034 C 
ATOM     26  C   UNL A   1      33.252  16.170  24.955  1.00  0.00     0.009 C 
ENDBRANCH  12  25
BRANCH  11  27
ATOM     27  C   UNL A   1      31.409  23.363  26.126  1.00  0.00     0.039 C 
ATOM     28  C   UNL A   1      30.648  24.631  26.508  1.00  0.00     0.007 C 
ENDBRANCH  11  27
ENDBRANCH  10  11
ENDBRANCH   8  10
ENDBRANCH   7   8
ENDBRANCH   6   7
ENDBRANCH   5   6
ENDBRANCH   4   5
ENDBRANCH   3   4
ENDBRANCH   2   3
ENDBRANCH   1   2
BRANCH   1  29
ATOM     29  C   UNL A   1      34.124  30.322  27.216  1.00  0.00     0.188 C 
BRANCH  29  30
ATOM     30  C   UNL A   1      34.154  31.621  28.011  1.00  0.00     0.188 C 
BRANCH  30  31
ATOM     31  O   UNL A   1      35.220  31.654  28.938  1.00  0.00    -0.376 OA
BRANCH  31  32
ATOM     32  C   UNL A   1      36.291  32.567  28.737  1.00  0.00     0.202 C 
BRANCH  32  33
ATOM     33  C   UNL A   1      37.010  33.274  29.898  1.00  0.00     0.261 C 
BRANCH  33  34
ATOM     34  O   UNL A   1      38.187  32.641  30.360  1.00  0.00    -0.460 OA
BRANCH  34  35
ATOM     35  C   UNL A   1      39.417  32.979  29.935  1.00  0.00     0.338 C 
ATOM     36  O   UNL A   1      39.860  34.061  29.653  1.00  0.00    -0.246 OA
BRANCH  35  37
ATOM     37  C   UNL A   1      40.128  31.735  30.290  1.00  0.00     0.060 A 
ATOM     38  C   UNL A   1      41.529  31.749  30.374  1.00  0.00     0.016 A 
ATOM     39  C   UNL A   1      39.416  30.571  29.979  1.00  0.00     0.016 A 
ATOM     40  C   UNL A   1      42.217  30.604  30.010  1.00  0.00     0.010 A 
ATOM     41  C   UNL A   1      40.111  29.444  29.568  1.00  0.00     0.010 A 
ATOM     42  C   UNL A   1      41.506  29.476  29.541  1.00  0.00    -0.014 A 
BRANCH  42  43
ATOM     43  C   UNL A   1      42.254  28.228  29.389  1.00  0.00     0.031 A 
ATOM     44  C   UNL A   1      42.849  27.903  30.710  1.00  0.00     0.074 A 
ATOM     45  C   UNL A   1      42.305  27.404  28.321  1.00  0.00     0.049 A 
ATOM     46  N   UNL A   1      44.099  27.911  31.030  1.00  0.00    -0.248 NA
ATOM     47  C   UNL A   1      41.927  27.865  31.866  1.00  0.00     0.031 C 
ATOM     48  C   UNL A   1      41.563  27.495  27.065  1.00  0.00     0.029 A 
ATOM     49  N   UNL A   1      42.993  26.231  28.168  1.00  0.00    -0.354 N 
ATOM     50  C   UNL A   1      44.112  27.675  32.399  1.00  0.00     0.074 A 
ATOM     51  C   UNL A   1      42.782  27.918  32.884  1.00  0.00     0.031 C 
ATOM     52  C   UNL A   1      41.672  26.329  26.383  1.00  0.00     0.029 A 
ATOM     53  C   UNL A   1      42.566  25.439  27.101  1.00  0.00     0.049 A 
ATOM     54  H   UNL A   1      43.733  25.967  28.763  1.00  0.00     0.167 HD
ATOM     55  C   UNL A   1      45.119  26.969  32.969  1.00  0.00     0.037 A 
ATOM     56  C   UNL A   1      42.864  24.125  26.893  1.00  0.00     0.037 A 
ATOM     57  C   UNL A   1      46.296  26.980  32.144  1.00  0.00     0.049 A 
ATOM     58  C   UNL A   1      44.072  23.820  27.702  1.00  0.00     0.074 A 
ATOM     59  C   UNL A   1      47.144  27.968  31.688  1.00  0.00     0.029 A 
ATOM     60  N   UNL A   1      46.496  25.895  31.329  1.00  0.00    -0.354 N 
ATOM     61  N   UNL A   1      45.253  24.316  27.458  1.00  0.00    -0.248 NA
ATOM     62  C   UNL A   1      43.859  23.337  29.055  1.00  0.00     0.031 C 
ATOM     63  C   UNL A   1      47.501  27.578  30.365  1.00  0.00     0.029 A 
ATOM     64  C   UNL A   1      46.913  26.340  30.101  1.00  0.00     0.049 A 
ATOM     65  H   UNL A   1      46.363  24.954  31.583  1.00  0.00     0.167 HD
ATOM     66  C   UNL A   1      45.763  24.620  28.711  1.00  0.00     0.074 A 
ATOM     67  C   UNL A   1      44.891  23.931  29.657  1.00  0.00     0.031 C 
ATOM     68  C   UNL A   1      46.663  25.634  28.865  1.00  0.00     0.037 A 
BRANCH  55  69
ATOM     69  C   UNL A   1      44.858  25.951  34.045  1.00  0.00     0.064 A 
ATOM     70  C   UNL A   1      45.392  26.149  35.327  1.00  0.00     0.173 A 
ATOM     71  C   UNL A   1      44.321  24.665  33.798  1.00  0.00     0.173 A 
ATOM     72  F   UNL A   1      45.984  27.311  35.644  1.00  0.00    -0.203 F 
ATOM     73  C   UNL A   1      45.402  25.129  36.281  1.00  0.00     0.198 A 
ATOM     74  C   UNL A   1      44.268  23.674  34.772  1.00  0.00     0.198 A 
ATOM     75  F   UNL A   1      43.934  24.270  32.580  1.00  0.00    -0.203 F 
ATOM     76  F   UNL A   1      46.019  25.324  37.454  1.00  0.00    -0.200 F 
ATOM     77  C   UNL A   1      44.832  23.897  36.007  1.00  0.00     0.200 A 
ATOM     78  F   UNL A   1      43.740  22.481  34.468  1.00  0.00    -0.200 F 
ATOM     79  F   UNL A   1      44.873  22.908  36.908  1.00  0.00    -0.200 F 
ENDBRANCH  55  69
BRANCH  56  80
ATOM     80  C   UNL A   1      41.977  23.033  26.393  1.00  0.00     0.064 A 
ATOM     81  C   UNL A   1      42.509  21.798  25.972  1.00  0.00     0.173 A 
ATOM     82  C   UNL A   1      40.585  23.057  26.607  1.00  0.00     0.173 A 
ATOM     83  F   UNL A   1      43.830  21.661  25.782  1.00  0.00    -0.203 F 
ATOM     84  C   UNL A   1      41.709  20.656  25.821  1.00  0.00     0.198 A 
ATOM     85  C   UNL A   1      39.786  21.921  26.450  1.00  0.00     0.198 A 
ATOM     86  F   UNL A   1      39.978  24.157  27.073  1.00  0.00    -0.203 F 
ATOM     87  F   UNL A   1      42.267  19.482  25.494  1.00  0.00    -0.200 F 
ATOM     88  C   UNL A   1      40.349  20.716  26.076  1.00  0.00     0.200 A 
ATOM     89  F   UNL A   1      38.479  21.987  26.735  1.00  0.00    -0.200 F 
ATOM     90  F   UNL A   1      39.593  19.611  26.006  1.00  0.00    -0.200 F 
ENDBRANCH  56  80
BRANCH  68  91
ATOM     91  C   UNL A   1      47.302  26.199  27.624  1.00  0.00     0.064 A 
ATOM     92  C   UNL A   1      48.467  25.689  27.024  1.00  0.00     0.173 A 
ATOM     93  C   UNL A   1      46.608  27.202  26.933  1.00  0.00     0.173 A 
ATOM     94  F   UNL A   1      49.143  24.673  27.577  1.00  0.00    -0.203 F 
ATOM     95  C   UNL A   1      48.921  26.183  25.800  1.00  0.00     0.198 A 
ATOM     96  C   UNL A   1      47.041  27.661  25.693  1.00  0.00     0.198 A 
ATOM     97  F   UNL A   1      45.467  27.698  27.439  1.00  0.00    -0.203 F 
ATOM     98  F   UNL A   1      50.037  25.686  25.247  1.00  0.00    -0.200 F 
ATOM     99  C   UNL A   1      48.200  27.157  25.128  1.00  0.00     0.200 A 
ATOM    100  F   UNL A   1      46.312  28.569  25.029  1.00  0.00    -0.200 F 
ATOM    101  F   UNL A   1      48.604  27.588  23.926  1.00  0.00    -0.200 F 
ENDBRANCH  68  91
ENDBRANCH  42  43
ENDBRANCH  35  37
ENDBRANCH  34  35
ENDBRANCH  33  34
ENDBRANCH  32  33
ENDBRANCH  31  32
ENDBRANCH  30  31
ENDBRANCH  29  30
ENDBRANCH   1  29
TORSDOF 23
ENDMDL
