MODEL 1
REMARK VINA RESULT:     -10.8      0.000      0.000
REMARK SMILES COc1ncccc1NS(=O)(=O)c1ccc(Br)c(C(=O)OCCOCCOCCOCCOC(=O)c2ccc(-c3c4nc(c(-c5c(F)c(F)c(F)c(F)c5F)c5ccc([nH]5)c(-c5c(F)c(F)c(F)c(F)c5F)c5nc(c(-c6c(F)c(F)c(F)c(F)c6F)c6ccc3[nH]6)C=C5)C=C4)cc2)c1
REMARK SMILES IDX 26 1 25 2 24 3 23 4 22 5 21 6 19 7 20 8 18 9 13 10 14 11
REMARK SMILES IDX 99 12 15 13 16 14 17 15 10 16 11 17 12 18 9 19 8 21 3 22
REMARK SMILES IDX 4 23 5 24 7 25 6 26 2 27 1 28 27 29 28 30 29 31 30 32 31 33
REMARK SMILES IDX 32 34 33 35 34 36 35 37 36 38 37 39 98 40 38 41 97 42 39 43
REMARK SMILES IDX 40 44 41 45 91 46 42 47 96 48 90 49 92 50 43 51 95 52 89 53
REMARK SMILES IDX 88 54 44 56 76 57 56 58 75 59 57 60 60 61 74 62 93 63 58 64
REMARK SMILES IDX 59 65 73 67 94 68 61 69 45 70 46 71 54 72 47 73 48 74 52 75
REMARK SMILES IDX 55 76 49 77 50 78 53 79 51 80 77 81 78 82 86 83 79 84 80 85
REMARK SMILES IDX 84 86 87 87 81 88 82 89 85 90 83 91 62 92 63 93 71 94 64 95
REMARK SMILES IDX 65 96 69 97 72 98 66 99 67 100 70 101 68 102
REMARK H PARENT 9 20 92 55 60 66
REMARK Flexibility Score: inf
ROOT
ATOM      1  C   UNL A   1      41.715  19.815  26.347  1.00  0.00     0.188 C 
ENDROOT
BRANCH   1   2
ATOM      2  C   UNL A   1      40.256  20.247  26.078  1.00  0.00     0.188 C 
BRANCH   2   3
ATOM      3  O   UNL A   1      39.502  19.369  25.253  1.00  0.00    -0.376 OA
BRANCH   3   4
ATOM      4  C   UNL A   1      38.140  19.699  25.049  1.00  0.00     0.202 C 
BRANCH   4   5
ATOM      5  C   UNL A   1      37.853  21.197  25.132  1.00  0.00     0.261 C 
BRANCH   5   6
ATOM      6  O   UNL A   1      36.503  21.536  24.783  1.00  0.00    -0.460 OA
BRANCH   6   7
ATOM      7  C   UNL A   1      35.864  22.475  25.511  1.00  0.00     0.339 C 
ATOM      8  O   UNL A   1      36.344  23.137  26.414  1.00  0.00    -0.246 OA
BRANCH   7   9
ATOM      9  C   UNL A   1      34.521  22.720  24.914  1.00  0.00     0.075 A 
ATOM     10  C   UNL A   1      32.984  24.372  24.009  1.00  0.00     0.088 A 
ATOM     11  C   UNL A   1      32.152  23.333  23.561  1.00  0.00     0.023 A 
ATOM     12  C   UNL A   1      34.147  24.071  24.723  1.00  0.00     0.039 A 
ATOM     13  C   UNL A   1      32.484  22.003  23.808  1.00  0.00     0.018 A 
ATOM     14  C   UNL A   1      33.669  21.688  24.479  1.00  0.00     0.032 A 
ATOM     15  Br  UNL A   1      33.980  19.835  24.778  1.00  0.00    -0.050 Br
BRANCH  10  16
ATOM     16  S   UNL A   1      32.463  26.008  23.554  1.00  0.00     0.262 S 
ATOM     17  O   UNL A   1      32.016  25.920  22.181  1.00  0.00    -0.201 OA
ATOM     18  O   UNL A   1      33.556  26.902  23.896  1.00  0.00    -0.201 OA
BRANCH  16  19
ATOM     19  N   UNL A   1      31.163  26.617  24.428  1.00  0.00    -0.274 N 
ATOM     20  H   UNL A   1      30.980  26.207  25.305  1.00  0.00     0.180 HD
BRANCH  19  21
ATOM     21  C   UNL A   1      30.296  27.676  24.013  1.00  0.00     0.111 A 
ATOM     22  C   UNL A   1      30.606  29.027  23.887  1.00  0.00     0.238 A 
ATOM     23  N   UNL A   1      29.718  29.959  23.481  1.00  0.00    -0.220 NA
ATOM     24  C   UNL A   1      28.486  29.533  23.126  1.00  0.00     0.115 A 
ATOM     25  C   UNL A   1      29.064  27.262  23.502  1.00  0.00     0.034 A 
ATOM     26  C   UNL A   1      28.128  28.200  23.081  1.00  0.00     0.023 A 
BRANCH  22  27
ATOM     27  O   UNL A   1      31.792  29.510  24.368  1.00  0.00    -0.480 OA
ATOM     28  C   UNL A   1      31.571  30.399  25.453  1.00  0.00     0.280 C 
ENDBRANCH  22  27
ENDBRANCH  19  21
ENDBRANCH  16  19
ENDBRANCH  10  16
ENDBRANCH   7   9
ENDBRANCH   6   7
ENDBRANCH   5   6
ENDBRANCH   4   5
ENDBRANCH   3   4
ENDBRANCH   2   3
ENDBRANCH   1   2
BRANCH   1  29
ATOM     29  O   UNL A   1      42.542  19.273  25.322  1.00  0.00    -0.377 OA
BRANCH  29  30
ATOM     30  C   UNL A   1      43.767  18.649  25.676  1.00  0.00     0.188 C 
BRANCH  30  31
ATOM     31  C   UNL A   1      45.065  19.160  25.014  1.00  0.00     0.188 C 
BRANCH  31  32
ATOM     32  O   UNL A   1      44.898  20.375  24.299  1.00  0.00    -0.376 OA
BRANCH  32  33
ATOM     33  C   UNL A   1      45.760  21.449  24.627  1.00  0.00     0.202 C 
BRANCH  33  34
ATOM     34  C   UNL A   1      45.454  22.239  25.908  1.00  0.00     0.261 C 
BRANCH  34  35
ATOM     35  O   UNL A   1      44.069  22.454  26.215  1.00  0.00    -0.460 OA
BRANCH  35  36
ATOM     36  C   UNL A   1      43.370  23.298  25.419  1.00  0.00     0.338 C 
ATOM     37  O   UNL A   1      43.096  23.153  24.253  1.00  0.00    -0.246 OA
BRANCH  36  38
ATOM     38  C   UNL A   1      42.822  24.360  26.300  1.00  0.00     0.060 A 
ATOM     39  C   UNL A   1      43.521  25.569  26.426  1.00  0.00     0.016 A 
ATOM     40  C   UNL A   1      41.605  24.174  26.959  1.00  0.00     0.016 A 
ATOM     41  C   UNL A   1      43.011  26.589  27.232  1.00  0.00     0.010 A 
ATOM     42  C   UNL A   1      41.111  25.183  27.786  1.00  0.00     0.010 A 
ATOM     43  C   UNL A   1      41.826  26.383  27.951  1.00  0.00    -0.014 A 
BRANCH  43  44
ATOM     44  C   UNL A   1      41.451  27.317  29.038  1.00  0.00     0.031 A 
ATOM     45  C   UNL A   1      42.251  27.274  30.311  1.00  0.00     0.074 A 
ATOM     46  C   UNL A   1      40.435  28.186  28.908  1.00  0.00     0.049 A 
ATOM     47  N   UNL A   1      42.087  27.938  31.426  1.00  0.00    -0.248 NA
ATOM     48  C   UNL A   1      43.391  26.343  30.326  1.00  0.00     0.031 C 
ATOM     49  C   UNL A   1      39.613  28.354  27.713  1.00  0.00     0.029 A 
ATOM     50  N   UNL A   1      39.917  29.087  29.805  1.00  0.00    -0.354 N 
ATOM     51  C   UNL A   1      43.096  27.501  32.274  1.00  0.00     0.074 A 
ATOM     52  C   UNL A   1      43.844  26.491  31.560  1.00  0.00     0.031 C 
ATOM     53  C   UNL A   1      38.682  29.295  27.954  1.00  0.00     0.029 A 
ATOM     54  C   UNL A   1      38.822  29.767  29.332  1.00  0.00     0.049 A 
ATOM     55  H   UNL A   1      40.294  29.232  30.702  1.00  0.00     0.167 HD
ATOM     56  C   UNL A   1      43.378  27.912  33.533  1.00  0.00     0.037 A 
ATOM     57  C   UNL A   1      38.016  30.652  29.952  1.00  0.00     0.037 A 
ATOM     58  C   UNL A   1      42.623  28.911  34.242  1.00  0.00     0.049 A 
ATOM     59  C   UNL A   1      38.297  31.032  31.385  1.00  0.00     0.074 A 
ATOM     60  C   UNL A   1      42.836  29.410  35.515  1.00  0.00     0.029 A 
ATOM     61  N   UNL A   1      41.498  29.552  33.742  1.00  0.00    -0.354 N 
ATOM     62  N   UNL A   1      39.268  30.639  32.174  1.00  0.00    -0.248 NA
ATOM     63  C   UNL A   1      37.367  31.981  32.012  1.00  0.00     0.031 C 
ATOM     64  C   UNL A   1      41.803  30.306  35.809  1.00  0.00     0.029 A 
ATOM     65  C   UNL A   1      40.987  30.419  34.694  1.00  0.00     0.049 A 
ATOM     66  H   UNL A   1      41.121  29.411  32.844  1.00  0.00     0.167 HD
ATOM     67  C   UNL A   1      39.087  31.317  33.373  1.00  0.00     0.074 A 
ATOM     68  C   UNL A   1      37.918  32.154  33.205  1.00  0.00     0.031 C 
ATOM     69  C   UNL A   1      39.825  31.253  34.511  1.00  0.00     0.037 A 
BRANCH  56  70
ATOM     70  C   UNL A   1      44.528  27.247  34.232  1.00  0.00     0.064 A 
ATOM     71  C   UNL A   1      45.837  27.744  34.142  1.00  0.00     0.173 A 
ATOM     72  C   UNL A   1      44.317  26.096  35.006  1.00  0.00     0.173 A 
ATOM     73  F   UNL A   1      46.099  28.833  33.402  1.00  0.00    -0.203 F 
ATOM     74  C   UNL A   1      46.896  27.094  34.772  1.00  0.00     0.198 A 
ATOM     75  C   UNL A   1      45.371  25.469  35.663  1.00  0.00     0.198 A 
ATOM     76  F   UNL A   1      43.085  25.579  35.127  1.00  0.00    -0.203 F 
ATOM     77  F   UNL A   1      48.147  27.552  34.621  1.00  0.00    -0.200 F 
ATOM     78  C   UNL A   1      46.662  25.961  35.537  1.00  0.00     0.200 A 
ATOM     79  F   UNL A   1      45.140  24.382  36.412  1.00  0.00    -0.200 F 
ATOM     80  F   UNL A   1      47.680  25.337  36.144  1.00  0.00    -0.200 F 
ENDBRANCH  56  70
BRANCH  57  81
ATOM     81  C   UNL A   1      36.857  31.237  29.225  1.00  0.00     0.064 A 
ATOM     82  C   UNL A   1      36.870  32.574  28.802  1.00  0.00     0.173 A 
ATOM     83  C   UNL A   1      35.708  30.479  28.954  1.00  0.00     0.173 A 
ATOM     84  F   UNL A   1      37.933  33.348  29.064  1.00  0.00    -0.203 F 
ATOM     85  C   UNL A   1      35.773  33.133  28.148  1.00  0.00     0.198 A 
ATOM     86  C   UNL A   1      34.624  31.031  28.274  1.00  0.00     0.198 A 
ATOM     87  F   UNL A   1      35.641  29.198  29.343  1.00  0.00    -0.203 F 
ATOM     88  F   UNL A   1      35.794  34.426  27.797  1.00  0.00    -0.200 F 
ATOM     89  C   UNL A   1      34.654  32.360  27.878  1.00  0.00     0.200 A 
ATOM     90  F   UNL A   1      33.549  30.277  28.006  1.00  0.00    -0.200 F 
ATOM     91  F   UNL A   1      33.603  32.897  27.245  1.00  0.00    -0.200 F 
ENDBRANCH  57  81
BRANCH  69  92
ATOM     92  C   UNL A   1      39.422  32.146  35.652  1.00  0.00     0.064 A 
ATOM     93  C   UNL A   1      39.884  33.466  35.760  1.00  0.00     0.173 A 
ATOM     94  C   UNL A   1      38.520  31.688  36.625  1.00  0.00     0.173 A 
ATOM     95  F   UNL A   1      40.757  33.950  34.863  1.00  0.00    -0.203 F 
ATOM     96  C   UNL A   1      39.482  34.282  36.814  1.00  0.00     0.198 A 
ATOM     97  C   UNL A   1      38.091  32.518  37.657  1.00  0.00     0.198 A 
ATOM     98  F   UNL A   1      38.038  30.437  36.565  1.00  0.00    -0.203 F 
ATOM     99  F   UNL A   1      39.976  35.523  36.925  1.00  0.00    -0.200 F 
ATOM    100  C   UNL A   1      38.579  33.811  37.756  1.00  0.00     0.200 A 
ATOM    101  F   UNL A   1      37.205  32.065  38.555  1.00  0.00    -0.200 F 
ATOM    102  F   UNL A   1      38.184  34.602  38.763  1.00  0.00    -0.200 F 
ENDBRANCH  69  92
ENDBRANCH  43  44
ENDBRANCH  36  38
ENDBRANCH  35  36
ENDBRANCH  34  35
ENDBRANCH  33  34
ENDBRANCH  32  33
ENDBRANCH  31  32
ENDBRANCH  30  31
ENDBRANCH  29  30
ENDBRANCH   1  29
TORSDOF 24
ENDMDL
MODEL 2
REMARK VINA RESULT:     -10.8      1.396      2.510
REMARK SMILES COc1ncccc1NS(=O)(=O)c1ccc(Br)c(C(=O)OCCOCCOCCOCCOC(=O)c2ccc(-c3c4nc(c(-c5c(F)c(F)c(F)c(F)c5F)c5ccc([nH]5)c(-c5c(F)c(F)c(F)c(F)c5F)c5nc(c(-c6c(F)c(F)c(F)c(F)c6F)c6ccc3[nH]6)C=C5)C=C4)cc2)c1
REMARK SMILES IDX 26 1 25 2 24 3 23 4 22 5 21 6 19 7 20 8 18 9 13 10 14 11
REMARK SMILES IDX 99 12 15 13 16 14 17 15 10 16 11 17 12 18 9 19 8 21 3 22
REMARK SMILES IDX 4 23 5 24 7 25 6 26 2 27 1 28 27 29 28 30 29 31 30 32 31 33
REMARK SMILES IDX 32 34 33 35 34 36 35 37 36 38 37 39 98 40 38 41 97 42 39 43
REMARK SMILES IDX 40 44 41 45 91 46 42 47 96 48 90 49 92 50 43 51 95 52 89 53
REMARK SMILES IDX 88 54 44 56 76 57 56 58 75 59 57 60 60 61 74 62 93 63 58 64
REMARK SMILES IDX 59 65 73 67 94 68 61 69 45 70 46 71 54 72 47 73 48 74 52 75
REMARK SMILES IDX 55 76 49 77 50 78 53 79 51 80 77 81 78 82 86 83 79 84 80 85
REMARK SMILES IDX 84 86 87 87 81 88 82 89 85 90 83 91 62 92 63 93 71 94 64 95
REMARK SMILES IDX 65 96 69 97 72 98 66 99 67 100 70 101 68 102
REMARK H PARENT 9 20 92 55 60 66
REMARK Flexibility Score: inf
ROOT
ATOM      1  C   UNL A   1      39.888  22.996  26.669  1.00  0.00     0.188 C 
ENDROOT
BRANCH   1   2
ATOM      2  C   UNL A   1      38.507  23.624  26.372  1.00  0.00     0.188 C 
BRANCH   2   3
ATOM      3  O   UNL A   1      37.611  22.804  25.634  1.00  0.00    -0.376 OA
BRANCH   3   4
ATOM      4  C   UNL A   1      36.359  23.372  25.296  1.00  0.00     0.202 C 
BRANCH   4   5
ATOM      5  C   UNL A   1      36.003  23.235  23.817  1.00  0.00     0.261 C 
BRANCH   5   6
ATOM      6  O   UNL A   1      35.211  24.324  23.321  1.00  0.00    -0.460 OA
BRANCH   6   7
ATOM      7  C   UNL A   1      33.880  24.150  23.192  1.00  0.00     0.339 C 
ATOM      8  O   UNL A   1      33.326  23.324  22.489  1.00  0.00    -0.246 OA
BRANCH   7   9
ATOM      9  C   UNL A   1      33.180  25.001  24.195  1.00  0.00     0.075 A 
ATOM     10  C   UNL A   1      32.381  27.230  24.747  1.00  0.00     0.088 A 
ATOM     11  C   UNL A   1      31.681  26.694  25.840  1.00  0.00     0.023 A 
ATOM     12  C   UNL A   1      33.166  26.394  23.948  1.00  0.00     0.039 A 
ATOM     13  C   UNL A   1      31.749  25.332  26.126  1.00  0.00     0.018 A 
ATOM     14  C   UNL A   1      32.491  24.479  25.306  1.00  0.00     0.032 A 
ATOM     15  Br  UNL A   1      32.524  22.651  25.832  1.00  0.00    -0.050 Br
BRANCH  10  16
ATOM     16  S   UNL A   1      32.137  28.968  24.471  1.00  0.00     0.262 S 
ATOM     17  O   UNL A   1      33.431  29.500  24.099  1.00  0.00    -0.201 OA
ATOM     18  O   UNL A   1      31.461  29.485  25.647  1.00  0.00    -0.201 OA
BRANCH  16  19
ATOM     19  N   UNL A   1      31.096  29.355  23.210  1.00  0.00    -0.274 N 
ATOM     20  H   UNL A   1      31.502  29.702  22.382  1.00  0.00     0.180 HD
BRANCH  19  21
ATOM     21  C   UNL A   1      29.671  29.228  23.230  1.00  0.00     0.111 A 
ATOM     22  C   UNL A   1      28.726  30.215  22.967  1.00  0.00     0.238 A 
ATOM     23  N   UNL A   1      27.394  29.999  23.006  1.00  0.00    -0.220 NA
ATOM     24  C   UNL A   1      26.974  28.741  23.257  1.00  0.00     0.115 A 
ATOM     25  C   UNL A   1      29.200  27.919  23.343  1.00  0.00     0.034 A 
ATOM     26  C   UNL A   1      27.833  27.667  23.391  1.00  0.00     0.023 A 
BRANCH  22  27
ATOM     27  O   UNL A   1      29.111  31.523  22.848  1.00  0.00    -0.480 OA
ATOM     28  C   UNL A   1      28.132  32.274  22.146  1.00  0.00     0.280 C 
ENDBRANCH  22  27
ENDBRANCH  19  21
ENDBRANCH  16  19
ENDBRANCH  10  16
ENDBRANCH   7   9
ENDBRANCH   6   7
ENDBRANCH   5   6
ENDBRANCH   4   5
ENDBRANCH   3   4
ENDBRANCH   2   3
ENDBRANCH   1   2
BRANCH   1  29
ATOM     29  O   UNL A   1      40.048  21.934  27.604  1.00  0.00    -0.377 OA
BRANCH  29  30
ATOM     30  C   UNL A   1      41.158  21.058  27.477  1.00  0.00     0.188 C 
BRANCH  30  31
ATOM     31  C   UNL A   1      41.988  21.114  26.175  1.00  0.00     0.188 C 
BRANCH  31  32
ATOM     32  O   UNL A   1      43.356  20.784  26.359  1.00  0.00    -0.376 OA
BRANCH  32  33
ATOM     33  C   UNL A   1      44.261  21.165  25.339  1.00  0.00     0.202 C 
BRANCH  33  34
ATOM     34  C   UNL A   1      45.507  21.960  25.756  1.00  0.00     0.261 C 
BRANCH  34  35
ATOM     35  O   UNL A   1      45.281  23.255  26.332  1.00  0.00    -0.460 OA
BRANCH  35  36
ATOM     36  C   UNL A   1      44.713  24.202  25.549  1.00  0.00     0.338 C 
ATOM     37  O   UNL A   1      44.677  24.240  24.344  1.00  0.00    -0.246 OA
BRANCH  36  38
ATOM     38  C   UNL A   1      43.957  25.105  26.454  1.00  0.00     0.060 A 
ATOM     39  C   UNL A   1      44.265  26.473  26.466  1.00  0.00     0.016 A 
ATOM     40  C   UNL A   1      42.924  24.605  27.249  1.00  0.00     0.016 A 
ATOM     41  C   UNL A   1      43.550  27.342  27.294  1.00  0.00     0.010 A 
ATOM     42  C   UNL A   1      42.229  25.470  28.096  1.00  0.00     0.010 A 
ATOM     43  C   UNL A   1      42.560  26.836  28.146  1.00  0.00    -0.014 A 
BRANCH  43  44
ATOM     44  C   UNL A   1      42.026  27.681  29.240  1.00  0.00     0.031 A 
ATOM     45  C   UNL A   1      42.749  27.664  30.558  1.00  0.00     0.074 A 
ATOM     46  C   UNL A   1      40.935  28.448  29.077  1.00  0.00     0.049 A 
ATOM     47  N   UNL A   1      42.451  28.261  31.684  1.00  0.00    -0.248 NA
ATOM     48  C   UNL A   1      43.976  26.853  30.612  1.00  0.00     0.031 C 
ATOM     49  C   UNL A   1      40.173  28.582  27.839  1.00  0.00     0.029 A 
ATOM     50  N   UNL A   1      40.275  29.254  29.971  1.00  0.00    -0.354 N 
ATOM     51  C   UNL A   1      43.448  27.891  32.578  1.00  0.00     0.074 A 
ATOM     52  C   UNL A   1      44.338  26.993  31.877  1.00  0.00     0.031 C 
ATOM     53  C   UNL A   1      39.138  29.414  28.055  1.00  0.00     0.029 A 
ATOM     54  C   UNL A   1      39.146  29.839  29.455  1.00  0.00     0.049 A 
ATOM     55  H   UNL A   1      40.581  29.397  30.895  1.00  0.00     0.167 HD
ATOM     56  C   UNL A   1      43.611  28.276  33.866  1.00  0.00     0.037 A 
ATOM     57  C   UNL A   1      38.217  30.611  30.054  1.00  0.00     0.037 A 
ATOM     58  C   UNL A   1      42.716  29.162  34.562  1.00  0.00     0.049 A 
ATOM     59  C   UNL A   1      38.372  30.957  31.515  1.00  0.00     0.074 A 
ATOM     60  C   UNL A   1      42.800  29.625  35.863  1.00  0.00     0.029 A 
ATOM     61  N   UNL A   1      41.563  29.707  34.015  1.00  0.00    -0.354 N 
ATOM     62  N   UNL A   1      39.330  30.630  32.349  1.00  0.00    -0.248 NA
ATOM     63  C   UNL A   1      37.314  31.780  32.116  1.00  0.00     0.031 C 
ATOM     64  C   UNL A   1      41.665  30.400  36.124  1.00  0.00     0.029 A 
ATOM     65  C   UNL A   1      40.910  30.478  34.963  1.00  0.00     0.049 A 
ATOM     66  H   UNL A   1      41.256  29.567  33.090  1.00  0.00     0.167 HD
ATOM     67  C   UNL A   1      39.009  31.234  33.558  1.00  0.00     0.074 A 
ATOM     68  C   UNL A   1      37.772  31.956  33.347  1.00  0.00     0.031 C 
ATOM     69  C   UNL A   1      39.681  31.197  34.737  1.00  0.00     0.037 A 
BRANCH  56  70
ATOM     70  C   UNL A   1      44.780  27.700  34.612  1.00  0.00     0.064 A 
ATOM     71  C   UNL A   1      46.022  28.353  34.662  1.00  0.00     0.173 A 
ATOM     72  C   UNL A   1      44.656  26.479  35.292  1.00  0.00     0.173 A 
ATOM     73  F   UNL A   1      46.201  29.516  34.016  1.00  0.00    -0.203 F 
ATOM     74  C   UNL A   1      47.103  27.787  35.332  1.00  0.00     0.198 A 
ATOM     75  C   UNL A   1      45.728  25.933  35.991  1.00  0.00     0.198 A 
ATOM     76  F   UNL A   1      43.491  25.813  35.279  1.00  0.00    -0.203 F 
ATOM     77  F   UNL A   1      48.296  28.398  35.313  1.00  0.00    -0.200 F 
ATOM     78  C   UNL A   1      46.955  26.581  36.001  1.00  0.00     0.200 A 
ATOM     79  F   UNL A   1      45.578  24.775  36.647  1.00  0.00    -0.200 F 
ATOM     80  F   UNL A   1      47.995  26.039  36.648  1.00  0.00    -0.200 F 
ENDBRANCH  56  70
BRANCH  57  81
ATOM     81  C   UNL A   1      37.050  31.107  29.276  1.00  0.00     0.064 A 
ATOM     82  C   UNL A   1      35.996  30.249  28.929  1.00  0.00     0.173 A 
ATOM     83  C   UNL A   1      36.970  32.442  28.851  1.00  0.00     0.173 A 
ATOM     84  F   UNL A   1      36.040  28.957  29.286  1.00  0.00    -0.203 F 
ATOM     85  C   UNL A   1      34.916  30.704  28.174  1.00  0.00     0.198 A 
ATOM     86  C   UNL A   1      35.876  32.902  28.122  1.00  0.00     0.198 A 
ATOM     87  F   UNL A   1      37.954  33.302  29.150  1.00  0.00    -0.203 F 
ATOM     88  F   UNL A   1      33.947  29.851  27.816  1.00  0.00    -0.200 F 
ATOM     89  C   UNL A   1      34.853  32.031  27.778  1.00  0.00     0.200 A 
ATOM     90  F   UNL A   1      35.814  34.188  27.750  1.00  0.00    -0.200 F 
ATOM     91  F   UNL A   1      33.811  32.468  27.057  1.00  0.00    -0.200 F 
ENDBRANCH  57  81
BRANCH  69  92
ATOM     92  C   UNL A   1      39.121  31.996  35.882  1.00  0.00     0.064 A 
ATOM     93  C   UNL A   1      38.248  31.431  36.824  1.00  0.00     0.173 A 
ATOM     94  C   UNL A   1      39.504  33.334  36.065  1.00  0.00     0.173 A 
ATOM     95  F   UNL A   1      37.840  30.160  36.689  1.00  0.00    -0.203 F 
ATOM     96  C   UNL A   1      37.758  32.185  37.888  1.00  0.00     0.198 A 
ATOM     97  C   UNL A   1      39.041  34.073  37.150  1.00  0.00     0.198 A 
ATOM     98  F   UNL A   1      40.345  33.921  35.200  1.00  0.00    -0.203 F 
ATOM     99  F   UNL A   1      36.885  31.639  38.746  1.00  0.00    -0.200 F 
ATOM    100  C   UNL A   1      38.161  33.501  38.055  1.00  0.00     0.200 A 
ATOM    101  F   UNL A   1      39.447  35.339  37.319  1.00  0.00    -0.200 F 
ATOM    102  F   UNL A   1      37.698  34.220  39.086  1.00  0.00    -0.200 F 
ENDBRANCH  69  92
ENDBRANCH  43  44
ENDBRANCH  36  38
ENDBRANCH  35  36
ENDBRANCH  34  35
ENDBRANCH  33  34
ENDBRANCH  32  33
ENDBRANCH  31  32
ENDBRANCH  30  31
ENDBRANCH  29  30
ENDBRANCH   1  29
TORSDOF 24
ENDMDL
MODEL 3
REMARK VINA RESULT:     -10.7      1.135      2.078
REMARK SMILES COc1ncccc1NS(=O)(=O)c1ccc(Br)c(C(=O)OCCOCCOCCOCCOC(=O)c2ccc(-c3c4nc(c(-c5c(F)c(F)c(F)c(F)c5F)c5ccc([nH]5)c(-c5c(F)c(F)c(F)c(F)c5F)c5nc(c(-c6c(F)c(F)c(F)c(F)c6F)c6ccc3[nH]6)C=C5)C=C4)cc2)c1
REMARK SMILES IDX 26 1 25 2 24 3 23 4 22 5 21 6 19 7 20 8 18 9 13 10 14 11
REMARK SMILES IDX 99 12 15 13 16 14 17 15 10 16 11 17 12 18 9 19 8 21 3 22
REMARK SMILES IDX 4 23 5 24 7 25 6 26 2 27 1 28 27 29 28 30 29 31 30 32 31 33
REMARK SMILES IDX 32 34 33 35 34 36 35 37 36 38 37 39 98 40 38 41 97 42 39 43
REMARK SMILES IDX 40 44 41 45 91 46 42 47 96 48 90 49 92 50 43 51 95 52 89 53
REMARK SMILES IDX 88 54 44 56 76 57 56 58 75 59 57 60 60 61 74 62 93 63 58 64
REMARK SMILES IDX 59 65 73 67 94 68 61 69 45 70 46 71 54 72 47 73 48 74 52 75
REMARK SMILES IDX 55 76 49 77 50 78 53 79 51 80 77 81 78 82 86 83 79 84 80 85
REMARK SMILES IDX 84 86 87 87 81 88 82 89 85 90 83 91 62 92 63 93 71 94 64 95
REMARK SMILES IDX 65 96 69 97 72 98 66 99 67 100 70 101 68 102
REMARK H PARENT 9 20 92 55 60 66
REMARK Flexibility Score: inf
ROOT
ATOM      1  C   UNL A   1      40.690  20.077  26.490  1.00  0.00     0.188 C 
ENDROOT
BRANCH   1   2
ATOM      2  C   UNL A   1      39.416  20.812  26.015  1.00  0.00     0.188 C 
BRANCH   2   3
ATOM      3  O   UNL A   1      38.614  20.102  25.080  1.00  0.00    -0.376 OA
BRANCH   3   4
ATOM      4  C   UNL A   1      37.228  20.388  25.083  1.00  0.00     0.202 C 
BRANCH   4   5
ATOM      5  C   UNL A   1      36.891  21.795  24.591  1.00  0.00     0.261 C 
BRANCH   5   6
ATOM      6  O   UNL A   1      35.519  22.155  24.802  1.00  0.00    -0.460 OA
BRANCH   6   7
ATOM      7  C   UNL A   1      35.206  23.461  24.934  1.00  0.00     0.339 C 
ATOM      8  O   UNL A   1      35.886  24.405  24.571  1.00  0.00    -0.246 OA
BRANCH   7   9
ATOM      9  C   UNL A   1      33.804  23.577  25.424  1.00  0.00     0.075 A 
ATOM     10  C   UNL A   1      31.568  24.417  24.968  1.00  0.00     0.088 A 
ATOM     11  C   UNL A   1      31.083  23.681  26.061  1.00  0.00     0.023 A 
ATOM     12  C   UNL A   1      32.934  24.402  24.672  1.00  0.00     0.039 A 
ATOM     13  C   UNL A   1      31.950  22.922  26.844  1.00  0.00     0.018 A 
ATOM     14  C   UNL A   1      33.309  22.860  26.529  1.00  0.00     0.032 A 
ATOM     15  Br  UNL A   1      34.382  21.814  27.702  1.00  0.00    -0.050 Br
BRANCH  10  16
ATOM     16  S   UNL A   1      30.331  25.275  24.026  1.00  0.00     0.262 S 
ATOM     17  O   UNL A   1      29.340  25.725  24.980  1.00  0.00    -0.201 OA
ATOM     18  O   UNL A   1      29.936  24.384  22.949  1.00  0.00    -0.201 OA
BRANCH  16  19
ATOM     19  N   UNL A   1      30.865  26.654  23.226  1.00  0.00    -0.274 N 
ATOM     20  H   UNL A   1      31.216  26.535  22.312  1.00  0.00     0.180 HD
BRANCH  19  21
ATOM     21  C   UNL A   1      30.859  27.984  23.751  1.00  0.00     0.111 A 
ATOM     22  C   UNL A   1      30.084  29.060  23.329  1.00  0.00     0.238 A 
ATOM     23  N   UNL A   1      30.143  30.285  23.893  1.00  0.00    -0.220 NA
ATOM     24  C   UNL A   1      30.958  30.442  24.958  1.00  0.00     0.115 A 
ATOM     25  C   UNL A   1      31.576  28.150  24.938  1.00  0.00     0.034 A 
ATOM     26  C   UNL A   1      31.658  29.402  25.538  1.00  0.00     0.023 A 
BRANCH  22  27
ATOM     27  O   UNL A   1      29.357  28.975  22.173  1.00  0.00    -0.480 OA
ATOM     28  C   UNL A   1      29.090  30.267  21.650  1.00  0.00     0.280 C 
ENDBRANCH  22  27
ENDBRANCH  19  21
ENDBRANCH  16  19
ENDBRANCH  10  16
ENDBRANCH   7   9
ENDBRANCH   6   7
ENDBRANCH   5   6
ENDBRANCH   4   5
ENDBRANCH   3   4
ENDBRANCH   2   3
ENDBRANCH   1   2
BRANCH   1  29
ATOM     29  O   UNL A   1      41.414  19.197  25.636  1.00  0.00    -0.377 OA
BRANCH  29  30
ATOM     30  C   UNL A   1      42.553  18.519  26.144  1.00  0.00     0.188 C 
BRANCH  30  31
ATOM     31  C   UNL A   1      43.909  18.737  25.437  1.00  0.00     0.188 C 
BRANCH  31  32
ATOM     32  O   UNL A   1      43.875  19.749  24.442  1.00  0.00    -0.376 OA
BRANCH  32  33
ATOM     33  C   UNL A   1      44.488  20.988  24.750  1.00  0.00     0.202 C 
BRANCH  33  34
ATOM     34  C   UNL A   1      43.778  21.898  25.763  1.00  0.00     0.261 C 
BRANCH  34  35
ATOM     35  O   UNL A   1      43.111  23.053  25.233  1.00  0.00    -0.460 OA
BRANCH  35  36
ATOM     36  C   UNL A   1      43.805  24.215  25.183  1.00  0.00     0.338 C 
ATOM     37  O   UNL A   1      44.688  24.514  24.417  1.00  0.00    -0.246 OA
BRANCH  36  38
ATOM     38  C   UNL A   1      43.144  25.147  26.131  1.00  0.00     0.060 A 
ATOM     39  C   UNL A   1      43.579  26.478  26.194  1.00  0.00     0.016 A 
ATOM     40  C   UNL A   1      42.073  24.714  26.915  1.00  0.00     0.016 A 
ATOM     41  C   UNL A   1      42.954  27.376  27.062  1.00  0.00     0.010 A 
ATOM     42  C   UNL A   1      41.468  25.606  27.803  1.00  0.00     0.010 A 
ATOM     43  C   UNL A   1      41.926  26.932  27.903  1.00  0.00    -0.014 A 
BRANCH  43  44
ATOM     44  C   UNL A   1      41.481  27.778  29.035  1.00  0.00     0.031 A 
ATOM     45  C   UNL A   1      42.239  27.676  30.330  1.00  0.00     0.074 A 
ATOM     46  C   UNL A   1      40.440  28.619  28.926  1.00  0.00     0.049 A 
ATOM     47  N   UNL A   1      42.014  28.258  31.480  1.00  0.00    -0.248 NA
ATOM     48  C   UNL A   1      43.410  26.784  30.325  1.00  0.00     0.031 C 
ATOM     49  C   UNL A   1      39.653  28.839  27.716  1.00  0.00     0.029 A 
ATOM     50  N   UNL A   1      39.860  29.441  29.861  1.00  0.00    -0.354 N 
ATOM     51  C   UNL A   1      43.008  27.799  32.333  1.00  0.00     0.074 A 
ATOM     52  C   UNL A   1      43.816  26.864  31.582  1.00  0.00     0.031 C 
ATOM     53  C   UNL A   1      38.682  29.731  27.985  1.00  0.00     0.029 A 
ATOM     54  C   UNL A   1      38.759  30.114  29.395  1.00  0.00     0.049 A 
ATOM     55  H   UNL A   1      40.202  29.537  30.779  1.00  0.00     0.167 HD
ATOM     56  C   UNL A   1      43.233  28.134  33.626  1.00  0.00     0.037 A 
ATOM     57  C   UNL A   1      37.901  30.928  30.042  1.00  0.00     0.037 A 
ATOM     58  C   UNL A   1      42.420  29.057  34.372  1.00  0.00     0.049 A 
ATOM     59  C   UNL A   1      38.119  31.220  31.507  1.00  0.00     0.074 A 
ATOM     60  C   UNL A   1      42.571  29.476  35.682  1.00  0.00     0.029 A 
ATOM     61  N   UNL A   1      41.290  29.692  33.875  1.00  0.00    -0.354 N 
ATOM     62  N   UNL A   1      39.077  30.808  32.302  1.00  0.00    -0.248 NA
ATOM     63  C   UNL A   1      37.136  32.094  32.161  1.00  0.00     0.031 C 
ATOM     64  C   UNL A   1      41.498  30.316  35.997  1.00  0.00     0.029 A 
ATOM     65  C   UNL A   1      40.717  30.476  34.863  1.00  0.00     0.049 A 
ATOM     66  H   UNL A   1      40.949  29.600  32.956  1.00  0.00     0.167 HD
ATOM     67  C   UNL A   1      38.832  31.396  33.537  1.00  0.00     0.074 A 
ATOM     68  C   UNL A   1      37.640  32.203  33.382  1.00  0.00     0.031 C 
ATOM     69  C   UNL A   1      39.532  31.281  34.693  1.00  0.00     0.037 A 
BRANCH  56  70
ATOM     70  C   UNL A   1      44.382  27.462  34.321  1.00  0.00     0.064 A 
ATOM     71  C   UNL A   1      44.232  26.232  34.981  1.00  0.00     0.173 A 
ATOM     72  C   UNL A   1      45.654  28.055  34.323  1.00  0.00     0.173 A 
ATOM     73  F   UNL A   1      43.034  25.629  35.024  1.00  0.00    -0.203 F 
ATOM     74  C   UNL A   1      45.302  25.641  35.647  1.00  0.00     0.198 A 
ATOM     75  C   UNL A   1      46.730  27.444  34.959  1.00  0.00     0.198 A 
ATOM     76  F   UNL A   1      45.854  29.229  33.706  1.00  0.00    -0.203 F 
ATOM     77  F   UNL A   1      45.120  24.498  36.323  1.00  0.00    -0.200 F 
ATOM     78  C   UNL A   1      46.552  26.243  35.631  1.00  0.00     0.200 A 
ATOM     79  F   UNL A   1      47.939  28.022  34.931  1.00  0.00    -0.200 F 
ATOM     80  F   UNL A   1      47.582  25.672  36.270  1.00  0.00    -0.200 F 
ENDBRANCH  56  70
BRANCH  57  81
ATOM     81  C   UNL A   1      36.747  31.522  29.314  1.00  0.00     0.064 A 
ATOM     82  C   UNL A   1      36.715  32.889  29.004  1.00  0.00     0.173 A 
ATOM     83  C   UNL A   1      35.647  30.740  28.929  1.00  0.00     0.173 A 
ATOM     84  F   UNL A   1      37.728  33.684  29.378  1.00  0.00    -0.203 F 
ATOM     85  C   UNL A   1      35.621  33.453  28.350  1.00  0.00     0.198 A 
ATOM     86  C   UNL A   1      34.568  31.300  28.249  1.00  0.00     0.198 A 
ATOM     87  F   UNL A   1      35.624  29.429  29.208  1.00  0.00    -0.203 F 
ATOM     88  F   UNL A   1      35.595  34.771  28.108  1.00  0.00    -0.200 F 
ATOM     89  C   UNL A   1      34.552  32.658  27.966  1.00  0.00     0.200 A 
ATOM     90  F   UNL A   1      33.542  30.525  27.870  1.00  0.00    -0.200 F 
ATOM     91  F   UNL A   1      33.504  33.201  27.332  1.00  0.00    -0.200 F 
ENDBRANCH  57  81
BRANCH  69  92
ATOM     92  C   UNL A   1      39.060  32.082  35.876  1.00  0.00     0.064 A 
ATOM     93  C   UNL A   1      38.240  31.525  36.869  1.00  0.00     0.173 A 
ATOM     94  C   UNL A   1      39.475  33.412  36.040  1.00  0.00     0.173 A 
ATOM     95  F   UNL A   1      37.804  30.262  36.754  1.00  0.00    -0.203 F 
ATOM     96  C   UNL A   1      37.831  32.280  37.966  1.00  0.00     0.198 A 
ATOM     97  C   UNL A   1      39.095  34.152  37.157  1.00  0.00     0.198 A 
ATOM     98  F   UNL A   1      40.268  33.992  35.126  1.00  0.00    -0.203 F 
ATOM     99  F   UNL A   1      37.006  31.744  38.875  1.00  0.00    -0.200 F 
ATOM    100  C   UNL A   1      38.266  33.589  38.113  1.00  0.00     0.200 A 
ATOM    101  F   UNL A   1      39.531  35.411  37.305  1.00  0.00    -0.200 F 
ATOM    102  F   UNL A   1      37.880  34.309  39.175  1.00  0.00    -0.200 F 
ENDBRANCH  69  92
ENDBRANCH  43  44
ENDBRANCH  36  38
ENDBRANCH  35  36
ENDBRANCH  34  35
ENDBRANCH  33  34
ENDBRANCH  32  33
ENDBRANCH  31  32
ENDBRANCH  30  31
ENDBRANCH  29  30
ENDBRANCH   1  29
TORSDOF 24
ENDMDL
