MODEL 1
REMARK VINA RESULT:     -11.7      0.000      0.000
REMARK SMILES COc1cc(Cl)c(C)cc1N1C(=O)C[C@H](Nc2cc(C(=O)OCCOCCOCCOCCOC(=O)c3ccc(-c4c5nc(c(-c6c(F)c(F)c(F)c(F)c6F)c6ccc([nH]6)c(-c6c(F)c(F)c(F)c(F)c6F)c6nc(c(-c7c(F)c(F)c(F)c(F)c7F)c7ccc4[nH]7)C=C6)C=C5)cc3)ccc2C)C1=O
REMARK SMILES IDX 27 1 26 2 25 3 24 4 23 5 22 6 20 7 21 8 19 9 17 10 18 11
REMARK SMILES IDX 102 12 101 13 103 14 100 15 16 16 15 18 11 19 12 20 104 21
REMARK SMILES IDX 13 22 14 23 105 24 10 25 3 26 4 27 5 28 9 29 6 30 7 31 8 32
REMARK SMILES IDX 2 33 1 34 28 35 29 36 30 37 31 38 32 39 33 40 34 41 35 42
REMARK SMILES IDX 36 43 37 44 38 45 99 46 39 47 98 48 40 49 41 50 42 51 92 52
REMARK SMILES IDX 43 53 97 54 91 55 93 56 44 57 96 58 90 59 89 60 45 62 77 63
REMARK SMILES IDX 57 64 76 65 58 66 61 67 75 68 94 69 59 70 60 71 74 73 95 74
REMARK SMILES IDX 62 75 46 76 47 77 55 78 48 79 49 80 53 81 56 82 50 83 51 84
REMARK SMILES IDX 54 85 52 86 78 87 79 88 87 89 80 90 81 91 85 92 88 93 82 94
REMARK SMILES IDX 83 95 86 96 84 97 63 98 64 99 72 100 65 101 66 102 70 103
REMARK SMILES IDX 73 104 67 105 68 106 71 107 69 108
REMARK H PARENT 16 17 93 61 61 72
REMARK Flexibility Score: inf
ROOT
ATOM      1  C   UNL A   1      41.213  22.622  27.025  1.00  0.00     0.188 C 
ENDROOT
BRANCH   1   2
ATOM      2  C   UNL A   1      39.727  22.937  26.795  1.00  0.00     0.188 C 
BRANCH   2   3
ATOM      3  O   UNL A   1      38.905  22.028  26.081  1.00  0.00    -0.376 OA
BRANCH   3   4
ATOM      4  C   UNL A   1      37.790  22.607  25.419  1.00  0.00     0.202 C 
BRANCH   4   5
ATOM      5  C   UNL A   1      37.031  23.701  26.146  1.00  0.00     0.261 C 
BRANCH   5   6
ATOM      6  O   UNL A   1      35.662  23.692  25.760  1.00  0.00    -0.460 OA
BRANCH   6   7
ATOM      7  C   UNL A   1      35.027  22.540  26.057  1.00  0.00     0.338 C 
ATOM      8  O   UNL A   1      34.884  22.020  27.140  1.00  0.00    -0.246 OA
BRANCH   7   9
ATOM      9  C   UNL A   1      34.206  22.235  24.878  1.00  0.00     0.062 A 
ATOM     10  C   UNL A   1      33.003  22.853  22.865  1.00  0.00     0.038 A 
ATOM     11  C   UNL A   1      33.885  23.183  23.900  1.00  0.00     0.041 A 
ATOM     12  C   UNL A   1      32.492  21.537  22.825  1.00  0.00    -0.028 A 
ATOM     13  C   UNL A   1      32.749  20.633  23.871  1.00  0.00     0.006 A 
ATOM     14  C   UNL A   1      31.778  20.963  21.635  1.00  0.00     0.046 C 
ATOM     15  C   UNL A   1      33.611  20.977  24.892  1.00  0.00     0.016 A 
BRANCH  10  16
ATOM     16  N   UNL A   1      32.677  23.785  21.891  1.00  0.00    -0.373 N 
ATOM     17  H   UNL A   1      33.097  23.717  21.003  1.00  0.00     0.161 HD
BRANCH  16  18
ATOM     18  C   UNL A   1      31.727  24.862  22.150  1.00  0.00     0.179 C 
ATOM     19  N   UNL A   1      31.619  26.428  23.889  1.00  0.00    -0.245 N 
ATOM     20  C   UNL A   1      30.682  25.483  24.208  1.00  0.00     0.236 C 
ATOM     21  C   UNL A   1      32.362  26.095  22.780  1.00  0.00     0.256 C 
ATOM     22  O   UNL A   1      29.901  25.490  25.149  1.00  0.00    -0.274 OA
ATOM     23  C   UNL A   1      30.703  24.402  23.174  1.00  0.00     0.136 C 
ATOM     24  O   UNL A   1      33.367  26.656  22.365  1.00  0.00    -0.272 OA
BRANCH  19  25
ATOM     25  C   UNL A   1      31.766  27.633  24.605  1.00  0.00     0.094 A 
ATOM     26  C   UNL A   1      31.006  28.770  24.286  1.00  0.00     0.144 A 
ATOM     27  C   UNL A   1      31.189  29.959  24.999  1.00  0.00     0.069 A 
ATOM     28  C   UNL A   1      32.124  30.022  26.036  1.00  0.00     0.047 A 
ATOM     29  C   UNL A   1      32.678  27.699  25.671  1.00  0.00     0.035 A 
ATOM     30  Cl  UNL A   1      32.297  31.522  26.877  1.00  0.00    -0.084 Cl
ATOM     31  C   UNL A   1      32.893  28.899  26.374  1.00  0.00    -0.030 A 
ATOM     32  C   UNL A   1      33.953  28.955  27.440  1.00  0.00     0.046 C 
BRANCH  26  33
ATOM     33  O   UNL A   1      30.068  28.806  23.286  1.00  0.00    -0.495 OA
ATOM     34  C   UNL A   1      29.507  30.104  23.093  1.00  0.00     0.278 C 
ENDBRANCH  26  33
ENDBRANCH  19  25
ENDBRANCH  16  18
ENDBRANCH  10  16
ENDBRANCH   7   9
ENDBRANCH   6   7
ENDBRANCH   5   6
ENDBRANCH   4   5
ENDBRANCH   3   4
ENDBRANCH   2   3
ENDBRANCH   1   2
BRANCH   1  35
ATOM     35  O   UNL A   1      41.559  21.501  27.820  1.00  0.00    -0.377 OA
BRANCH  35  36
ATOM     36  C   UNL A   1      42.274  20.426  27.215  1.00  0.00     0.188 C 
BRANCH  36  37
ATOM     37  C   UNL A   1      41.598  19.536  26.177  1.00  0.00     0.188 C 
BRANCH  37  38
ATOM     38  O   UNL A   1      42.481  19.387  25.067  1.00  0.00    -0.376 OA
BRANCH  38  39
ATOM     39  C   UNL A   1      43.781  18.890  25.371  1.00  0.00     0.202 C 
BRANCH  39  40
ATOM     40  C   UNL A   1      44.787  19.024  24.218  1.00  0.00     0.261 C 
BRANCH  40  41
ATOM     41  O   UNL A   1      45.670  20.140  24.458  1.00  0.00    -0.460 OA
BRANCH  41  42
ATOM     42  C   UNL A   1      45.172  21.363  24.129  1.00  0.00     0.338 C 
ATOM     43  O   UNL A   1      44.485  21.600  23.150  1.00  0.00    -0.246 OA
BRANCH  42  44
ATOM     44  C   UNL A   1      45.788  22.409  24.994  1.00  0.00     0.060 A 
ATOM     45  C   UNL A   1      45.461  22.501  26.357  1.00  0.00     0.016 A 
ATOM     46  C   UNL A   1      46.430  23.471  24.377  1.00  0.00     0.016 A 
ATOM     47  C   UNL A   1      45.596  23.725  27.033  1.00  0.00     0.010 A 
ATOM     48  C   UNL A   1      46.422  24.694  25.008  1.00  0.00     0.010 A 
ATOM     49  C   UNL A   1      45.963  24.862  26.323  1.00  0.00    -0.014 A 
BRANCH  49  50
ATOM     50  C   UNL A   1      45.775  26.268  26.759  1.00  0.00     0.031 A 
ATOM     51  C   UNL A   1      44.383  26.823  26.745  1.00  0.00     0.074 A 
ATOM     52  C   UNL A   1      46.763  26.829  27.505  1.00  0.00     0.049 A 
ATOM     53  N   UNL A   1      43.990  27.910  27.312  1.00  0.00    -0.248 NA
ATOM     54  C   UNL A   1      43.268  26.132  26.098  1.00  0.00     0.031 C 
ATOM     55  C   UNL A   1      46.652  27.802  28.604  1.00  0.00     0.029 A 
ATOM     56  N   UNL A   1      48.134  26.573  27.471  1.00  0.00    -0.354 N 
ATOM     57  C   UNL A   1      42.602  27.907  27.393  1.00  0.00     0.074 A 
ATOM     58  C   UNL A   1      42.209  26.799  26.566  1.00  0.00     0.031 C 
ATOM     59  C   UNL A   1      47.864  28.116  29.088  1.00  0.00     0.029 A 
ATOM     60  C   UNL A   1      48.812  27.620  28.126  1.00  0.00     0.049 A 
ATOM     61  H   UNL A   1      48.560  25.788  27.057  1.00  0.00     0.167 HD
ATOM     62  C   UNL A   1      41.993  28.783  28.261  1.00  0.00     0.037 A 
ATOM     63  C   UNL A   1      49.550  28.480  27.361  1.00  0.00     0.037 A 
ATOM     64  C   UNL A   1      42.973  29.804  28.708  1.00  0.00     0.049 A 
ATOM     65  C   UNL A   1      48.799  29.803  27.157  1.00  0.00     0.074 A 
ATOM     66  C   UNL A   1      43.437  30.263  29.929  1.00  0.00     0.029 A 
ATOM     67  N   UNL A   1      43.837  30.370  27.758  1.00  0.00    -0.354 N 
ATOM     68  N   UNL A   1      47.485  29.923  27.170  1.00  0.00    -0.248 NA
ATOM     69  C   UNL A   1      49.459  31.107  27.174  1.00  0.00     0.031 C 
ATOM     70  C   UNL A   1      44.695  30.905  29.715  1.00  0.00     0.029 A 
ATOM     71  C   UNL A   1      44.937  30.956  28.349  1.00  0.00     0.049 A 
ATOM     72  H   UNL A   1      43.676  30.351  26.787  1.00  0.00     0.167 HD
ATOM     73  C   UNL A   1      47.136  31.244  27.312  1.00  0.00     0.074 A 
ATOM     74  C   UNL A   1      48.409  31.944  27.269  1.00  0.00     0.031 C 
ATOM     75  C   UNL A   1      45.876  31.733  27.550  1.00  0.00     0.037 A 
BRANCH  62  76
ATOM     76  C   UNL A   1      40.587  28.619  28.890  1.00  0.00     0.064 A 
ATOM     77  C   UNL A   1      39.415  28.985  28.177  1.00  0.00     0.173 A 
ATOM     78  C   UNL A   1      40.310  28.202  30.214  1.00  0.00     0.173 A 
ATOM     79  F   UNL A   1      39.463  29.328  26.884  1.00  0.00    -0.203 F 
ATOM     80  C   UNL A   1      38.128  28.999  28.748  1.00  0.00     0.198 A 
ATOM     81  C   UNL A   1      39.019  28.173  30.772  1.00  0.00     0.198 A 
ATOM     82  F   UNL A   1      41.266  27.809  31.055  1.00  0.00    -0.203 F 
ATOM     83  F   UNL A   1      37.078  29.408  28.020  1.00  0.00    -0.200 F 
ATOM     84  C   UNL A   1      37.929  28.589  30.046  1.00  0.00     0.200 A 
ATOM     85  F   UNL A   1      38.851  27.738  32.031  1.00  0.00    -0.200 F 
ATOM     86  F   UNL A   1      36.702  28.581  30.588  1.00  0.00    -0.200 F 
ENDBRANCH  62  76
BRANCH  63  87
ATOM     87  C   UNL A   1      50.507  27.667  26.528  1.00  0.00     0.064 A 
ATOM     88  C   UNL A   1      50.234  27.781  25.137  1.00  0.00     0.173 A 
ATOM     89  C   UNL A   1      51.862  27.563  26.887  1.00  0.00     0.173 A 
ATOM     90  F   UNL A   1      48.960  27.830  24.718  1.00  0.00    -0.203 F 
ATOM     91  C   UNL A   1      51.233  28.138  24.229  1.00  0.00     0.198 A 
ATOM     92  C   UNL A   1      52.871  27.840  25.947  1.00  0.00     0.198 A 
ATOM     93  F   UNL A   1      52.213  27.420  28.173  1.00  0.00    -0.203 F 
ATOM     94  F   UNL A   1      50.904  28.552  22.996  1.00  0.00    -0.200 F 
ATOM     95  C   UNL A   1      52.547  28.219  24.651  1.00  0.00     0.200 A 
ATOM     96  F   UNL A   1      54.153  27.900  26.337  1.00  0.00    -0.200 F 
ATOM     97  F   UNL A   1      53.483  28.739  23.842  1.00  0.00    -0.200 F 
ENDBRANCH  63  87
BRANCH  75  98
ATOM     98  C   UNL A   1      45.393  33.096  27.079  1.00  0.00     0.064 A 
ATOM     99  C   UNL A   1      44.432  33.251  26.069  1.00  0.00     0.173 A 
ATOM    100  C   UNL A   1      45.709  34.283  27.797  1.00  0.00     0.173 A 
ATOM    101  F   UNL A   1      43.947  32.200  25.395  1.00  0.00    -0.203 F 
ATOM    102  C   UNL A   1      43.881  34.494  25.757  1.00  0.00     0.198 A 
ATOM    103  C   UNL A   1      45.104  35.507  27.527  1.00  0.00     0.198 A 
ATOM    104  F   UNL A   1      46.579  34.298  28.816  1.00  0.00    -0.203 F 
ATOM    105  F   UNL A   1      43.001  34.588  24.751  1.00  0.00    -0.200 F 
ATOM    106  C   UNL A   1      44.204  35.617  26.493  1.00  0.00     0.200 A 
ATOM    107  F   UNL A   1      45.380  36.569  28.298  1.00  0.00    -0.200 F 
ATOM    108  F   UNL A   1      43.630  36.796  26.222  1.00  0.00    -0.200 F 
ENDBRANCH  75  98
ENDBRANCH  49  50
ENDBRANCH  42  44
ENDBRANCH  41  42
ENDBRANCH  40  41
ENDBRANCH  39  40
ENDBRANCH  38  39
ENDBRANCH  37  38
ENDBRANCH  36  37
ENDBRANCH  35  36
ENDBRANCH   1  35
TORSDOF 24
ENDMDL
MODEL 2
REMARK VINA RESULT:     -10.6      5.130      8.034
REMARK SMILES COc1cc(Cl)c(C)cc1N1C(=O)C[C@H](Nc2cc(C(=O)OCCOCCOCCOCCOC(=O)c3ccc(-c4c5nc(c(-c6c(F)c(F)c(F)c(F)c6F)c6ccc([nH]6)c(-c6c(F)c(F)c(F)c(F)c6F)c6nc(c(-c7c(F)c(F)c(F)c(F)c7F)c7ccc4[nH]7)C=C6)C=C5)cc3)ccc2C)C1=O
REMARK SMILES IDX 27 1 26 2 25 3 24 4 23 5 22 6 20 7 21 8 19 9 17 10 18 11
REMARK SMILES IDX 102 12 101 13 103 14 100 15 16 16 15 18 11 19 12 20 104 21
REMARK SMILES IDX 13 22 14 23 105 24 10 25 3 26 4 27 5 28 9 29 6 30 7 31 8 32
REMARK SMILES IDX 2 33 1 34 28 35 29 36 30 37 31 38 32 39 33 40 34 41 35 42
REMARK SMILES IDX 36 43 37 44 38 45 99 46 39 47 98 48 40 49 41 50 42 51 92 52
REMARK SMILES IDX 43 53 97 54 91 55 93 56 44 57 96 58 90 59 89 60 45 62 77 63
REMARK SMILES IDX 57 64 76 65 58 66 61 67 75 68 94 69 59 70 60 71 74 73 95 74
REMARK SMILES IDX 62 75 46 76 47 77 55 78 48 79 49 80 53 81 56 82 50 83 51 84
REMARK SMILES IDX 54 85 52 86 78 87 79 88 87 89 80 90 81 91 85 92 88 93 82 94
REMARK SMILES IDX 83 95 86 96 84 97 63 98 64 99 72 100 65 101 66 102 70 103
REMARK SMILES IDX 73 104 67 105 68 106 71 107 69 108
REMARK H PARENT 16 17 93 61 61 72
REMARK Flexibility Score: inf
ROOT
ATOM      1  C   UNL A   1      43.500  20.626  25.339  1.00  0.00     0.188 C 
ENDROOT
BRANCH   1   2
ATOM      2  C   UNL A   1      42.791  20.062  26.579  1.00  0.00     0.188 C 
BRANCH   2   3
ATOM      3  O   UNL A   1      41.384  19.874  26.576  1.00  0.00    -0.376 OA
BRANCH   3   4
ATOM      4  C   UNL A   1      40.626  20.952  27.104  1.00  0.00     0.202 C 
BRANCH   4   5
ATOM      5  C   UNL A   1      39.937  21.878  26.118  1.00  0.00     0.261 C 
BRANCH   5   6
ATOM      6  O   UNL A   1      38.631  21.400  25.821  1.00  0.00    -0.460 OA
BRANCH   6   7
ATOM      7  C   UNL A   1      37.688  22.363  25.842  1.00  0.00     0.338 C 
ATOM      8  O   UNL A   1      37.836  23.559  25.732  1.00  0.00    -0.246 OA
BRANCH   7   9
ATOM      9  C   UNL A   1      36.414  21.664  25.628  1.00  0.00     0.062 A 
ATOM     10  C   UNL A   1      34.046  21.319  26.025  1.00  0.00     0.038 A 
ATOM     11  C   UNL A   1      35.200  22.096  26.174  1.00  0.00     0.041 A 
ATOM     12  C   UNL A   1      34.146  20.122  25.282  1.00  0.00    -0.028 A 
ATOM     13  C   UNL A   1      35.394  19.658  24.829  1.00  0.00     0.006 A 
ATOM     14  C   UNL A   1      32.954  19.345  24.801  1.00  0.00     0.046 C 
ATOM     15  C   UNL A   1      36.525  20.431  24.994  1.00  0.00     0.016 A 
BRANCH  10  16
ATOM     16  N   UNL A   1      32.839  21.737  26.562  1.00  0.00    -0.373 N 
ATOM     17  H   UNL A   1      32.630  21.520  27.500  1.00  0.00     0.161 HD
BRANCH  16  18
ATOM     18  C   UNL A   1      31.870  22.491  25.773  1.00  0.00     0.179 C 
ATOM     19  N   UNL A   1      31.224  24.741  25.879  1.00  0.00    -0.245 N 
ATOM     20  C   UNL A   1      30.223  24.057  26.512  1.00  0.00     0.236 C 
ATOM     21  C   UNL A   1      32.283  23.936  25.523  1.00  0.00     0.256 C 
ATOM     22  O   UNL A   1      29.178  24.506  26.964  1.00  0.00    -0.274 OA
ATOM     23  C   UNL A   1      30.563  22.601  26.541  1.00  0.00     0.136 C 
ATOM     24  O   UNL A   1      33.375  24.291  25.102  1.00  0.00    -0.272 OA
BRANCH  19  25
ATOM     25  C   UNL A   1      31.147  26.118  25.587  1.00  0.00     0.094 A 
ATOM     26  C   UNL A   1      30.670  26.578  24.349  1.00  0.00     0.144 A 
ATOM     27  C   UNL A   1      30.625  27.948  24.080  1.00  0.00     0.069 A 
ATOM     28  C   UNL A   1      31.049  28.870  25.041  1.00  0.00     0.047 A 
ATOM     29  C   UNL A   1      31.538  27.054  26.558  1.00  0.00     0.035 A 
ATOM     30  Cl  UNL A   1      30.964  30.549  24.643  1.00  0.00    -0.084 Cl
ATOM     31  C   UNL A   1      31.527  28.435  26.286  1.00  0.00    -0.030 A 
ATOM     32  C   UNL A   1      32.051  29.399  27.315  1.00  0.00     0.046 C 
BRANCH  26  33
ATOM     33  O   UNL A   1      30.236  25.751  23.344  1.00  0.00    -0.495 OA
ATOM     34  C   UNL A   1      31.245  25.475  22.372  1.00  0.00     0.278 C 
ENDBRANCH  26  33
ENDBRANCH  19  25
ENDBRANCH  16  18
ENDBRANCH  10  16
ENDBRANCH   7   9
ENDBRANCH   6   7
ENDBRANCH   5   6
ENDBRANCH   4   5
ENDBRANCH   3   4
ENDBRANCH   2   3
ENDBRANCH   1   2
BRANCH   1  35
ATOM     35  O   UNL A   1      43.590  22.032  25.183  1.00  0.00    -0.377 OA
BRANCH  35  36
ATOM     36  C   UNL A   1      44.309  22.785  26.158  1.00  0.00     0.188 C 
BRANCH  36  37
ATOM     37  C   UNL A   1      43.701  24.046  26.763  1.00  0.00     0.188 C 
BRANCH  37  38
ATOM     38  O   UNL A   1      44.505  25.161  26.385  1.00  0.00    -0.376 OA
BRANCH  38  39
ATOM     39  C   UNL A   1      43.901  26.084  25.483  1.00  0.00     0.202 C 
BRANCH  39  40
ATOM     40  C   UNL A   1      42.495  25.677  25.018  1.00  0.00     0.261 C 
BRANCH  40  41
ATOM     41  O   UNL A   1      41.541  26.700  25.371  1.00  0.00    -0.460 OA
BRANCH  41  42
ATOM     42  C   UNL A   1      40.956  26.559  26.592  1.00  0.00     0.338 C 
ATOM     43  O   UNL A   1      40.475  25.525  27.024  1.00  0.00    -0.246 OA
BRANCH  42  44
ATOM     44  C   UNL A   1      40.765  27.898  27.218  1.00  0.00     0.060 A 
ATOM     45  C   UNL A   1      41.860  28.620  27.720  1.00  0.00     0.016 A 
ATOM     46  C   UNL A   1      39.482  28.271  27.583  1.00  0.00     0.016 A 
ATOM     47  C   UNL A   1      41.669  29.574  28.734  1.00  0.00     0.010 A 
ATOM     48  C   UNL A   1      39.326  29.099  28.671  1.00  0.00     0.010 A 
ATOM     49  C   UNL A   1      40.410  29.728  29.301  1.00  0.00    -0.014 A 
BRANCH  49  50
ATOM     50  C   UNL A   1      40.107  30.368  30.605  1.00  0.00     0.031 A 
ATOM     51  C   UNL A   1      39.379  31.678  30.587  1.00  0.00     0.074 A 
ATOM     52  C   UNL A   1      40.133  29.578  31.712  1.00  0.00     0.049 A 
ATOM     53  N   UNL A   1      38.816  32.251  31.593  1.00  0.00    -0.248 NA
ATOM     54  C   UNL A   1      39.184  32.452  29.361  1.00  0.00     0.031 C 
ATOM     55  C   UNL A   1      39.289  29.644  32.914  1.00  0.00     0.029 A 
ATOM     56  N   UNL A   1      40.921  28.454  31.961  1.00  0.00    -0.354 N 
ATOM     57  C   UNL A   1      37.951  33.238  31.132  1.00  0.00     0.074 A 
ATOM     58  C   UNL A   1      38.270  33.352  29.735  1.00  0.00     0.031 C 
ATOM     59  C   UNL A   1      39.630  28.685  33.790  1.00  0.00     0.029 A 
ATOM     60  C   UNL A   1      40.899  28.177  33.342  1.00  0.00     0.049 A 
ATOM     61  H   UNL A   1      41.414  27.938  31.283  1.00  0.00     0.167 HD
ATOM     62  C   UNL A   1      36.996  33.728  31.991  1.00  0.00     0.037 A 
ATOM     63  C   UNL A   1      42.040  28.408  34.059  1.00  0.00     0.037 A 
ATOM     64  C   UNL A   1      37.313  33.309  33.380  1.00  0.00     0.049 A 
ATOM     65  C   UNL A   1      41.922  29.714  34.857  1.00  0.00     0.074 A 
ATOM     66  C   UNL A   1      36.642  32.639  34.390  1.00  0.00     0.029 A 
ATOM     67  N   UNL A   1      38.643  33.386  33.819  1.00  0.00    -0.354 N 
ATOM     68  N   UNL A   1      41.168  30.739  34.502  1.00  0.00    -0.248 NA
ATOM     69  C   UNL A   1      42.435  29.869  36.217  1.00  0.00     0.031 C 
ATOM     70  C   UNL A   1      37.612  32.128  35.305  1.00  0.00     0.029 A 
ATOM     71  C   UNL A   1      38.864  32.597  34.929  1.00  0.00     0.049 A 
ATOM     72  H   UNL A   1      39.335  33.937  33.388  1.00  0.00     0.167 HD
ATOM     73  C   UNL A   1      41.001  31.589  35.567  1.00  0.00     0.074 A 
ATOM     74  C   UNL A   1      41.848  31.017  36.602  1.00  0.00     0.031 C 
ATOM     75  C   UNL A   1      40.138  32.654  35.633  1.00  0.00     0.037 A 
BRANCH  62  76
ATOM     76  C   UNL A   1      35.659  34.398  31.587  1.00  0.00     0.064 A 
ATOM     77  C   UNL A   1      35.001  35.307  32.456  1.00  0.00     0.173 A 
ATOM     78  C   UNL A   1      34.913  34.128  30.414  1.00  0.00     0.173 A 
ATOM     79  F   UNL A   1      35.584  35.749  33.577  1.00  0.00    -0.203 F 
ATOM     80  C   UNL A   1      33.717  35.830  32.209  1.00  0.00     0.198 A 
ATOM     81  C   UNL A   1      33.649  34.684  30.146  1.00  0.00     0.198 A 
ATOM     82  F   UNL A   1      35.351  33.306  29.462  1.00  0.00    -0.203 F 
ATOM     83  F   UNL A   1      33.142  36.646  33.106  1.00  0.00    -0.200 F 
ATOM     84  C   UNL A   1      33.041  35.521  31.051  1.00  0.00     0.200 A 
ATOM     85  F   UNL A   1      33.027  34.390  28.993  1.00  0.00    -0.200 F 
ATOM     86  F   UNL A   1      31.826  36.031  30.802  1.00  0.00    -0.200 F 
ENDBRANCH  62  76
BRANCH  63  87
ATOM     87  C   UNL A   1      43.174  27.676  33.389  1.00  0.00     0.064 A 
ATOM     88  C   UNL A   1      44.161  28.567  32.885  1.00  0.00     0.173 A 
ATOM     89  C   UNL A   1      43.646  26.457  33.904  1.00  0.00     0.173 A 
ATOM     90  F   UNL A   1      43.779  29.728  32.329  1.00  0.00    -0.203 F 
ATOM     91  C   UNL A   1      45.510  28.415  33.213  1.00  0.00     0.198 A 
ATOM     92  C   UNL A   1      45.017  26.272  34.154  1.00  0.00     0.198 A 
ATOM     93  F   UNL A   1      42.785  25.542  34.372  1.00  0.00    -0.203 F 
ATOM     94  F   UNL A   1      46.370  29.424  33.005  1.00  0.00    -0.200 F 
ATOM     95  C   UNL A   1      45.928  27.288  33.895  1.00  0.00     0.200 A 
ATOM     96  F   UNL A   1      45.440  25.173  34.796  1.00  0.00    -0.200 F 
ATOM     97  F   UNL A   1      47.178  27.218  34.378  1.00  0.00    -0.200 F 
ENDBRANCH  63  87
BRANCH  75  98
ATOM     98  C   UNL A   1      40.395  33.903  36.460  1.00  0.00     0.064 A 
ATOM     99  C   UNL A   1      41.126  34.997  35.974  1.00  0.00     0.173 A 
ATOM    100  C   UNL A   1      39.710  34.135  37.686  1.00  0.00     0.173 A 
ATOM    101  F   UNL A   1      41.720  34.966  34.773  1.00  0.00    -0.203 F 
ATOM    102  C   UNL A   1      41.220  36.197  36.679  1.00  0.00     0.198 A 
ATOM    103  C   UNL A   1      39.750  35.358  38.349  1.00  0.00     0.198 A 
ATOM    104  F   UNL A   1      38.938  33.205  38.265  1.00  0.00    -0.203 F 
ATOM    105  F   UNL A   1      41.970  37.192  36.186  1.00  0.00    -0.200 F 
ATOM    106  C   UNL A   1      40.521  36.383  37.856  1.00  0.00     0.200 A 
ATOM    107  F   UNL A   1      39.010  35.539  39.453  1.00  0.00    -0.200 F 
ATOM    108  F   UNL A   1      40.573  37.557  38.498  1.00  0.00    -0.200 F 
ENDBRANCH  75  98
ENDBRANCH  49  50
ENDBRANCH  42  44
ENDBRANCH  41  42
ENDBRANCH  40  41
ENDBRANCH  39  40
ENDBRANCH  38  39
ENDBRANCH  37  38
ENDBRANCH  36  37
ENDBRANCH  35  36
ENDBRANCH   1  35
TORSDOF 24
ENDMDL
MODEL 3
REMARK VINA RESULT:     -10.3      1.408      2.267
REMARK SMILES COc1cc(Cl)c(C)cc1N1C(=O)C[C@H](Nc2cc(C(=O)OCCOCCOCCOCCOC(=O)c3ccc(-c4c5nc(c(-c6c(F)c(F)c(F)c(F)c6F)c6ccc([nH]6)c(-c6c(F)c(F)c(F)c(F)c6F)c6nc(c(-c7c(F)c(F)c(F)c(F)c7F)c7ccc4[nH]7)C=C6)C=C5)cc3)ccc2C)C1=O
REMARK SMILES IDX 27 1 26 2 25 3 24 4 23 5 22 6 20 7 21 8 19 9 17 10 18 11
REMARK SMILES IDX 102 12 101 13 103 14 100 15 16 16 15 18 11 19 12 20 104 21
REMARK SMILES IDX 13 22 14 23 105 24 10 25 3 26 4 27 5 28 9 29 6 30 7 31 8 32
REMARK SMILES IDX 2 33 1 34 28 35 29 36 30 37 31 38 32 39 33 40 34 41 35 42
REMARK SMILES IDX 36 43 37 44 38 45 99 46 39 47 98 48 40 49 41 50 42 51 92 52
REMARK SMILES IDX 43 53 97 54 91 55 93 56 44 57 96 58 90 59 89 60 45 62 77 63
REMARK SMILES IDX 57 64 76 65 58 66 61 67 75 68 94 69 59 70 60 71 74 73 95 74
REMARK SMILES IDX 62 75 46 76 47 77 55 78 48 79 49 80 53 81 56 82 50 83 51 84
REMARK SMILES IDX 54 85 52 86 78 87 79 88 87 89 80 90 81 91 85 92 88 93 82 94
REMARK SMILES IDX 83 95 86 96 84 97 63 98 64 99 72 100 65 101 66 102 70 103
REMARK SMILES IDX 73 104 67 105 68 106 71 107 69 108
REMARK H PARENT 16 17 93 61 61 72
REMARK Flexibility Score: inf
ROOT
ATOM      1  C   UNL A   1      40.035  21.527  26.411  1.00  0.00     0.188 C 
ENDROOT
BRANCH   1   2
ATOM      2  C   UNL A   1      38.540  21.376  26.089  1.00  0.00     0.188 C 
BRANCH   2   3
ATOM      3  O   UNL A   1      38.029  21.817  24.842  1.00  0.00    -0.376 OA
BRANCH   3   4
ATOM      4  C   UNL A   1      37.437  23.108  24.850  1.00  0.00     0.202 C 
BRANCH   4   5
ATOM      5  C   UNL A   1      36.896  23.626  26.170  1.00  0.00     0.261 C 
BRANCH   5   6
ATOM      6  O   UNL A   1      35.483  23.774  26.101  1.00  0.00    -0.460 OA
BRANCH   6   7
ATOM      7  C   UNL A   1      34.810  22.635  26.358  1.00  0.00     0.338 C 
ATOM      8  O   UNL A   1      34.592  22.119  27.431  1.00  0.00    -0.246 OA
BRANCH   7   9
ATOM      9  C   UNL A   1      34.055  22.345  25.132  1.00  0.00     0.062 A 
ATOM     10  C   UNL A   1      32.928  22.995  23.085  1.00  0.00     0.038 A 
ATOM     11  C   UNL A   1      33.748  23.316  24.172  1.00  0.00     0.041 A 
ATOM     12  C   UNL A   1      32.464  21.665  22.977  1.00  0.00    -0.028 A 
ATOM     13  C   UNL A   1      32.702  20.734  24.003  1.00  0.00     0.006 A 
ATOM     14  C   UNL A   1      31.825  21.110  21.735  1.00  0.00     0.046 C 
ATOM     15  C   UNL A   1      33.503  21.069  25.075  1.00  0.00     0.016 A 
BRANCH  10  16
ATOM     16  N   UNL A   1      32.616  23.949  22.129  1.00  0.00    -0.373 N 
ATOM     17  H   UNL A   1      33.157  24.000  21.308  1.00  0.00     0.161 HD
BRANCH  16  18
ATOM     18  C   UNL A   1      31.505  24.878  22.309  1.00  0.00     0.179 C 
ATOM     19  N   UNL A   1      31.226  26.665  23.798  1.00  0.00    -0.245 N 
ATOM     20  C   UNL A   1      30.496  25.641  24.336  1.00  0.00     0.236 C 
ATOM     21  C   UNL A   1      31.946  26.286  22.688  1.00  0.00     0.256 C 
ATOM     22  O   UNL A   1      29.786  25.669  25.332  1.00  0.00    -0.274 OA
ATOM     23  C   UNL A   1      30.646  24.425  23.477  1.00  0.00     0.136 C 
ATOM     24  O   UNL A   1      32.806  26.933  22.107  1.00  0.00    -0.272 OA
BRANCH  19  25
ATOM     25  C   UNL A   1      31.198  27.978  24.310  1.00  0.00     0.094 A 
ATOM     26  C   UNL A   1      32.051  28.375  25.352  1.00  0.00     0.144 A 
ATOM     27  C   UNL A   1      31.986  29.677  25.855  1.00  0.00     0.069 A 
ATOM     28  C   UNL A   1      31.075  30.594  25.322  1.00  0.00     0.047 A 
ATOM     29  C   UNL A   1      30.311  28.918  23.759  1.00  0.00     0.035 A 
ATOM     30  Cl  UNL A   1      31.049  32.188  25.990  1.00  0.00    -0.084 Cl
ATOM     31  C   UNL A   1      30.214  30.222  24.279  1.00  0.00    -0.030 A 
ATOM     32  C   UNL A   1      29.180  31.165  23.730  1.00  0.00     0.046 C 
BRANCH  26  33
ATOM     33  O   UNL A   1      32.973  27.547  25.940  1.00  0.00    -0.495 OA
ATOM     34  C   UNL A   1      34.069  28.255  26.520  1.00  0.00     0.278 C 
ENDBRANCH  26  33
ENDBRANCH  19  25
ENDBRANCH  16  18
ENDBRANCH  10  16
ENDBRANCH   7   9
ENDBRANCH   6   7
ENDBRANCH   5   6
ENDBRANCH   4   5
ENDBRANCH   3   4
ENDBRANCH   2   3
ENDBRANCH   1   2
BRANCH   1  35
ATOM     35  O   UNL A   1      40.633  20.621  27.321  1.00  0.00    -0.377 OA
BRANCH  35  36
ATOM     36  C   UNL A   1      41.964  20.174  27.069  1.00  0.00     0.188 C 
BRANCH  36  37
ATOM     37  C   UNL A   1      42.229  18.731  26.653  1.00  0.00     0.188 C 
BRANCH  37  38
ATOM     38  O   UNL A   1      42.868  18.739  25.378  1.00  0.00    -0.376 OA
BRANCH  38  39
ATOM     39  C   UNL A   1      44.249  19.090  25.378  1.00  0.00     0.202 C 
BRANCH  39  40
ATOM     40  C   UNL A   1      44.631  20.132  24.316  1.00  0.00     0.261 C 
BRANCH  40  41
ATOM     41  O   UNL A   1      45.254  21.272  24.942  1.00  0.00    -0.460 OA
BRANCH  41  42
ATOM     42  C   UNL A   1      44.498  22.404  24.983  1.00  0.00     0.338 C 
ATOM     43  O   UNL A   1      43.496  22.602  24.318  1.00  0.00    -0.246 OA
BRANCH  42  44
ATOM     44  C   UNL A   1      45.207  23.457  25.765  1.00  0.00     0.060 A 
ATOM     45  C   UNL A   1      45.027  23.565  27.153  1.00  0.00     0.016 A 
ATOM     46  C   UNL A   1      45.783  24.508  25.071  1.00  0.00     0.016 A 
ATOM     47  C   UNL A   1      45.238  24.797  27.797  1.00  0.00     0.010 A 
ATOM     48  C   UNL A   1      45.847  25.739  25.684  1.00  0.00     0.010 A 
ATOM     49  C   UNL A   1      45.531  25.924  27.038  1.00  0.00    -0.014 A 
BRANCH  49  50
ATOM     50  C   UNL A   1      45.396  27.336  27.475  1.00  0.00     0.031 A 
ATOM     51  C   UNL A   1      44.011  27.895  27.610  1.00  0.00     0.074 A 
ATOM     52  C   UNL A   1      46.462  27.902  28.100  1.00  0.00     0.049 A 
ATOM     53  N   UNL A   1      43.687  28.990  28.204  1.00  0.00    -0.248 NA
ATOM     54  C   UNL A   1      42.830  27.200  27.099  1.00  0.00     0.031 C 
ATOM     55  C   UNL A   1      46.475  28.888  29.192  1.00  0.00     0.029 A 
ATOM     56  N   UNL A   1      47.820  27.641  27.917  1.00  0.00    -0.354 N 
ATOM     57  C   UNL A   1      42.316  28.993  28.439  1.00  0.00     0.074 A 
ATOM     58  C   UNL A   1      41.831  27.876  27.675  1.00  0.00     0.031 C 
ATOM     59  C   UNL A   1      47.735  29.204  29.534  1.00  0.00     0.029 A 
ATOM     60  C   UNL A   1      48.568  28.693  28.479  1.00  0.00     0.049 A 
ATOM     61  H   UNL A   1      48.195  26.850  27.467  1.00  0.00     0.167 HD
ATOM     62  C   UNL A   1      41.809  29.881  29.358  1.00  0.00     0.037 A 
ATOM     63  C   UNL A   1      49.219  29.542  27.626  1.00  0.00     0.037 A 
ATOM     64  C   UNL A   1      42.836  30.904  29.681  1.00  0.00     0.049 A 
ATOM     65  C   UNL A   1      48.452  30.865  27.491  1.00  0.00     0.074 A 
ATOM     66  C   UNL A   1      43.433  31.376  30.837  1.00  0.00     0.029 A 
ATOM     67  N   UNL A   1      43.589  31.455  28.634  1.00  0.00    -0.354 N 
ATOM     68  N   UNL A   1      47.148  30.990  27.649  1.00  0.00    -0.248 NA
ATOM     69  C   UNL A   1      49.113  32.167  27.418  1.00  0.00     0.031 C 
ATOM     70  C   UNL A   1      44.660  32.012  30.476  1.00  0.00     0.029 A 
ATOM     71  C   UNL A   1      44.749  32.045  29.091  1.00  0.00     0.049 A 
ATOM     72  H   UNL A   1      43.321  31.425  27.687  1.00  0.00     0.167 HD
ATOM     73  C   UNL A   1      46.819  32.313  27.812  1.00  0.00     0.074 A 
ATOM     74  C   UNL A   1      48.081  33.009  27.619  1.00  0.00     0.031 C 
ATOM     75  C   UNL A   1      45.595  32.809  28.183  1.00  0.00     0.037 A 
BRANCH  62  76
ATOM     76  C   UNL A   1      40.482  29.729  30.142  1.00  0.00     0.064 A 
ATOM     77  C   UNL A   1      40.167  28.527  30.828  1.00  0.00     0.173 A 
ATOM     78  C   UNL A   1      39.428  30.674  30.188  1.00  0.00     0.173 A 
ATOM     79  F   UNL A   1      41.066  27.545  30.966  1.00  0.00    -0.203 F 
ATOM     80  C   UNL A   1      38.918  28.277  31.429  1.00  0.00     0.198 A 
ATOM     81  C   UNL A   1      38.197  30.442  30.826  1.00  0.00     0.198 A 
ATOM     82  F   UNL A   1      39.517  31.872  29.612  1.00  0.00    -0.203 F 
ATOM     83  F   UNL A   1      38.683  27.093  32.016  1.00  0.00    -0.200 F 
ATOM     84  C   UNL A   1      37.933  29.236  31.432  1.00  0.00     0.200 A 
ATOM     85  F   UNL A   1      37.265  31.409  30.839  1.00  0.00    -0.200 F 
ATOM     86  F   UNL A   1      36.749  29.011  32.019  1.00  0.00    -0.200 F 
ENDBRANCH  62  76
BRANCH  63  87
ATOM     87  C   UNL A   1      50.075  28.715  26.702  1.00  0.00     0.064 A 
ATOM     88  C   UNL A   1      51.234  28.212  27.354  1.00  0.00     0.173 A 
ATOM     89  C   UNL A   1      49.489  27.872  25.742  1.00  0.00     0.173 A 
ATOM     90  F   UNL A   1      51.877  28.985  28.244  1.00  0.00    -0.203 F 
ATOM     91  C   UNL A   1      51.550  26.852  27.325  1.00  0.00     0.198 A 
ATOM     92  C   UNL A   1      49.870  26.521  25.654  1.00  0.00     0.198 A 
ATOM     93  F   UNL A   1      48.413  28.276  25.054  1.00  0.00    -0.203 F 
ATOM     94  F   UNL A   1      52.441  26.351  28.193  1.00  0.00    -0.200 F 
ATOM     95  C   UNL A   1      50.830  25.998  26.511  1.00  0.00     0.200 A 
ATOM     96  F   UNL A   1      49.194  25.685  24.852  1.00  0.00    -0.200 F 
ATOM     97  F   UNL A   1      50.997  24.671  26.614  1.00  0.00    -0.200 F 
ENDBRANCH  63  87
BRANCH  75  98
ATOM     98  C   UNL A   1      45.065  34.168  27.752  1.00  0.00     0.064 A 
ATOM     99  C   UNL A   1      44.130  34.323  26.717  1.00  0.00     0.173 A 
ATOM    100  C   UNL A   1      45.303  35.337  28.528  1.00  0.00     0.173 A 
ATOM    101  F   UNL A   1      43.715  33.281  25.985  1.00  0.00    -0.203 F 
ATOM    102  C   UNL A   1      43.534  35.552  26.438  1.00  0.00     0.198 A 
ATOM    103  C   UNL A   1      44.652  36.543  28.288  1.00  0.00     0.198 A 
ATOM    104  F   UNL A   1      46.139  35.347  29.575  1.00  0.00    -0.203 F 
ATOM    105  F   UNL A   1      42.682  35.649  25.408  1.00  0.00    -0.200 F 
ATOM    106  C   UNL A   1      43.781  36.656  27.230  1.00  0.00     0.200 A 
ATOM    107  F   UNL A   1      44.855  37.583  29.111  1.00  0.00    -0.200 F 
ATOM    108  F   UNL A   1      43.162  37.819  26.988  1.00  0.00    -0.200 F 
ENDBRANCH  75  98
ENDBRANCH  49  50
ENDBRANCH  42  44
ENDBRANCH  41  42
ENDBRANCH  40  41
ENDBRANCH  39  40
ENDBRANCH  38  39
ENDBRANCH  37  38
ENDBRANCH  36  37
ENDBRANCH  35  36
ENDBRANCH   1  35
TORSDOF 24
ENDMDL
