MODEL 1
REMARK VINA RESULT:     -11.0      0.000      0.000
REMARK SMILES Cc1ccc(Nc2c(C)cccc2Cl)c(CC(=O)OCCOCCOCCOCCOC(=O)c2ccc(-c3c4nc(c(-c5c(F)c(F)c(F)c(F)c5F)c5ccc([nH]5)c(-c5c(F)c(F)c(F)c(F)c5F)c5nc(c(-c6c(F)c(F)c(F)c(F)c6F)c6ccc3[nH]6)C=C5)C=C4)cc2)c1
REMARK SMILES IDX 24 1 23 2 22 3 21 4 20 5 19 6 17 7 18 8 16 9 15 10 1 11 2 12
REMARK SMILES IDX 3 13 97 14 4 15 5 16 6 17 7 19 8 20 13 21 9 22 10 23 12 24
REMARK SMILES IDX 14 25 11 26 25 27 26 28 27 29 28 30 29 31 30 32 31 33 32 34
REMARK SMILES IDX 33 35 34 36 35 37 96 38 36 39 95 40 37 41 38 42 39 43 89 44
REMARK SMILES IDX 40 45 94 46 88 47 90 48 41 49 93 50 87 51 86 52 42 54 74 55
REMARK SMILES IDX 54 56 73 57 55 58 58 59 72 60 91 61 56 62 57 63 71 65 92 66
REMARK SMILES IDX 59 67 43 68 44 69 52 70 45 71 46 72 50 73 53 74 47 75 48 76
REMARK SMILES IDX 51 77 49 78 75 79 76 80 84 81 77 82 78 83 82 84 85 85 79 86
REMARK SMILES IDX 80 87 83 88 81 89 60 90 61 91 69 92 62 93 63 94 67 95 70 96
REMARK SMILES IDX 64 97 65 98 68 99 66 100
REMARK H PARENT 6 18 90 53 58 64
REMARK Flexibility Score: inf
ROOT
ATOM      1  C   UNL A   1      33.714  27.581  23.707  1.00  0.00     0.188 C 
ENDROOT
BRANCH   1   2
ATOM      2  C   UNL A   1      32.352  26.942  23.676  1.00  0.00     0.188 C 
BRANCH   2   3
ATOM      3  O   UNL A   1      32.083  25.703  23.064  1.00  0.00    -0.376 OA
BRANCH   3   4
ATOM      4  C   UNL A   1      31.047  24.961  23.660  1.00  0.00     0.202 C 
BRANCH   4   5
ATOM      5  C   UNL A   1      30.976  23.419  23.514  1.00  0.00     0.261 C 
BRANCH   5   6
ATOM      6  O   UNL A   1      32.223  22.719  23.437  1.00  0.00    -0.463 OA
BRANCH   6   7
ATOM      7  C   UNL A   1      32.091  21.374  23.317  1.00  0.00     0.310 C 
ATOM      8  O   UNL A   1      31.882  20.797  22.239  1.00  0.00    -0.252 OA
BRANCH   7   9
ATOM      9  C   UNL A   1      32.153  20.613  24.618  1.00  0.00     0.160 C 
BRANCH   9  10
ATOM     10  C   UNL A   1      33.125  19.452  24.761  1.00  0.00    -0.013 A 
ATOM     11  C   UNL A   1      32.628  15.680  25.376  1.00  0.00     0.044 C 
ATOM     12  C   UNL A   1      33.282  17.014  25.158  1.00  0.00    -0.051 A 
ATOM     13  C   UNL A   1      34.656  17.100  24.988  1.00  0.00     0.005 A 
ATOM     14  C   UNL A   1      32.533  18.190  25.063  1.00  0.00     0.009 A 
ATOM     15  C   UNL A   1      35.266  18.341  24.753  1.00  0.00     0.026 A 
ATOM     16  C   UNL A   1      34.541  19.547  24.614  1.00  0.00     0.042 A 
BRANCH  16  17
ATOM     17  N   UNL A   1      35.233  20.789  24.345  1.00  0.00    -0.354 N 
ATOM     18  H   UNL A   1      35.045  21.207  23.474  1.00  0.00     0.167 HD
BRANCH  17  19
ATOM     19  C   UNL A   1      36.163  21.490  25.197  1.00  0.00     0.060 A 
ATOM     20  C   UNL A   1      35.760  22.646  25.884  1.00  0.00    -0.026 A 
ATOM     21  C   UNL A   1      37.552  21.195  25.241  1.00  0.00     0.064 A 
ATOM     22  C   UNL A   1      34.326  22.822  26.301  1.00  0.00     0.046 C 
ATOM     23  C   UNL A   1      36.711  23.592  26.320  1.00  0.00     0.005 A 
ATOM     24  C   UNL A   1      38.497  22.161  25.626  1.00  0.00     0.023 A 
ATOM     25  Cl  UNL A   1      38.175  19.593  25.001  1.00  0.00    -0.082 Cl
ATOM     26  C   UNL A   1      38.073  23.384  26.125  1.00  0.00     0.002 A 
ENDBRANCH  17  19
ENDBRANCH  16  17
ENDBRANCH   9  10
ENDBRANCH   7   9
ENDBRANCH   6   7
ENDBRANCH   5   6
ENDBRANCH   4   5
ENDBRANCH   3   4
ENDBRANCH   2   3
ENDBRANCH   1   2
BRANCH   1  27
ATOM     27  O   UNL A   1      33.559  29.001  23.825  1.00  0.00    -0.377 OA
BRANCH  27  28
ATOM     28  C   UNL A   1      32.770  29.399  24.938  1.00  0.00     0.188 C 
BRANCH  28  29
ATOM     29  C   UNL A   1      33.503  29.473  26.262  1.00  0.00     0.188 C 
BRANCH  29  30
ATOM     30  O   UNL A   1      32.852  30.430  27.079  1.00  0.00    -0.376 OA
BRANCH  30  31
ATOM     31  C   UNL A   1      31.701  31.003  26.500  1.00  0.00     0.202 C 
BRANCH  31  32
ATOM     32  C   UNL A   1      31.613  32.469  26.904  1.00  0.00     0.261 C 
BRANCH  32  33
ATOM     33  O   UNL A   1      32.902  33.054  27.234  1.00  0.00    -0.460 OA
BRANCH  33  34
ATOM     34  C   UNL A   1      33.237  33.743  28.357  1.00  0.00     0.338 C 
ATOM     35  O   UNL A   1      32.705  34.830  28.599  1.00  0.00    -0.246 OA
BRANCH  34  36
ATOM     36  C   UNL A   1      34.461  33.408  29.132  1.00  0.00     0.060 A 
ATOM     37  C   UNL A   1      35.710  33.773  28.588  1.00  0.00     0.016 A 
ATOM     38  C   UNL A   1      34.435  32.813  30.387  1.00  0.00     0.016 A 
ATOM     39  C   UNL A   1      36.919  33.397  29.199  1.00  0.00     0.010 A 
ATOM     40  C   UNL A   1      35.644  32.436  30.991  1.00  0.00     0.010 A 
ATOM     41  C   UNL A   1      36.900  32.636  30.365  1.00  0.00    -0.014 A 
BRANCH  41  42
ATOM     42  C   UNL A   1      38.064  31.820  30.830  1.00  0.00     0.031 A 
ATOM     43  C   UNL A   1      38.405  30.495  30.201  1.00  0.00     0.074 A 
ATOM     44  C   UNL A   1      39.007  32.426  31.605  1.00  0.00     0.049 A 
ATOM     45  N   UNL A   1      39.465  29.791  30.462  1.00  0.00    -0.248 NA
ATOM     46  C   UNL A   1      37.509  29.804  29.270  1.00  0.00     0.031 C 
ATOM     47  C   UNL A   1      40.454  32.385  31.395  1.00  0.00     0.029 A 
ATOM     48  N   UNL A   1      38.903  33.386  32.608  1.00  0.00    -0.354 N 
ATOM     49  C   UNL A   1      39.543  28.768  29.527  1.00  0.00     0.074 A 
ATOM     50  C   UNL A   1      38.238  28.736  28.918  1.00  0.00     0.031 C 
ATOM     51  C   UNL A   1      41.108  33.167  32.257  1.00  0.00     0.029 A 
ATOM     52  C   UNL A   1      40.154  33.558  33.241  1.00  0.00     0.049 A 
ATOM     53  H   UNL A   1      38.079  33.871  32.841  1.00  0.00     0.167 HD
ATOM     54  C   UNL A   1      40.741  28.166  29.243  1.00  0.00     0.037 A 
ATOM     55  C   UNL A   1      40.316  33.260  34.561  1.00  0.00     0.037 A 
ATOM     56  C   UNL A   1      41.822  28.500  30.199  1.00  0.00     0.049 A 
ATOM     57  C   UNL A   1      41.005  31.921  34.809  1.00  0.00     0.074 A 
ATOM     58  C   UNL A   1      43.200  28.657  30.135  1.00  0.00     0.029 A 
ATOM     59  N   UNL A   1      41.501  28.786  31.524  1.00  0.00    -0.354 N 
ATOM     60  N   UNL A   1      41.550  31.162  33.885  1.00  0.00    -0.248 NA
ATOM     61  C   UNL A   1      41.085  31.310  36.133  1.00  0.00     0.031 C 
ATOM     62  C   UNL A   1      43.686  29.014  31.429  1.00  0.00     0.029 A 
ATOM     63  C   UNL A   1      42.613  29.010  32.298  1.00  0.00     0.049 A 
ATOM     64  H   UNL A   1      40.579  28.823  31.868  1.00  0.00     0.167 HD
ATOM     65  C   UNL A   1      41.957  29.975  34.443  1.00  0.00     0.074 A 
ATOM     66  C   UNL A   1      41.651  30.123  35.855  1.00  0.00     0.031 C 
ATOM     67  C   UNL A   1      42.476  28.924  33.738  1.00  0.00     0.037 A 
BRANCH  54  68
ATOM     68  C   UNL A   1      41.038  27.411  27.930  1.00  0.00     0.064 A 
ATOM     69  C   UNL A   1      40.866  26.009  27.847  1.00  0.00     0.173 A 
ATOM     70  C   UNL A   1      41.669  27.978  26.797  1.00  0.00     0.173 A 
ATOM     71  F   UNL A   1      40.220  25.335  28.809  1.00  0.00    -0.203 F 
ATOM     72  C   UNL A   1      41.364  25.241  26.782  1.00  0.00     0.198 A 
ATOM     73  C   UNL A   1      42.087  27.219  25.693  1.00  0.00     0.198 A 
ATOM     74  F   UNL A   1      41.966  29.281  26.729  1.00  0.00    -0.203 F 
ATOM     75  F   UNL A   1      41.267  23.904  26.822  1.00  0.00    -0.200 F 
ATOM     76  C   UNL A   1      41.969  25.847  25.701  1.00  0.00     0.200 A 
ATOM     77  F   UNL A   1      42.638  27.831  24.635  1.00  0.00    -0.200 F 
ATOM     78  F   UNL A   1      42.438  25.115  24.680  1.00  0.00    -0.200 F 
ENDBRANCH  54  68
BRANCH  55  79
ATOM     79  C   UNL A   1      39.257  33.977  35.338  1.00  0.00     0.064 A 
ATOM     80  C   UNL A   1      38.313  33.095  35.923  1.00  0.00     0.173 A 
ATOM     81  C   UNL A   1      39.617  35.118  36.066  1.00  0.00     0.173 A 
ATOM     82  F   UNL A   1      37.930  31.993  35.254  1.00  0.00    -0.203 F 
ATOM     83  C   UNL A   1      38.012  33.176  37.279  1.00  0.00     0.198 A 
ATOM     84  C   UNL A   1      39.285  35.209  37.422  1.00  0.00     0.198 A 
ATOM     85  F   UNL A   1      40.491  35.994  35.552  1.00  0.00    -0.203 F 
ATOM     86  F   UNL A   1      37.360  32.170  37.880  1.00  0.00    -0.200 F 
ATOM     87  C   UNL A   1      38.544  34.205  38.038  1.00  0.00     0.200 A 
ATOM     88  F   UNL A   1      39.828  36.176  38.176  1.00  0.00    -0.200 F 
ATOM     89  F   UNL A   1      38.431  34.176  39.374  1.00  0.00    -0.200 F 
ENDBRANCH  55  79
BRANCH  67  90
ATOM     90  C   UNL A   1      42.843  27.595  34.348  1.00  0.00     0.064 A 
ATOM     91  C   UNL A   1      44.163  27.199  34.583  1.00  0.00     0.173 A 
ATOM     92  C   UNL A   1      41.841  26.630  34.621  1.00  0.00     0.173 A 
ATOM     93  F   UNL A   1      45.187  27.997  34.250  1.00  0.00    -0.203 F 
ATOM     94  C   UNL A   1      44.457  25.957  35.150  1.00  0.00     0.198 A 
ATOM     95  C   UNL A   1      42.143  25.370  35.126  1.00  0.00     0.198 A 
ATOM     96  F   UNL A   1      40.541  26.888  34.423  1.00  0.00    -0.203 F 
ATOM     97  F   UNL A   1      45.728  25.645  35.436  1.00  0.00    -0.200 F 
ATOM     98  C   UNL A   1      43.450  25.044  35.419  1.00  0.00     0.200 A 
ATOM     99  F   UNL A   1      41.160  24.483  35.339  1.00  0.00    -0.200 F 
ATOM    100  F   UNL A   1      43.740  23.853  35.961  1.00  0.00    -0.200 F 
ENDBRANCH  67  90
ENDBRANCH  41  42
ENDBRANCH  34  36
ENDBRANCH  33  34
ENDBRANCH  32  33
ENDBRANCH  31  32
ENDBRANCH  30  31
ENDBRANCH  29  30
ENDBRANCH  28  29
ENDBRANCH  27  28
ENDBRANCH   1  27
TORSDOF 23
ENDMDL
MODEL 2
REMARK VINA RESULT:     -10.4      4.860     10.460
REMARK SMILES Cc1ccc(Nc2c(C)cccc2Cl)c(CC(=O)OCCOCCOCCOCCOC(=O)c2ccc(-c3c4nc(c(-c5c(F)c(F)c(F)c(F)c5F)c5ccc([nH]5)c(-c5c(F)c(F)c(F)c(F)c5F)c5nc(c(-c6c(F)c(F)c(F)c(F)c6F)c6ccc3[nH]6)C=C5)C=C4)cc2)c1
REMARK SMILES IDX 24 1 23 2 22 3 21 4 20 5 19 6 17 7 18 8 16 9 15 10 1 11 2 12
REMARK SMILES IDX 3 13 97 14 4 15 5 16 6 17 7 19 8 20 13 21 9 22 10 23 12 24
REMARK SMILES IDX 14 25 11 26 25 27 26 28 27 29 28 30 29 31 30 32 31 33 32 34
REMARK SMILES IDX 33 35 34 36 35 37 96 38 36 39 95 40 37 41 38 42 39 43 89 44
REMARK SMILES IDX 40 45 94 46 88 47 90 48 41 49 93 50 87 51 86 52 42 54 74 55
REMARK SMILES IDX 54 56 73 57 55 58 58 59 72 60 91 61 56 62 57 63 71 65 92 66
REMARK SMILES IDX 59 67 43 68 44 69 52 70 45 71 46 72 50 73 53 74 47 75 48 76
REMARK SMILES IDX 51 77 49 78 75 79 76 80 84 81 77 82 78 83 82 84 85 85 79 86
REMARK SMILES IDX 80 87 83 88 81 89 60 90 61 91 69 92 62 93 63 94 67 95 70 96
REMARK SMILES IDX 64 97 65 98 68 99 66 100
REMARK H PARENT 6 18 90 53 58 64
REMARK Flexibility Score: inf
ROOT
ATOM      1  C   UNL A   1      40.441  21.335  27.128  1.00  0.00     0.188 C 
ENDROOT
BRANCH   1   2
ATOM      2  C   UNL A   1      40.841  22.665  27.708  1.00  0.00     0.188 C 
BRANCH   2   3
ATOM      3  O   UNL A   1      40.124  23.858  27.496  1.00  0.00    -0.376 OA
BRANCH   3   4
ATOM      4  C   UNL A   1      39.422  23.916  26.279  1.00  0.00     0.202 C 
BRANCH   4   5
ATOM      5  C   UNL A   1      37.895  23.651  26.217  1.00  0.00     0.261 C 
BRANCH   5   6
ATOM      6  O   UNL A   1      37.477  22.425  25.606  1.00  0.00    -0.463 OA
BRANCH   6   7
ATOM      7  C   UNL A   1      36.516  22.582  24.661  1.00  0.00     0.310 C 
ATOM      8  O   UNL A   1      36.757  22.840  23.473  1.00  0.00    -0.252 OA
BRANCH   7   9
ATOM      9  C   UNL A   1      35.101  22.483  25.175  1.00  0.00     0.160 C 
BRANCH   9  10
ATOM     10  C   UNL A   1      34.127  21.522  24.508  1.00  0.00    -0.013 A 
ATOM     11  C   UNL A   1      33.615  17.712  24.765  1.00  0.00     0.044 C 
ATOM     12  C   UNL A   1      33.462  19.144  24.344  1.00  0.00    -0.051 A 
ATOM     13  C   UNL A   1      32.421  19.520  23.506  1.00  0.00     0.005 A 
ATOM     14  C   UNL A   1      34.315  20.144  24.821  1.00  0.00     0.009 A 
ATOM     15  C   UNL A   1      32.257  20.863  23.136  1.00  0.00     0.026 A 
ATOM     16  C   UNL A   1      33.075  21.907  23.625  1.00  0.00     0.042 A 
BRANCH  16  17
ATOM     17  N   UNL A   1      32.832  23.275  23.222  1.00  0.00    -0.354 N 
ATOM     18  H   UNL A   1      32.773  23.436  22.252  1.00  0.00     0.167 HD
BRANCH  17  19
ATOM     19  C   UNL A   1      32.667  24.434  24.066  1.00  0.00     0.060 A 
ATOM     20  C   UNL A   1      33.338  25.630  23.766  1.00  0.00    -0.026 A 
ATOM     21  C   UNL A   1      32.005  24.393  25.322  1.00  0.00     0.064 A 
ATOM     22  C   UNL A   1      33.672  25.978  22.341  1.00  0.00     0.046 C 
ATOM     23  C   UNL A   1      33.582  26.589  24.770  1.00  0.00     0.005 A 
ATOM     24  C   UNL A   1      32.294  25.321  26.337  1.00  0.00     0.023 A 
ATOM     25  Cl  UNL A   1      30.678  23.322  25.645  1.00  0.00    -0.082 Cl
ATOM     26  C   UNL A   1      33.125  26.401  26.071  1.00  0.00     0.002 A 
ENDBRANCH  17  19
ENDBRANCH  16  17
ENDBRANCH   9  10
ENDBRANCH   7   9
ENDBRANCH   6   7
ENDBRANCH   5   6
ENDBRANCH   4   5
ENDBRANCH   3   4
ENDBRANCH   2   3
ENDBRANCH   1   2
BRANCH   1  27
ATOM     27  O   UNL A   1      41.524  20.826  26.340  1.00  0.00    -0.377 OA
BRANCH  27  28
ATOM     28  C   UNL A   1      42.219  19.749  26.952  1.00  0.00     0.188 C 
BRANCH  28  29
ATOM     29  C   UNL A   1      42.452  18.540  26.069  1.00  0.00     0.188 C 
BRANCH  29  30
ATOM     30  O   UNL A   1      43.848  18.387  25.882  1.00  0.00    -0.376 OA
BRANCH  30  31
ATOM     31  C   UNL A   1      44.312  18.785  24.611  1.00  0.00     0.202 C 
BRANCH  31  32
ATOM     32  C   UNL A   1      45.298  19.933  24.774  1.00  0.00     0.261 C 
BRANCH  32  33
ATOM     33  O   UNL A   1      44.715  21.110  25.396  1.00  0.00    -0.460 OA
BRANCH  33  34
ATOM     34  C   UNL A   1      44.293  22.249  24.785  1.00  0.00     0.338 C 
ATOM     35  O   UNL A   1      44.523  22.431  23.586  1.00  0.00    -0.246 OA
BRANCH  34  36
ATOM     36  C   UNL A   1      43.867  23.436  25.573  1.00  0.00     0.060 A 
ATOM     37  C   UNL A   1      43.071  24.407  24.931  1.00  0.00     0.016 A 
ATOM     38  C   UNL A   1      44.159  23.605  26.921  1.00  0.00     0.016 A 
ATOM     39  C   UNL A   1      42.718  25.609  25.568  1.00  0.00     0.010 A 
ATOM     40  C   UNL A   1      43.808  24.809  27.551  1.00  0.00     0.010 A 
ATOM     41  C   UNL A   1      43.167  25.868  26.861  1.00  0.00    -0.014 A 
BRANCH  41  42
ATOM     42  C   UNL A   1      43.243  27.244  27.442  1.00  0.00     0.031 A 
ATOM     43  C   UNL A   1      42.005  28.052  27.731  1.00  0.00     0.074 A 
ATOM     44  C   UNL A   1      44.417  27.640  28.009  1.00  0.00     0.049 A 
ATOM     45  N   UNL A   1      41.983  29.195  28.346  1.00  0.00    -0.248 NA
ATOM     46  C   UNL A   1      40.674  27.662  27.260  1.00  0.00     0.031 C 
ATOM     47  C   UNL A   1      44.576  28.253  29.328  1.00  0.00     0.029 A 
ATOM     48  N   UNL A   1      45.742  27.397  27.659  1.00  0.00    -0.354 N 
ATOM     49  C   UNL A   1      40.660  29.507  28.628  1.00  0.00     0.074 A 
ATOM     50  C   UNL A   1      39.895  28.606  27.804  1.00  0.00     0.031 C 
ATOM     51  C   UNL A   1      45.860  28.427  29.647  1.00  0.00     0.029 A 
ATOM     52  C   UNL A   1      46.604  28.182  28.457  1.00  0.00     0.049 A 
ATOM     53  H   UNL A   1      46.035  26.769  26.958  1.00  0.00     0.167 HD
ATOM     54  C   UNL A   1      40.342  30.371  29.643  1.00  0.00     0.037 A 
ATOM     55  C   UNL A   1      47.401  29.134  27.895  1.00  0.00     0.037 A 
ATOM     56  C   UNL A   1      41.503  31.120  30.179  1.00  0.00     0.049 A 
ATOM     57  C   UNL A   1      46.869  30.555  28.058  1.00  0.00     0.074 A 
ATOM     58  C   UNL A   1      41.879  31.629  31.414  1.00  0.00     0.029 A 
ATOM     59  N   UNL A   1      42.571  31.421  29.338  1.00  0.00    -0.354 N 
ATOM     60  N   UNL A   1      45.835  30.903  28.789  1.00  0.00    -0.248 NA
ATOM     61  C   UNL A   1      47.447  31.698  27.353  1.00  0.00     0.031 C 
ATOM     62  C   UNL A   1      43.160  32.248  31.289  1.00  0.00     0.029 A 
ATOM     63  C   UNL A   1      43.535  32.174  29.962  1.00  0.00     0.049 A 
ATOM     64  H   UNL A   1      42.629  31.128  28.399  1.00  0.00     0.167 HD
ATOM     65  C   UNL A   1      45.560  32.235  28.599  1.00  0.00     0.074 A 
ATOM     66  C   UNL A   1      46.605  32.687  27.698  1.00  0.00     0.031 C 
ATOM     67  C   UNL A   1      44.488  32.891  29.138  1.00  0.00     0.037 A 
BRANCH  54  68
ATOM     68  C   UNL A   1      38.972  30.403  30.351  1.00  0.00     0.064 A 
ATOM     69  C   UNL A   1      37.979  31.335  29.965  1.00  0.00     0.173 A 
ATOM     70  C   UNL A   1      38.652  29.683  31.528  1.00  0.00     0.173 A 
ATOM     71  F   UNL A   1      38.100  32.042  28.833  1.00  0.00    -0.203 F 
ATOM     72  C   UNL A   1      36.831  31.588  30.732  1.00  0.00     0.198 A 
ATOM     73  C   UNL A   1      37.462  29.876  32.246  1.00  0.00     0.198 A 
ATOM     74  F   UNL A   1      39.501  28.803  32.073  1.00  0.00    -0.203 F 
ATOM     75  F   UNL A   1      35.988  32.566  30.367  1.00  0.00    -0.200 F 
ATOM     76  C   UNL A   1      36.568  30.854  31.869  1.00  0.00     0.200 A 
ATOM     77  F   UNL A   1      37.208  29.124  33.326  1.00  0.00    -0.200 F 
ATOM     78  F   UNL A   1      35.468  31.091  32.598  1.00  0.00    -0.200 F 
ENDBRANCH  54  68
BRANCH  55  79
ATOM     79  C   UNL A   1      48.181  28.500  26.788  1.00  0.00     0.064 A 
ATOM     80  C   UNL A   1      49.099  27.523  27.251  1.00  0.00     0.173 A 
ATOM     81  C   UNL A   1      47.537  28.258  25.567  1.00  0.00     0.173 A 
ATOM     82  F   UNL A   1      49.747  27.720  28.412  1.00  0.00    -0.203 F 
ATOM     83  C   UNL A   1      49.113  26.244  26.701  1.00  0.00     0.198 A 
ATOM     84  C   UNL A   1      47.580  26.979  25.002  1.00  0.00     0.198 A 
ATOM     85  F   UNL A   1      46.675  29.157  25.073  1.00  0.00    -0.203 F 
ATOM     86  F   UNL A   1      49.760  25.253  27.331  1.00  0.00    -0.200 F 
ATOM     87  C   UNL A   1      48.311  25.962  25.608  1.00  0.00     0.200 A 
ATOM     88  F   UNL A   1      46.777  26.681  23.971  1.00  0.00    -0.200 F 
ATOM     89  F   UNL A   1      48.160  24.692  25.202  1.00  0.00    -0.200 F 
ENDBRANCH  55  79
BRANCH  67  90
ATOM     90  C   UNL A   1      44.149  34.332  28.856  1.00  0.00     0.064 A 
ATOM     91  C   UNL A   1      43.651  34.776  27.628  1.00  0.00     0.173 A 
ATOM     92  C   UNL A   1      44.423  35.336  29.820  1.00  0.00     0.173 A 
ATOM     93  F   UNL A   1      43.466  33.919  26.614  1.00  0.00    -0.203 F 
ATOM     94  C   UNL A   1      43.350  36.123  27.411  1.00  0.00     0.198 A 
ATOM     95  C   UNL A   1      44.182  36.684  29.577  1.00  0.00     0.198 A 
ATOM     96  F   UNL A   1      44.916  35.035  31.030  1.00  0.00    -0.203 F 
ATOM     97  F   UNL A   1      42.798  36.498  26.250  1.00  0.00    -0.200 F 
ATOM     98  C   UNL A   1      43.617  37.074  28.382  1.00  0.00     0.200 A 
ATOM     99  F   UNL A   1      44.487  37.595  30.512  1.00  0.00    -0.200 F 
ATOM    100  F   UNL A   1      43.327  38.365  28.167  1.00  0.00    -0.200 F 
ENDBRANCH  67  90
ENDBRANCH  41  42
ENDBRANCH  34  36
ENDBRANCH  33  34
ENDBRANCH  32  33
ENDBRANCH  31  32
ENDBRANCH  30  31
ENDBRANCH  29  30
ENDBRANCH  28  29
ENDBRANCH  27  28
ENDBRANCH   1  27
TORSDOF 23
ENDMDL
MODEL 3
REMARK VINA RESULT:     -10.2      5.152      9.645
REMARK SMILES Cc1ccc(Nc2c(C)cccc2Cl)c(CC(=O)OCCOCCOCCOCCOC(=O)c2ccc(-c3c4nc(c(-c5c(F)c(F)c(F)c(F)c5F)c5ccc([nH]5)c(-c5c(F)c(F)c(F)c(F)c5F)c5nc(c(-c6c(F)c(F)c(F)c(F)c6F)c6ccc3[nH]6)C=C5)C=C4)cc2)c1
REMARK SMILES IDX 24 1 23 2 22 3 21 4 20 5 19 6 17 7 18 8 16 9 15 10 1 11 2 12
REMARK SMILES IDX 3 13 97 14 4 15 5 16 6 17 7 19 8 20 13 21 9 22 10 23 12 24
REMARK SMILES IDX 14 25 11 26 25 27 26 28 27 29 28 30 29 31 30 32 31 33 32 34
REMARK SMILES IDX 33 35 34 36 35 37 96 38 36 39 95 40 37 41 38 42 39 43 89 44
REMARK SMILES IDX 40 45 94 46 88 47 90 48 41 49 93 50 87 51 86 52 42 54 74 55
REMARK SMILES IDX 54 56 73 57 55 58 58 59 72 60 91 61 56 62 57 63 71 65 92 66
REMARK SMILES IDX 59 67 43 68 44 69 52 70 45 71 46 72 50 73 53 74 47 75 48 76
REMARK SMILES IDX 51 77 49 78 75 79 76 80 84 81 77 82 78 83 82 84 85 85 79 86
REMARK SMILES IDX 80 87 83 88 81 89 60 90 61 91 69 92 62 93 63 94 67 95 70 96
REMARK SMILES IDX 64 97 65 98 68 99 66 100
REMARK H PARENT 6 18 90 53 58 64
REMARK Flexibility Score: inf
ROOT
ATOM      1  C   UNL A   1      32.126  29.805  26.559  1.00  0.00     0.188 C 
ENDROOT
BRANCH   1   2
ATOM      2  C   UNL A   1      32.761  29.679  25.201  1.00  0.00     0.188 C 
BRANCH   2   3
ATOM      3  O   UNL A   1      32.989  28.449  24.556  1.00  0.00    -0.376 OA
BRANCH   3   4
ATOM      4  C   UNL A   1      33.869  28.511  23.460  1.00  0.00     0.202 C 
BRANCH   4   5
ATOM      5  C   UNL A   1      33.448  27.991  22.061  1.00  0.00     0.261 C 
BRANCH   5   6
ATOM      6  O   UNL A   1      33.936  26.701  21.677  1.00  0.00    -0.463 OA
BRANCH   6   7
ATOM      7  C   UNL A   1      32.963  25.766  21.531  1.00  0.00     0.310 C 
ATOM      8  O   UNL A   1      31.957  25.926  20.824  1.00  0.00    -0.252 OA
BRANCH   7   9
ATOM      9  C   UNL A   1      33.158  24.517  22.354  1.00  0.00     0.160 C 
BRANCH   9  10
ATOM     10  C   UNL A   1      32.969  24.577  23.863  1.00  0.00    -0.013 A 
ATOM     11  C   UNL A   1      29.949  25.449  26.093  1.00  0.00     0.044 C 
ATOM     12  C   UNL A   1      31.334  25.072  25.655  1.00  0.00    -0.051 A 
ATOM     13  C   UNL A   1      32.287  24.699  26.592  1.00  0.00     0.005 A 
ATOM     14  C   UNL A   1      31.688  25.026  24.303  1.00  0.00     0.009 A 
ATOM     15  C   UNL A   1      33.573  24.315  26.183  1.00  0.00     0.026 A 
ATOM     16  C   UNL A   1      33.959  24.221  24.827  1.00  0.00     0.042 A 
BRANCH  16  17
ATOM     17  N   UNL A   1      35.295  23.792  24.475  1.00  0.00    -0.354 N 
ATOM     18  H   UNL A   1      35.772  24.355  23.823  1.00  0.00     0.167 HD
BRANCH  17  19
ATOM     19  C   UNL A   1      36.016  22.640  24.961  1.00  0.00     0.060 A 
ATOM     20  C   UNL A   1      37.315  22.783  25.474  1.00  0.00    -0.026 A 
ATOM     21  C   UNL A   1      35.565  21.306  24.777  1.00  0.00     0.064 A 
ATOM     22  C   UNL A   1      37.737  24.067  26.133  1.00  0.00     0.046 C 
ATOM     23  C   UNL A   1      38.199  21.685  25.509  1.00  0.00     0.005 A 
ATOM     24  C   UNL A   1      36.460  20.222  24.760  1.00  0.00     0.023 A 
ATOM     25  Cl  UNL A   1      33.881  20.885  24.736  1.00  0.00    -0.082 Cl
ATOM     26  C   UNL A   1      37.794  20.423  25.083  1.00  0.00     0.002 A 
ENDBRANCH  17  19
ENDBRANCH  16  17
ENDBRANCH   9  10
ENDBRANCH   7   9
ENDBRANCH   6   7
ENDBRANCH   5   6
ENDBRANCH   4   5
ENDBRANCH   3   4
ENDBRANCH   2   3
ENDBRANCH   1   2
BRANCH   1  27
ATOM     27  O   UNL A   1      33.157  29.952  27.544  1.00  0.00    -0.377 OA
BRANCH  27  28
ATOM     28  C   UNL A   1      34.336  30.570  27.049  1.00  0.00     0.188 C 
BRANCH  28  29
ATOM     29  C   UNL A   1      34.816  31.776  27.831  1.00  0.00     0.188 C 
BRANCH  29  30
ATOM     30  O   UNL A   1      34.510  31.570  29.199  1.00  0.00    -0.376 OA
BRANCH  30  31
ATOM     31  C   UNL A   1      35.385  32.220  30.095  1.00  0.00     0.202 C 
BRANCH  31  32
ATOM     32  C   UNL A   1      36.823  31.878  29.729  1.00  0.00     0.261 C 
BRANCH  32  33
ATOM     33  O   UNL A   1      37.145  30.472  29.912  1.00  0.00    -0.460 OA
BRANCH  33  34
ATOM     34  C   UNL A   1      37.713  29.628  29.010  1.00  0.00     0.338 C 
ATOM     35  O   UNL A   1      37.121  28.602  28.662  1.00  0.00    -0.246 OA
BRANCH  34  36
ATOM     36  C   UNL A   1      39.162  29.709  28.682  1.00  0.00     0.060 A 
ATOM     37  C   UNL A   1      39.594  29.169  27.453  1.00  0.00     0.016 A 
ATOM     38  C   UNL A   1      40.097  30.342  29.492  1.00  0.00     0.016 A 
ATOM     39  C   UNL A   1      40.957  29.105  27.115  1.00  0.00     0.010 A 
ATOM     40  C   UNL A   1      41.456  30.271  29.152  1.00  0.00     0.010 A 
ATOM     41  C   UNL A   1      41.917  29.572  28.010  1.00  0.00    -0.014 A 
BRANCH  41  42
ATOM     42  C   UNL A   1      43.352  29.151  27.964  1.00  0.00     0.031 A 
ATOM     43  C   UNL A   1      44.453  30.125  27.638  1.00  0.00     0.074 A 
ATOM     44  C   UNL A   1      43.693  27.962  28.534  1.00  0.00     0.049 A 
ATOM     45  N   UNL A   1      45.725  29.869  27.701  1.00  0.00    -0.248 NA
ATOM     46  C   UNL A   1      44.195  31.472  27.120  1.00  0.00     0.031 C 
ATOM     47  C   UNL A   1      44.787  27.738  29.478  1.00  0.00     0.029 A 
ATOM     48  N   UNL A   1      43.031  26.738  28.587  1.00  0.00    -0.354 N 
ATOM     49  C   UNL A   1      46.413  31.065  27.558  1.00  0.00     0.074 A 
ATOM     50  C   UNL A   1      45.429  31.989  27.053  1.00  0.00     0.031 C 
ATOM     51  C   UNL A   1      44.801  26.487  29.943  1.00  0.00     0.029 A 
ATOM     52  C   UNL A   1      43.882  25.753  29.137  1.00  0.00     0.049 A 
ATOM     53  H   UNL A   1      42.107  26.583  28.286  1.00  0.00     0.167 HD
ATOM     54  C   UNL A   1      47.691  31.201  28.034  1.00  0.00     0.037 A 
ATOM     55  C   UNL A   1      44.271  24.676  28.399  1.00  0.00     0.037 A 
ATOM     56  C   UNL A   1      48.326  29.922  28.426  1.00  0.00     0.049 A 
ATOM     57  C   UNL A   1      45.689  24.790  27.844  1.00  0.00     0.074 A 
ATOM     58  C   UNL A   1      49.244  29.513  29.383  1.00  0.00     0.029 A 
ATOM     59  N   UNL A   1      47.966  28.749  27.765  1.00  0.00    -0.354 N 
ATOM     60  N   UNL A   1      46.550  25.737  28.142  1.00  0.00    -0.248 NA
ATOM     61  C   UNL A   1      46.225  23.857  26.856  1.00  0.00     0.031 C 
ATOM     62  C   UNL A   1      49.439  28.104  29.267  1.00  0.00     0.029 A 
ATOM     63  C   UNL A   1      48.688  27.662  28.195  1.00  0.00     0.049 A 
ATOM     64  H   UNL A   1      47.273  28.704  27.067  1.00  0.00     0.167 HD
ATOM     65  C   UNL A   1      47.672  25.604  27.362  1.00  0.00     0.074 A 
ATOM     66  C   UNL A   1      47.421  24.406  26.581  1.00  0.00     0.031 C 
ATOM     67  C   UNL A   1      48.720  26.483  27.353  1.00  0.00     0.037 A 
BRANCH  54  68
ATOM     68  C   UNL A   1      48.344  32.557  28.377  1.00  0.00     0.064 A 
ATOM     69  C   UNL A   1      49.114  33.253  27.416  1.00  0.00     0.173 A 
ATOM     70  C   UNL A   1      48.407  33.118  29.676  1.00  0.00     0.173 A 
ATOM     71  F   UNL A   1      49.101  32.889  26.126  1.00  0.00    -0.203 F 
ATOM     72  C   UNL A   1      49.940  34.341  27.742  1.00  0.00     0.198 A 
ATOM     73  C   UNL A   1      49.165  34.259  29.982  1.00  0.00     0.198 A 
ATOM     74  F   UNL A   1      47.789  32.557  30.722  1.00  0.00    -0.203 F 
ATOM     75  F   UNL A   1      50.731  34.883  26.804  1.00  0.00    -0.200 F 
ATOM     76  C   UNL A   1      49.960  34.849  29.024  1.00  0.00     0.200 A 
ATOM     77  F   UNL A   1      49.141  34.761  31.225  1.00  0.00    -0.200 F 
ATOM     78  F   UNL A   1      50.743  35.892  29.335  1.00  0.00    -0.200 F 
ENDBRANCH  54  68
BRANCH  55  79
ATOM     79  C   UNL A   1      43.048  24.025  27.837  1.00  0.00     0.064 A 
ATOM     80  C   UNL A   1      42.959  24.146  26.427  1.00  0.00     0.173 A 
ATOM     81  C   UNL A   1      42.599  22.829  28.415  1.00  0.00     0.173 A 
ATOM     82  F   UNL A   1      43.368  25.280  25.831  1.00  0.00    -0.203 F 
ATOM     83  C   UNL A   1      42.753  23.023  25.629  1.00  0.00     0.198 A 
ATOM     84  C   UNL A   1      42.364  21.713  27.606  1.00  0.00     0.198 A 
ATOM     85  F   UNL A   1      42.643  22.670  29.745  1.00  0.00    -0.203 F 
ATOM     86  F   UNL A   1      42.966  23.095  24.307  1.00  0.00    -0.200 F 
ATOM     87  C   UNL A   1      42.509  21.797  26.225  1.00  0.00     0.200 A 
ATOM     88  F   UNL A   1      42.170  20.513  28.171  1.00  0.00    -0.200 F 
ATOM     89  F   UNL A   1      42.516  20.681  25.480  1.00  0.00    -0.200 F 
ENDBRANCH  55  79
BRANCH  67  90
ATOM     90  C   UNL A   1      49.909  26.373  26.434  1.00  0.00     0.064 A 
ATOM     91  C   UNL A   1      49.950  26.950  25.161  1.00  0.00     0.173 A 
ATOM     92  C   UNL A   1      51.024  25.575  26.795  1.00  0.00     0.173 A 
ATOM     93  F   UNL A   1      48.897  27.628  24.683  1.00  0.00    -0.203 F 
ATOM     94  C   UNL A   1      51.073  26.822  24.342  1.00  0.00     0.198 A 
ATOM     95  C   UNL A   1      52.115  25.398  25.950  1.00  0.00     0.198 A 
ATOM     96  F   UNL A   1      51.095  24.959  27.983  1.00  0.00    -0.203 F 
ATOM     97  F   UNL A   1      51.108  27.458  23.163  1.00  0.00    -0.200 F 
ATOM     98  C   UNL A   1      52.152  26.047  24.735  1.00  0.00     0.200 A 
ATOM     99  F   UNL A   1      53.131  24.608  26.328  1.00  0.00    -0.200 F 
ATOM    100  F   UNL A   1      53.227  25.927  23.943  1.00  0.00    -0.200 F 
ENDBRANCH  67  90
ENDBRANCH  41  42
ENDBRANCH  34  36
ENDBRANCH  33  34
ENDBRANCH  32  33
ENDBRANCH  31  32
ENDBRANCH  30  31
ENDBRANCH  29  30
ENDBRANCH  28  29
ENDBRANCH  27  28
ENDBRANCH   1  27
TORSDOF 23
ENDMDL
