MODEL 1
REMARK VINA RESULT:      -8.4      0.000      0.000
REMARK SMILES CCOC(=O)c1ccc(NC(=O)[C@@H]2[C@H]3c4ccccc4[C@H](c4ccccc43)[C@@H]2C(=O)OCCOCCOCCOCCOC(=O)c2ccc(-c3c4nc(c(-c5c(F)c(F)c(F)c(F)c5F)c5ccc([nH]5)c(-c5c(F)c(F)c(F)c(F)c5F)c5nc(c(-c6c(F)c(F)c(F)c(F)c6F)c6ccc3[nH]6)C=C5)C=C4)cc2)cc1
REMARK SMILES IDX 35 1 34 2 33 3 32 4 31 5 29 6 30 7 28 8 13 9 14 10 15 11
REMARK SMILES IDX 27 12 21 13 16 14 20 15 22 16 26 17 17 18 19 19 23 20 25 21
REMARK SMILES IDX 18 22 24 23 11 24 10 25 12 27 9 28 6 29 7 30 110 31 8 32
REMARK SMILES IDX 109 33 4 34 5 35 3 36 2 37 1 38 36 39 37 40 38 41 39 42
REMARK SMILES IDX 40 43 41 44 42 45 43 46 44 47 45 48 46 49 47 50 108 51 48 52
REMARK SMILES IDX 107 53 49 54 50 55 51 56 101 57 52 58 106 59 100 60 102 61
REMARK SMILES IDX 53 62 105 63 99 64 98 65 54 67 86 68 66 69 85 70 67 71 70 72
REMARK SMILES IDX 84 73 103 74 68 75 69 76 83 78 104 79 71 80 55 81 56 82
REMARK SMILES IDX 64 83 57 84 58 85 62 86 65 87 59 88 60 89 63 90 61 91 87 92
REMARK SMILES IDX 88 93 96 94 89 95 90 96 94 97 97 98 91 99 92 100 95 101
REMARK SMILES IDX 93 102 72 103 73 104 81 105 74 106 75 107 79 108 82 109
REMARK SMILES IDX 76 110 77 111 80 112 78 113
REMARK H PARENT 10 26 102 66 70 77
REMARK Flexibility Score: inf
ROOT
ATOM      1  C   UNL A   1      41.275  35.003  29.388  1.00  0.00     0.188 C 
ENDROOT
BRANCH   1   2
ATOM      2  O   UNL A   1      42.099  34.836  31.188  1.00  0.00    -0.376 OA
BRANCH   2   3
ATOM      3  C   UNL A   1      42.714  35.337  32.472  1.00  0.00     0.202 C 
BRANCH   3   4
ATOM      4  C   UNL A   1      43.029  34.474  33.741  1.00  0.00     0.261 C 
BRANCH   4   5
ATOM      5  O   UNL A   1      43.872  33.326  33.597  1.00  0.00    -0.463 OA
BRANCH   5   6
ATOM      6  C   UNL A   1      43.601  32.362  34.513  1.00  0.00     0.310 C 
ATOM      7  O   UNL A   1      43.662  32.569  35.724  1.00  0.00    -0.252 OA
BRANCH   6   8
ATOM      8  C   UNL A   1      43.113  31.017  33.858  1.00  0.00     0.124 C 
ATOM      9  C   UNL A   1      42.877  30.102  35.037  1.00  0.00     0.106 C 
ATOM     10  C   UNL A   1      44.299  29.420  35.309  1.00  0.00     0.063 C 
ATOM     11  C   UNL A   1      44.216  28.305  34.238  1.00  0.00    -0.036 A 
ATOM     12  C   UNL A   1      45.514  30.303  34.831  1.00  0.00    -0.036 A 
ATOM     13  C   UNL A   1      44.102  30.354  32.853  1.00  0.00     0.065 C 
ATOM     14  C   UNL A   1      44.212  26.941  34.475  1.00  0.00     0.004 A 
ATOM     15  C   UNL A   1      44.000  28.827  32.922  1.00  0.00    -0.036 A 
ATOM     16  C   UNL A   1      45.433  30.709  33.461  1.00  0.00    -0.036 A 
ATOM     17  C   UNL A   1      46.535  30.842  35.595  1.00  0.00     0.004 A 
ATOM     18  C   UNL A   1      43.968  26.088  33.397  1.00  0.00     0.000 A 
ATOM     19  C   UNL A   1      43.741  27.974  31.862  1.00  0.00     0.004 A 
ATOM     20  C   UNL A   1      46.332  31.575  32.850  1.00  0.00     0.004 A 
ATOM     21  C   UNL A   1      47.432  31.750  34.992  1.00  0.00     0.000 A 
ATOM     22  C   UNL A   1      43.722  26.598  32.110  1.00  0.00     0.000 A 
ATOM     23  C   UNL A   1      47.339  32.106  33.635  1.00  0.00     0.000 A 
BRANCH   9  24
ATOM     24  C   UNL A   1      41.958  30.645  36.135  1.00  0.00     0.229 C 
ATOM     25  N   UNL A   1      40.649  31.063  35.990  1.00  0.00    -0.326 N 
ATOM     26  H   UNL A   1      40.185  30.993  36.856  1.00  0.00     0.169 HD
ATOM     27  O   UNL A   1      42.358  30.564  37.308  1.00  0.00    -0.274 OA
BRANCH  25  28
ATOM     28  C   UNL A   1      39.739  31.566  34.998  1.00  0.00     0.041 A 
ATOM     29  C   UNL A   1      37.243  33.569  33.238  1.00  0.00     0.060 A 
ATOM     30  C   UNL A   1      38.868  33.331  32.513  1.00  0.00     0.018 A 
ATOM     31  C   UNL A   1      36.840  32.790  34.812  1.00  0.00     0.018 A 
ATOM     32  C   UNL A   1      40.095  32.305  33.377  1.00  0.00     0.027 A 
ATOM     33  C   UNL A   1      38.074  31.805  35.693  1.00  0.00     0.027 A 
BRANCH  29  34
ATOM     34  C   UNL A   1      36.301  34.380  32.472  1.00  0.00     0.338 C 
ATOM     35  O   UNL A   1      36.138  34.271  31.262  1.00  0.00    -0.246 OA
BRANCH  34  36
ATOM     36  O   UNL A   1      35.864  35.361  33.285  1.00  0.00    -0.462 OA
BRANCH  36  37
ATOM     37  C   UNL A   1      34.442  35.480  33.429  1.00  0.00     0.230 C 
ATOM     38  C   UNL A   1      34.033  36.900  33.078  1.00  0.00     0.049 C 
ENDBRANCH  36  37
ENDBRANCH  34  36
ENDBRANCH  29  34
ENDBRANCH  25  28
ENDBRANCH   9  24
ENDBRANCH   6   8
ENDBRANCH   5   6
ENDBRANCH   4   5
ENDBRANCH   3   4
ENDBRANCH   2   3
ENDBRANCH   1   2
BRANCH   1  39
ATOM     39  C   UNL A   1      41.533  36.088  28.160  1.00  0.00     0.188 C 
BRANCH  39  40
ATOM     40  O   UNL A   1      42.354  37.227  28.399  1.00  0.00    -0.377 OA
BRANCH  40  41
ATOM     41  C   UNL A   1      41.876  38.512  28.009  1.00  0.00     0.188 C 
BRANCH  41  42
ATOM     42  C   UNL A   1      42.626  39.263  26.909  1.00  0.00     0.188 C 
BRANCH  42  43
ATOM     43  O   UNL A   1      44.021  39.015  26.946  1.00  0.00    -0.376 OA
BRANCH  43  44
ATOM     44  C   UNL A   1      44.789  39.823  27.822  1.00  0.00     0.202 C 
BRANCH  44  45
ATOM     45  C   UNL A   1      45.757  39.101  28.772  1.00  0.00     0.261 C 
BRANCH  45  46
ATOM     46  O   UNL A   1      45.440  37.754  29.182  1.00  0.00    -0.460 OA
BRANCH  46  47
ATOM     47  C   UNL A   1      46.375  36.973  29.757  1.00  0.00     0.338 C 
ATOM     48  O   UNL A   1      47.193  37.311  30.605  1.00  0.00    -0.246 OA
BRANCH  47  49
ATOM     49  C   UNL A   1      46.128  35.565  29.345  1.00  0.00     0.060 A 
ATOM     50  C   UNL A   1      45.326  35.305  28.224  1.00  0.00     0.016 A 
ATOM     51  C   UNL A   1      46.699  34.497  30.047  1.00  0.00     0.016 A 
ATOM     52  C   UNL A   1      45.038  33.986  27.847  1.00  0.00     0.010 A 
ATOM     53  C   UNL A   1      46.392  33.177  29.685  1.00  0.00     0.010 A 
ATOM     54  C   UNL A   1      45.519  32.913  28.614  1.00  0.00    -0.014 A 
BRANCH  54  55
ATOM     55  C   UNL A   1      44.876  31.574  28.495  1.00  0.00     0.031 A 
ATOM     56  C   UNL A   1      45.602  30.527  27.685  1.00  0.00     0.074 A 
ATOM     57  C   UNL A   1      43.701  31.261  29.074  1.00  0.00     0.049 A 
ATOM     58  N   UNL A   1      45.254  29.300  27.394  1.00  0.00    -0.248 NA
ATOM     59  C   UNL A   1      46.904  30.929  27.125  1.00  0.00     0.031 C 
ATOM     60  C   UNL A   1      42.899  32.153  29.904  1.00  0.00     0.029 A 
ATOM     61  N   UNL A   1      42.975  30.092  29.037  1.00  0.00    -0.354 N 
ATOM     62  C   UNL A   1      46.287  28.789  26.620  1.00  0.00     0.074 A 
ATOM     63  C   UNL A   1      47.265  29.841  26.465  1.00  0.00     0.031 C 
ATOM     64  C   UNL A   1      41.787  31.503  30.295  1.00  0.00     0.029 A 
ATOM     65  C   UNL A   1      41.780  30.159  29.712  1.00  0.00     0.049 A 
ATOM     66  H   UNL A   1      43.283  29.283  28.571  1.00  0.00     0.167 HD
ATOM     67  C   UNL A   1      46.419  27.552  26.084  1.00  0.00     0.037 A 
ATOM     68  C   UNL A   1      40.788  29.250  29.825  1.00  0.00     0.037 A 
ATOM     69  C   UNL A   1      45.450  26.499  26.215  1.00  0.00     0.049 A 
ATOM     70  C   UNL A   1      40.925  27.900  29.155  1.00  0.00     0.074 A 
ATOM     71  C   UNL A   1      45.505  25.211  25.714  1.00  0.00     0.029 A 
ATOM     72  N   UNL A   1      44.242  26.618  26.883  1.00  0.00    -0.354 N 
ATOM     73  N   UNL A   1      41.924  27.414  28.460  1.00  0.00    -0.248 NA
ATOM     74  C   UNL A   1      39.789  26.973  29.287  1.00  0.00     0.031 C 
ATOM     75  C   UNL A   1      44.305  24.567  26.030  1.00  0.00     0.029 A 
ATOM     76  C   UNL A   1      43.529  25.435  26.781  1.00  0.00     0.049 A 
ATOM     77  H   UNL A   1      43.936  27.424  27.360  1.00  0.00     0.167 HD
ATOM     78  C   UNL A   1      41.551  26.122  28.101  1.00  0.00     0.074 A 
ATOM     79  C   UNL A   1      40.242  25.892  28.669  1.00  0.00     0.031 C 
ATOM     80  C   UNL A   1      42.231  25.210  27.361  1.00  0.00     0.037 A 
BRANCH  67  81
ATOM     81  C   UNL A   1      47.649  27.282  25.270  1.00  0.00     0.064 A 
ATOM     82  C   UNL A   1      48.818  26.766  25.850  1.00  0.00     0.173 A 
ATOM     83  C   UNL A   1      47.646  27.514  23.887  1.00  0.00     0.173 A 
ATOM     84  F   UNL A   1      48.877  26.548  27.172  1.00  0.00    -0.203 F 
ATOM     85  C   UNL A   1      49.947  26.512  25.076  1.00  0.00     0.198 A 
ATOM     86  C   UNL A   1      48.767  27.231  23.112  1.00  0.00     0.198 A 
ATOM     87  F   UNL A   1      46.552  28.007  23.286  1.00  0.00    -0.203 F 
ATOM     88  F   UNL A   1      51.068  26.061  25.656  1.00  0.00    -0.200 F 
ATOM     89  C   UNL A   1      49.918  26.736  23.706  1.00  0.00     0.200 A 
ATOM     90  F   UNL A   1      48.732  27.438  21.788  1.00  0.00    -0.200 F 
ATOM     91  F   UNL A   1      51.002  26.482  22.961  1.00  0.00    -0.200 F 
ENDBRANCH  67  81
BRANCH  68  92
ATOM     92  C   UNL A   1      39.542  29.577  30.577  1.00  0.00     0.064 A 
ATOM     93  C   UNL A   1      39.352  29.138  31.896  1.00  0.00     0.173 A 
ATOM     94  C   UNL A   1      38.489  30.273  29.967  1.00  0.00     0.173 A 
ATOM     95  F   UNL A   1      40.314  28.438  32.514  1.00  0.00    -0.203 F 
ATOM     96  C   UNL A   1      38.146  29.357  32.563  1.00  0.00     0.198 A 
ATOM     97  C   UNL A   1      37.296  30.520  30.646  1.00  0.00     0.198 A 
ATOM     98  F   UNL A   1      38.612  30.707  28.705  1.00  0.00    -0.203 F 
ATOM     99  F   UNL A   1      37.969  28.868  33.798  1.00  0.00    -0.200 F 
ATOM    100  C   UNL A   1      37.122  30.052  31.939  1.00  0.00     0.200 A 
ATOM    101  F   UNL A   1      36.312  31.200  30.042  1.00  0.00    -0.200 F 
ATOM    102  F   UNL A   1      35.962  30.257  32.579  1.00  0.00    -0.200 F 
ENDBRANCH  68  92
BRANCH  80 103
ATOM    103  C   UNL A   1      41.596  23.863  27.154  1.00  0.00     0.064 A 
ATOM    104  C   UNL A   1      42.124  22.699  27.733  1.00  0.00     0.173 A 
ATOM    105  C   UNL A   1      40.416  23.742  26.403  1.00  0.00     0.173 A 
ATOM    106  F   UNL A   1      43.256  22.756  28.451  1.00  0.00    -0.203 F 
ATOM    107  C   UNL A   1      41.512  21.462  27.544  1.00  0.00     0.198 A 
ATOM    108  C   UNL A   1      39.788  22.510  26.244  1.00  0.00     0.198 A 
ATOM    109  F   UNL A   1      39.862  24.824  25.837  1.00  0.00    -0.203 F 
ATOM    110  F   UNL A   1      42.062  20.357  28.064  1.00  0.00    -0.200 F 
ATOM    111  C   UNL A   1      40.341  21.370  26.806  1.00  0.00     0.200 A 
ATOM    112  F   UNL A   1      38.648  22.425  25.545  1.00  0.00    -0.200 F 
ATOM    113  F   UNL A   1      39.749  20.180  26.632  1.00  0.00    -0.200 F 
ENDBRANCH  80 103
ENDBRANCH  54  55
ENDBRANCH  47  49
ENDBRANCH  46  47
ENDBRANCH  45  46
ENDBRANCH  44  45
ENDBRANCH  43  44
ENDBRANCH  42  43
ENDBRANCH  41  42
ENDBRANCH  40  41
ENDBRANCH  39  40
ENDBRANCH   1  39
TORSDOF 25
ENDMDL
MODEL 2
REMARK VINA RESULT:      -7.8      5.772     13.203
REMARK SMILES CCOC(=O)c1ccc(NC(=O)[C@@H]2[C@H]3c4ccccc4[C@H](c4ccccc43)[C@@H]2C(=O)OCCOCCOCCOCCOC(=O)c2ccc(-c3c4nc(c(-c5c(F)c(F)c(F)c(F)c5F)c5ccc([nH]5)c(-c5c(F)c(F)c(F)c(F)c5F)c5nc(c(-c6c(F)c(F)c(F)c(F)c6F)c6ccc3[nH]6)C=C5)C=C4)cc2)cc1
REMARK SMILES IDX 35 1 34 2 33 3 32 4 31 5 29 6 30 7 28 8 13 9 14 10 15 11
REMARK SMILES IDX 27 12 21 13 16 14 20 15 22 16 26 17 17 18 19 19 23 20 25 21
REMARK SMILES IDX 18 22 24 23 11 24 10 25 12 27 9 28 6 29 7 30 110 31 8 32
REMARK SMILES IDX 109 33 4 34 5 35 3 36 2 37 1 38 36 39 37 40 38 41 39 42
REMARK SMILES IDX 40 43 41 44 42 45 43 46 44 47 45 48 46 49 47 50 108 51 48 52
REMARK SMILES IDX 107 53 49 54 50 55 51 56 101 57 52 58 106 59 100 60 102 61
REMARK SMILES IDX 53 62 105 63 99 64 98 65 54 67 86 68 66 69 85 70 67 71 70 72
REMARK SMILES IDX 84 73 103 74 68 75 69 76 83 78 104 79 71 80 55 81 56 82
REMARK SMILES IDX 64 83 57 84 58 85 62 86 65 87 59 88 60 89 63 90 61 91 87 92
REMARK SMILES IDX 88 93 96 94 89 95 90 96 94 97 97 98 91 99 92 100 95 101
REMARK SMILES IDX 93 102 72 103 73 104 81 105 74 106 75 107 79 108 82 109
REMARK SMILES IDX 76 110 77 111 80 112 78 113
REMARK H PARENT 10 26 102 66 70 77
REMARK Flexibility Score: inf
ROOT
ATOM      1  C   UNL A   1      32.619  30.369  27.256  1.00  0.00     0.188 C 
ENDROOT
BRANCH   1   2
ATOM      2  O   UNL A   1      32.303  28.669  26.278  1.00  0.00    -0.376 OA
BRANCH   2   3
ATOM      3  C   UNL A   1      32.484  27.201  25.975  1.00  0.00     0.202 C 
BRANCH   3   4
ATOM      4  C   UNL A   1      33.757  26.344  26.290  1.00  0.00     0.261 C 
BRANCH   4   5
ATOM      5  O   UNL A   1      33.618  24.924  26.402  1.00  0.00    -0.463 OA
BRANCH   5   6
ATOM      6  C   UNL A   1      33.989  24.274  25.270  1.00  0.00     0.310 C 
ATOM      7  O   UNL A   1      34.227  24.867  24.219  1.00  0.00    -0.252 OA
BRANCH   6   8
ATOM      8  C   UNL A   1      34.170  22.726  25.485  1.00  0.00     0.124 C 
ATOM      9  C   UNL A   1      34.442  22.194  24.097  1.00  0.00     0.106 C 
ATOM     10  C   UNL A   1      32.992  21.909  23.484  1.00  0.00     0.063 C 
ATOM     11  C   UNL A   1      32.749  20.522  24.129  1.00  0.00    -0.036 A 
ATOM     12  C   UNL A   1      31.862  22.812  24.111  1.00  0.00    -0.036 A 
ATOM     13  C   UNL A   1      32.955  21.982  26.118  1.00  0.00     0.065 C 
ATOM     14  C   UNL A   1      32.588  19.323  23.455  1.00  0.00     0.004 A 
ATOM     15  C   UNL A   1      32.841  20.561  25.558  1.00  0.00    -0.036 A 
ATOM     16  C   UNL A   1      31.797  22.751  25.540  1.00  0.00    -0.036 A 
ATOM     17  C   UNL A   1      31.056  23.742  23.478  1.00  0.00     0.004 A 
ATOM     18  C   UNL A   1      32.540  18.149  24.209  1.00  0.00     0.000 A 
ATOM     19  C   UNL A   1      32.811  19.389  26.295  1.00  0.00     0.004 A 
ATOM     20  C   UNL A   1      30.954  23.537  26.316  1.00  0.00     0.004 A 
ATOM     21  C   UNL A   1      30.223  24.570  24.261  1.00  0.00     0.000 A 
ATOM     22  C   UNL A   1      32.665  18.180  25.609  1.00  0.00     0.000 A 
ATOM     23  C   UNL A   1      30.165  24.464  25.661  1.00  0.00     0.000 A 
BRANCH   9  24
ATOM     24  C   UNL A   1      35.583  22.867  23.332  1.00  0.00     0.229 C 
ATOM     25  N   UNL A   1      36.903  22.973  23.731  1.00  0.00    -0.326 N 
ATOM     26  H   UNL A   1      37.476  23.087  22.939  1.00  0.00     0.169 HD
ATOM     27  O   UNL A   1      35.357  23.225  22.164  1.00  0.00    -0.274 OA
BRANCH  25  28
ATOM     28  C   UNL A   1      37.715  22.971  24.916  1.00  0.00     0.041 A 
ATOM     29  C   UNL A   1      40.502  22.578  27.245  1.00  0.00     0.060 A 
ATOM     30  C   UNL A   1      39.745  24.191  27.024  1.00  0.00     0.018 A 
ATOM     31  C   UNL A   1      39.861  21.155  26.343  1.00  0.00     0.018 A 
ATOM     32  C   UNL A   1      38.335  24.374  25.890  1.00  0.00     0.027 A 
ATOM     33  C   UNL A   1      38.488  21.344  25.182  1.00  0.00     0.027 A 
BRANCH  29  34
ATOM     34  C   UNL A   1      41.607  22.503  28.194  1.00  0.00     0.338 C 
ATOM     35  O   UNL A   1      41.511  22.007  29.311  1.00  0.00    -0.246 OA
BRANCH  34  36
ATOM     36  O   UNL A   1      42.609  23.257  27.703  1.00  0.00    -0.462 OA
BRANCH  36  37
ATOM     37  C   UNL A   1      43.252  22.765  26.518  1.00  0.00     0.230 C 
ATOM     38  C   UNL A   1      44.741  23.049  26.618  1.00  0.00     0.049 C 
ENDBRANCH  36  37
ENDBRANCH  34  36
ENDBRANCH  29  34
ENDBRANCH  25  28
ENDBRANCH   9  24
ENDBRANCH   6   8
ENDBRANCH   5   6
ENDBRANCH   4   5
ENDBRANCH   3   4
ENDBRANCH   2   3
ENDBRANCH   1   2
BRANCH   1  39
ATOM     39  C   UNL A   1      33.906  31.415  27.250  1.00  0.00     0.188 C 
BRANCH  39  40
ATOM     40  O   UNL A   1      34.618  31.647  28.461  1.00  0.00    -0.377 OA
BRANCH  40  41
ATOM     41  C   UNL A   1      34.353  32.840  29.196  1.00  0.00     0.188 C 
BRANCH  41  42
ATOM     42  C   UNL A   1      35.526  33.558  29.865  1.00  0.00     0.188 C 
BRANCH  42  43
ATOM     43  O   UNL A   1      35.416  33.561  31.278  1.00  0.00    -0.376 OA
BRANCH  43  44
ATOM     44  C   UNL A   1      34.985  32.356  31.886  1.00  0.00     0.202 C 
BRANCH  44  45
ATOM     45  C   UNL A   1      36.047  31.523  32.620  1.00  0.00     0.261 C 
BRANCH  45  46
ATOM     46  O   UNL A   1      36.222  30.142  32.236  1.00  0.00    -0.460 OA
BRANCH  46  47
ATOM     47  C   UNL A   1      37.371  29.494  32.509  1.00  0.00     0.338 C 
ATOM     48  O   UNL A   1      37.485  28.367  32.975  1.00  0.00    -0.246 OA
BRANCH  47  49
ATOM     49  C   UNL A   1      38.501  30.293  31.961  1.00  0.00     0.060 A 
ATOM     50  C   UNL A   1      38.778  30.244  30.587  1.00  0.00     0.016 A 
ATOM     51  C   UNL A   1      39.278  31.108  32.793  1.00  0.00     0.016 A 
ATOM     52  C   UNL A   1      39.867  30.949  30.056  1.00  0.00     0.010 A 
ATOM     53  C   UNL A   1      40.382  31.794  32.267  1.00  0.00     0.010 A 
ATOM     54  C   UNL A   1      40.715  31.678  30.905  1.00  0.00    -0.014 A 
BRANCH  54  55
ATOM     55  C   UNL A   1      42.082  32.049  30.442  1.00  0.00     0.031 A 
ATOM     56  C   UNL A   1      42.277  33.449  29.912  1.00  0.00     0.074 A 
ATOM     57  C   UNL A   1      43.132  31.207  30.483  1.00  0.00     0.049 A 
ATOM     58  N   UNL A   1      43.347  34.017  29.416  1.00  0.00    -0.248 NA
ATOM     59  C   UNL A   1      41.094  34.326  29.945  1.00  0.00     0.031 C 
ATOM     60  C   UNL A   1      43.106  29.840  30.990  1.00  0.00     0.029 A 
ATOM     61  N   UNL A   1      44.434  31.389  30.074  1.00  0.00    -0.354 N 
ATOM     62  C   UNL A   1      42.965  35.310  29.080  1.00  0.00     0.074 A 
ATOM     63  C   UNL A   1      41.562  35.438  29.404  1.00  0.00     0.031 C 
ATOM     64  C   UNL A   1      44.333  29.301  30.858  1.00  0.00     0.029 A 
ATOM     65  C   UNL A   1      45.224  30.275  30.223  1.00  0.00     0.049 A 
ATOM     66  H   UNL A   1      44.769  32.240  29.710  1.00  0.00     0.167 HD
ATOM     67  C   UNL A   1      43.711  36.308  28.551  1.00  0.00     0.037 A 
ATOM     68  C   UNL A   1      46.509  30.060  29.865  1.00  0.00     0.037 A 
ATOM     69  C   UNL A   1      45.102  36.193  28.208  1.00  0.00     0.049 A 
ATOM     70  C   UNL A   1      47.302  31.168  29.207  1.00  0.00     0.074 A 
ATOM     71  C   UNL A   1      45.940  37.157  27.676  1.00  0.00     0.029 A 
ATOM     72  N   UNL A   1      45.855  35.039  28.350  1.00  0.00    -0.354 N 
ATOM     73  N   UNL A   1      46.942  32.398  28.932  1.00  0.00    -0.248 NA
ATOM     74  C   UNL A   1      48.683  30.852  28.809  1.00  0.00     0.031 C 
ATOM     75  C   UNL A   1      47.188  36.569  27.442  1.00  0.00     0.029 A 
ATOM     76  C   UNL A   1      47.142  35.258  27.885  1.00  0.00     0.049 A 
ATOM     77  H   UNL A   1      45.525  34.190  28.724  1.00  0.00     0.167 HD
ATOM     78  C   UNL A   1      48.055  33.006  28.359  1.00  0.00     0.074 A 
ATOM     79  C   UNL A   1      49.109  32.017  28.343  1.00  0.00     0.031 C 
ATOM     80  C   UNL A   1      48.190  34.270  27.885  1.00  0.00     0.037 A 
BRANCH  67  81
ATOM     81  C   UNL A   1      43.021  37.610  28.274  1.00  0.00     0.064 A 
ATOM     82  C   UNL A   1      43.071  38.679  29.182  1.00  0.00     0.173 A 
ATOM     83  C   UNL A   1      42.328  37.801  27.070  1.00  0.00     0.173 A 
ATOM     84  F   UNL A   1      43.705  38.538  30.356  1.00  0.00    -0.203 F 
ATOM     85  C   UNL A   1      42.433  39.884  28.903  1.00  0.00     0.198 A 
ATOM     86  C   UNL A   1      41.716  39.017  26.781  1.00  0.00     0.198 A 
ATOM     87  F   UNL A   1      42.251  36.808  26.170  1.00  0.00    -0.203 F 
ATOM     88  F   UNL A   1      42.456  40.876  29.803  1.00  0.00    -0.200 F 
ATOM     89  C   UNL A   1      41.764  40.055  27.699  1.00  0.00     0.200 A 
ATOM     90  F   UNL A   1      41.079  39.183  25.614  1.00  0.00    -0.200 F 
ATOM     91  F   UNL A   1      41.159  41.219  27.427  1.00  0.00    -0.200 F 
ENDBRANCH  67  81
BRANCH  68  92
ATOM     92  C   UNL A   1      47.144  28.729  30.084  1.00  0.00     0.064 A 
ATOM     93  C   UNL A   1      47.928  28.474  31.218  1.00  0.00     0.173 A 
ATOM     94  C   UNL A   1      47.036  27.709  29.127  1.00  0.00     0.173 A 
ATOM     95  F   UNL A   1      48.093  29.427  32.147  1.00  0.00    -0.203 F 
ATOM     96  C   UNL A   1      48.605  27.263  31.371  1.00  0.00     0.198 A 
ATOM     97  C   UNL A   1      47.685  26.486  29.297  1.00  0.00     0.198 A 
ATOM     98  F   UNL A   1      46.307  27.902  28.018  1.00  0.00    -0.203 F 
ATOM     99  F   UNL A   1      49.401  27.073  32.432  1.00  0.00    -0.200 F 
ATOM    100  C   UNL A   1      48.478  26.269  30.413  1.00  0.00     0.200 A 
ATOM    101  F   UNL A   1      47.553  25.526  28.372  1.00  0.00    -0.200 F 
ATOM    102  F   UNL A   1      49.132  25.108  30.558  1.00  0.00    -0.200 F 
ENDBRANCH  68  92
BRANCH  80 103
ATOM    103  C   UNL A   1      49.533  34.676  27.344  1.00  0.00     0.064 A 
ATOM    104  C   UNL A   1      50.605  34.997  28.189  1.00  0.00     0.173 A 
ATOM    105  C   UNL A   1      49.763  34.699  25.959  1.00  0.00     0.173 A 
ATOM    106  F   UNL A   1      50.437  35.002  29.521  1.00  0.00    -0.203 F 
ATOM    107  C   UNL A   1      51.847  35.354  27.669  1.00  0.00     0.198 A 
ATOM    108  C   UNL A   1      51.014  35.023  25.443  1.00  0.00     0.198 A 
ATOM    109  F   UNL A   1      48.776  34.390  25.105  1.00  0.00    -0.203 F 
ATOM    110  F   UNL A   1      52.842  35.705  28.495  1.00  0.00    -0.200 F 
ATOM    111  C   UNL A   1      52.053  35.360  26.298  1.00  0.00     0.200 A 
ATOM    112  F   UNL A   1      51.216  35.011  24.118  1.00  0.00    -0.200 F 
ATOM    113  F   UNL A   1      53.252  35.696  25.799  1.00  0.00    -0.200 F 
ENDBRANCH  80 103
ENDBRANCH  54  55
ENDBRANCH  47  49
ENDBRANCH  46  47
ENDBRANCH  45  46
ENDBRANCH  44  45
ENDBRANCH  43  44
ENDBRANCH  42  43
ENDBRANCH  41  42
ENDBRANCH  40  41
ENDBRANCH  39  40
ENDBRANCH   1  39
TORSDOF 25
ENDMDL
MODEL 3
REMARK VINA RESULT:      -7.4      3.824      9.823
REMARK SMILES CCOC(=O)c1ccc(NC(=O)[C@@H]2[C@H]3c4ccccc4[C@H](c4ccccc43)[C@@H]2C(=O)OCCOCCOCCOCCOC(=O)c2ccc(-c3c4nc(c(-c5c(F)c(F)c(F)c(F)c5F)c5ccc([nH]5)c(-c5c(F)c(F)c(F)c(F)c5F)c5nc(c(-c6c(F)c(F)c(F)c(F)c6F)c6ccc3[nH]6)C=C5)C=C4)cc2)cc1
REMARK SMILES IDX 35 1 34 2 33 3 32 4 31 5 29 6 30 7 28 8 13 9 14 10 15 11
REMARK SMILES IDX 27 12 21 13 16 14 20 15 22 16 26 17 17 18 19 19 23 20 25 21
REMARK SMILES IDX 18 22 24 23 11 24 10 25 12 27 9 28 6 29 7 30 110 31 8 32
REMARK SMILES IDX 109 33 4 34 5 35 3 36 2 37 1 38 36 39 37 40 38 41 39 42
REMARK SMILES IDX 40 43 41 44 42 45 43 46 44 47 45 48 46 49 47 50 108 51 48 52
REMARK SMILES IDX 107 53 49 54 50 55 51 56 101 57 52 58 106 59 100 60 102 61
REMARK SMILES IDX 53 62 105 63 99 64 98 65 54 67 86 68 66 69 85 70 67 71 70 72
REMARK SMILES IDX 84 73 103 74 68 75 69 76 83 78 104 79 71 80 55 81 56 82
REMARK SMILES IDX 64 83 57 84 58 85 62 86 65 87 59 88 60 89 63 90 61 91 87 92
REMARK SMILES IDX 88 93 96 94 89 95 90 96 94 97 97 98 91 99 92 100 95 101
REMARK SMILES IDX 93 102 72 103 73 104 81 105 74 106 75 107 79 108 82 109
REMARK SMILES IDX 76 110 77 111 80 112 78 113
REMARK H PARENT 10 26 102 66 70 77
REMARK Flexibility Score: inf
ROOT
ATOM      1  C   UNL A   1      37.966  33.158  37.634  1.00  0.00     0.188 C 
ENDROOT
BRANCH   1   2
ATOM      2  O   UNL A   1      38.521  32.036  36.092  1.00  0.00    -0.376 OA
BRANCH   2   3
ATOM      3  C   UNL A   1      38.501  30.822  35.193  1.00  0.00     0.202 C 
BRANCH   3   4
ATOM      4  C   UNL A   1      38.513  30.835  33.627  1.00  0.00     0.261 C 
BRANCH   4   5
ATOM      5  O   UNL A   1      38.864  29.632  32.934  1.00  0.00    -0.463 OA
BRANCH   5   6
ATOM      6  C   UNL A   1      39.725  29.854  31.910  1.00  0.00     0.310 C 
ATOM      7  O   UNL A   1      40.204  30.964  31.681  1.00  0.00    -0.252 OA
BRANCH   6   8
ATOM      8  C   UNL A   1      40.106  28.539  31.134  1.00  0.00     0.124 C 
ATOM      9  C   UNL A   1      41.136  28.994  30.127  1.00  0.00     0.106 C 
ATOM     10  C   UNL A   1      40.280  29.459  28.857  1.00  0.00     0.063 C 
ATOM     11  C   UNL A   1      40.057  28.065  28.222  1.00  0.00    -0.036 A 
ATOM     12  C   UNL A   1      38.824  29.934  29.229  1.00  0.00    -0.036 A 
ATOM     13  C   UNL A   1      38.932  27.813  30.412  1.00  0.00     0.065 C 
ATOM     14  C   UNL A   1      40.513  27.649  26.982  1.00  0.00     0.004 A 
ATOM     15  C   UNL A   1      39.419  27.150  29.120  1.00  0.00    -0.036 A 
ATOM     16  C   UNL A   1      38.076  28.976  29.985  1.00  0.00    -0.036 A 
ATOM     17  C   UNL A   1      38.258  31.184  29.051  1.00  0.00     0.004 A 
ATOM     18  C   UNL A   1      40.354  26.305  26.642  1.00  0.00     0.000 A 
ATOM     19  C   UNL A   1      39.283  25.815  28.781  1.00  0.00     0.004 A 
ATOM     20  C   UNL A   1      36.813  29.213  30.513  1.00  0.00     0.004 A 
ATOM     21  C   UNL A   1      36.990  31.447  29.615  1.00  0.00     0.000 A 
ATOM     22  C   UNL A   1      39.760  25.396  27.536  1.00  0.00     0.000 A 
ATOM     23  C   UNL A   1      36.271  30.473  30.329  1.00  0.00     0.000 A 
BRANCH   9  24
ATOM     24  C   UNL A   1      42.330  29.768  30.691  1.00  0.00     0.229 C 
ATOM     25  N   UNL A   1      43.119  29.409  31.768  1.00  0.00    -0.326 N 
ATOM     26  H   UNL A   1      44.002  29.837  31.684  1.00  0.00     0.169 HD
ATOM     27  O   UNL A   1      42.746  30.738  30.035  1.00  0.00    -0.274 OA
BRANCH  25  28
ATOM     28  C   UNL A   1      43.080  28.622  32.969  1.00  0.00     0.041 A 
ATOM     29  C   UNL A   1      41.954  26.907  35.991  1.00  0.00     0.060 A 
ATOM     30  C   UNL A   1      42.728  25.970  34.670  1.00  0.00     0.018 A 
ATOM     31  C   UNL A   1      41.768  28.693  35.835  1.00  0.00     0.018 A 
ATOM     32  C   UNL A   1      43.318  26.833  33.182  1.00  0.00     0.027 A 
ATOM     33  C   UNL A   1      42.315  29.547  34.338  1.00  0.00     0.027 A 
BRANCH  29  34
ATOM     34  C   UNL A   1      41.534  26.150  37.165  1.00  0.00     0.338 C 
ATOM     35  O   UNL A   1      40.430  25.628  37.279  1.00  0.00    -0.246 OA
BRANCH  34  36
ATOM     36  O   UNL A   1      42.463  26.345  38.121  1.00  0.00    -0.462 OA
BRANCH  36  37
ATOM     37  C   UNL A   1      43.647  25.540  38.028  1.00  0.00     0.230 C 
ATOM     38  C   UNL A   1      44.847  26.455  37.856  1.00  0.00     0.049 C 
ENDBRANCH  36  37
ENDBRANCH  34  36
ENDBRANCH  29  34
ENDBRANCH  25  28
ENDBRANCH   9  24
ENDBRANCH   6   8
ENDBRANCH   5   6
ENDBRANCH   4   5
ENDBRANCH   3   4
ENDBRANCH   2   3
ENDBRANCH   1   2
BRANCH   1  39
ATOM     39  C   UNL A   1      37.366  32.752  39.126  1.00  0.00     0.188 C 
BRANCH  39  40
ATOM     40  O   UNL A   1      37.780  31.532  39.733  1.00  0.00    -0.377 OA
BRANCH  40  41
ATOM     41  C   UNL A   1      37.800  31.446  41.156  1.00  0.00     0.188 C 
BRANCH  41  42
ATOM     42  C   UNL A   1      38.995  32.039  41.904  1.00  0.00     0.188 C 
BRANCH  42  43
ATOM     43  O   UNL A   1      40.193  31.953  41.153  1.00  0.00    -0.376 OA
BRANCH  43  44
ATOM     44  C   UNL A   1      41.245  32.825  41.530  1.00  0.00     0.202 C 
BRANCH  44  45
ATOM     45  C   UNL A   1      41.130  34.293  41.090  1.00  0.00     0.261 C 
BRANCH  45  46
ATOM     46  O   UNL A   1      40.626  34.575  39.767  1.00  0.00    -0.460 OA
BRANCH  46  47
ATOM     47  C   UNL A   1      41.340  35.327  38.907  1.00  0.00     0.338 C 
ATOM     48  O   UNL A   1      41.421  36.550  38.893  1.00  0.00    -0.246 OA
BRANCH  47  49
ATOM     49  C   UNL A   1      42.188  34.422  38.085  1.00  0.00     0.060 A 
ATOM     50  C   UNL A   1      43.501  34.804  37.771  1.00  0.00     0.016 A 
ATOM     51  C   UNL A   1      41.703  33.187  37.638  1.00  0.00     0.016 A 
ATOM     52  C   UNL A   1      44.301  33.990  36.956  1.00  0.00     0.010 A 
ATOM     53  C   UNL A   1      42.494  32.384  36.804  1.00  0.00     0.010 A 
ATOM     54  C   UNL A   1      43.780  32.804  36.416  1.00  0.00    -0.014 A 
BRANCH  54  55
ATOM     55  C   UNL A   1      44.437  32.181  35.232  1.00  0.00     0.031 A 
ATOM     56  C   UNL A   1      44.205  32.832  33.890  1.00  0.00     0.074 A 
ATOM     57  C   UNL A   1      45.220  31.088  35.308  1.00  0.00     0.049 A 
ATOM     58  N   UNL A   1      44.625  32.478  32.702  1.00  0.00    -0.248 NA
ATOM     59  C   UNL A   1      43.378  34.051  33.895  1.00  0.00     0.031 C 
ATOM     60  C   UNL A   1      45.557  30.369  36.532  1.00  0.00     0.029 A 
ATOM     61  N   UNL A   1      45.867  30.388  34.316  1.00  0.00    -0.354 N 
ATOM     62  C   UNL A   1      44.114  33.427  31.825  1.00  0.00     0.074 A 
ATOM     63  C   UNL A   1      43.335  34.357  32.609  1.00  0.00     0.031 C 
ATOM     64  C   UNL A   1      46.345  29.322  36.219  1.00  0.00     0.029 A 
ATOM     65  C   UNL A   1      46.540  29.278  34.768  1.00  0.00     0.049 A 
ATOM     66  H   UNL A   1      45.852  30.658  33.370  1.00  0.00     0.167 HD
ATOM     67  C   UNL A   1      44.278  33.523  30.484  1.00  0.00     0.037 A 
ATOM     68  C   UNL A   1      47.211  28.325  34.086  1.00  0.00     0.037 A 
ATOM     69  C   UNL A   1      45.037  32.598  29.687  1.00  0.00     0.049 A 
ATOM     70  C   UNL A   1      47.318  28.413  32.579  1.00  0.00     0.074 A 
ATOM     71  C   UNL A   1      45.265  32.623  28.323  1.00  0.00     0.029 A 
ATOM     72  N   UNL A   1      45.677  31.473  30.181  1.00  0.00    -0.354 N 
ATOM     73  N   UNL A   1      46.867  29.336  31.765  1.00  0.00    -0.248 NA
ATOM     74  C   UNL A   1      48.032  27.321  31.897  1.00  0.00     0.031 C 
ATOM     75  C   UNL A   1      45.997  31.481  27.981  1.00  0.00     0.029 A 
ATOM     76  C   UNL A   1      46.276  30.779  29.142  1.00  0.00     0.049 A 
ATOM     77  H   UNL A   1      45.703  31.207  31.129  1.00  0.00     0.167 HD
ATOM     78  C   UNL A   1      47.264  28.952  30.488  1.00  0.00     0.074 A 
ATOM     79  C   UNL A   1      48.010  27.722  30.635  1.00  0.00     0.031 C 
ATOM     80  C   UNL A   1      47.028  29.561  29.299  1.00  0.00     0.037 A 
BRANCH  67  81
ATOM     81  C   UNL A   1      43.588  34.656  29.786  1.00  0.00     0.064 A 
ATOM     82  C   UNL A   1      44.238  35.875  29.539  1.00  0.00     0.173 A 
ATOM     83  C   UNL A   1      42.270  34.508  29.330  1.00  0.00     0.173 A 
ATOM     84  F   UNL A   1      45.492  36.071  29.973  1.00  0.00    -0.203 F 
ATOM     85  C   UNL A   1      43.585  36.912  28.879  1.00  0.00     0.198 A 
ATOM     86  C   UNL A   1      41.630  35.536  28.645  1.00  0.00     0.198 A 
ATOM     87  F   UNL A   1      41.606  33.361  29.543  1.00  0.00    -0.203 F 
ATOM     88  F   UNL A   1      44.208  38.083  28.692  1.00  0.00    -0.200 F 
ATOM     89  C   UNL A   1      42.285  36.739  28.425  1.00  0.00     0.200 A 
ATOM     90  F   UNL A   1      40.378  35.363  28.199  1.00  0.00    -0.200 F 
ATOM     91  F   UNL A   1      41.660  37.735  27.782  1.00  0.00    -0.200 F 
ENDBRANCH  67  81
BRANCH  68  92
ATOM     92  C   UNL A   1      47.821  27.168  34.802  1.00  0.00     0.064 A 
ATOM     93  C   UNL A   1      49.133  27.227  35.296  1.00  0.00     0.173 A 
ATOM     94  C   UNL A   1      47.129  25.956  34.943  1.00  0.00     0.173 A 
ATOM     95  F   UNL A   1      49.851  28.350  35.156  1.00  0.00    -0.203 F 
ATOM     96  C   UNL A   1      49.737  26.110  35.875  1.00  0.00     0.198 A 
ATOM     97  C   UNL A   1      47.722  24.851  35.553  1.00  0.00     0.198 A 
ATOM     98  F   UNL A   1      45.876  25.841  34.481  1.00  0.00    -0.203 F 
ATOM     99  F   UNL A   1      51.014  26.176  36.277  1.00  0.00    -0.200 F 
ATOM    100  C   UNL A   1      49.029  24.926  36.007  1.00  0.00     0.200 A 
ATOM    101  F   UNL A   1      47.031  23.711  35.686  1.00  0.00    -0.200 F 
ATOM    102  F   UNL A   1      49.613  23.852  36.559  1.00  0.00    -0.200 F 
ENDBRANCH  68  92
BRANCH  80 103
ATOM    103  C   UNL A   1      47.613  28.936  28.063  1.00  0.00     0.064 A 
ATOM    104  C   UNL A   1      48.913  29.231  27.629  1.00  0.00     0.173 A 
ATOM    105  C   UNL A   1      46.877  27.993  27.328  1.00  0.00     0.173 A 
ATOM    106  F   UNL A   1      49.657  30.133  28.288  1.00  0.00    -0.203 F 
ATOM    107  C   UNL A   1      49.444  28.628  26.490  1.00  0.00     0.198 A 
ATOM    108  C   UNL A   1      47.422  27.368  26.211  1.00  0.00     0.198 A 
ATOM    109  F   UNL A   1      45.632  27.665  27.705  1.00  0.00    -0.203 F 
ATOM    110  F   UNL A   1      50.670  28.964  26.066  1.00  0.00    -0.200 F 
ATOM    111  C   UNL A   1      48.701  27.692  25.787  1.00  0.00     0.200 A 
ATOM    112  F   UNL A   1      46.709  26.450  25.542  1.00  0.00    -0.200 F 
ATOM    113  F   UNL A   1      49.217  27.107  24.696  1.00  0.00    -0.200 F 
ENDBRANCH  80 103
ENDBRANCH  54  55
ENDBRANCH  47  49
ENDBRANCH  46  47
ENDBRANCH  45  46
ENDBRANCH  44  45
ENDBRANCH  43  44
ENDBRANCH  42  43
ENDBRANCH  41  42
ENDBRANCH  40  41
ENDBRANCH  39  40
ENDBRANCH   1  39
TORSDOF 25
ENDMDL
