MODEL 1
REMARK VINA RESULT:     -11.1      0.000      0.000
REMARK SMILES C[C@]12CCC(=O)N1[C@@H](C(=O)N1C[C@H](O)C[C@@H]1C(=O)OCCOCCOCCOCCOC(=O)c1ccc(-c3c4nc(c(-c5c(F)c(F)c(F)c(F)c5F)c5ccc([nH]5)c(-c5c(F)c(F)c(F)c(F)c5F)c5nc(c(-c6c(F)c(F)c(F)c(F)c6F)c6ccc3[nH]6)C=C5)C=C4)cc1)CS2
REMARK SMILES IDX 25 1 24 2 23 3 22 4 21 5 20 6 19 7 17 8 18 9 16 10 11 11
REMARK SMILES IDX 12 12 13 13 15 14 9 15 10 16 8 17 1 18 2 19 3 20 7 21 98 22
REMARK SMILES IDX 4 23 5 24 97 25 6 26 14 27 26 29 27 30 28 31 29 32 30 33
REMARK SMILES IDX 31 34 32 35 33 36 34 37 35 38 96 39 36 40 95 41 37 42 38 43
REMARK SMILES IDX 39 44 89 45 40 46 94 47 88 48 90 49 41 50 93 51 87 52 86 53
REMARK SMILES IDX 42 55 74 56 54 57 73 58 55 59 58 60 72 61 91 62 56 63 57 64
REMARK SMILES IDX 71 66 92 67 59 68 43 69 44 70 52 71 45 72 46 73 50 74 53 75
REMARK SMILES IDX 47 76 48 77 51 78 49 79 75 80 76 81 84 82 77 83 78 84 82 85
REMARK SMILES IDX 85 86 79 87 80 88 83 89 81 90 60 91 61 92 69 93 62 94 63 95
REMARK SMILES IDX 67 96 70 97 64 98 65 99 68 100 66 101
REMARK H PARENT 14 28 90 54 58 65
REMARK Flexibility Score: inf
ROOT
ATOM      1  O   UNL A   1      33.268  33.870  29.179  1.00  0.00    -0.377 OA
ENDROOT
BRANCH   1   2
ATOM      2  C   UNL A   1      34.416  33.037  29.242  1.00  0.00     0.188 C 
BRANCH   2   3
ATOM      3  C   UNL A   1      34.901  32.280  27.992  1.00  0.00     0.188 C 
BRANCH   3   4
ATOM      4  O   UNL A   1      34.507  30.912  27.978  1.00  0.00    -0.376 OA
BRANCH   4   5
ATOM      5  C   UNL A   1      33.282  30.674  27.291  1.00  0.00     0.202 C 
BRANCH   5   6
ATOM      6  C   UNL A   1      33.430  29.555  26.258  1.00  0.00     0.261 C 
BRANCH   6   7
ATOM      7  O   UNL A   1      32.904  29.868  24.952  1.00  0.00    -0.462 OA
BRANCH   7   8
ATOM      8  C   UNL A   1      33.056  28.953  23.954  1.00  0.00     0.329 C 
ATOM      9  O   UNL A   1      33.997  28.941  23.170  1.00  0.00    -0.250 OA
BRANCH   8  10
ATOM     10  C   UNL A   1      32.002  27.820  24.088  1.00  0.00     0.197 C 
ATOM     11  N   UNL A   1      32.131  26.848  22.988  1.00  0.00    -0.324 N 
ATOM     12  C   UNL A   1      31.080  27.081  22.002  1.00  0.00     0.152 C 
ATOM     13  C   UNL A   1      30.384  28.370  22.439  1.00  0.00     0.136 C 
ATOM     14  C   UNL A   1      30.576  28.367  23.947  1.00  0.00     0.070 C 
BRANCH  11  15
ATOM     15  C   UNL A   1      32.961  25.756  22.803  1.00  0.00     0.247 C 
ATOM     16  O   UNL A   1      33.943  25.862  22.052  1.00  0.00    -0.272 OA
BRANCH  15  17
ATOM     17  C   UNL A   1      32.618  24.340  23.348  1.00  0.00     0.186 C 
ATOM     18  C   UNL A   1      31.743  22.382  25.949  1.00  0.00     0.047 C 
ATOM     19  C   UNL A   1      32.996  22.654  25.114  1.00  0.00     0.087 C 
ATOM     20  C   UNL A   1      34.265  22.373  25.924  1.00  0.00     0.049 C 
ATOM     21  N   UNL A   1      33.104  24.032  24.702  1.00  0.00    -0.315 N 
ATOM     22  S   UNL A   1      32.879  21.689  23.570  1.00  0.00    -0.131 SA
ATOM     23  C   UNL A   1      35.046  23.679  25.947  1.00  0.00     0.103 C 
ATOM     24  C   UNL A   1      34.145  24.692  25.315  1.00  0.00     0.224 C 
ATOM     25  C   UNL A   1      32.969  23.148  22.482  1.00  0.00     0.107 C 
ATOM     26  O   UNL A   1      34.404  25.884  25.264  1.00  0.00    -0.275 OA
ENDBRANCH  15  17
ENDBRANCH  11  15
BRANCH  13  27
ATOM     27  O   UNL A   1      31.036  29.525  21.913  1.00  0.00    -0.391 OA
ATOM     28  H   UNL A   1      31.216  29.393  20.969  1.00  0.00     0.211 HD
ENDBRANCH  13  27
ENDBRANCH   8  10
ENDBRANCH   7   8
ENDBRANCH   6   7
ENDBRANCH   5   6
ENDBRANCH   4   5
ENDBRANCH   3   4
ENDBRANCH   2   3
ENDBRANCH   1   2
BRANCH   1  29
ATOM     29  C   UNL A   1      33.456  35.272  29.255  1.00  0.00     0.188 C 
BRANCH  29  30
ATOM     30  C   UNL A   1      32.893  35.971  30.503  1.00  0.00     0.188 C 
BRANCH  30  31
ATOM     31  O   UNL A   1      33.842  36.104  31.560  1.00  0.00    -0.376 OA
BRANCH  31  32
ATOM     32  C   UNL A   1      33.930  35.003  32.458  1.00  0.00     0.202 C 
BRANCH  32  33
ATOM     33  C   UNL A   1      35.367  34.656  32.865  1.00  0.00     0.261 C 
BRANCH  33  34
ATOM     34  O   UNL A   1      35.874  33.442  32.288  1.00  0.00    -0.460 OA
BRANCH  34  35
ATOM     35  C   UNL A   1      36.521  32.590  33.112  1.00  0.00     0.338 C 
ATOM     36  O   UNL A   1      36.275  32.350  34.279  1.00  0.00    -0.246 OA
BRANCH  35  37
ATOM     37  C   UNL A   1      37.469  31.822  32.283  1.00  0.00     0.060 A 
ATOM     38  C   UNL A   1      38.442  31.046  32.928  1.00  0.00     0.016 A 
ATOM     39  C   UNL A   1      37.353  31.811  30.890  1.00  0.00     0.016 A 
ATOM     40  C   UNL A   1      39.319  30.270  32.174  1.00  0.00     0.010 A 
ATOM     41  C   UNL A   1      38.253  31.061  30.134  1.00  0.00     0.010 A 
ATOM     42  C   UNL A   1      39.258  30.315  30.774  1.00  0.00    -0.014 A 
BRANCH  42  43
ATOM     43  C   UNL A   1      40.408  29.816  29.990  1.00  0.00     0.031 A 
ATOM     44  C   UNL A   1      41.522  30.785  29.714  1.00  0.00     0.074 A 
ATOM     45  C   UNL A   1      40.471  28.549  29.548  1.00  0.00     0.049 A 
ATOM     46  N   UNL A   1      42.639  30.607  29.058  1.00  0.00    -0.248 NA
ATOM     47  C   UNL A   1      41.351  32.145  30.256  1.00  0.00     0.031 C 
ATOM     48  C   UNL A   1      39.461  27.518  29.777  1.00  0.00     0.029 A 
ATOM     49  N   UNL A   1      41.436  27.919  28.804  1.00  0.00    -0.354 N 
ATOM     50  C   UNL A   1      43.304  31.824  29.122  1.00  0.00     0.074 A 
ATOM     51  C   UNL A   1      42.457  32.743  29.845  1.00  0.00     0.031 C 
ATOM     52  C   UNL A   1      39.856  26.383  29.171  1.00  0.00     0.029 A 
ATOM     53  C   UNL A   1      41.135  26.617  28.500  1.00  0.00     0.049 A 
ATOM     54  H   UNL A   1      42.267  28.362  28.515  1.00  0.00     0.167 HD
ATOM     55  C   UNL A   1      44.520  32.145  28.625  1.00  0.00     0.037 A 
ATOM     56  C   UNL A   1      41.814  25.726  27.752  1.00  0.00     0.037 A 
ATOM     57  C   UNL A   1      45.348  31.239  27.881  1.00  0.00     0.049 A 
ATOM     58  C   UNL A   1      43.135  26.132  27.144  1.00  0.00     0.074 A 
ATOM     59  C   UNL A   1      46.597  31.462  27.333  1.00  0.00     0.029 A 
ATOM     60  N   UNL A   1      44.997  29.934  27.568  1.00  0.00    -0.354 N 
ATOM     61  N   UNL A   1      43.779  27.270  27.242  1.00  0.00    -0.248 NA
ATOM     62  C   UNL A   1      43.825  25.125  26.324  1.00  0.00     0.031 C 
ATOM     63  C   UNL A   1      46.983  30.304  26.648  1.00  0.00     0.029 A 
ATOM     64  C   UNL A   1      45.995  29.345  26.812  1.00  0.00     0.049 A 
ATOM     65  H   UNL A   1      44.161  29.492  27.843  1.00  0.00     0.167 HD
ATOM     66  C   UNL A   1      44.958  27.107  26.525  1.00  0.00     0.074 A 
ATOM     67  C   UNL A   1      44.946  25.756  26.006  1.00  0.00     0.031 C 
ATOM     68  C   UNL A   1      45.963  27.994  26.316  1.00  0.00     0.037 A 
BRANCH  55  69
ATOM     69  C   UNL A   1      45.002  33.545  28.853  1.00  0.00     0.064 A 
ATOM     70  C   UNL A   1      44.702  34.579  27.953  1.00  0.00     0.173 A 
ATOM     71  C   UNL A   1      45.773  33.856  29.981  1.00  0.00     0.173 A 
ATOM     72  F   UNL A   1      43.990  34.323  26.845  1.00  0.00    -0.203 F 
ATOM     73  C   UNL A   1      45.177  35.870  28.164  1.00  0.00     0.198 A 
ATOM     74  C   UNL A   1      46.223  35.155  30.203  1.00  0.00     0.198 A 
ATOM     75  F   UNL A   1      46.093  32.902  30.868  1.00  0.00    -0.203 F 
ATOM     76  F   UNL A   1      44.919  36.832  27.266  1.00  0.00    -0.200 F 
ATOM     77  C   UNL A   1      45.931  36.159  29.291  1.00  0.00     0.200 A 
ATOM     78  F   UNL A   1      46.949  35.433  31.295  1.00  0.00    -0.200 F 
ATOM     79  F   UNL A   1      46.385  37.403  29.494  1.00  0.00    -0.200 F 
ENDBRANCH  55  69
BRANCH  56  80
ATOM     80  C   UNL A   1      41.265  24.363  27.526  1.00  0.00     0.064 A 
ATOM     81  C   UNL A   1      41.866  23.236  28.103  1.00  0.00     0.173 A 
ATOM     82  C   UNL A   1      40.145  24.157  26.706  1.00  0.00     0.173 A 
ATOM     83  F   UNL A   1      42.956  23.378  28.872  1.00  0.00    -0.203 F 
ATOM     84  C   UNL A   1      41.381  21.953  27.852  1.00  0.00     0.198 A 
ATOM     85  C   UNL A   1      39.646  22.877  26.477  1.00  0.00     0.198 A 
ATOM     86  F   UNL A   1      39.537  25.202  26.125  1.00  0.00    -0.203 F 
ATOM     87  F   UNL A   1      42.004  20.889  28.377  1.00  0.00    -0.200 F 
ATOM     88  C   UNL A   1      40.269  21.775  27.044  1.00  0.00     0.200 A 
ATOM     89  F   UNL A   1      38.568  22.710  25.700  1.00  0.00    -0.200 F 
ATOM     90  F   UNL A   1      39.804  20.542  26.801  1.00  0.00    -0.200 F 
ENDBRANCH  56  80
BRANCH  68  91
ATOM     91  C   UNL A   1      47.146  27.522  25.524  1.00  0.00     0.064 A 
ATOM     92  C   UNL A   1      47.238  27.736  24.140  1.00  0.00     0.173 A 
ATOM     93  C   UNL A   1      48.226  26.899  26.167  1.00  0.00     0.173 A 
ATOM     94  F   UNL A   1      46.226  28.316  23.479  1.00  0.00    -0.203 F 
ATOM     95  C   UNL A   1      48.358  27.321  23.427  1.00  0.00     0.198 A 
ATOM     96  C   UNL A   1      49.358  26.512  25.454  1.00  0.00     0.198 A 
ATOM     97  F   UNL A   1      48.191  26.682  27.490  1.00  0.00    -0.203 F 
ATOM     98  F   UNL A   1      48.408  27.498  22.099  1.00  0.00    -0.200 F 
ATOM     99  C   UNL A   1      49.420  26.717  24.085  1.00  0.00     0.200 A 
ATOM    100  F   UNL A   1      50.388  25.943  26.094  1.00  0.00    -0.200 F 
ATOM    101  F   UNL A   1      50.502  26.328  23.397  1.00  0.00    -0.200 F 
ENDBRANCH  68  91
ENDBRANCH  42  43
ENDBRANCH  35  37
ENDBRANCH  34  35
ENDBRANCH  33  34
ENDBRANCH  32  33
ENDBRANCH  31  32
ENDBRANCH  30  31
ENDBRANCH  29  30
ENDBRANCH   1  29
TORSDOF 23
ENDMDL
MODEL 2
REMARK VINA RESULT:     -10.8      5.269     10.997
REMARK SMILES C[C@]12CCC(=O)N1[C@@H](C(=O)N1C[C@H](O)C[C@@H]1C(=O)OCCOCCOCCOCCOC(=O)c1ccc(-c3c4nc(c(-c5c(F)c(F)c(F)c(F)c5F)c5ccc([nH]5)c(-c5c(F)c(F)c(F)c(F)c5F)c5nc(c(-c6c(F)c(F)c(F)c(F)c6F)c6ccc3[nH]6)C=C5)C=C4)cc1)CS2
REMARK SMILES IDX 25 1 24 2 23 3 22 4 21 5 20 6 19 7 17 8 18 9 16 10 11 11
REMARK SMILES IDX 12 12 13 13 15 14 9 15 10 16 8 17 1 18 2 19 3 20 7 21 98 22
REMARK SMILES IDX 4 23 5 24 97 25 6 26 14 27 26 29 27 30 28 31 29 32 30 33
REMARK SMILES IDX 31 34 32 35 33 36 34 37 35 38 96 39 36 40 95 41 37 42 38 43
REMARK SMILES IDX 39 44 89 45 40 46 94 47 88 48 90 49 41 50 93 51 87 52 86 53
REMARK SMILES IDX 42 55 74 56 54 57 73 58 55 59 58 60 72 61 91 62 56 63 57 64
REMARK SMILES IDX 71 66 92 67 59 68 43 69 44 70 52 71 45 72 46 73 50 74 53 75
REMARK SMILES IDX 47 76 48 77 51 78 49 79 75 80 76 81 84 82 77 83 78 84 82 85
REMARK SMILES IDX 85 86 79 87 80 88 83 89 81 90 60 91 61 92 69 93 62 94 63 95
REMARK SMILES IDX 67 96 70 97 64 98 65 99 68 100 66 101
REMARK H PARENT 14 28 90 54 58 65
REMARK Flexibility Score: inf
ROOT
ATOM      1  O   UNL A   1      42.062  19.992  26.801  1.00  0.00    -0.377 OA
ENDROOT
BRANCH   1   2
ATOM      2  C   UNL A   1      40.723  20.364  26.508  1.00  0.00     0.188 C 
BRANCH   2   3
ATOM      3  C   UNL A   1      40.380  21.817  26.132  1.00  0.00     0.188 C 
BRANCH   3   4
ATOM      4  O   UNL A   1      39.164  22.274  26.714  1.00  0.00    -0.376 OA
BRANCH   4   5
ATOM      5  C   UNL A   1      38.214  22.747  25.763  1.00  0.00     0.202 C 
BRANCH   5   6
ATOM      6  C   UNL A   1      36.980  21.843  25.712  1.00  0.00     0.261 C 
BRANCH   6   7
ATOM      7  O   UNL A   1      35.942  22.293  24.818  1.00  0.00    -0.462 OA
BRANCH   7   8
ATOM      8  C   UNL A   1      34.919  21.440  24.528  1.00  0.00     0.329 C 
ATOM      9  O   UNL A   1      34.921  20.246  24.805  1.00  0.00    -0.250 OA
BRANCH   8  10
ATOM     10  C   UNL A   1      33.685  22.226  24.006  1.00  0.00     0.197 C 
ATOM     11  N   UNL A   1      33.319  23.308  24.936  1.00  0.00    -0.324 N 
ATOM     12  C   UNL A   1      32.155  22.907  25.722  1.00  0.00     0.152 C 
ATOM     13  C   UNL A   1      31.909  21.439  25.373  1.00  0.00     0.136 C 
ATOM     14  C   UNL A   1      32.439  21.332  23.953  1.00  0.00     0.070 C 
BRANCH  11  15
ATOM     15  C   UNL A   1      33.796  24.597  25.099  1.00  0.00     0.247 C 
ATOM     16  O   UNL A   1      34.989  24.768  25.394  1.00  0.00    -0.272 OA
BRANCH  15  17
ATOM     17  C   UNL A   1      32.863  25.842  25.112  1.00  0.00     0.186 C 
ATOM     18  C   UNL A   1      30.452  27.658  23.609  1.00  0.00     0.047 C 
ATOM     19  C   UNL A   1      31.960  27.765  23.850  1.00  0.00     0.087 C 
ATOM     20  C   UNL A   1      32.630  28.603  22.758  1.00  0.00     0.049 C 
ATOM     21  N   UNL A   1      32.624  26.485  23.810  1.00  0.00    -0.315 N 
ATOM     22  S   UNL A   1      32.228  28.403  25.539  1.00  0.00    -0.131 SA
ATOM     23  C   UNL A   1      33.670  27.699  22.114  1.00  0.00     0.103 C 
ATOM     24  C   UNL A   1      33.453  26.348  22.720  1.00  0.00     0.224 C 
ATOM     25  C   UNL A   1      33.184  26.953  26.089  1.00  0.00     0.107 C 
ATOM     26  O   UNL A   1      34.042  25.344  22.354  1.00  0.00    -0.275 OA
ENDBRANCH  15  17
ENDBRANCH  11  15
BRANCH  13  27
ATOM     27  O   UNL A   1      32.679  20.566  26.199  1.00  0.00    -0.391 OA
ATOM     28  H   UNL A   1      33.494  20.318  25.735  1.00  0.00     0.211 HD
ENDBRANCH  13  27
ENDBRANCH   8  10
ENDBRANCH   7   8
ENDBRANCH   6   7
ENDBRANCH   5   6
ENDBRANCH   4   5
ENDBRANCH   3   4
ENDBRANCH   2   3
ENDBRANCH   1   2
BRANCH   1  29
ATOM     29  C   UNL A   1      42.593  18.850  26.153  1.00  0.00     0.188 C 
BRANCH  29  30
ATOM     30  C   UNL A   1      43.753  19.097  25.173  1.00  0.00     0.188 C 
BRANCH  30  31
ATOM     31  O   UNL A   1      44.014  20.479  24.936  1.00  0.00    -0.376 OA
BRANCH  31  32
ATOM     32  C   UNL A   1      45.372  20.887  25.064  1.00  0.00     0.202 C 
BRANCH  32  33
ATOM     33  C   UNL A   1      45.549  22.203  25.829  1.00  0.00     0.261 C 
BRANCH  33  34
ATOM     34  O   UNL A   1      44.331  22.927  26.063  1.00  0.00    -0.460 OA
BRANCH  34  35
ATOM     35  C   UNL A   1      44.177  24.103  25.417  1.00  0.00     0.338 C 
ATOM     36  O   UNL A   1      44.423  24.350  24.251  1.00  0.00    -0.246 OA
BRANCH  35  37
ATOM     37  C   UNL A   1      43.447  25.006  26.326  1.00  0.00     0.060 A 
ATOM     38  C   UNL A   1      43.852  26.345  26.405  1.00  0.00     0.016 A 
ATOM     39  C   UNL A   1      42.331  24.553  27.037  1.00  0.00     0.016 A 
ATOM     40  C   UNL A   1      43.151  27.233  27.216  1.00  0.00     0.010 A 
ATOM     41  C   UNL A   1      41.650  25.435  27.876  1.00  0.00     0.010 A 
ATOM     42  C   UNL A   1      42.080  26.768  27.992  1.00  0.00    -0.014 A 
BRANCH  42  43
ATOM     43  C   UNL A   1      41.598  27.595  29.118  1.00  0.00     0.031 A 
ATOM     44  C   UNL A   1      42.331  27.469  30.424  1.00  0.00     0.074 A 
ATOM     45  C   UNL A   1      40.558  28.436  28.990  1.00  0.00     0.049 A 
ATOM     46  N   UNL A   1      42.120  28.077  31.561  1.00  0.00    -0.248 NA
ATOM     47  C   UNL A   1      43.463  26.524  30.446  1.00  0.00     0.031 C 
ATOM     48  C   UNL A   1      39.790  28.656  27.768  1.00  0.00     0.029 A 
ATOM     49  N   UNL A   1      39.968  29.259  29.916  1.00  0.00    -0.354 N 
ATOM     50  C   UNL A   1      43.097  27.599  32.424  1.00  0.00     0.074 A 
ATOM     51  C   UNL A   1      43.879  26.627  31.697  1.00  0.00     0.031 C 
ATOM     52  C   UNL A   1      38.817  29.550  28.023  1.00  0.00     0.029 A 
ATOM     53  C   UNL A   1      38.886  29.947  29.430  1.00  0.00     0.049 A 
ATOM     54  H   UNL A   1      40.292  29.347  30.842  1.00  0.00     0.167 HD
ATOM     55  C   UNL A   1      43.326  27.947  33.711  1.00  0.00     0.037 A 
ATOM     56  C   UNL A   1      38.046  30.790  30.060  1.00  0.00     0.037 A 
ATOM     57  C   UNL A   1      42.529  28.891  34.441  1.00  0.00     0.049 A 
ATOM     58  C   UNL A   1      38.277  31.105  31.519  1.00  0.00     0.074 A 
ATOM     59  C   UNL A   1      42.675  29.316  35.749  1.00  0.00     0.029 A 
ATOM     60  N   UNL A   1      41.423  29.549  33.923  1.00  0.00    -0.354 N 
ATOM     61  N   UNL A   1      39.227  30.683  32.318  1.00  0.00    -0.248 NA
ATOM     62  C   UNL A   1      37.319  32.018  32.159  1.00  0.00     0.031 C 
ATOM     63  C   UNL A   1      41.627  30.198  36.037  1.00  0.00     0.029 A 
ATOM     64  C   UNL A   1      40.859  30.360  34.893  1.00  0.00     0.049 A 
ATOM     65  H   UNL A   1      41.088  29.453  33.002  1.00  0.00     0.167 HD
ATOM     66  C   UNL A   1      39.000  31.299  33.542  1.00  0.00     0.074 A 
ATOM     67  C   UNL A   1      37.828  32.133  33.378  1.00  0.00     0.031 C 
ATOM     68  C   UNL A   1      39.698  31.188  34.700  1.00  0.00     0.037 A 
BRANCH  55  69
ATOM     69  C   UNL A   1      44.469  27.273  34.407  1.00  0.00     0.064 A 
ATOM     70  C   UNL A   1      44.299  26.054  35.081  1.00  0.00     0.173 A 
ATOM     71  C   UNL A   1      45.745  27.851  34.400  1.00  0.00     0.173 A 
ATOM     72  F   UNL A   1      43.090  25.476  35.137  1.00  0.00    -0.203 F 
ATOM     73  C   UNL A   1      45.364  25.450  35.744  1.00  0.00     0.198 A 
ATOM     74  C   UNL A   1      46.814  27.230  35.042  1.00  0.00     0.198 A 
ATOM     75  F   UNL A   1      45.957  29.019  33.776  1.00  0.00    -0.203 F 
ATOM     76  F   UNL A   1      45.169  24.311  36.423  1.00  0.00    -0.200 F 
ATOM     77  C   UNL A   1      46.621  26.035  35.719  1.00  0.00     0.200 A 
ATOM     78  F   UNL A   1      48.029  27.795  35.013  1.00  0.00    -0.200 F 
ATOM     79  F   UNL A   1      47.646  25.452  36.356  1.00  0.00    -0.200 F 
ENDBRANCH  55  69
BRANCH  56  80
ATOM     80  C   UNL A   1      36.904  31.397  29.327  1.00  0.00     0.064 A 
ATOM     81  C   UNL A   1      36.898  32.759  28.996  1.00  0.00     0.173 A 
ATOM     82  C   UNL A   1      35.782  30.634  28.970  1.00  0.00     0.173 A 
ATOM     83  F   UNL A   1      37.935  33.536  29.341  1.00  0.00    -0.203 F 
ATOM     84  C   UNL A   1      35.806  33.338  28.352  1.00  0.00     0.198 A 
ATOM     85  C   UNL A   1      34.702  31.210  28.304  1.00  0.00     0.198 A 
ATOM     86  F   UNL A   1      35.735  29.328  29.270  1.00  0.00    -0.203 F 
ATOM     87  F   UNL A   1      35.806  34.653  28.090  1.00  0.00    -0.200 F 
ATOM     88  C   UNL A   1      34.711  32.563  28.002  1.00  0.00     0.200 A 
ATOM     89  F   UNL A   1      33.650  30.455  27.962  1.00  0.00    -0.200 F 
ATOM     90  F   UNL A   1      33.661  33.121  27.385  1.00  0.00    -0.200 F 
ENDBRANCH  56  80
BRANCH  68  91
ATOM     91  C   UNL A   1      39.238  32.012  35.866  1.00  0.00     0.064 A 
ATOM     92  C   UNL A   1      39.710  33.316  36.079  1.00  0.00     0.173 A 
ATOM     93  C   UNL A   1      38.271  31.510  36.749  1.00  0.00     0.173 A 
ATOM     94  F   UNL A   1      40.644  33.836  35.269  1.00  0.00    -0.203 F 
ATOM     95  C   UNL A   1      39.246  34.077  37.147  1.00  0.00     0.198 A 
ATOM     96  C   UNL A   1      37.788  32.285  37.800  1.00  0.00     0.198 A 
ATOM     97  F   UNL A   1      37.780  30.272  36.583  1.00  0.00    -0.203 F 
ATOM     98  F   UNL A   1      39.740  35.306  37.356  1.00  0.00    -0.200 F 
ATOM     99  C   UNL A   1      38.280  33.566  38.001  1.00  0.00     0.200 A 
ATOM    100  F   UNL A   1      36.844  31.794  38.614  1.00  0.00    -0.200 F 
ATOM    101  F   UNL A   1      37.828  34.305  39.024  1.00  0.00    -0.200 F 
ENDBRANCH  68  91
ENDBRANCH  42  43
ENDBRANCH  35  37
ENDBRANCH  34  35
ENDBRANCH  33  34
ENDBRANCH  32  33
ENDBRANCH  31  32
ENDBRANCH  30  31
ENDBRANCH  29  30
ENDBRANCH   1  29
TORSDOF 23
ENDMDL
MODEL 3
REMARK VINA RESULT:      -9.9      4.533      7.984
REMARK SMILES C[C@]12CCC(=O)N1[C@@H](C(=O)N1C[C@H](O)C[C@@H]1C(=O)OCCOCCOCCOCCOC(=O)c1ccc(-c3c4nc(c(-c5c(F)c(F)c(F)c(F)c5F)c5ccc([nH]5)c(-c5c(F)c(F)c(F)c(F)c5F)c5nc(c(-c6c(F)c(F)c(F)c(F)c6F)c6ccc3[nH]6)C=C5)C=C4)cc1)CS2
REMARK SMILES IDX 25 1 24 2 23 3 22 4 21 5 20 6 19 7 17 8 18 9 16 10 11 11
REMARK SMILES IDX 12 12 13 13 15 14 9 15 10 16 8 17 1 18 2 19 3 20 7 21 98 22
REMARK SMILES IDX 4 23 5 24 97 25 6 26 14 27 26 29 27 30 28 31 29 32 30 33
REMARK SMILES IDX 31 34 32 35 33 36 34 37 35 38 96 39 36 40 95 41 37 42 38 43
REMARK SMILES IDX 39 44 89 45 40 46 94 47 88 48 90 49 41 50 93 51 87 52 86 53
REMARK SMILES IDX 42 55 74 56 54 57 73 58 55 59 58 60 72 61 91 62 56 63 57 64
REMARK SMILES IDX 71 66 92 67 59 68 43 69 44 70 52 71 45 72 46 73 50 74 53 75
REMARK SMILES IDX 47 76 48 77 51 78 49 79 75 80 76 81 84 82 77 83 78 84 82 85
REMARK SMILES IDX 85 86 79 87 80 88 83 89 81 90 60 91 61 92 69 93 62 94 63 95
REMARK SMILES IDX 67 96 70 97 64 98 65 99 68 100 66 101
REMARK H PARENT 14 28 90 54 58 65
REMARK Flexibility Score: inf
ROOT
ATOM      1  O   UNL A   1      36.837  33.143  32.307  1.00  0.00    -0.377 OA
ENDROOT
BRANCH   1   2
ATOM      2  C   UNL A   1      36.056  33.043  33.489  1.00  0.00     0.188 C 
BRANCH   2   3
ATOM      3  C   UNL A   1      36.527  33.708  34.795  1.00  0.00     0.188 C 
BRANCH   3   4
ATOM      4  O   UNL A   1      37.737  34.442  34.645  1.00  0.00    -0.376 OA
BRANCH   4   5
ATOM      5  C   UNL A   1      38.490  34.563  35.849  1.00  0.00     0.202 C 
BRANCH   5   6
ATOM      6  C   UNL A   1      38.039  33.539  36.893  1.00  0.00     0.261 C 
BRANCH   6   7
ATOM      7  O   UNL A   1      39.037  32.557  37.242  1.00  0.00    -0.462 OA
BRANCH   7   8
ATOM      8  C   UNL A   1      39.889  32.124  36.271  1.00  0.00     0.329 C 
ATOM      9  O   UNL A   1      40.892  32.732  35.916  1.00  0.00    -0.250 OA
BRANCH   8  10
ATOM     10  C   UNL A   1      39.536  30.674  35.843  1.00  0.00     0.197 C 
ATOM     11  N   UNL A   1      40.677  30.033  35.165  1.00  0.00    -0.324 N 
ATOM     12  C   UNL A   1      40.449  30.024  33.723  1.00  0.00     0.152 C 
ATOM     13  C   UNL A   1      39.187  30.857  33.501  1.00  0.00     0.136 C 
ATOM     14  C   UNL A   1      38.415  30.661  34.795  1.00  0.00     0.070 C 
BRANCH  11  15
ATOM     15  C   UNL A   1      41.801  29.384  35.646  1.00  0.00     0.247 C 
ATOM     16  O   UNL A   1      42.032  29.396  36.865  1.00  0.00    -0.272 OA
BRANCH  15  17
ATOM     17  C   UNL A   1      42.894  28.793  34.709  1.00  0.00     0.186 C 
ATOM     18  C   UNL A   1      43.718  26.707  32.192  1.00  0.00     0.047 C 
ATOM     19  C   UNL A   1      43.890  26.764  33.712  1.00  0.00     0.087 C 
ATOM     20  C   UNL A   1      44.004  25.356  34.302  1.00  0.00     0.049 C 
ATOM     21  N   UNL A   1      42.761  27.366  34.379  1.00  0.00    -0.315 N 
ATOM     22  S   UNL A   1      45.313  27.841  34.090  1.00  0.00    -0.131 SA
ATOM     23  C   UNL A   1      42.864  25.225  35.301  1.00  0.00     0.103 C 
ATOM     24  C   UNL A   1      42.044  26.464  35.133  1.00  0.00     0.224 C 
ATOM     25  C   UNL A   1      44.342  29.015  35.089  1.00  0.00     0.107 C 
ATOM     26  O   UNL A   1      40.980  26.649  35.701  1.00  0.00    -0.275 OA
ENDBRANCH  15  17
ENDBRANCH  11  15
BRANCH  13  27
ATOM     27  O   UNL A   1      39.489  32.246  33.373  1.00  0.00    -0.391 OA
ATOM     28  H   UNL A   1      38.881  32.761  33.926  1.00  0.00     0.211 HD
ENDBRANCH  13  27
ENDBRANCH   8  10
ENDBRANCH   7   8
ENDBRANCH   6   7
ENDBRANCH   5   6
ENDBRANCH   4   5
ENDBRANCH   3   4
ENDBRANCH   2   3
ENDBRANCH   1   2
BRANCH   1  29
ATOM     29  C   UNL A   1      36.252  33.757  31.172  1.00  0.00     0.188 C 
BRANCH  29  30
ATOM     30  C   UNL A   1      34.913  34.479  31.399  1.00  0.00     0.188 C 
BRANCH  30  31
ATOM     31  O   UNL A   1      33.855  33.990  30.576  1.00  0.00    -0.376 OA
BRANCH  31  32
ATOM     32  C   UNL A   1      33.888  34.398  29.213  1.00  0.00     0.202 C 
BRANCH  32  33
ATOM     33  C   UNL A   1      33.739  33.239  28.221  1.00  0.00     0.261 C 
BRANCH  33  34
ATOM     34  O   UNL A   1      34.899  32.398  28.106  1.00  0.00    -0.460 OA
BRANCH  34  35
ATOM     35  C   UNL A   1      34.706  31.065  28.199  1.00  0.00     0.338 C 
ATOM     36  O   UNL A   1      33.669  30.448  28.042  1.00  0.00    -0.246 OA
BRANCH  35  37
ATOM     37  C   UNL A   1      36.038  30.442  28.318  1.00  0.00     0.060 A 
ATOM     38  C   UNL A   1      36.443  29.969  29.573  1.00  0.00     0.016 A 
ATOM     39  C   UNL A   1      36.845  30.262  27.191  1.00  0.00     0.016 A 
ATOM     40  C   UNL A   1      37.673  29.330  29.708  1.00  0.00     0.010 A 
ATOM     41  C   UNL A   1      38.092  29.653  27.332  1.00  0.00     0.010 A 
ATOM     42  C   UNL A   1      38.521  29.217  28.597  1.00  0.00    -0.014 A 
BRANCH  42  43
ATOM     43  C   UNL A   1      39.949  28.903  28.815  1.00  0.00     0.031 A 
ATOM     44  C   UNL A   1      40.786  29.950  29.494  1.00  0.00     0.074 A 
ATOM     45  C   UNL A   1      40.486  27.731  28.436  1.00  0.00     0.049 A 
ATOM     46  N   UNL A   1      42.054  29.931  29.807  1.00  0.00    -0.248 NA
ATOM     47  C   UNL A   1      40.089  31.193  29.874  1.00  0.00     0.031 C 
ATOM     48  C   UNL A   1      39.766  26.636  27.792  1.00  0.00     0.029 A 
ATOM     49  N   UNL A   1      41.776  27.276  28.540  1.00  0.00    -0.354 N 
ATOM     50  C   UNL A   1      42.301  31.147  30.430  1.00  0.00     0.074 A 
ATOM     51  C   UNL A   1      41.067  31.896  30.421  1.00  0.00     0.031 C 
ATOM     52  C   UNL A   1      40.632  25.635  27.545  1.00  0.00     0.029 A 
ATOM     53  C   UNL A   1      41.966  26.030  27.998  1.00  0.00     0.049 A 
ATOM     54  H   UNL A   1      42.498  27.795  28.964  1.00  0.00     0.167 HD
ATOM     55  C   UNL A   1      43.457  31.596  30.970  1.00  0.00     0.037 A 
ATOM     56  C   UNL A   1      43.094  25.306  27.874  1.00  0.00     0.037 A 
ATOM     57  C   UNL A   1      44.690  30.863  30.951  1.00  0.00     0.049 A 
ATOM     58  C   UNL A   1      44.389  25.862  28.416  1.00  0.00     0.074 A 
ATOM     59  C   UNL A   1      45.920  31.226  31.469  1.00  0.00     0.029 A 
ATOM     60  N   UNL A   1      44.850  29.615  30.368  1.00  0.00    -0.354 N 
ATOM     61  N   UNL A   1      44.608  26.994  29.042  1.00  0.00    -0.248 NA
ATOM     62  C   UNL A   1      45.591  25.035  28.239  1.00  0.00     0.031 C 
ATOM     63  C   UNL A   1      46.837  30.215  31.158  1.00  0.00     0.029 A 
ATOM     64  C   UNL A   1      46.166  29.202  30.491  1.00  0.00     0.049 A 
ATOM     65  H   UNL A   1      44.135  29.099  29.931  1.00  0.00     0.167 HD
ATOM     66  C   UNL A   1      45.961  27.002  29.357  1.00  0.00     0.074 A 
ATOM     67  C   UNL A   1      46.511  25.757  28.864  1.00  0.00     0.031 C 
ATOM     68  C   UNL A   1      46.685  27.952  30.000  1.00  0.00     0.037 A 
BRANCH  55  69
ATOM     69  C   UNL A   1      43.434  32.958  31.595  1.00  0.00     0.064 A 
ATOM     70  C   UNL A   1      43.300  33.125  32.982  1.00  0.00     0.173 A 
ATOM     71  C   UNL A   1      43.544  34.106  30.800  1.00  0.00     0.173 A 
ATOM     72  F   UNL A   1      43.165  32.056  33.780  1.00  0.00    -0.203 F 
ATOM     73  C   UNL A   1      43.256  34.397  33.547  1.00  0.00     0.198 A 
ATOM     74  C   UNL A   1      43.526  35.376  31.372  1.00  0.00     0.198 A 
ATOM     75  F   UNL A   1      43.666  34.000  29.468  1.00  0.00    -0.203 F 
ATOM     76  F   UNL A   1      43.080  34.534  34.869  1.00  0.00    -0.200 F 
ATOM     77  C   UNL A   1      43.375  35.520  32.743  1.00  0.00     0.200 A 
ATOM     78  F   UNL A   1      43.645  36.461  30.594  1.00  0.00    -0.200 F 
ATOM     79  F   UNL A   1      43.334  36.743  33.289  1.00  0.00    -0.200 F 
ENDBRANCH  55  69
BRANCH  56  80
ATOM     80  C   UNL A   1      43.062  23.978  27.206  1.00  0.00     0.064 A 
ATOM     81  C   UNL A   1      43.443  23.833  25.865  1.00  0.00     0.173 A 
ATOM     82  C   UNL A   1      42.623  22.832  27.886  1.00  0.00     0.173 A 
ATOM     83  F   UNL A   1      43.844  24.904  25.164  1.00  0.00    -0.203 F 
ATOM     84  C   UNL A   1      43.366  22.598  25.224  1.00  0.00     0.198 A 
ATOM     85  C   UNL A   1      42.571  21.593  27.252  1.00  0.00     0.198 A 
ATOM     86  F   UNL A   1      42.241  22.918  29.169  1.00  0.00    -0.203 F 
ATOM     87  F   UNL A   1      43.690  22.497  23.927  1.00  0.00    -0.200 F 
ATOM     88  C   UNL A   1      42.935  21.478  25.919  1.00  0.00     0.200 A 
ATOM     89  F   UNL A   1      42.159  20.514  27.929  1.00  0.00    -0.200 F 
ATOM     90  F   UNL A   1      42.860  20.291  25.302  1.00  0.00    -0.200 F 
ENDBRANCH  56  80
BRANCH  68  91
ATOM     91  C   UNL A   1      48.139  27.669  30.237  1.00  0.00     0.064 A 
ATOM     92  C   UNL A   1      49.135  28.163  29.381  1.00  0.00     0.173 A 
ATOM     93  C   UNL A   1      48.543  26.943  31.367  1.00  0.00     0.173 A 
ATOM     94  F   UNL A   1      48.798  28.852  28.282  1.00  0.00    -0.203 F 
ATOM     95  C   UNL A   1      50.481  27.918  29.636  1.00  0.00     0.198 A 
ATOM     96  C   UNL A   1      49.892  26.725  31.634  1.00  0.00     0.198 A 
ATOM     97  F   UNL A   1      47.630  26.458  32.223  1.00  0.00    -0.203 F 
ATOM     98  F   UNL A   1      51.414  28.363  28.783  1.00  0.00    -0.200 F 
ATOM     99  C   UNL A   1      50.859  27.207  30.765  1.00  0.00     0.200 A 
ATOM    100  F   UNL A   1      50.255  26.051  32.734  1.00  0.00    -0.200 F 
ATOM    101  F   UNL A   1      52.156  26.981  31.014  1.00  0.00    -0.200 F 
ENDBRANCH  68  91
ENDBRANCH  42  43
ENDBRANCH  35  37
ENDBRANCH  34  35
ENDBRANCH  33  34
ENDBRANCH  32  33
ENDBRANCH  31  32
ENDBRANCH  30  31
ENDBRANCH  29  30
ENDBRANCH   1  29
TORSDOF 23
ENDMDL
