MODEL 1
REMARK VINA RESULT:     -11.3      0.000      0.000
REMARK SMILES O=C(OCCOCCOCCOCCOC(=O)c1cc(-c2ccccn2)nc2ccc(F)cc12)c1ccc(-c2c3nc(c(-c4c(F)c(F)c(F)c(F)c4F)c4ccc([nH]4)c(-c4c(F)c(F)c(F)c(F)c4F)c4nc(c(-c5c(F)c(F)c(F)c(F)c5F)c5ccc2[nH]5)C=C4)C=C3)cc1
REMARK SMILES IDX 8 1 7 2 6 3 5 4 4 5 3 6 2 7 1 8 35 9 36 10 97 11 37 12 96 13
REMARK SMILES IDX 38 14 39 15 40 16 90 17 41 18 95 19 89 20 91 21 42 22 94 23
REMARK SMILES IDX 88 24 87 25 43 27 75 28 55 29 74 30 56 31 59 32 73 33 92 34
REMARK SMILES IDX 57 35 58 36 72 38 93 39 60 40 44 41 45 42 53 43 46 44 47 45
REMARK SMILES IDX 51 46 54 47 48 48 49 49 52 50 50 51 76 52 77 53 85 54 78 55
REMARK SMILES IDX 79 56 83 57 86 58 80 59 81 60 84 61 82 62 61 63 62 64 70 65
REMARK SMILES IDX 63 66 64 67 68 68 71 69 65 70 66 71 69 72 67 73 9 74 10 75
REMARK SMILES IDX 11 76 12 77 13 78 14 79 15 80 16 81 17 82 18 83 19 84 34 85
REMARK SMILES IDX 20 86 28 87 33 88 27 89 29 90 31 91 30 92 32 93 21 94 22 95
REMARK SMILES IDX 26 96 23 97 25 98 24 99
REMARK H PARENT 91 26 59 37
REMARK Flexibility Score: inf
ROOT
ATOM      1  C   UNL A   1      34.580  21.739  24.553  1.00  0.00     0.188 C 
ENDROOT
BRANCH   1   2
ATOM      2  C   UNL A   1      35.509  21.135  25.602  1.00  0.00     0.188 C 
BRANCH   2   3
ATOM      3  O   UNL A   1      36.464  20.278  24.965  1.00  0.00    -0.376 OA
BRANCH   3   4
ATOM      4  C   UNL A   1      37.816  20.711  25.066  1.00  0.00     0.202 C 
BRANCH   4   5
ATOM      5  C   UNL A   1      38.786  19.590  25.421  1.00  0.00     0.261 C 
BRANCH   5   6
ATOM      6  O   UNL A   1      40.095  20.062  25.764  1.00  0.00    -0.460 OA
BRANCH   6   7
ATOM      7  C   UNL A   1      40.547  20.601  26.922  1.00  0.00     0.338 C 
ATOM      8  O   UNL A   1      40.790  19.821  27.844  1.00  0.00    -0.246 OA
BRANCH   7   9
ATOM      9  C   UNL A   1      40.745  22.071  27.200  1.00  0.00     0.060 A 
ATOM     10  C   UNL A   1      41.617  22.388  28.265  1.00  0.00     0.016 A 
ATOM     11  C   UNL A   1      40.169  23.144  26.513  1.00  0.00     0.016 A 
ATOM     12  C   UNL A   1      41.938  23.713  28.590  1.00  0.00     0.010 A 
ATOM     13  C   UNL A   1      40.461  24.468  26.846  1.00  0.00     0.010 A 
ATOM     14  C   UNL A   1      41.380  24.759  27.856  1.00  0.00    -0.014 A 
BRANCH  14  15
ATOM     15  C   UNL A   1      41.923  26.131  27.925  1.00  0.00     0.031 A 
ATOM     16  C   UNL A   1      43.297  26.469  27.449  1.00  0.00     0.074 A 
ATOM     17  C   UNL A   1      41.157  27.040  28.558  1.00  0.00     0.049 A 
ATOM     18  N   UNL A   1      43.919  27.619  27.500  1.00  0.00    -0.248 NA
ATOM     19  C   UNL A   1      44.083  25.383  26.845  1.00  0.00     0.031 C 
ATOM     20  C   UNL A   1      39.818  26.772  29.098  1.00  0.00     0.029 A 
ATOM     21  N   UNL A   1      41.395  28.345  28.893  1.00  0.00    -0.354 N 
ATOM     22  C   UNL A   1      45.153  27.411  26.901  1.00  0.00     0.074 A 
ATOM     23  C   UNL A   1      45.215  26.008  26.541  1.00  0.00     0.031 C 
ATOM     24  C   UNL A   1      39.368  27.870  29.719  1.00  0.00     0.029 A 
ATOM     25  C   UNL A   1      40.381  28.913  29.621  1.00  0.00     0.049 A 
ATOM     26  H   UNL A   1      42.214  28.828  28.637  1.00  0.00     0.167 HD
ATOM     27  C   UNL A   1      46.126  28.324  26.666  1.00  0.00     0.037 A 
ATOM     28  C   UNL A   1      40.278  30.145  30.150  1.00  0.00     0.037 A 
ATOM     29  C   UNL A   1      46.054  29.705  27.082  1.00  0.00     0.049 A 
ATOM     30  C   UNL A   1      41.387  31.121  29.901  1.00  0.00     0.074 A 
ATOM     31  C   UNL A   1      46.980  30.716  26.891  1.00  0.00     0.029 A 
ATOM     32  N   UNL A   1      44.995  30.263  27.786  1.00  0.00    -0.354 N 
ATOM     33  N   UNL A   1      42.520  30.936  29.268  1.00  0.00    -0.248 NA
ATOM     34  C   UNL A   1      41.192  32.483  30.408  1.00  0.00     0.031 C 
ATOM     35  C   UNL A   1      46.497  31.876  27.509  1.00  0.00     0.029 A 
ATOM     36  C   UNL A   1      45.247  31.602  28.041  1.00  0.00     0.049 A 
ATOM     37  H   UNL A   1      44.184  29.778  28.064  1.00  0.00     0.167 HD
ATOM     38  C   UNL A   1      43.155  32.167  29.259  1.00  0.00     0.074 A 
ATOM     39  C   UNL A   1      42.276  33.092  29.949  1.00  0.00     0.031 C 
ATOM     40  C   UNL A   1      44.353  32.503  28.721  1.00  0.00     0.037 A 
BRANCH  27  41
ATOM     41  C   UNL A   1      47.339  27.887  25.895  1.00  0.00     0.064 A 
ATOM     42  C   UNL A   1      48.503  27.471  26.560  1.00  0.00     0.173 A 
ATOM     43  C   UNL A   1      47.306  27.761  24.498  1.00  0.00     0.173 A 
ATOM     44  F   UNL A   1      48.590  27.572  27.896  1.00  0.00    -0.203 F 
ATOM     45  C   UNL A   1      49.586  26.947  25.858  1.00  0.00     0.198 A 
ATOM     46  C   UNL A   1      48.382  27.216  23.800  1.00  0.00     0.198 A 
ATOM     47  F   UNL A   1      46.216  28.134  23.811  1.00  0.00    -0.203 F 
ATOM     48  F   UNL A   1      50.690  26.568  26.516  1.00  0.00    -0.200 F 
ATOM     49  C   UNL A   1      49.520  26.809  24.480  1.00  0.00     0.200 A 
ATOM     50  F   UNL A   1      48.310  27.065  22.470  1.00  0.00    -0.200 F 
ATOM     51  F   UNL A   1      50.551  26.277  23.808  1.00  0.00    -0.200 F 
ENDBRANCH  27  41
BRANCH  28  52
ATOM     52  C   UNL A   1      39.042  30.527  30.876  1.00  0.00     0.064 A 
ATOM     53  C   UNL A   1      38.933  30.304  32.256  1.00  0.00     0.173 A 
ATOM     54  C   UNL A   1      37.978  31.170  30.230  1.00  0.00     0.173 A 
ATOM     55  F   UNL A   1      39.924  29.688  32.914  1.00  0.00    -0.203 F 
ATOM     56  C   UNL A   1      37.797  30.696  32.959  1.00  0.00     0.198 A 
ATOM     57  C   UNL A   1      36.852  31.584  30.939  1.00  0.00     0.198 A 
ATOM     58  F   UNL A   1      38.043  31.422  28.914  1.00  0.00    -0.203 F 
ATOM     59  F   UNL A   1      37.706  30.445  34.271  1.00  0.00    -0.200 F 
ATOM     60  C   UNL A   1      36.760  31.342  32.302  1.00  0.00     0.200 A 
ATOM     61  F   UNL A   1      35.861  32.226  30.305  1.00  0.00    -0.200 F 
ATOM     62  F   UNL A   1      35.674  31.732  32.981  1.00  0.00    -0.200 F 
ENDBRANCH  28  52
BRANCH  40  63
ATOM     63  C   UNL A   1      44.753  33.945  28.819  1.00  0.00     0.064 A 
ATOM     64  C   UNL A   1      45.562  34.416  29.863  1.00  0.00     0.173 A 
ATOM     65  C   UNL A   1      44.335  34.860  27.842  1.00  0.00     0.173 A 
ATOM     66  F   UNL A   1      45.973  33.580  30.828  1.00  0.00    -0.203 F 
ATOM     67  C   UNL A   1      45.910  35.760  29.943  1.00  0.00     0.198 A 
ATOM     68  C   UNL A   1      44.709  36.198  27.910  1.00  0.00     0.198 A 
ATOM     69  F   UNL A   1      43.565  34.456  26.820  1.00  0.00    -0.203 F 
ATOM     70  F   UNL A   1      46.637  36.201  30.980  1.00  0.00    -0.200 F 
ATOM     71  C   UNL A   1      45.489  36.649  28.965  1.00  0.00     0.200 A 
ATOM     72  F   UNL A   1      44.312  37.054  26.958  1.00  0.00    -0.200 F 
ATOM     73  F   UNL A   1      45.826  37.944  29.045  1.00  0.00    -0.200 F 
ENDBRANCH  40  63
ENDBRANCH  14  15
ENDBRANCH   7   9
ENDBRANCH   6   7
ENDBRANCH   5   6
ENDBRANCH   4   5
ENDBRANCH   3   4
ENDBRANCH   2   3
ENDBRANCH   1   2
BRANCH   1  74
ATOM     74  O   UNL A   1      33.332  21.064  24.431  1.00  0.00    -0.377 OA
BRANCH  74  75
ATOM     75  C   UNL A   1      32.173  21.877  24.283  1.00  0.00     0.188 C 
BRANCH  75  76
ATOM     76  C   UNL A   1      32.090  22.792  23.044  1.00  0.00     0.188 C 
BRANCH  76  77
ATOM     77  O   UNL A   1      31.356  23.993  23.260  1.00  0.00    -0.376 OA
BRANCH  77  78
ATOM     78  C   UNL A   1      31.803  25.118  22.512  1.00  0.00     0.202 C 
BRANCH  78  79
ATOM     79  C   UNL A   1      33.283  25.432  22.724  1.00  0.00     0.261 C 
BRANCH  79  80
ATOM     80  O   UNL A   1      33.570  26.541  23.596  1.00  0.00    -0.460 OA
BRANCH  80  81
ATOM     81  C   UNL A   1      33.213  26.506  24.901  1.00  0.00     0.338 C 
ATOM     82  O   UNL A   1      33.400  25.609  25.699  1.00  0.00    -0.246 OA
BRANCH  81  83
ATOM     83  C   UNL A   1      32.648  27.844  25.206  1.00  0.00     0.071 A 
ATOM     84  C   UNL A   1      31.554  28.238  24.438  1.00  0.00     0.047 A 
ATOM     85  C   UNL A   1      33.254  28.742  26.115  1.00  0.00     0.018 A 
ATOM     86  C   UNL A   1      31.062  29.522  24.585  1.00  0.00     0.090 A 
ATOM     87  C   UNL A   1      32.720  30.048  26.139  1.00  0.00     0.072 A 
ATOM     88  C   UNL A   1      34.365  28.447  26.945  1.00  0.00     0.050 A 
ATOM     89  N   UNL A   1      31.653  30.415  25.416  1.00  0.00    -0.246 NA
ATOM     90  C   UNL A   1      33.333  31.014  26.931  1.00  0.00     0.032 A 
ATOM     91  C   UNL A   1      34.955  29.439  27.718  1.00  0.00     0.123 A 
ATOM     92  C   UNL A   1      34.454  30.729  27.712  1.00  0.00     0.041 A 
ATOM     93  F   UNL A   1      36.031  29.151  28.459  1.00  0.00    -0.207 F 
BRANCH  86  94
ATOM     94  C   UNL A   1      29.847  29.944  23.863  1.00  0.00     0.089 A 
ATOM     95  C   UNL A   1      29.356  31.246  23.997  1.00  0.00     0.030 A 
ATOM     96  N   UNL A   1      29.208  29.013  23.111  1.00  0.00    -0.255 NA
ATOM     97  C   UNL A   1      28.176  31.604  23.353  1.00  0.00     0.004 A 
ATOM     98  C   UNL A   1      28.068  29.390  22.490  1.00  0.00     0.112 A 
ATOM     99  C   UNL A   1      27.516  30.657  22.584  1.00  0.00     0.020 A 
ENDBRANCH  86  94
ENDBRANCH  81  83
ENDBRANCH  80  81
ENDBRANCH  79  80
ENDBRANCH  78  79
ENDBRANCH  77  78
ENDBRANCH  76  77
ENDBRANCH  75  76
ENDBRANCH  74  75
ENDBRANCH   1  74
TORSDOF 21
ENDMDL
MODEL 2
REMARK VINA RESULT:     -10.9      0.567      7.057
REMARK SMILES O=C(OCCOCCOCCOCCOC(=O)c1cc(-c2ccccn2)nc2ccc(F)cc12)c1ccc(-c2c3nc(c(-c4c(F)c(F)c(F)c(F)c4F)c4ccc([nH]4)c(-c4c(F)c(F)c(F)c(F)c4F)c4nc(c(-c5c(F)c(F)c(F)c(F)c5F)c5ccc2[nH]5)C=C4)C=C3)cc1
REMARK SMILES IDX 8 1 7 2 6 3 5 4 4 5 3 6 2 7 1 8 35 9 36 10 97 11 37 12 96 13
REMARK SMILES IDX 38 14 39 15 40 16 90 17 41 18 95 19 89 20 91 21 42 22 94 23
REMARK SMILES IDX 88 24 87 25 43 27 75 28 55 29 74 30 56 31 59 32 73 33 92 34
REMARK SMILES IDX 57 35 58 36 72 38 93 39 60 40 44 41 45 42 53 43 46 44 47 45
REMARK SMILES IDX 51 46 54 47 48 48 49 49 52 50 50 51 76 52 77 53 85 54 78 55
REMARK SMILES IDX 79 56 83 57 86 58 80 59 81 60 84 61 82 62 61 63 62 64 70 65
REMARK SMILES IDX 63 66 64 67 68 68 71 69 65 70 66 71 69 72 67 73 9 74 10 75
REMARK SMILES IDX 11 76 12 77 13 78 14 79 15 80 16 81 17 82 18 83 19 84 34 85
REMARK SMILES IDX 20 86 28 87 33 88 27 89 29 90 31 91 30 92 32 93 21 94 22 95
REMARK SMILES IDX 26 96 23 97 25 98 24 99
REMARK H PARENT 91 26 59 37
REMARK Flexibility Score: inf
ROOT
ATOM      1  C   UNL A   1      34.783  21.799  24.614  1.00  0.00     0.188 C 
ENDROOT
BRANCH   1   2
ATOM      2  C   UNL A   1      35.887  21.426  25.599  1.00  0.00     0.188 C 
BRANCH   2   3
ATOM      3  O   UNL A   1      36.822  20.546  24.966  1.00  0.00    -0.376 OA
BRANCH   3   4
ATOM      4  C   UNL A   1      38.186  20.793  25.287  1.00  0.00     0.202 C 
BRANCH   4   5
ATOM      5  C   UNL A   1      38.987  19.522  25.547  1.00  0.00     0.261 C 
BRANCH   5   6
ATOM      6  O   UNL A   1      40.396  19.756  25.672  1.00  0.00    -0.460 OA
BRANCH   6   7
ATOM      7  C   UNL A   1      41.099  20.287  26.701  1.00  0.00     0.338 C 
ATOM      8  O   UNL A   1      41.672  19.497  27.452  1.00  0.00    -0.246 OA
BRANCH   7   9
ATOM      9  C   UNL A   1      41.214  21.754  27.036  1.00  0.00     0.060 A 
ATOM     10  C   UNL A   1      41.783  22.060  28.292  1.00  0.00     0.016 A 
ATOM     11  C   UNL A   1      40.830  22.834  26.235  1.00  0.00     0.016 A 
ATOM     12  C   UNL A   1      42.006  23.381  28.702  1.00  0.00     0.010 A 
ATOM     13  C   UNL A   1      41.023  24.155  26.645  1.00  0.00     0.010 A 
ATOM     14  C   UNL A   1      41.651  24.435  27.859  1.00  0.00    -0.014 A 
BRANCH  14  15
ATOM     15  C   UNL A   1      42.154  25.806  28.079  1.00  0.00     0.031 A 
ATOM     16  C   UNL A   1      41.318  26.868  28.714  1.00  0.00     0.074 A 
ATOM     17  C   UNL A   1      43.365  26.085  27.559  1.00  0.00     0.049 A 
ATOM     18  N   UNL A   1      41.613  28.126  28.919  1.00  0.00    -0.248 NA
ATOM     19  C   UNL A   1      39.977  26.479  29.175  1.00  0.00     0.031 C 
ATOM     20  C   UNL A   1      44.223  25.110  26.876  1.00  0.00     0.029 A 
ATOM     21  N   UNL A   1      44.067  27.256  27.482  1.00  0.00    -0.354 N 
ATOM     22  C   UNL A   1      40.516  28.675  29.567  1.00  0.00     0.074 A 
ATOM     23  C   UNL A   1      39.523  27.624  29.676  1.00  0.00     0.031 C 
ATOM     24  C   UNL A   1      45.322  25.731  26.427  1.00  0.00     0.029 A 
ATOM     25  C   UNL A   1      45.244  27.140  26.788  1.00  0.00     0.049 A 
ATOM     26  H   UNL A   1      43.756  28.100  27.884  1.00  0.00     0.167 HD
ATOM     27  C   UNL A   1      40.375  29.937  30.038  1.00  0.00     0.037 A 
ATOM     28  C   UNL A   1      46.165  28.070  26.481  1.00  0.00     0.037 A 
ATOM     29  C   UNL A   1      41.364  30.976  29.870  1.00  0.00     0.049 A 
ATOM     30  C   UNL A   1      45.963  29.467  26.988  1.00  0.00     0.074 A 
ATOM     31  C   UNL A   1      41.326  32.287  30.311  1.00  0.00     0.029 A 
ATOM     32  N   UNL A   1      42.568  30.818  29.195  1.00  0.00    -0.354 N 
ATOM     33  N   UNL A   1      44.954  29.958  27.665  1.00  0.00    -0.248 NA
ATOM     34  C   UNL A   1      47.037  30.427  26.718  1.00  0.00     0.031 C 
ATOM     35  C   UNL A   1      42.489  32.932  29.874  1.00  0.00     0.029 A 
ATOM     36  C   UNL A   1      43.276  32.009  29.204  1.00  0.00     0.049 A 
ATOM     37  H   UNL A   1      42.873  29.982  28.772  1.00  0.00     0.167 HD
ATOM     38  C   UNL A   1      45.289  31.273  27.944  1.00  0.00     0.074 A 
ATOM     39  C   UNL A   1      46.599  31.499  27.363  1.00  0.00     0.031 C 
ATOM     40  C   UNL A   1      44.582  32.206  28.627  1.00  0.00     0.037 A 
BRANCH  27  41
ATOM     41  C   UNL A   1      39.132  30.272  30.812  1.00  0.00     0.064 A 
ATOM     42  C   UNL A   1      39.063  30.049  32.196  1.00  0.00     0.173 A 
ATOM     43  C   UNL A   1      38.053  30.931  30.203  1.00  0.00     0.173 A 
ATOM     44  F   UNL A   1      40.067  29.421  32.829  1.00  0.00    -0.203 F 
ATOM     45  C   UNL A   1      37.964  30.471  32.941  1.00  0.00     0.198 A 
ATOM     46  C   UNL A   1      36.964  31.372  30.954  1.00  0.00     0.198 A 
ATOM     47  F   UNL A   1      38.068  31.178  28.885  1.00  0.00    -0.203 F 
ATOM     48  F   UNL A   1      37.919  30.236  34.259  1.00  0.00    -0.200 F 
ATOM     49  C   UNL A   1      36.922  31.143  32.321  1.00  0.00     0.200 A 
ATOM     50  F   UNL A   1      35.965  32.037  30.357  1.00  0.00    -0.200 F 
ATOM     51  F   UNL A   1      35.878  31.575  33.043  1.00  0.00    -0.200 F 
ENDBRANCH  27  41
BRANCH  28  52
ATOM     52  C   UNL A   1      47.386  27.673  25.739  1.00  0.00     0.064 A 
ATOM     53  C   UNL A   1      48.514  27.206  26.428  1.00  0.00     0.173 A 
ATOM     54  C   UNL A   1      47.436  27.694  24.339  1.00  0.00     0.173 A 
ATOM     55  F   UNL A   1      48.513  27.174  27.769  1.00  0.00    -0.203 F 
ATOM     56  C   UNL A   1      49.652  26.790  25.743  1.00  0.00     0.198 A 
ATOM     57  C   UNL A   1      48.567  27.254  23.654  1.00  0.00     0.198 A 
ATOM     58  F   UNL A   1      46.375  28.115  23.634  1.00  0.00    -0.203 F 
ATOM     59  F   UNL A   1      50.727  26.375  26.428  1.00  0.00    -0.200 F 
ATOM     60  C   UNL A   1      49.676  26.807  24.357  1.00  0.00     0.200 A 
ATOM     61  F   UNL A   1      48.579  27.253  22.314  1.00  0.00    -0.200 F 
ATOM     62  F   UNL A   1      50.766  26.393  23.698  1.00  0.00    -0.200 F 
ENDBRANCH  28  52
BRANCH  40  63
ATOM     63  C   UNL A   1      45.237  33.540  28.819  1.00  0.00     0.064 A 
ATOM     64  C   UNL A   1      45.133  34.558  27.861  1.00  0.00     0.173 A 
ATOM     65  C   UNL A   1      45.964  33.805  29.990  1.00  0.00     0.173 A 
ATOM     66  F   UNL A   1      44.462  34.344  26.720  1.00  0.00    -0.203 F 
ATOM     67  C   UNL A   1      45.762  35.784  28.053  1.00  0.00     0.198 A 
ATOM     68  C   UNL A   1      46.567  35.043  30.191  1.00  0.00     0.198 A 
ATOM     69  F   UNL A   1      46.087  32.865  30.939  1.00  0.00    -0.203 F 
ATOM     70  F   UNL A   1      45.698  36.724  27.099  1.00  0.00    -0.200 F 
ATOM     71  C   UNL A   1      46.474  36.028  29.219  1.00  0.00     0.200 A 
ATOM     72  F   UNL A   1      47.244  35.282  31.323  1.00  0.00    -0.200 F 
ATOM     73  F   UNL A   1      47.078  37.210  29.401  1.00  0.00    -0.200 F 
ENDBRANCH  40  63
ENDBRANCH  14  15
ENDBRANCH   7   9
ENDBRANCH   6   7
ENDBRANCH   5   6
ENDBRANCH   4   5
ENDBRANCH   3   4
ENDBRANCH   2   3
ENDBRANCH   1   2
BRANCH   1  74
ATOM     74  O   UNL A   1      33.706  20.869  24.576  1.00  0.00    -0.377 OA
BRANCH  74  75
ATOM     75  C   UNL A   1      32.402  21.402  24.378  1.00  0.00     0.188 C 
BRANCH  75  76
ATOM     76  C   UNL A   1      32.127  22.163  23.065  1.00  0.00     0.188 C 
BRANCH  76  77
ATOM     77  O   UNL A   1      31.903  23.558  23.239  1.00  0.00    -0.376 OA
BRANCH  77  78
ATOM     78  C   UNL A   1      32.682  24.406  22.401  1.00  0.00     0.202 C 
BRANCH  78  79
ATOM     79  C   UNL A   1      33.846  25.070  23.133  1.00  0.00     0.261 C 
BRANCH  79  80
ATOM     80  O   UNL A   1      33.547  26.320  23.782  1.00  0.00    -0.460 OA
BRANCH  80  81
ATOM     81  C   UNL A   1      33.122  26.349  25.066  1.00  0.00     0.338 C 
ATOM     82  O   UNL A   1      33.232  25.477  25.905  1.00  0.00    -0.246 OA
BRANCH  81  83
ATOM     83  C   UNL A   1      32.596  27.717  25.293  1.00  0.00     0.071 A 
ATOM     84  C   UNL A   1      31.514  28.098  24.502  1.00  0.00     0.047 A 
ATOM     85  C   UNL A   1      33.228  28.649  26.149  1.00  0.00     0.018 A 
ATOM     86  C   UNL A   1      31.058  29.402  24.573  1.00  0.00     0.090 A 
ATOM     87  C   UNL A   1      32.732  29.970  26.096  1.00  0.00     0.072 A 
ATOM     88  C   UNL A   1      34.331  28.371  26.995  1.00  0.00     0.050 A 
ATOM     89  N   UNL A   1      31.675  30.324  25.352  1.00  0.00    -0.246 NA
ATOM     90  C   UNL A   1      33.373  30.962  26.831  1.00  0.00     0.032 A 
ATOM     91  C   UNL A   1      34.950  29.390  27.710  1.00  0.00     0.123 A 
ATOM     92  C   UNL A   1      34.486  30.690  27.628  1.00  0.00     0.041 A 
ATOM     93  F   UNL A   1      36.017  29.114  28.468  1.00  0.00    -0.207 F 
BRANCH  86  94
ATOM     94  C   UNL A   1      29.856  29.815  23.827  1.00  0.00     0.089 A 
ATOM     95  C   UNL A   1      29.234  28.937  22.934  1.00  0.00     0.030 A 
ATOM     96  N   UNL A   1      29.412  31.085  24.005  1.00  0.00    -0.255 NA
ATOM     97  C   UNL A   1      28.137  29.369  22.198  1.00  0.00     0.004 A 
ATOM     98  C   UNL A   1      28.339  31.477  23.283  1.00  0.00     0.112 A 
ATOM     99  C   UNL A   1      27.678  30.666  22.374  1.00  0.00     0.020 A 
ENDBRANCH  86  94
ENDBRANCH  81  83
ENDBRANCH  80  81
ENDBRANCH  79  80
ENDBRANCH  78  79
ENDBRANCH  77  78
ENDBRANCH  76  77
ENDBRANCH  75  76
ENDBRANCH  74  75
ENDBRANCH   1  74
TORSDOF 21
ENDMDL
MODEL 3
REMARK VINA RESULT:     -10.8      1.937      7.582
REMARK SMILES O=C(OCCOCCOCCOCCOC(=O)c1cc(-c2ccccn2)nc2ccc(F)cc12)c1ccc(-c2c3nc(c(-c4c(F)c(F)c(F)c(F)c4F)c4ccc([nH]4)c(-c4c(F)c(F)c(F)c(F)c4F)c4nc(c(-c5c(F)c(F)c(F)c(F)c5F)c5ccc2[nH]5)C=C4)C=C3)cc1
REMARK SMILES IDX 8 1 7 2 6 3 5 4 4 5 3 6 2 7 1 8 35 9 36 10 97 11 37 12 96 13
REMARK SMILES IDX 38 14 39 15 40 16 90 17 41 18 95 19 89 20 91 21 42 22 94 23
REMARK SMILES IDX 88 24 87 25 43 27 75 28 55 29 74 30 56 31 59 32 73 33 92 34
REMARK SMILES IDX 57 35 58 36 72 38 93 39 60 40 44 41 45 42 53 43 46 44 47 45
REMARK SMILES IDX 51 46 54 47 48 48 49 49 52 50 50 51 76 52 77 53 85 54 78 55
REMARK SMILES IDX 79 56 83 57 86 58 80 59 81 60 84 61 82 62 61 63 62 64 70 65
REMARK SMILES IDX 63 66 64 67 68 68 71 69 65 70 66 71 69 72 67 73 9 74 10 75
REMARK SMILES IDX 11 76 12 77 13 78 14 79 15 80 16 81 17 82 18 83 19 84 34 85
REMARK SMILES IDX 20 86 28 87 33 88 27 89 29 90 31 91 30 92 32 93 21 94 22 95
REMARK SMILES IDX 26 96 23 97 25 98 24 99
REMARK H PARENT 91 26 59 37
REMARK Flexibility Score: inf
ROOT
ATOM      1  C   UNL A   1      35.703  21.099  25.744  1.00  0.00     0.188 C 
ENDROOT
BRANCH   1   2
ATOM      2  C   UNL A   1      36.302  21.979  24.651  1.00  0.00     0.188 C 
BRANCH   2   3
ATOM      3  O   UNL A   1      37.731  21.910  24.705  1.00  0.00    -0.376 OA
BRANCH   3   4
ATOM      4  C   UNL A   1      38.249  21.001  25.668  1.00  0.00     0.202 C 
BRANCH   4   5
ATOM      5  C   UNL A   1      38.926  19.783  25.048  1.00  0.00     0.261 C 
BRANCH   5   6
ATOM      6  O   UNL A   1      39.865  19.149  25.927  1.00  0.00    -0.460 OA
BRANCH   6   7
ATOM      7  C   UNL A   1      41.205  19.317  26.030  1.00  0.00     0.338 C 
ATOM      8  O   UNL A   1      41.913  18.349  25.746  1.00  0.00    -0.246 OA
BRANCH   7   9
ATOM      9  C   UNL A   1      41.912  20.566  26.497  1.00  0.00     0.060 A 
ATOM     10  C   UNL A   1      42.448  21.390  25.482  1.00  0.00     0.016 A 
ATOM     11  C   UNL A   1      42.080  20.996  27.817  1.00  0.00     0.016 A 
ATOM     12  C   UNL A   1      43.074  22.610  25.773  1.00  0.00     0.010 A 
ATOM     13  C   UNL A   1      42.726  22.197  28.119  1.00  0.00     0.010 A 
ATOM     14  C   UNL A   1      43.186  23.030  27.098  1.00  0.00    -0.014 A 
BRANCH  14  15
ATOM     15  C   UNL A   1      43.524  24.426  27.443  1.00  0.00     0.031 A 
ATOM     16  C   UNL A   1      42.489  25.414  27.870  1.00  0.00     0.074 A 
ATOM     17  C   UNL A   1      44.801  24.797  27.230  1.00  0.00     0.049 A 
ATOM     18  N   UNL A   1      42.638  26.683  28.149  1.00  0.00    -0.248 NA
ATOM     19  C   UNL A   1      41.107  24.925  27.994  1.00  0.00     0.031 C 
ATOM     20  C   UNL A   1      45.863  23.898  26.763  1.00  0.00     0.029 A 
ATOM     21  N   UNL A   1      45.417  26.014  27.332  1.00  0.00    -0.354 N 
ATOM     22  C   UNL A   1      41.382  27.141  28.522  1.00  0.00     0.074 A 
ATOM     23  C   UNL A   1      40.468  26.024  28.381  1.00  0.00     0.031 C 
ATOM     24  C   UNL A   1      46.991  24.602  26.595  1.00  0.00     0.029 A 
ATOM     25  C   UNL A   1      46.731  25.993  26.939  1.00  0.00     0.049 A 
ATOM     26  H   UNL A   1      44.961  26.824  27.656  1.00  0.00     0.167 HD
ATOM     27  C   UNL A   1      41.044  28.379  28.956  1.00  0.00     0.037 A 
ATOM     28  C   UNL A   1      47.630  26.990  26.869  1.00  0.00     0.037 A 
ATOM     29  C   UNL A   1      41.970  29.485  29.038  1.00  0.00     0.049 A 
ATOM     30  C   UNL A   1      47.216  28.357  27.324  1.00  0.00     0.074 A 
ATOM     31  C   UNL A   1      41.736  30.780  29.468  1.00  0.00     0.029 A 
ATOM     32  N   UNL A   1      43.307  29.425  28.668  1.00  0.00    -0.354 N 
ATOM     33  N   UNL A   1      46.043  28.763  27.745  1.00  0.00    -0.248 NA
ATOM     34  C   UNL A   1      48.253  29.393  27.327  1.00  0.00     0.031 C 
ATOM     35  C   UNL A   1      42.921  31.511  29.326  1.00  0.00     0.029 A 
ATOM     36  C   UNL A   1      43.908  30.659  28.856  1.00  0.00     0.049 A 
ATOM     37  H   UNL A   1      43.762  28.622  28.323  1.00  0.00     0.167 HD
ATOM     38  C   UNL A   1      46.209  30.090  28.107  1.00  0.00     0.074 A 
ATOM     39  C   UNL A   1      47.600  30.417  27.857  1.00  0.00     0.031 C 
ATOM     40  C   UNL A   1      45.296  30.956  28.609  1.00  0.00     0.037 A 
BRANCH  27  41
ATOM     41  C   UNL A   1      39.633  28.612  29.414  1.00  0.00     0.064 A 
ATOM     42  C   UNL A   1      39.258  28.368  30.744  1.00  0.00     0.173 A 
ATOM     43  C   UNL A   1      38.681  29.195  28.564  1.00  0.00     0.173 A 
ATOM     44  F   UNL A   1      40.129  27.810  31.599  1.00  0.00    -0.203 F 
ATOM     45  C   UNL A   1      37.986  28.699  31.207  1.00  0.00     0.198 A 
ATOM     46  C   UNL A   1      37.416  29.546  29.034  1.00  0.00     0.198 A 
ATOM     47  F   UNL A   1      38.987  29.458  27.285  1.00  0.00    -0.203 F 
ATOM     48  F   UNL A   1      37.649  28.446  32.478  1.00  0.00    -0.200 F 
ATOM     49  C   UNL A   1      37.071  29.299  30.355  1.00  0.00     0.200 A 
ATOM     50  F   UNL A   1      36.538  30.142  28.215  1.00  0.00    -0.200 F 
ATOM     51  F   UNL A   1      35.857  29.643  30.808  1.00  0.00    -0.200 F 
ENDBRANCH  27  41
BRANCH  28  52
ATOM     52  C   UNL A   1      49.018  26.693  26.436  1.00  0.00     0.064 A 
ATOM     53  C   UNL A   1      49.420  26.949  25.119  1.00  0.00     0.173 A 
ATOM     54  C   UNL A   1      49.979  26.206  27.333  1.00  0.00     0.173 A 
ATOM     55  F   UNL A   1      48.532  27.410  24.226  1.00  0.00    -0.203 F 
ATOM     56  C   UNL A   1      50.730  26.715  24.709  1.00  0.00     0.198 A 
ATOM     57  C   UNL A   1      51.296  25.996  26.928  1.00  0.00     0.198 A 
ATOM     58  F   UNL A   1      49.648  25.963  28.609  1.00  0.00    -0.203 F 
ATOM     59  F   UNL A   1      51.080  26.942  23.436  1.00  0.00    -0.200 F 
ATOM     60  C   UNL A   1      51.669  26.246  25.615  1.00  0.00     0.200 A 
ATOM     61  F   UNL A   1      52.206  25.562  27.811  1.00  0.00    -0.200 F 
ATOM     62  F   UNL A   1      52.933  26.035  25.224  1.00  0.00    -0.200 F 
ENDBRANCH  28  52
BRANCH  40  63
ATOM     63  C   UNL A   1      45.792  32.326  28.964  1.00  0.00     0.064 A 
ATOM     64  C   UNL A   1      45.747  33.387  28.048  1.00  0.00     0.173 A 
ATOM     65  C   UNL A   1      46.301  32.581  30.246  1.00  0.00     0.173 A 
ATOM     66  F   UNL A   1      45.282  33.186  26.806  1.00  0.00    -0.203 F 
ATOM     67  C   UNL A   1      46.226  34.646  28.393  1.00  0.00     0.198 A 
ATOM     68  C   UNL A   1      46.752  33.849  30.597  1.00  0.00     0.198 A 
ATOM     69  F   UNL A   1      46.359  31.600  31.159  1.00  0.00    -0.203 F 
ATOM     70  F   UNL A   1      46.226  35.632  27.485  1.00  0.00    -0.200 F 
ATOM     71  C   UNL A   1      46.723  34.878  29.667  1.00  0.00     0.200 A 
ATOM     72  F   UNL A   1      47.221  34.075  31.832  1.00  0.00    -0.200 F 
ATOM     73  F   UNL A   1      47.184  36.093  29.997  1.00  0.00    -0.200 F 
ENDBRANCH  40  63
ENDBRANCH  14  15
ENDBRANCH   7   9
ENDBRANCH   6   7
ENDBRANCH   5   6
ENDBRANCH   4   5
ENDBRANCH   3   4
ENDBRANCH   2   3
ENDBRANCH   1   2
BRANCH   1  74
ATOM     74  O   UNL A   1      35.055  21.828  26.781  1.00  0.00    -0.377 OA
BRANCH  74  75
ATOM     75  C   UNL A   1      33.632  21.837  26.770  1.00  0.00     0.188 C 
BRANCH  75  76
ATOM     76  C   UNL A   1      32.924  23.136  26.332  1.00  0.00     0.188 C 
BRANCH  76  77
ATOM     77  O   UNL A   1      31.659  22.926  25.715  1.00  0.00    -0.376 OA
BRANCH  77  78
ATOM     78  C   UNL A   1      30.774  24.040  25.753  1.00  0.00     0.202 C 
BRANCH  78  79
ATOM     79  C   UNL A   1      31.145  25.067  26.822  1.00  0.00     0.261 C 
BRANCH  79  80
ATOM     80  O   UNL A   1      30.966  26.446  26.454  1.00  0.00    -0.460 OA
BRANCH  80  81
ATOM     81  C   UNL A   1      31.999  27.174  25.971  1.00  0.00     0.338 C 
ATOM     82  O   UNL A   1      33.024  27.481  26.546  1.00  0.00    -0.246 OA
BRANCH  81  83
ATOM     83  C   UNL A   1      31.688  27.428  24.543  1.00  0.00     0.071 A 
ATOM     84  C   UNL A   1      30.780  28.453  24.284  1.00  0.00     0.047 A 
ATOM     85  C   UNL A   1      32.160  26.600  23.497  1.00  0.00     0.018 A 
ATOM     86  C   UNL A   1      30.351  28.655  22.985  1.00  0.00     0.090 A 
ATOM     87  C   UNL A   1      31.608  26.844  22.221  1.00  0.00     0.072 A 
ATOM     88  C   UNL A   1      33.083  25.534  23.646  1.00  0.00     0.050 A 
ATOM     89  N   UNL A   1      30.753  27.847  21.974  1.00  0.00    -0.246 NA
ATOM     90  C   UNL A   1      31.945  26.001  21.167  1.00  0.00     0.032 A 
ATOM     91  C   UNL A   1      33.390  24.708  22.571  1.00  0.00     0.123 A 
ATOM     92  C   UNL A   1      32.820  24.926  21.329  1.00  0.00     0.041 A 
ATOM     93  F   UNL A   1      34.229  23.680  22.743  1.00  0.00    -0.207 F 
BRANCH  86  94
ATOM     94  C   UNL A   1      29.468  29.789  22.658  1.00  0.00     0.089 A 
ATOM     95  C   UNL A   1      28.768  30.461  23.665  1.00  0.00     0.030 A 
ATOM     96  N   UNL A   1      29.329  30.119  21.349  1.00  0.00    -0.255 NA
ATOM     97  C   UNL A   1      27.897  31.490  23.326  1.00  0.00     0.004 A 
ATOM     98  C   UNL A   1      28.481  31.129  21.048  1.00  0.00     0.112 A 
ATOM     99  C   UNL A   1      27.747  31.832  21.989  1.00  0.00     0.020 A 
ENDBRANCH  86  94
ENDBRANCH  81  83
ENDBRANCH  80  81
ENDBRANCH  79  80
ENDBRANCH  78  79
ENDBRANCH  77  78
ENDBRANCH  76  77
ENDBRANCH  75  76
ENDBRANCH  74  75
ENDBRANCH   1  74
TORSDOF 21
ENDMDL
