MODEL 1
REMARK VINA RESULT:     -11.3      0.000      0.000
REMARK SMILES COc1ccc(C)cc1Nc1nc(OCC(=O)OCCOCCOCCOCCOC(=O)c2ccc(-c3c4nc(c(-c5c(F)c(F)c(F)c(F)c5F)c5ccc([nH]5)c(-c5c(F)c(F)c(F)c(F)c5F)c5nc(c(-c6c(F)c(F)c(F)c(F)c6F)c6ccc3[nH]6)C=C5)C=C4)cc2)cc(C(C)(C)C)n1
REMARK SMILES IDX 22 1 21 2 20 3 19 4 18 5 16 6 17 7 15 8 14 9 13 10 11 11
REMARK SMILES IDX 12 12 102 13 97 14 96 15 10 16 9 18 3 19 4 20 5 21 8 22 6 23
REMARK SMILES IDX 7 24 2 25 1 26 98 27 99 28 100 29 101 30 23 31 24 32 25 33
REMARK SMILES IDX 26 34 27 35 28 36 29 37 30 38 31 39 32 40 33 41 34 42 95 43
REMARK SMILES IDX 35 44 94 45 36 46 37 47 38 48 88 49 39 50 93 51 87 52 89 53
REMARK SMILES IDX 40 54 92 55 86 56 85 57 41 59 73 60 53 61 72 62 54 63 57 64
REMARK SMILES IDX 71 65 90 66 55 67 56 68 70 70 91 71 58 72 42 73 43 74 51 75
REMARK SMILES IDX 44 76 45 77 49 78 52 79 46 80 47 81 50 82 48 83 74 84 75 85
REMARK SMILES IDX 83 86 76 87 77 88 81 89 84 90 78 91 79 92 82 93 80 94 59 95
REMARK SMILES IDX 60 96 68 97 61 98 62 99 66 100 69 101 63 102 64 103 67 104
REMARK SMILES IDX 65 105
REMARK H PARENT 10 17 89 58 57 69
REMARK Flexibility Score: inf
ROOT
ATOM      1  C   UNL A   1      42.363  37.201  26.739  1.00  0.00     0.188 C 
ENDROOT
BRANCH   1   2
ATOM      2  O   UNL A   1      43.023  38.819  27.096  1.00  0.00    -0.376 OA
BRANCH   2   3
ATOM      3  C   UNL A   1      42.535  40.490  26.713  1.00  0.00     0.202 C 
BRANCH   3   4
ATOM      4  C   UNL A   1      41.714  41.181  25.134  1.00  0.00     0.261 C 
BRANCH   4   5
ATOM      5  O   UNL A   1      42.413  42.316  23.915  1.00  0.00    -0.461 OA
BRANCH   5   6
ATOM      6  C   UNL A   1      43.540  43.175  23.595  1.00  0.00     0.344 C 
ATOM      7  O   UNL A   1      43.586  44.416  23.573  1.00  0.00    -0.248 OA
BRANCH   6   8
ATOM      8  C   UNL A   1      45.021  42.590  23.282  1.00  0.00     0.353 C 
BRANCH   8   9
ATOM      9  O   UNL A   1      46.370  43.099  23.165  1.00  0.00    -0.466 OA
BRANCH   9  10
ATOM     10  C   UNL A   1      47.042  43.582  22.060  1.00  0.00     0.218 A 
ATOM     11  C   UNL A   1      46.756  44.176  19.776  1.00  0.00     0.230 A 
ATOM     12  N   UNL A   1      46.228  43.848  20.992  1.00  0.00    -0.177 NA
ATOM     13  N   UNL A   1      48.085  44.302  19.609  1.00  0.00    -0.217 NA
ATOM     14  C   UNL A   1      48.901  44.125  20.704  1.00  0.00     0.055 A 
ATOM     15  C   UNL A   1      48.395  43.772  21.969  1.00  0.00     0.093 A 
BRANCH  11  16
ATOM     16  N   UNL A   1      45.810  44.422  18.747  1.00  0.00    -0.321 N 
ATOM     17  H   UNL A   1      45.380  43.572  18.502  1.00  0.00     0.170 HD
BRANCH  16  18
ATOM     18  C   UNL A   1      45.257  45.466  17.941  1.00  0.00     0.084 A 
ATOM     19  C   UNL A   1      46.159  46.385  17.321  1.00  0.00     0.142 A 
ATOM     20  C   UNL A   1      45.707  47.569  16.709  1.00  0.00     0.049 A 
ATOM     21  C   UNL A   1      44.365  47.890  16.705  1.00  0.00     0.007 A 
ATOM     22  C   UNL A   1      43.889  45.745  17.772  1.00  0.00     0.033 A 
ATOM     23  C   UNL A   1      43.442  46.989  17.227  1.00  0.00    -0.049 A 
ATOM     24  C   UNL A   1      42.033  47.506  17.327  1.00  0.00     0.044 C 
BRANCH  19  25
ATOM     25  O   UNL A   1      47.500  46.064  17.390  1.00  0.00    -0.495 OA
ATOM     26  C   UNL A   1      48.131  45.779  16.141  1.00  0.00     0.278 C 
ENDBRANCH  19  25
ENDBRANCH  16  18
ENDBRANCH  11  16
BRANCH  14  27
ATOM     27  C   UNL A   1      50.427  44.265  20.454  1.00  0.00     0.004 C 
ATOM     28  C   UNL A   1      50.755  45.566  19.679  1.00  0.00     0.017 C 
ATOM     29  C   UNL A   1      51.169  44.304  21.796  1.00  0.00     0.017 C 
ATOM     30  C   UNL A   1      51.031  43.108  19.641  1.00  0.00     0.017 C 
ENDBRANCH  14  27
ENDBRANCH   9  10
ENDBRANCH   8   9
ENDBRANCH   6   8
ENDBRANCH   5   6
ENDBRANCH   4   5
ENDBRANCH   3   4
ENDBRANCH   2   3
ENDBRANCH   1   2
BRANCH   1  31
ATOM     31  C   UNL A   1      43.007  35.674  26.297  1.00  0.00     0.188 C 
BRANCH  31  32
ATOM     32  O   UNL A   1      42.859  34.818  25.147  1.00  0.00    -0.377 OA
BRANCH  32  33
ATOM     33  C   UNL A   1      43.650  33.722  24.717  1.00  0.00     0.188 C 
BRANCH  33  34
ATOM     34  C   UNL A   1      44.877  33.460  25.528  1.00  0.00     0.188 C 
BRANCH  34  35
ATOM     35  O   UNL A   1      44.929  32.064  25.710  1.00  0.00    -0.376 OA
BRANCH  35  36
ATOM     36  C   UNL A   1      44.167  31.547  26.777  1.00  0.00     0.202 C 
BRANCH  36  37
ATOM     37  C   UNL A   1      44.070  30.048  26.603  1.00  0.00     0.261 C 
BRANCH  37  38
ATOM     38  O   UNL A   1      42.693  29.706  26.296  1.00  0.00    -0.460 OA
BRANCH  38  39
ATOM     39  C   UNL A   1      42.518  28.452  25.790  1.00  0.00     0.338 C 
ATOM     40  O   UNL A   1      42.568  28.177  24.571  1.00  0.00    -0.246 OA
BRANCH  39  41
ATOM     41  C   UNL A   1      41.935  27.538  26.815  1.00  0.00     0.060 A 
ATOM     42  C   UNL A   1      40.572  27.265  26.873  1.00  0.00     0.016 A 
ATOM     43  C   UNL A   1      42.647  27.202  27.933  1.00  0.00     0.016 A 
ATOM     44  C   UNL A   1      39.905  27.115  28.138  1.00  0.00     0.010 A 
ATOM     45  C   UNL A   1      41.941  26.953  29.137  1.00  0.00     0.010 A 
ATOM     46  C   UNL A   1      40.536  27.284  29.378  1.00  0.00    -0.014 A 
BRANCH  46  47
ATOM     47  C   UNL A   1      39.725  28.106  30.845  1.00  0.00     0.031 A 
ATOM     48  C   UNL A   1      38.145  29.317  30.861  1.00  0.00     0.074 A 
ATOM     49  C   UNL A   1      40.513  27.841  31.953  1.00  0.00     0.049 A 
ATOM     50  N   UNL A   1      38.271  30.676  31.021  1.00  0.00    -0.248 NA
ATOM     51  C   UNL A   1      36.745  29.424  30.107  1.00  0.00     0.031 C 
ATOM     52  C   UNL A   1      40.192  27.866  33.361  1.00  0.00     0.029 A 
ATOM     53  N   UNL A   1      41.890  27.632  32.061  1.00  0.00    -0.354 N 
ATOM     54  C   UNL A   1      37.275  31.547  30.675  1.00  0.00     0.074 A 
ATOM     55  C   UNL A   1      36.376  30.712  29.980  1.00  0.00     0.031 C 
ATOM     56  C   UNL A   1      41.214  28.296  34.110  1.00  0.00     0.029 A 
ATOM     57  C   UNL A   1      42.326  28.311  33.213  1.00  0.00     0.049 A 
ATOM     58  H   UNL A   1      42.451  27.108  31.445  1.00  0.00     0.167 HD
ATOM     59  C   UNL A   1      37.279  32.882  31.005  1.00  0.00     0.037 A 
ATOM     60  C   UNL A   1      43.544  28.822  33.456  1.00  0.00     0.037 A 
ATOM     61  C   UNL A   1      38.262  33.254  32.033  1.00  0.00     0.049 A 
ATOM     62  C   UNL A   1      43.454  30.330  33.289  1.00  0.00     0.074 A 
ATOM     63  C   UNL A   1      38.200  33.298  33.419  1.00  0.00     0.029 A 
ATOM     64  N   UNL A   1      39.594  33.459  31.735  1.00  0.00    -0.354 N 
ATOM     65  N   UNL A   1      42.380  31.086  33.398  1.00  0.00    -0.248 NA
ATOM     66  C   UNL A   1      44.645  31.083  32.910  1.00  0.00     0.031 C 
ATOM     67  C   UNL A   1      39.532  33.307  33.938  1.00  0.00     0.029 A 
ATOM     68  C   UNL A   1      40.411  33.359  32.873  1.00  0.00     0.049 A 
ATOM     69  H   UNL A   1      39.933  33.652  30.831  1.00  0.00     0.167 HD
ATOM     70  C   UNL A   1      42.705  32.368  32.976  1.00  0.00     0.074 A 
ATOM     71  C   UNL A   1      44.141  32.308  32.725  1.00  0.00     0.031 C 
ATOM     72  C   UNL A   1      41.867  33.433  32.739  1.00  0.00     0.037 A 
BRANCH  59  73
ATOM     73  C   UNL A   1      36.130  33.780  30.578  1.00  0.00     0.064 A 
ATOM     74  C   UNL A   1      35.161  34.241  31.489  1.00  0.00     0.173 A 
ATOM     75  C   UNL A   1      35.929  34.175  29.239  1.00  0.00     0.173 A 
ATOM     76  F   UNL A   1      35.300  34.051  32.808  1.00  0.00    -0.203 F 
ATOM     77  C   UNL A   1      34.001  34.906  31.069  1.00  0.00     0.198 A 
ATOM     78  C   UNL A   1      34.749  34.797  28.813  1.00  0.00     0.198 A 
ATOM     79  F   UNL A   1      36.877  33.959  28.314  1.00  0.00    -0.203 F 
ATOM     80  F   UNL A   1      33.092  35.299  31.974  1.00  0.00    -0.200 F 
ATOM     81  C   UNL A   1      33.772  35.139  29.726  1.00  0.00     0.200 A 
ATOM     82  F   UNL A   1      34.553  35.040  27.508  1.00  0.00    -0.200 F 
ATOM     83  F   UNL A   1      32.626  35.701  29.320  1.00  0.00    -0.200 F 
ENDBRANCH  59  73
BRANCH  60  84
ATOM     84  C   UNL A   1      44.547  27.827  32.955  1.00  0.00     0.064 A 
ATOM     85  C   UNL A   1      44.649  26.673  33.778  1.00  0.00     0.173 A 
ATOM     86  C   UNL A   1      44.823  27.665  31.591  1.00  0.00     0.173 A 
ATOM     87  F   UNL A   1      44.388  26.771  35.093  1.00  0.00    -0.203 F 
ATOM     88  C   UNL A   1      44.770  25.398  33.230  1.00  0.00     0.198 A 
ATOM     89  C   UNL A   1      44.981  26.380  31.052  1.00  0.00     0.198 A 
ATOM     90  F   UNL A   1      44.726  28.707  30.756  1.00  0.00    -0.203 F 
ATOM     91  F   UNL A   1      44.623  24.317  34.009  1.00  0.00    -0.200 F 
ATOM     92  C   UNL A   1      44.891  25.252  31.860  1.00  0.00     0.200 A 
ATOM     93  F   UNL A   1      45.055  26.223  29.723  1.00  0.00    -0.200 F 
ATOM     94  F   UNL A   1      44.829  24.030  31.311  1.00  0.00    -0.200 F 
ENDBRANCH  60  84
BRANCH  72  95
ATOM     95  C   UNL A   1      42.452  34.756  32.329  1.00  0.00     0.064 A 
ATOM     96  C   UNL A   1      42.910  34.980  31.021  1.00  0.00     0.173 A 
ATOM     97  C   UNL A   1      42.666  35.786  33.262  1.00  0.00     0.173 A 
ATOM     98  F   UNL A   1      42.751  34.043  30.074  1.00  0.00    -0.203 F 
ATOM     99  C   UNL A   1      43.518  36.182  30.662  1.00  0.00     0.198 A 
ATOM    100  C   UNL A   1      43.339  36.954  32.919  1.00  0.00     0.198 A 
ATOM    101  F   UNL A   1      42.201  35.690  34.518  1.00  0.00    -0.203 F 
ATOM    102  F   UNL A   1      43.872  36.394  29.387  1.00  0.00    -0.200 F 
ATOM    103  C   UNL A   1      43.753  37.158  31.616  1.00  0.00     0.200 A 
ATOM    104  F   UNL A   1      43.577  37.883  33.856  1.00  0.00    -0.200 F 
ATOM    105  F   UNL A   1      44.365  38.300  31.277  1.00  0.00    -0.200 F 
ENDBRANCH  72  95
ENDBRANCH  46  47
ENDBRANCH  39  41
ENDBRANCH  38  39
ENDBRANCH  37  38
ENDBRANCH  36  37
ENDBRANCH  35  36
ENDBRANCH  34  35
ENDBRANCH  33  34
ENDBRANCH  32  33
ENDBRANCH  31  32
ENDBRANCH   1  31
TORSDOF 26
ENDMDL
MODEL 2
REMARK VINA RESULT:     -10.9      9.197     14.268
REMARK SMILES COc1ccc(C)cc1Nc1nc(OCC(=O)OCCOCCOCCOCCOC(=O)c2ccc(-c3c4nc(c(-c5c(F)c(F)c(F)c(F)c5F)c5ccc([nH]5)c(-c5c(F)c(F)c(F)c(F)c5F)c5nc(c(-c6c(F)c(F)c(F)c(F)c6F)c6ccc3[nH]6)C=C5)C=C4)cc2)cc(C(C)(C)C)n1
REMARK SMILES IDX 22 1 21 2 20 3 19 4 18 5 16 6 17 7 15 8 14 9 13 10 11 11
REMARK SMILES IDX 12 12 102 13 97 14 96 15 10 16 9 18 3 19 4 20 5 21 8 22 6 23
REMARK SMILES IDX 7 24 2 25 1 26 98 27 99 28 100 29 101 30 23 31 24 32 25 33
REMARK SMILES IDX 26 34 27 35 28 36 29 37 30 38 31 39 32 40 33 41 34 42 95 43
REMARK SMILES IDX 35 44 94 45 36 46 37 47 38 48 88 49 39 50 93 51 87 52 89 53
REMARK SMILES IDX 40 54 92 55 86 56 85 57 41 59 73 60 53 61 72 62 54 63 57 64
REMARK SMILES IDX 71 65 90 66 55 67 56 68 70 70 91 71 58 72 42 73 43 74 51 75
REMARK SMILES IDX 44 76 45 77 49 78 52 79 46 80 47 81 50 82 48 83 74 84 75 85
REMARK SMILES IDX 83 86 76 87 77 88 81 89 84 90 78 91 79 92 82 93 80 94 59 95
REMARK SMILES IDX 60 96 68 97 61 98 62 99 66 100 69 101 63 102 64 103 67 104
REMARK SMILES IDX 65 105
REMARK H PARENT 10 17 89 58 57 69
REMARK Flexibility Score: inf
ROOT
ATOM      1  C   UNL A   1      43.422  26.613  30.116  1.00  0.00     0.188 C 
ENDROOT
BRANCH   1   2
ATOM      2  O   UNL A   1      43.037  28.065  31.076  1.00  0.00    -0.376 OA
BRANCH   2   3
ATOM      3  C   UNL A   1      42.649  28.377  32.788  1.00  0.00     0.202 C 
BRANCH   3   4
ATOM      4  C   UNL A   1      40.984  28.198  33.705  1.00  0.00     0.261 C 
BRANCH   4   5
ATOM      5  O   UNL A   1      39.355  27.847  33.007  1.00  0.00    -0.461 OA
BRANCH   5   6
ATOM      6  C   UNL A   1      38.092  28.424  32.579  1.00  0.00     0.344 C 
ATOM      7  O   UNL A   1      37.048  28.572  33.235  1.00  0.00    -0.248 OA
BRANCH   6   8
ATOM      8  C   UNL A   1      37.886  29.078  31.109  1.00  0.00     0.353 C 
BRANCH   8   9
ATOM      9  O   UNL A   1      36.999  28.908  29.977  1.00  0.00    -0.466 OA
BRANCH   9  10
ATOM     10  C   UNL A   1      36.153  29.816  29.372  1.00  0.00     0.218 A 
ATOM     11  C   UNL A   1      34.822  30.171  27.435  1.00  0.00     0.230 A 
ATOM     12  N   UNL A   1      35.556  29.343  28.235  1.00  0.00    -0.177 NA
ATOM     13  N   UNL A   1      34.617  31.457  27.771  1.00  0.00    -0.217 NA
ATOM     14  C   UNL A   1      35.139  31.912  28.961  1.00  0.00     0.055 A 
ATOM     15  C   UNL A   1      35.913  31.094  29.805  1.00  0.00     0.093 A 
BRANCH  11  16
ATOM     16  N   UNL A   1      34.260  29.563  26.282  1.00  0.00    -0.321 N 
ATOM     17  H   UNL A   1      34.968  29.445  25.610  1.00  0.00     0.170 HD
BRANCH  16  18
ATOM     18  C   UNL A   1      33.032  29.059  25.749  1.00  0.00     0.084 A 
ATOM     19  C   UNL A   1      32.913  27.649  25.555  1.00  0.00     0.142 A 
ATOM     20  C   UNL A   1      31.848  27.087  24.826  1.00  0.00     0.049 A 
ATOM     21  C   UNL A   1      30.884  27.894  24.257  1.00  0.00     0.007 A 
ATOM     22  C   UNL A   1      31.947  29.831  25.296  1.00  0.00     0.033 A 
ATOM     23  C   UNL A   1      30.915  29.266  24.485  1.00  0.00    -0.049 A 
ATOM     24  C   UNL A   1      29.925  30.068  23.684  1.00  0.00     0.044 C 
BRANCH  19  25
ATOM     25  O   UNL A   1      33.922  26.871  26.089  1.00  0.00    -0.495 OA
ATOM     26  C   UNL A   1      34.155  25.626  25.432  1.00  0.00     0.278 C 
ENDBRANCH  19  25
ENDBRANCH  16  18
ENDBRANCH  11  16
BRANCH  14  27
ATOM     27  C   UNL A   1      34.889  33.408  29.295  1.00  0.00     0.004 C 
ATOM     28  C   UNL A   1      34.440  33.591  30.766  1.00  0.00     0.017 C 
ATOM     29  C   UNL A   1      36.180  34.208  29.082  1.00  0.00     0.017 C 
ATOM     30  C   UNL A   1      33.805  34.064  28.422  1.00  0.00     0.017 C 
ENDBRANCH  14  27
ENDBRANCH   9  10
ENDBRANCH   8   9
ENDBRANCH   6   8
ENDBRANCH   5   6
ENDBRANCH   4   5
ENDBRANCH   3   4
ENDBRANCH   2   3
ENDBRANCH   1   2
BRANCH   1  31
ATOM     31  C   UNL A   1      43.073  26.048  28.534  1.00  0.00     0.188 C 
BRANCH  31  32
ATOM     32  O   UNL A   1      42.004  25.272  27.959  1.00  0.00    -0.377 OA
BRANCH  32  33
ATOM     33  C   UNL A   1      40.600  25.473  28.010  1.00  0.00     0.188 C 
BRANCH  33  34
ATOM     34  C   UNL A   1      40.163  26.840  28.426  1.00  0.00     0.188 C 
BRANCH  34  35
ATOM     35  O   UNL A   1      40.287  27.650  27.281  1.00  0.00    -0.376 OA
BRANCH  35  36
ATOM     36  C   UNL A   1      40.867  28.921  27.477  1.00  0.00     0.202 C 
BRANCH  36  37
ATOM     37  C   UNL A   1      39.964  29.712  28.397  1.00  0.00     0.261 C 
BRANCH  37  38
ATOM     38  O   UNL A   1      40.718  30.078  29.582  1.00  0.00    -0.460 OA
BRANCH  38  39
ATOM     39  C   UNL A   1      40.445  31.324  30.066  1.00  0.00     0.338 C 
ATOM     40  O   UNL A   1      39.347  31.903  29.927  1.00  0.00    -0.246 OA
BRANCH  39  41
ATOM     41  C   UNL A   1      41.699  32.025  30.470  1.00  0.00     0.060 A 
ATOM     42  C   UNL A   1      42.524  32.657  29.545  1.00  0.00     0.016 A 
ATOM     43  C   UNL A   1      42.262  31.794  31.695  1.00  0.00     0.016 A 
ATOM     44  C   UNL A   1      43.955  32.618  29.688  1.00  0.00     0.010 A 
ATOM     45  C   UNL A   1      43.671  31.874  31.819  1.00  0.00     0.010 A 
ATOM     46  C   UNL A   1      44.619  31.915  30.704  1.00  0.00    -0.014 A 
BRANCH  46  47
ATOM     47  C   UNL A   1      46.209  30.974  30.437  1.00  0.00     0.031 A 
ATOM     48  C   UNL A   1      46.637  29.655  29.009  1.00  0.00     0.074 A 
ATOM     49  C   UNL A   1      47.034  31.245  31.517  1.00  0.00     0.049 A 
ATOM     50  N   UNL A   1      46.663  28.303  29.250  1.00  0.00    -0.248 NA
ATOM     51  C   UNL A   1      46.347  29.484  27.450  1.00  0.00     0.031 C 
ATOM     52  C   UNL A   1      48.467  31.136  31.654  1.00  0.00     0.029 A 
ATOM     53  N   UNL A   1      46.723  31.545  32.846  1.00  0.00    -0.354 N 
ATOM     54  C   UNL A   1      46.588  27.380  28.244  1.00  0.00     0.074 A 
ATOM     55  C   UNL A   1      46.260  28.179  27.130  1.00  0.00     0.031 C 
ATOM     56  C   UNL A   1      48.834  30.747  32.880  1.00  0.00     0.029 A 
ATOM     57  C   UNL A   1      47.638  30.849  33.656  1.00  0.00     0.049 A 
ATOM     58  H   UNL A   1      45.998  32.134  33.156  1.00  0.00     0.167 HD
ATOM     59  C   UNL A   1      46.814  26.035  28.421  1.00  0.00     0.037 A 
ATOM     60  C   UNL A   1      47.460  30.415  34.914  1.00  0.00     0.037 A 
ATOM     61  C   UNL A   1      47.462  25.689  29.695  1.00  0.00     0.049 A 
ATOM     62  C   UNL A   1      47.233  28.913  34.856  1.00  0.00     0.074 A 
ATOM     63  C   UNL A   1      48.794  25.580  30.072  1.00  0.00     0.029 A 
ATOM     64  N   UNL A   1      46.754  25.591  30.876  1.00  0.00    -0.354 N 
ATOM     65  N   UNL A   1      47.621  28.079  33.912  1.00  0.00    -0.248 NA
ATOM     66  C   UNL A   1      46.457  28.262  35.907  1.00  0.00     0.031 C 
ATOM     67  C   UNL A   1      48.873  25.642  31.498  1.00  0.00     0.029 A 
ATOM     68  C   UNL A   1      47.587  25.699  32.002  1.00  0.00     0.049 A 
ATOM     69  H   UNL A   1      45.779  25.463  30.924  1.00  0.00     0.167 HD
ATOM     70  C   UNL A   1      47.039  26.843  34.156  1.00  0.00     0.074 A 
ATOM     71  C   UNL A   1      46.359  27.015  35.436  1.00  0.00     0.031 C 
ATOM     72  C   UNL A   1      47.005  25.733  33.344  1.00  0.00     0.037 A 
BRANCH  59  73
ATOM     73  C   UNL A   1      46.708  25.078  27.247  1.00  0.00     0.064 A 
ATOM     74  C   UNL A   1      47.434  25.270  26.055  1.00  0.00     0.173 A 
ATOM     75  C   UNL A   1      45.845  23.962  27.250  1.00  0.00     0.173 A 
ATOM     76  F   UNL A   1      48.383  26.210  25.962  1.00  0.00    -0.203 F 
ATOM     77  C   UNL A   1      47.194  24.504  24.906  1.00  0.00     0.198 A 
ATOM     78  C   UNL A   1      45.572  23.227  26.090  1.00  0.00     0.198 A 
ATOM     79  F   UNL A   1      45.244  23.567  28.383  1.00  0.00    -0.203 F 
ATOM     80  F   UNL A   1      47.891  24.745  23.786  1.00  0.00    -0.200 F 
ATOM     81  C   UNL A   1      46.229  23.515  24.910  1.00  0.00     0.200 A 
ATOM     82  F   UNL A   1      44.649  22.252  26.115  1.00  0.00    -0.200 F 
ATOM     83  F   UNL A   1      45.944  22.839  23.789  1.00  0.00    -0.200 F 
ENDBRANCH  59  73
BRANCH  60  84
ATOM     84  C   UNL A   1      46.736  31.498  35.656  1.00  0.00     0.064 A 
ATOM     85  C   UNL A   1      47.575  32.591  36.006  1.00  0.00     0.173 A 
ATOM     86  C   UNL A   1      45.381  31.778  35.438  1.00  0.00     0.173 A 
ATOM     87  F   UNL A   1      48.885  32.380  36.219  1.00  0.00    -0.203 F 
ATOM     88  C   UNL A   1      47.136  33.908  35.896  1.00  0.00     0.198 A 
ATOM     89  C   UNL A   1      44.939  33.107  35.366  1.00  0.00     0.198 A 
ATOM     90  F   UNL A   1      44.539  30.798  35.085  1.00  0.00    -0.203 F 
ATOM     91  F   UNL A   1      48.012  34.918  36.001  1.00  0.00    -0.200 F 
ATOM     92  C   UNL A   1      45.827  34.164  35.532  1.00  0.00     0.200 A 
ATOM     93  F   UNL A   1      43.684  33.368  34.972  1.00  0.00    -0.200 F 
ATOM     94  F   UNL A   1      45.444  35.419  35.252  1.00  0.00    -0.200 F 
ENDBRANCH  60  84
BRANCH  72  95
ATOM     95  C   UNL A   1      46.351  24.474  33.841  1.00  0.00     0.064 A 
ATOM     96  C   UNL A   1      47.106  23.427  34.396  1.00  0.00     0.173 A 
ATOM     97  C   UNL A   1      44.974  24.245  33.676  1.00  0.00     0.173 A 
ATOM     98  F   UNL A   1      48.428  23.564  34.579  1.00  0.00    -0.203 F 
ATOM     99  C   UNL A   1      46.507  22.232  34.790  1.00  0.00     0.198 A 
ATOM    100  C   UNL A   1      44.392  23.024  34.002  1.00  0.00     0.198 A 
ATOM    101  F   UNL A   1      44.162  25.212  33.220  1.00  0.00    -0.203 F 
ATOM    102  F   UNL A   1      47.243  21.284  35.387  1.00  0.00    -0.200 F 
ATOM    103  C   UNL A   1      45.156  22.022  34.571  1.00  0.00     0.200 A 
ATOM    104  F   UNL A   1      43.087  22.828  33.768  1.00  0.00    -0.200 F 
ATOM    105  F   UNL A   1      44.586  20.862  34.922  1.00  0.00    -0.200 F 
ENDBRANCH  72  95
ENDBRANCH  46  47
ENDBRANCH  39  41
ENDBRANCH  38  39
ENDBRANCH  37  38
ENDBRANCH  36  37
ENDBRANCH  35  36
ENDBRANCH  34  35
ENDBRANCH  33  34
ENDBRANCH  32  33
ENDBRANCH  31  32
ENDBRANCH   1  31
TORSDOF 26
ENDMDL
MODEL 3
REMARK VINA RESULT:     -10.6      8.544     14.108
REMARK SMILES COc1ccc(C)cc1Nc1nc(OCC(=O)OCCOCCOCCOCCOC(=O)c2ccc(-c3c4nc(c(-c5c(F)c(F)c(F)c(F)c5F)c5ccc([nH]5)c(-c5c(F)c(F)c(F)c(F)c5F)c5nc(c(-c6c(F)c(F)c(F)c(F)c6F)c6ccc3[nH]6)C=C5)C=C4)cc2)cc(C(C)(C)C)n1
REMARK SMILES IDX 22 1 21 2 20 3 19 4 18 5 16 6 17 7 15 8 14 9 13 10 11 11
REMARK SMILES IDX 12 12 102 13 97 14 96 15 10 16 9 18 3 19 4 20 5 21 8 22 6 23
REMARK SMILES IDX 7 24 2 25 1 26 98 27 99 28 100 29 101 30 23 31 24 32 25 33
REMARK SMILES IDX 26 34 27 35 28 36 29 37 30 38 31 39 32 40 33 41 34 42 95 43
REMARK SMILES IDX 35 44 94 45 36 46 37 47 38 48 88 49 39 50 93 51 87 52 89 53
REMARK SMILES IDX 40 54 92 55 86 56 85 57 41 59 73 60 53 61 72 62 54 63 57 64
REMARK SMILES IDX 71 65 90 66 55 67 56 68 70 70 91 71 58 72 42 73 43 74 51 75
REMARK SMILES IDX 44 76 45 77 49 78 52 79 46 80 47 81 50 82 48 83 74 84 75 85
REMARK SMILES IDX 83 86 76 87 77 88 81 89 84 90 78 91 79 92 82 93 80 94 59 95
REMARK SMILES IDX 60 96 68 97 61 98 62 99 66 100 69 101 63 102 64 103 67 104
REMARK SMILES IDX 65 105
REMARK H PARENT 10 17 89 58 57 69
REMARK Flexibility Score: inf
ROOT
ATOM      1  C   UNL A   1      44.288  26.571  32.630  1.00  0.00     0.188 C 
ENDROOT
BRANCH   1   2
ATOM      2  O   UNL A   1      43.244  27.808  33.377  1.00  0.00    -0.376 OA
BRANCH   2   3
ATOM      3  C   UNL A   1      41.490  28.126  33.404  1.00  0.00     0.202 C 
BRANCH   3   4
ATOM      4  C   UNL A   1      40.530  29.555  34.230  1.00  0.00     0.261 C 
BRANCH   4   5
ATOM      5  O   UNL A   1      39.218  30.576  33.524  1.00  0.00    -0.461 OA
BRANCH   5   6
ATOM      6  C   UNL A   1      38.657  31.915  33.453  1.00  0.00     0.344 C 
ATOM      7  O   UNL A   1      38.901  32.813  32.632  1.00  0.00    -0.248 OA
BRANCH   6   8
ATOM      8  C   UNL A   1      37.490  32.425  34.458  1.00  0.00     0.353 C 
BRANCH   8   9
ATOM      9  O   UNL A   1      36.057  32.627  34.420  1.00  0.00    -0.466 OA
BRANCH   9  10
ATOM     10  C   UNL A   1      35.265  33.162  33.424  1.00  0.00     0.218 A 
ATOM     11  C   UNL A   1      34.665  32.914  31.137  1.00  0.00     0.230 A 
ATOM     12  N   UNL A   1      35.266  32.433  32.265  1.00  0.00    -0.177 NA
ATOM     13  N   UNL A   1      34.008  34.088  31.148  1.00  0.00    -0.217 NA
ATOM     14  C   UNL A   1      33.927  34.780  32.336  1.00  0.00     0.055 A 
ATOM     15  C   UNL A   1      34.546  34.324  33.515  1.00  0.00     0.093 A 
BRANCH  11  16
ATOM     16  N   UNL A   1      34.739  32.068  30.000  1.00  0.00    -0.321 N 
ATOM     17  H   UNL A   1      33.828  31.905  29.666  1.00  0.00     0.170 HD
BRANCH  16  18
ATOM     18  C   UNL A   1      35.666  31.369  29.165  1.00  0.00     0.084 A 
ATOM     19  C   UNL A   1      35.148  30.656  28.039  1.00  0.00     0.142 A 
ATOM     20  C   UNL A   1      35.942  29.756  27.303  1.00  0.00     0.049 A 
ATOM     21  C   UNL A   1      37.253  29.519  27.662  1.00  0.00     0.007 A 
ATOM     22  C   UNL A   1      37.045  31.225  29.397  1.00  0.00     0.033 A 
ATOM     23  C   UNL A   1      37.822  30.247  28.702  1.00  0.00    -0.049 A 
ATOM     24  C   UNL A   1      39.194  29.794  29.120  1.00  0.00     0.044 C 
BRANCH  19  25
ATOM     25  O   UNL A   1      33.818  30.872  27.738  1.00  0.00    -0.495 OA
ATOM     26  C   UNL A   1      33.288  30.075  26.678  1.00  0.00     0.278 C 
ENDBRANCH  19  25
ENDBRANCH  16  18
ENDBRANCH  11  16
BRANCH  14  27
ATOM     27  C   UNL A   1      33.172  36.136  32.292  1.00  0.00     0.004 C 
ATOM     28  C   UNL A   1      33.228  36.767  30.878  1.00  0.00     0.017 C 
ATOM     29  C   UNL A   1      31.701  35.921  32.665  1.00  0.00     0.017 C 
ATOM     30  C   UNL A   1      33.733  37.189  33.263  1.00  0.00     0.017 C 
ENDBRANCH  14  27
ENDBRANCH   9  10
ENDBRANCH   8   9
ENDBRANCH   6   8
ENDBRANCH   5   6
ENDBRANCH   4   5
ENDBRANCH   3   4
ENDBRANCH   2   3
ENDBRANCH   1   2
BRANCH   1  31
ATOM     31  C   UNL A   1      44.497  25.914  31.058  1.00  0.00     0.188 C 
BRANCH  31  32
ATOM     32  O   UNL A   1      45.014  24.668  30.553  1.00  0.00    -0.377 OA
BRANCH  32  33
ATOM     33  C   UNL A   1      44.962  24.121  29.245  1.00  0.00     0.188 C 
BRANCH  33  34
ATOM     34  C   UNL A   1      44.752  25.110  28.145  1.00  0.00     0.188 C 
BRANCH  34  35
ATOM     35  O   UNL A   1      44.029  24.429  27.146  1.00  0.00    -0.376 OA
BRANCH  35  36
ATOM     36  C   UNL A   1      44.193  24.902  25.828  1.00  0.00     0.202 C 
BRANCH  36  37
ATOM     37  C   UNL A   1      44.619  26.352  25.898  1.00  0.00     0.261 C 
BRANCH  37  38
ATOM     38  O   UNL A   1      43.601  27.164  25.259  1.00  0.00    -0.460 OA
BRANCH  38  39
ATOM     39  C   UNL A   1      42.408  27.204  25.919  1.00  0.00     0.338 C 
ATOM     40  O   UNL A   1      41.345  26.720  25.472  1.00  0.00    -0.246 OA
BRANCH  39  41
ATOM     41  C   UNL A   1      42.457  28.173  27.052  1.00  0.00     0.060 A 
ATOM     42  C   UNL A   1      42.910  29.479  26.890  1.00  0.00     0.016 A 
ATOM     43  C   UNL A   1      42.382  27.736  28.346  1.00  0.00     0.016 A 
ATOM     44  C   UNL A   1      43.686  30.121  27.918  1.00  0.00     0.010 A 
ATOM     45  C   UNL A   1      43.073  28.462  29.348  1.00  0.00     0.010 A 
ATOM     46  C   UNL A   1      44.088  29.488  29.102  1.00  0.00    -0.014 A 
BRANCH  46  47
ATOM     47  C   UNL A   1      45.760  29.745  29.892  1.00  0.00     0.031 A 
ATOM     48  C   UNL A   1      47.192  28.400  30.213  1.00  0.00     0.074 A 
ATOM     49  C   UNL A   1      45.794  31.046  30.369  1.00  0.00     0.049 A 
ATOM     50  N   UNL A   1      47.432  27.874  31.459  1.00  0.00    -0.248 NA
ATOM     51  C   UNL A   1      47.818  27.152  29.443  1.00  0.00     0.031 C 
ATOM     52  C   UNL A   1      46.914  31.898  30.689  1.00  0.00     0.029 A 
ATOM     53  N   UNL A   1      44.768  31.870  30.838  1.00  0.00    -0.354 N 
ATOM     54  C   UNL A   1      48.133  26.714  31.640  1.00  0.00     0.074 A 
ATOM     55  C   UNL A   1      48.247  26.226  30.322  1.00  0.00     0.031 C 
ATOM     56  C   UNL A   1      46.669  32.691  31.739  1.00  0.00     0.029 A 
ATOM     57  C   UNL A   1      45.264  32.553  31.963  1.00  0.00     0.049 A 
ATOM     58  H   UNL A   1      43.866  31.956  30.454  1.00  0.00     0.167 HD
ATOM     59  C   UNL A   1      48.566  26.265  32.865  1.00  0.00     0.037 A 
ATOM     60  C   UNL A   1      44.570  33.030  33.009  1.00  0.00     0.037 A 
ATOM     61  C   UNL A   1      48.513  27.271  33.936  1.00  0.00     0.049 A 
ATOM     62  C   UNL A   1      44.799  32.091  34.182  1.00  0.00     0.074 A 
ATOM     63  C   UNL A   1      49.424  28.219  34.381  1.00  0.00     0.029 A 
ATOM     64  N   UNL A   1      47.343  27.569  34.606  1.00  0.00    -0.354 N 
ATOM     65  N   UNL A   1      45.821  31.282  34.374  1.00  0.00    -0.248 NA
ATOM     66  C   UNL A   1      43.782  31.982  35.224  1.00  0.00     0.031 C 
ATOM     67  C   UNL A   1      48.726  29.206  35.143  1.00  0.00     0.029 A 
ATOM     68  C   UNL A   1      47.402  28.819  35.242  1.00  0.00     0.049 A 
ATOM     69  H   UNL A   1      46.558  26.974  34.634  1.00  0.00     0.167 HD
ATOM     70  C   UNL A   1      45.535  30.468  35.462  1.00  0.00     0.074 A 
ATOM     71  C   UNL A   1      44.268  30.984  35.970  1.00  0.00     0.031 C 
ATOM     72  C   UNL A   1      46.216  29.359  35.909  1.00  0.00     0.037 A 
BRANCH  59  73
ATOM     73  C   UNL A   1      49.340  24.963  32.975  1.00  0.00     0.064 A 
ATOM     74  C   UNL A   1      48.809  23.827  33.617  1.00  0.00     0.173 A 
ATOM     75  C   UNL A   1      50.655  24.815  32.486  1.00  0.00     0.173 A 
ATOM     76  F   UNL A   1      47.529  23.786  34.011  1.00  0.00    -0.203 F 
ATOM     77  C   UNL A   1      49.588  22.694  33.889  1.00  0.00     0.198 A 
ATOM     78  C   UNL A   1      51.447  23.703  32.798  1.00  0.00     0.198 A 
ATOM     79  F   UNL A   1      51.200  25.754  31.696  1.00  0.00    -0.203 F 
ATOM     80  F   UNL A   1      49.044  21.649  34.529  1.00  0.00    -0.200 F 
ATOM     81  C   UNL A   1      50.919  22.652  33.523  1.00  0.00     0.200 A 
ATOM     82  F   UNL A   1      52.732  23.665  32.413  1.00  0.00    -0.200 F 
ATOM     83  F   UNL A   1      51.683  21.603  33.855  1.00  0.00    -0.200 F 
ENDBRANCH  59  73
BRANCH  60  84
ATOM     84  C   UNL A   1      43.317  33.646  32.462  1.00  0.00     0.064 A 
ATOM     85  C   UNL A   1      43.523  34.946  31.927  1.00  0.00     0.173 A 
ATOM     86  C   UNL A   1      42.289  32.879  31.899  1.00  0.00     0.173 A 
ATOM     87  F   UNL A   1      44.500  35.723  32.426  1.00  0.00    -0.203 F 
ATOM     88  C   UNL A   1      42.909  35.350  30.743  1.00  0.00     0.198 A 
ATOM     89  C   UNL A   1      41.650  33.309  30.727  1.00  0.00     0.198 A 
ATOM     90  F   UNL A   1      42.056  31.637  32.343  1.00  0.00    -0.203 F 
ATOM     91  F   UNL A   1      43.301  36.480  30.136  1.00  0.00    -0.200 F 
ATOM     92  C   UNL A   1      42.005  34.508  30.121  1.00  0.00     0.200 A 
ATOM     93  F   UNL A   1      40.806  32.484  30.092  1.00  0.00    -0.200 F 
ATOM     94  F   UNL A   1      41.547  34.809  28.897  1.00  0.00    -0.200 F 
ENDBRANCH  60  84
BRANCH  72  95
ATOM     95  C   UNL A   1      45.745  28.655  37.150  1.00  0.00     0.064 A 
ATOM     96  C   UNL A   1      46.311  28.926  38.406  1.00  0.00     0.173 A 
ATOM     97  C   UNL A   1      44.795  27.619  37.092  1.00  0.00     0.173 A 
ATOM     98  F   UNL A   1      47.231  29.895  38.543  1.00  0.00    -0.203 F 
ATOM     99  C   UNL A   1      45.924  28.221  39.543  1.00  0.00     0.198 A 
ATOM    100  C   UNL A   1      44.465  26.867  38.216  1.00  0.00     0.198 A 
ATOM    101  F   UNL A   1      44.150  27.335  35.950  1.00  0.00    -0.203 F 
ATOM    102  F   UNL A   1      46.427  28.558  40.740  1.00  0.00    -0.200 F 
ATOM    103  C   UNL A   1      45.019  27.177  39.444  1.00  0.00     0.200 A 
ATOM    104  F   UNL A   1      43.602  25.848  38.102  1.00  0.00    -0.200 F 
ATOM    105  F   UNL A   1      44.670  26.479  40.532  1.00  0.00    -0.200 F 
ENDBRANCH  72  95
ENDBRANCH  46  47
ENDBRANCH  39  41
ENDBRANCH  38  39
ENDBRANCH  37  38
ENDBRANCH  36  37
ENDBRANCH  35  36
ENDBRANCH  34  35
ENDBRANCH  33  34
ENDBRANCH  32  33
ENDBRANCH  31  32
ENDBRANCH   1  31
TORSDOF 26
ENDMDL
