MODEL 1
REMARK VINA RESULT:     -11.4      0.000      0.000
REMARK SMILES O=C(Nc1ccc2c(c1)[C@@H]1C=CC[C@@H]1[C@H](C(=O)OCCOCCOCCOCCOC(=O)c1ccc(-c3c4nc(c(-c5c(F)c(F)c(F)c(F)c5F)c5ccc([nH]5)c(-c5c(F)c(F)c(F)c(F)c5F)c5nc(c(-c6c(F)c(F)c(F)c(F)c6F)c6ccc3[nH]6)C=C5)C=C4)cc1)N2)c1ccccc1
REMARK SMILES IDX 24 1 23 2 22 3 21 4 20 5 19 6 18 7 16 8 17 9 15 10 4 11 5 12
REMARK SMILES IDX 9 13 6 14 8 15 7 16 10 17 96 18 11 19 14 20 12 22 13 23 3 24
REMARK SMILES IDX 1 25 2 26 97 28 98 29 102 30 99 31 101 32 100 33 25 34 26 35
REMARK SMILES IDX 27 36 28 37 29 38 30 39 31 40 32 41 33 42 34 43 95 44 35 45
REMARK SMILES IDX 94 46 36 47 37 48 38 49 88 50 39 51 93 52 87 53 89 54 40 55
REMARK SMILES IDX 92 56 86 57 85 58 41 60 73 61 53 62 72 63 54 64 57 65 71 66
REMARK SMILES IDX 90 67 55 68 56 69 70 71 91 72 58 73 42 74 43 75 51 76 44 77
REMARK SMILES IDX 45 78 49 79 52 80 46 81 47 82 50 83 48 84 74 85 75 86 83 87
REMARK SMILES IDX 76 88 77 89 81 90 84 91 78 92 79 93 82 94 80 95 59 96 60 97
REMARK SMILES IDX 68 98 61 99 62 100 66 101 69 102 63 103 64 104 67 105 65 106
REMARK H PARENT 96 21 3 27 89 59 57 70
REMARK Flexibility Score: inf
ROOT
ATOM      1  O   UNL A   1      33.121  29.325  23.696  1.00  0.00    -0.377 OA
ENDROOT
BRANCH   1   2
ATOM      2  C   UNL A   1      32.224  28.716  22.786  1.00  0.00     0.188 C 
BRANCH   2   3
ATOM      3  C   UNL A   1      30.950  29.479  22.415  1.00  0.00     0.188 C 
BRANCH   3   4
ATOM      4  O   UNL A   1      29.742  28.952  22.905  1.00  0.00    -0.376 OA
BRANCH   4   5
ATOM      5  C   UNL A   1      29.559  27.564  23.113  1.00  0.00     0.202 C 
BRANCH   5   6
ATOM      6  C   UNL A   1      28.401  26.883  23.872  1.00  0.00     0.261 C 
BRANCH   6   7
ATOM      7  O   UNL A   1      28.709  25.929  24.893  1.00  0.00    -0.462 OA
BRANCH   7   8
ATOM      8  C   UNL A   1      30.022  25.813  25.186  1.00  0.00     0.328 C 
ATOM      9  O   UNL A   1      30.666  26.676  25.787  1.00  0.00    -0.250 OA
BRANCH   8  10
ATOM     10  C   UNL A   1      30.707  24.528  24.703  1.00  0.00     0.194 C 
ATOM     11  C   UNL A   1      33.981  20.697  25.383  1.00  0.00     0.041 A 
ATOM     12  C   UNL A   1      33.686  21.200  26.646  1.00  0.00     0.028 A 
ATOM     13  C   UNL A   1      33.328  21.213  24.261  1.00  0.00     0.032 A 
ATOM     14  C   UNL A   1      32.863  22.316  26.761  1.00  0.00     0.028 A 
ATOM     15  C   UNL A   1      32.529  22.357  24.362  1.00  0.00    -0.015 A 
ATOM     16  C   UNL A   1      32.295  22.909  25.629  1.00  0.00     0.039 A 
ATOM     17  C   UNL A   1      31.927  22.985  23.123  1.00  0.00     0.050 C 
ATOM     18  N   UNL A   1      31.580  24.079  25.782  1.00  0.00    -0.372 N 
ATOM     19  C   UNL A   1      32.912  23.245  22.013  1.00  0.00    -0.023 C 
ATOM     20  C   UNL A   1      31.404  24.421  23.352  1.00  0.00     0.038 C 
ATOM     21  H   UNL A   1      31.658  24.604  26.610  1.00  0.00     0.161 HD
ATOM     22  C   UNL A   1      33.269  24.535  21.953  1.00  0.00    -0.030 C 
ATOM     23  C   UNL A   1      32.582  25.340  23.020  1.00  0.00     0.034 C 
BRANCH  11  24
ATOM     24  N   UNL A   1      34.993  19.731  25.286  1.00  0.00    -0.322 N 
ATOM     25  O   UNL A   1      37.053  18.950  24.758  1.00  0.00    -0.269 OA
ATOM     26  C   UNL A   1      36.337  19.914  25.021  1.00  0.00     0.255 C 
ATOM     27  H   UNL A   1      34.708  18.799  25.424  1.00  0.00     0.170 HD
BRANCH  26  28
ATOM     28  C   UNL A   1      36.954  21.263  25.135  1.00  0.00     0.040 A 
ATOM     29  C   UNL A   1      38.027  21.508  26.005  1.00  0.00     0.014 A 
ATOM     30  C   UNL A   1      36.434  22.303  24.361  1.00  0.00     0.014 A 
ATOM     31  C   UNL A   1      38.520  22.804  26.155  1.00  0.00     0.001 A 
ATOM     32  C   UNL A   1      36.937  23.597  24.508  1.00  0.00     0.001 A 
ATOM     33  C   UNL A   1      37.970  23.848  25.414  1.00  0.00     0.000 A 
ENDBRANCH  26  28
ENDBRANCH  11  24
ENDBRANCH   8  10
ENDBRANCH   7   8
ENDBRANCH   6   7
ENDBRANCH   5   6
ENDBRANCH   4   5
ENDBRANCH   3   4
ENDBRANCH   2   3
ENDBRANCH   1   2
BRANCH   1  34
ATOM     34  C   UNL A   1      33.321  28.756  24.987  1.00  0.00     0.188 C 
BRANCH  34  35
ATOM     35  C   UNL A   1      33.392  29.642  26.248  1.00  0.00     0.188 C 
BRANCH  35  36
ATOM     36  O   UNL A   1      32.140  30.083  26.742  1.00  0.00    -0.376 OA
BRANCH  36  37
ATOM     37  C   UNL A   1      31.586  31.280  26.214  1.00  0.00     0.202 C 
BRANCH  37  38
ATOM     38  C   UNL A   1      31.723  32.563  27.049  1.00  0.00     0.261 C 
BRANCH  38  39
ATOM     39  O   UNL A   1      33.002  33.220  27.002  1.00  0.00    -0.460 OA
BRANCH  39  40
ATOM     40  C   UNL A   1      33.520  33.664  28.167  1.00  0.00     0.338 C 
ATOM     41  O   UNL A   1      33.012  34.424  28.963  1.00  0.00    -0.246 OA
BRANCH  40  42
ATOM     42  C   UNL A   1      34.771  32.917  28.419  1.00  0.00     0.060 A 
ATOM     43  C   UNL A   1      34.683  31.567  28.782  1.00  0.00     0.016 A 
ATOM     44  C   UNL A   1      36.012  33.552  28.338  1.00  0.00     0.016 A 
ATOM     45  C   UNL A   1      35.835  30.863  29.122  1.00  0.00     0.010 A 
ATOM     46  C   UNL A   1      37.165  32.849  28.699  1.00  0.00     0.010 A 
ATOM     47  C   UNL A   1      37.075  31.516  29.139  1.00  0.00    -0.014 A 
BRANCH  47  48
ATOM     48  C   UNL A   1      38.213  30.871  29.837  1.00  0.00     0.031 A 
ATOM     49  C   UNL A   1      38.440  31.203  31.288  1.00  0.00     0.074 A 
ATOM     50  C   UNL A   1      38.985  29.957  29.226  1.00  0.00     0.049 A 
ATOM     51  N   UNL A   1      39.345  30.751  32.119  1.00  0.00    -0.248 NA
ATOM     52  C   UNL A   1      37.513  32.180  31.883  1.00  0.00     0.031 C 
ATOM     53  C   UNL A   1      38.834  29.512  27.843  1.00  0.00     0.029 A 
ATOM     54  N   UNL A   1      40.052  29.234  29.700  1.00  0.00    -0.354 N 
ATOM     55  C   UNL A   1      39.097  31.388  33.328  1.00  0.00     0.074 A 
ATOM     56  C   UNL A   1      37.987  32.290  33.115  1.00  0.00     0.031 C 
ATOM     57  C   UNL A   1      39.772  28.585  27.580  1.00  0.00     0.029 A 
ATOM     58  C   UNL A   1      40.607  28.397  28.765  1.00  0.00     0.049 A 
ATOM     59  H   UNL A   1      40.386  29.308  30.623  1.00  0.00     0.167 HD
ATOM     60  C   UNL A   1      39.728  31.226  34.517  1.00  0.00     0.037 A 
ATOM     61  C   UNL A   1      41.676  27.581  28.858  1.00  0.00     0.037 A 
ATOM     62  C   UNL A   1      40.839  30.334  34.725  1.00  0.00     0.049 A 
ATOM     63  C   UNL A   1      42.420  27.487  30.168  1.00  0.00     0.074 A 
ATOM     64  C   UNL A   1      41.548  30.094  35.889  1.00  0.00     0.029 A 
ATOM     65  N   UNL A   1      41.412  29.544  33.737  1.00  0.00    -0.354 N 
ATOM     66  N   UNL A   1      42.167  28.071  31.314  1.00  0.00    -0.248 NA
ATOM     67  C   UNL A   1      43.599  26.610  30.195  1.00  0.00     0.031 C 
ATOM     68  C   UNL A   1      42.588  29.208  35.590  1.00  0.00     0.029 A 
ATOM     69  C   UNL A   1      42.484  28.838  34.259  1.00  0.00     0.049 A 
ATOM     70  H   UNL A   1      41.102  29.494  32.804  1.00  0.00     0.167 HD
ATOM     71  C   UNL A   1      43.125  27.603  32.205  1.00  0.00     0.074 A 
ATOM     72  C   UNL A   1      43.957  26.675  31.468  1.00  0.00     0.031 C 
ATOM     73  C   UNL A   1      43.300  27.909  33.516  1.00  0.00     0.037 A 
BRANCH  60  74
ATOM     74  C   UNL A   1      39.250  32.063  35.669  1.00  0.00     0.064 A 
ATOM     75  C   UNL A   1      38.353  31.566  36.628  1.00  0.00     0.173 A 
ATOM     76  C   UNL A   1      39.701  33.384  35.820  1.00  0.00     0.173 A 
ATOM     77  F   UNL A   1      37.879  30.315  36.524  1.00  0.00    -0.203 F 
ATOM     78  C   UNL A   1      37.896  32.371  37.668  1.00  0.00     0.198 A 
ATOM     79  C   UNL A   1      39.269  34.174  36.881  1.00  0.00     0.198 A 
ATOM     80  F   UNL A   1      40.561  33.911  34.934  1.00  0.00    -0.203 F 
ATOM     81  F   UNL A   1      36.989  31.895  38.533  1.00  0.00    -0.200 F 
ATOM     82  C   UNL A   1      38.358  33.672  37.798  1.00  0.00     0.200 A 
ATOM     83  F   UNL A   1      39.729  35.426  37.013  1.00  0.00    -0.200 F 
ATOM     84  F   UNL A   1      37.918  34.444  38.801  1.00  0.00    -0.200 F 
ENDBRANCH  60  74
BRANCH  61  85
ATOM     85  C   UNL A   1      42.111  26.779  27.684  1.00  0.00     0.064 A 
ATOM     86  C   UNL A   1      41.629  25.478  27.476  1.00  0.00     0.173 A 
ATOM     87  C   UNL A   1      43.043  27.280  26.763  1.00  0.00     0.173 A 
ATOM     88  F   UNL A   1      40.756  24.941  28.343  1.00  0.00    -0.203 F 
ATOM     89  C   UNL A   1      42.077  24.704  26.408  1.00  0.00     0.198 A 
ATOM     90  C   UNL A   1      43.467  26.517  25.677  1.00  0.00     0.198 A 
ATOM     91  F   UNL A   1      43.540  28.516  26.915  1.00  0.00    -0.203 F 
ATOM     92  F   UNL A   1      41.641  23.445  26.267  1.00  0.00    -0.200 F 
ATOM     93  C   UNL A   1      42.992  25.226  25.506  1.00  0.00     0.200 A 
ATOM     94  F   UNL A   1      44.340  27.031  24.800  1.00  0.00    -0.200 F 
ATOM     95  F   UNL A   1      43.422  24.481  24.479  1.00  0.00    -0.200 F 
ENDBRANCH  61  85
BRANCH  73  96
ATOM     96  C   UNL A   1      44.398  27.192  34.254  1.00  0.00     0.064 A 
ATOM     97  C   UNL A   1      44.206  25.930  34.833  1.00  0.00     0.173 A 
ATOM     98  C   UNL A   1      45.671  27.774  34.365  1.00  0.00     0.173 A 
ATOM     99  F   UNL A   1      43.007  25.331  34.768  1.00  0.00    -0.203 F 
ATOM    100  C   UNL A   1      45.232  25.298  35.532  1.00  0.00     0.198 A 
ATOM    101  C   UNL A   1      46.706  27.123  35.029  1.00  0.00     0.198 A 
ATOM    102  F   UNL A   1      45.916  28.976  33.819  1.00  0.00    -0.203 F 
ATOM    103  F   UNL A   1      45.004  24.122  36.136  1.00  0.00    -0.200 F 
ATOM    104  C   UNL A   1      46.482  25.890  35.624  1.00  0.00     0.200 A 
ATOM    105  F   UNL A   1      47.918  27.689  35.100  1.00  0.00    -0.200 F 
ATOM    106  F   UNL A   1      47.468  25.280  36.295  1.00  0.00    -0.200 F 
ENDBRANCH  73  96
ENDBRANCH  47  48
ENDBRANCH  40  42
ENDBRANCH  39  40
ENDBRANCH  38  39
ENDBRANCH  37  38
ENDBRANCH  36  37
ENDBRANCH  35  36
ENDBRANCH  34  35
ENDBRANCH   1  34
TORSDOF 22
ENDMDL
MODEL 2
REMARK VINA RESULT:     -10.2      1.011      2.483
REMARK SMILES O=C(Nc1ccc2c(c1)[C@@H]1C=CC[C@@H]1[C@H](C(=O)OCCOCCOCCOCCOC(=O)c1ccc(-c3c4nc(c(-c5c(F)c(F)c(F)c(F)c5F)c5ccc([nH]5)c(-c5c(F)c(F)c(F)c(F)c5F)c5nc(c(-c6c(F)c(F)c(F)c(F)c6F)c6ccc3[nH]6)C=C5)C=C4)cc1)N2)c1ccccc1
REMARK SMILES IDX 24 1 23 2 22 3 21 4 20 5 19 6 18 7 16 8 17 9 15 10 4 11 5 12
REMARK SMILES IDX 9 13 6 14 8 15 7 16 10 17 96 18 11 19 14 20 12 22 13 23 3 24
REMARK SMILES IDX 1 25 2 26 97 28 98 29 102 30 99 31 101 32 100 33 25 34 26 35
REMARK SMILES IDX 27 36 28 37 29 38 30 39 31 40 32 41 33 42 34 43 95 44 35 45
REMARK SMILES IDX 94 46 36 47 37 48 38 49 88 50 39 51 93 52 87 53 89 54 40 55
REMARK SMILES IDX 92 56 86 57 85 58 41 60 73 61 53 62 72 63 54 64 57 65 71 66
REMARK SMILES IDX 90 67 55 68 56 69 70 71 91 72 58 73 42 74 43 75 51 76 44 77
REMARK SMILES IDX 45 78 49 79 52 80 46 81 47 82 50 83 48 84 74 85 75 86 83 87
REMARK SMILES IDX 76 88 77 89 81 90 84 91 78 92 79 93 82 94 80 95 59 96 60 97
REMARK SMILES IDX 68 98 61 99 62 100 66 101 69 102 63 103 64 104 67 105 65 106
REMARK H PARENT 96 21 3 27 89 59 57 70
REMARK Flexibility Score: inf
ROOT
ATOM      1  O   UNL A   1      33.683  29.231  24.371  1.00  0.00    -0.377 OA
ENDROOT
BRANCH   1   2
ATOM      2  C   UNL A   1      33.078  28.442  23.363  1.00  0.00     0.188 C 
BRANCH   2   3
ATOM      3  C   UNL A   1      31.982  29.085  22.509  1.00  0.00     0.188 C 
BRANCH   3   4
ATOM      4  O   UNL A   1      30.886  28.267  22.182  1.00  0.00    -0.376 OA
BRANCH   4   5
ATOM      5  C   UNL A   1      30.873  26.881  22.468  1.00  0.00     0.202 C 
BRANCH   5   6
ATOM      6  C   UNL A   1      29.730  26.078  23.123  1.00  0.00     0.261 C 
BRANCH   6   7
ATOM      7  O   UNL A   1      29.905  25.582  24.454  1.00  0.00    -0.462 OA
BRANCH   7   8
ATOM      8  C   UNL A   1      30.820  26.247  25.193  1.00  0.00     0.328 C 
ATOM      9  O   UNL A   1      30.730  27.444  25.474  1.00  0.00    -0.250 OA
BRANCH   8  10
ATOM     10  C   UNL A   1      32.028  25.427  25.663  1.00  0.00     0.194 C 
ATOM     11  C   UNL A   1      35.951  22.332  24.723  1.00  0.00     0.041 A 
ATOM     12  C   UNL A   1      35.634  22.952  23.519  1.00  0.00     0.028 A 
ATOM     13  C   UNL A   1      35.272  22.691  25.889  1.00  0.00     0.032 A 
ATOM     14  C   UNL A   1      34.537  23.807  23.460  1.00  0.00     0.028 A 
ATOM     15  C   UNL A   1      34.146  23.520  25.833  1.00  0.00    -0.015 A 
ATOM     16  C   UNL A   1      33.781  24.084  24.603  1.00  0.00     0.039 A 
ATOM     17  C   UNL A   1      33.338  23.803  27.083  1.00  0.00     0.050 C 
ATOM     18  N   UNL A   1      32.638  24.845  24.472  1.00  0.00    -0.372 N 
ATOM     19  C   UNL A   1      32.931  22.576  27.854  1.00  0.00    -0.023 C 
ATOM     20  C   UNL A   1      31.945  24.407  26.792  1.00  0.00     0.038 C 
ATOM     21  H   UNL A   1      32.239  24.995  23.586  1.00  0.00     0.161 HD
ATOM     22  C   UNL A   1      31.649  22.251  27.636  1.00  0.00    -0.030 C 
ATOM     23  C   UNL A   1      31.000  23.208  26.676  1.00  0.00     0.034 C 
BRANCH  11  24
ATOM     24  N   UNL A   1      36.904  21.303  24.695  1.00  0.00    -0.322 N 
ATOM     25  O   UNL A   1      37.666  19.191  25.001  1.00  0.00    -0.269 OA
ATOM     26  C   UNL A   1      36.707  19.942  24.836  1.00  0.00     0.255 C 
ATOM     27  H   UNL A   1      37.836  21.587  24.557  1.00  0.00     0.170 HD
BRANCH  26  28
ATOM     28  C   UNL A   1      35.346  19.357  24.703  1.00  0.00     0.040 A 
ATOM     29  C   UNL A   1      35.153  18.043  24.250  1.00  0.00     0.014 A 
ATOM     30  C   UNL A   1      34.243  20.149  25.030  1.00  0.00     0.014 A 
ATOM     31  C   UNL A   1      33.861  17.558  24.049  1.00  0.00     0.001 A 
ATOM     32  C   UNL A   1      32.951  19.656  24.836  1.00  0.00     0.001 A 
ATOM     33  C   UNL A   1      32.762  18.367  24.334  1.00  0.00     0.000 A 
ENDBRANCH  26  28
ENDBRANCH  11  24
ENDBRANCH   8  10
ENDBRANCH   7   8
ENDBRANCH   6   7
ENDBRANCH   5   6
ENDBRANCH   4   5
ENDBRANCH   3   4
ENDBRANCH   2   3
ENDBRANCH   1   2
BRANCH   1  34
ATOM     34  C   UNL A   1      33.735  28.752  25.713  1.00  0.00     0.188 C 
BRANCH  34  35
ATOM     35  C   UNL A   1      33.630  29.720  26.909  1.00  0.00     0.188 C 
BRANCH  35  36
ATOM     36  O   UNL A   1      32.329  30.216  27.167  1.00  0.00    -0.376 OA
BRANCH  36  37
ATOM     37  C   UNL A   1      31.898  31.379  26.475  1.00  0.00     0.202 C 
BRANCH  37  38
ATOM     38  C   UNL A   1      31.848  32.703  27.255  1.00  0.00     0.261 C 
BRANCH  38  39
ATOM     39  O   UNL A   1      33.053  33.488  27.253  1.00  0.00    -0.460 OA
BRANCH  39  40
ATOM     40  C   UNL A   1      33.561  33.858  28.448  1.00  0.00     0.338 C 
ATOM     41  O   UNL A   1      33.071  34.612  29.260  1.00  0.00    -0.246 OA
BRANCH  40  42
ATOM     42  C   UNL A   1      34.763  33.036  28.702  1.00  0.00     0.060 A 
ATOM     43  C   UNL A   1      34.603  31.787  29.315  1.00  0.00     0.016 A 
ATOM     44  C   UNL A   1      36.036  33.509  28.375  1.00  0.00     0.016 A 
ATOM     45  C   UNL A   1      35.721  31.032  29.658  1.00  0.00     0.010 A 
ATOM     46  C   UNL A   1      37.159  32.759  28.738  1.00  0.00     0.010 A 
ATOM     47  C   UNL A   1      37.006  31.540  29.425  1.00  0.00    -0.014 A 
BRANCH  47  48
ATOM     48  C   UNL A   1      38.161  30.907  30.107  1.00  0.00     0.031 A 
ATOM     49  C   UNL A   1      38.428  31.275  31.542  1.00  0.00     0.074 A 
ATOM     50  C   UNL A   1      38.912  29.974  29.498  1.00  0.00     0.049 A 
ATOM     51  N   UNL A   1      39.354  30.839  32.359  1.00  0.00    -0.248 NA
ATOM     52  C   UNL A   1      37.523  32.271  32.138  1.00  0.00     0.031 C 
ATOM     53  C   UNL A   1      38.721  29.496  28.132  1.00  0.00     0.029 A 
ATOM     54  N   UNL A   1      39.988  29.258  29.961  1.00  0.00    -0.354 N 
ATOM     55  C   UNL A   1      39.142  31.507  33.559  1.00  0.00     0.074 A 
ATOM     56  C   UNL A   1      38.030  32.409  33.353  1.00  0.00     0.031 C 
ATOM     57  C   UNL A   1      39.647  28.558  27.866  1.00  0.00     0.029 A 
ATOM     58  C   UNL A   1      40.514  28.395  29.032  1.00  0.00     0.049 A 
ATOM     59  H   UNL A   1      40.347  29.354  30.872  1.00  0.00     0.167 HD
ATOM     60  C   UNL A   1      39.805  31.372  34.733  1.00  0.00     0.037 A 
ATOM     61  C   UNL A   1      41.582  27.576  29.117  1.00  0.00     0.037 A 
ATOM     62  C   UNL A   1      40.917  30.480  34.933  1.00  0.00     0.049 A 
ATOM     63  C   UNL A   1      42.361  27.512  30.408  1.00  0.00     0.074 A 
ATOM     64  C   UNL A   1      41.657  30.265  36.083  1.00  0.00     0.029 A 
ATOM     65  N   UNL A   1      41.459  29.663  33.951  1.00  0.00    -0.354 N 
ATOM     66  N   UNL A   1      42.141  28.126  31.546  1.00  0.00    -0.248 NA
ATOM     67  C   UNL A   1      43.536  26.630  30.425  1.00  0.00     0.031 C 
ATOM     68  C   UNL A   1      42.685  29.367  35.778  1.00  0.00     0.029 A 
ATOM     69  C   UNL A   1      42.542  28.965  34.460  1.00  0.00     0.049 A 
ATOM     70  H   UNL A   1      41.123  29.590  33.028  1.00  0.00     0.167 HD
ATOM     71  C   UNL A   1      43.122  27.675  32.421  1.00  0.00     0.074 A 
ATOM     72  C   UNL A   1      43.930  26.725  31.686  1.00  0.00     0.031 C 
ATOM     73  C   UNL A   1      43.333  28.013  33.719  1.00  0.00     0.037 A 
BRANCH  60  74
ATOM     74  C   UNL A   1      39.362  32.240  35.877  1.00  0.00     0.064 A 
ATOM     75  C   UNL A   1      39.917  33.509  36.105  1.00  0.00     0.173 A 
ATOM     76  C   UNL A   1      38.363  31.797  36.757  1.00  0.00     0.173 A 
ATOM     77  F   UNL A   1      40.887  33.976  35.303  1.00  0.00    -0.203 F 
ATOM     78  C   UNL A   1      39.517  34.283  37.192  1.00  0.00     0.198 A 
ATOM     79  C   UNL A   1      37.941  32.587  37.822  1.00  0.00     0.198 A 
ATOM     80  F   UNL A   1      37.796  30.593  36.586  1.00  0.00    -0.203 F 
ATOM     81  F   UNL A   1      40.109  35.462  37.428  1.00  0.00    -0.200 F 
ATOM     82  C   UNL A   1      38.525  33.824  38.046  1.00  0.00     0.200 A 
ATOM     83  F   UNL A   1      36.971  32.149  38.637  1.00  0.00    -0.200 F 
ATOM     84  F   UNL A   1      38.141  34.570  39.091  1.00  0.00    -0.200 F 
ENDBRANCH  60  74
BRANCH  61  85
ATOM     85  C   UNL A   1      41.981  26.743  27.952  1.00  0.00     0.064 A 
ATOM     86  C   UNL A   1      42.945  27.192  27.038  1.00  0.00     0.173 A 
ATOM     87  C   UNL A   1      41.385  25.497  27.707  1.00  0.00     0.173 A 
ATOM     88  F   UNL A   1      43.527  28.389  27.211  1.00  0.00    -0.203 F 
ATOM     89  C   UNL A   1      43.281  26.439  25.914  1.00  0.00     0.198 A 
ATOM     90  C   UNL A   1      41.745  24.729  26.602  1.00  0.00     0.198 A 
ATOM     91  F   UNL A   1      40.455  25.021  28.548  1.00  0.00    -0.203 F 
ATOM     92  F   UNL A   1      44.164  26.919  25.028  1.00  0.00    -0.200 F 
ATOM     93  C   UNL A   1      42.684  25.205  25.700  1.00  0.00     0.200 A 
ATOM     94  F   UNL A   1      41.176  23.532  26.406  1.00  0.00    -0.200 F 
ATOM     95  F   UNL A   1      43.007  24.481  24.621  1.00  0.00    -0.200 F 
ENDBRANCH  61  85
BRANCH  73  96
ATOM     96  C   UNL A   1      44.448  27.310  34.444  1.00  0.00     0.064 A 
ATOM     97  C   UNL A   1      44.274  26.052  35.039  1.00  0.00     0.173 A 
ATOM     98  C   UNL A   1      45.720  27.900  34.528  1.00  0.00     0.173 A 
ATOM     99  F   UNL A   1      43.077  25.446  34.999  1.00  0.00    -0.203 F 
ATOM    100  C   UNL A   1      45.315  25.432  35.725  1.00  0.00     0.198 A 
ATOM    101  C   UNL A   1      46.770  27.261  35.180  1.00  0.00     0.198 A 
ATOM    102  F   UNL A   1      45.948  29.098  33.967  1.00  0.00    -0.203 F 
ATOM    103  F   UNL A   1      45.105  24.261  36.344  1.00  0.00    -0.200 F 
ATOM    104  C   UNL A   1      46.563  26.033  35.791  1.00  0.00     0.200 A 
ATOM    105  F   UNL A   1      47.980  27.835  35.225  1.00  0.00    -0.200 F 
ATOM    106  F   UNL A   1      47.564  25.434  36.450  1.00  0.00    -0.200 F 
ENDBRANCH  73  96
ENDBRANCH  47  48
ENDBRANCH  40  42
ENDBRANCH  39  40
ENDBRANCH  38  39
ENDBRANCH  37  38
ENDBRANCH  36  37
ENDBRANCH  35  36
ENDBRANCH  34  35
ENDBRANCH   1  34
TORSDOF 22
ENDMDL
MODEL 3
REMARK VINA RESULT:     -10.0      1.190      7.130
REMARK SMILES O=C(Nc1ccc2c(c1)[C@@H]1C=CC[C@@H]1[C@H](C(=O)OCCOCCOCCOCCOC(=O)c1ccc(-c3c4nc(c(-c5c(F)c(F)c(F)c(F)c5F)c5ccc([nH]5)c(-c5c(F)c(F)c(F)c(F)c5F)c5nc(c(-c6c(F)c(F)c(F)c(F)c6F)c6ccc3[nH]6)C=C5)C=C4)cc1)N2)c1ccccc1
REMARK SMILES IDX 24 1 23 2 22 3 21 4 20 5 19 6 18 7 16 8 17 9 15 10 4 11 5 12
REMARK SMILES IDX 9 13 6 14 8 15 7 16 10 17 96 18 11 19 14 20 12 22 13 23 3 24
REMARK SMILES IDX 1 25 2 26 97 28 98 29 102 30 99 31 101 32 100 33 25 34 26 35
REMARK SMILES IDX 27 36 28 37 29 38 30 39 31 40 32 41 33 42 34 43 95 44 35 45
REMARK SMILES IDX 94 46 36 47 37 48 38 49 88 50 39 51 93 52 87 53 89 54 40 55
REMARK SMILES IDX 92 56 86 57 85 58 41 60 73 61 53 62 72 63 54 64 57 65 71 66
REMARK SMILES IDX 90 67 55 68 56 69 70 71 91 72 58 73 42 74 43 75 51 76 44 77
REMARK SMILES IDX 45 78 49 79 52 80 46 81 47 82 50 83 48 84 74 85 75 86 83 87
REMARK SMILES IDX 76 88 77 89 81 90 84 91 78 92 79 93 82 94 80 95 59 96 60 97
REMARK SMILES IDX 68 98 61 99 62 100 66 101 69 102 63 103 64 104 67 105 65 106
REMARK H PARENT 96 21 3 27 89 59 57 70
REMARK Flexibility Score: inf
ROOT
ATOM      1  O   UNL A   1      33.315  29.446  24.191  1.00  0.00    -0.377 OA
ENDROOT
BRANCH   1   2
ATOM      2  C   UNL A   1      32.753  28.562  23.240  1.00  0.00     0.188 C 
BRANCH   2   3
ATOM      3  C   UNL A   1      31.515  29.028  22.469  1.00  0.00     0.188 C 
BRANCH   3   4
ATOM      4  O   UNL A   1      30.565  28.039  22.158  1.00  0.00    -0.376 OA
BRANCH   4   5
ATOM      5  C   UNL A   1      30.781  26.672  22.456  1.00  0.00     0.202 C 
BRANCH   5   6
ATOM      6  C   UNL A   1      29.787  25.697  23.121  1.00  0.00     0.261 C 
BRANCH   6   7
ATOM      7  O   UNL A   1      29.815  25.542  24.543  1.00  0.00    -0.462 OA
BRANCH   7   8
ATOM      8  C   UNL A   1      30.766  26.264  25.175  1.00  0.00     0.328 C 
ATOM      9  O   UNL A   1      30.692  27.481  25.355  1.00  0.00    -0.250 OA
BRANCH   8  10
ATOM     10  C   UNL A   1      31.994  25.480  25.656  1.00  0.00     0.194 C 
ATOM     11  C   UNL A   1      36.110  22.640  24.733  1.00  0.00     0.041 A 
ATOM     12  C   UNL A   1      35.812  23.308  23.551  1.00  0.00     0.028 A 
ATOM     13  C   UNL A   1      35.364  22.901  25.885  1.00  0.00     0.032 A 
ATOM     14  C   UNL A   1      34.675  24.109  23.487  1.00  0.00     0.028 A 
ATOM     15  C   UNL A   1      34.199  23.675  25.822  1.00  0.00    -0.015 A 
ATOM     16  C   UNL A   1      33.858  24.286  24.607  1.00  0.00     0.039 A 
ATOM     17  C   UNL A   1      33.326  23.849  27.047  1.00  0.00     0.050 C 
ATOM     18  N   UNL A   1      32.684  24.995  24.465  1.00  0.00    -0.372 N 
ATOM     19  C   UNL A   1      32.951  22.564  27.734  1.00  0.00    -0.023 C 
ATOM     20  C   UNL A   1      31.917  24.398  26.725  1.00  0.00     0.038 C 
ATOM     21  H   UNL A   1      32.315  25.173  23.571  1.00  0.00     0.161 HD
ATOM     22  C   UNL A   1      31.698  22.187  27.442  1.00  0.00    -0.030 C 
ATOM     23  C   UNL A   1      31.042  23.161  26.505  1.00  0.00     0.034 C 
BRANCH  11  24
ATOM     24  N   UNL A   1      37.115  21.663  24.695  1.00  0.00    -0.322 N 
ATOM     25  O   UNL A   1      37.994  19.597  25.001  1.00  0.00    -0.269 OA
ATOM     26  C   UNL A   1      36.993  20.295  24.849  1.00  0.00     0.255 C 
ATOM     27  H   UNL A   1      38.028  21.995  24.538  1.00  0.00     0.170 HD
BRANCH  26  28
ATOM     28  C   UNL A   1      35.663  19.637  24.746  1.00  0.00     0.040 A 
ATOM     29  C   UNL A   1      34.472  20.377  24.787  1.00  0.00     0.014 A 
ATOM     30  C   UNL A   1      35.614  18.246  24.618  1.00  0.00     0.014 A 
ATOM     31  C   UNL A   1      33.242  19.720  24.782  1.00  0.00     0.001 A 
ATOM     32  C   UNL A   1      34.380  17.593  24.603  1.00  0.00     0.001 A 
ATOM     33  C   UNL A   1      33.197  18.329  24.698  1.00  0.00     0.000 A 
ENDBRANCH  26  28
ENDBRANCH  11  24
ENDBRANCH   8  10
ENDBRANCH   7   8
ENDBRANCH   6   7
ENDBRANCH   5   6
ENDBRANCH   4   5
ENDBRANCH   3   4
ENDBRANCH   2   3
ENDBRANCH   1   2
BRANCH   1  34
ATOM     34  C   UNL A   1      33.646  28.973  25.494  1.00  0.00     0.188 C 
BRANCH  34  35
ATOM     35  C   UNL A   1      33.645  29.919  26.711  1.00  0.00     0.188 C 
BRANCH  35  36
ATOM     36  O   UNL A   1      32.366  30.364  27.125  1.00  0.00    -0.376 OA
BRANCH  36  37
ATOM     37  C   UNL A   1      31.785  31.474  26.456  1.00  0.00     0.202 C 
BRANCH  37  38
ATOM     38  C   UNL A   1      31.738  32.818  27.201  1.00  0.00     0.261 C 
BRANCH  38  39
ATOM     39  O   UNL A   1      32.946  33.598  27.181  1.00  0.00    -0.460 OA
BRANCH  39  40
ATOM     40  C   UNL A   1      33.390  34.093  28.356  1.00  0.00     0.338 C 
ATOM     41  O   UNL A   1      32.851  34.916  29.065  1.00  0.00    -0.246 OA
BRANCH  40  42
ATOM     42  C   UNL A   1      34.588  33.321  28.748  1.00  0.00     0.060 A 
ATOM     43  C   UNL A   1      34.411  32.059  29.329  1.00  0.00     0.016 A 
ATOM     44  C   UNL A   1      35.869  33.853  28.581  1.00  0.00     0.016 A 
ATOM     45  C   UNL A   1      35.512  31.349  29.800  1.00  0.00     0.010 A 
ATOM     46  C   UNL A   1      36.972  33.148  29.071  1.00  0.00     0.010 A 
ATOM     47  C   UNL A   1      36.792  31.916  29.726  1.00  0.00    -0.014 A 
BRANCH  47  48
ATOM     48  C   UNL A   1      37.884  31.325  30.539  1.00  0.00     0.031 A 
ATOM     49  C   UNL A   1      38.773  30.295  29.895  1.00  0.00     0.074 A 
ATOM     50  C   UNL A   1      38.129  31.741  31.792  1.00  0.00     0.049 A 
ATOM     51  N   UNL A   1      39.806  29.657  30.386  1.00  0.00    -0.248 NA
ATOM     52  C   UNL A   1      38.453  29.939  28.503  1.00  0.00     0.031 C 
ATOM     53  C   UNL A   1      37.374  32.767  32.506  1.00  0.00     0.029 A 
ATOM     54  N   UNL A   1      39.096  31.349  32.686  1.00  0.00    -0.354 N 
ATOM     55  C   UNL A   1      40.254  28.827  29.366  1.00  0.00     0.074 A 
ATOM     56  C   UNL A   1      39.359  29.008  28.245  1.00  0.00     0.031 C 
ATOM     57  C   UNL A   1      37.909  32.928  33.729  1.00  0.00     0.029 A 
ATOM     58  C   UNL A   1      39.023  31.996  33.893  1.00  0.00     0.049 A 
ATOM     59  H   UNL A   1      39.777  30.669  32.479  1.00  0.00     0.167 HD
ATOM     60  C   UNL A   1      41.327  27.998  29.358  1.00  0.00     0.037 A 
ATOM     61  C   UNL A   1      39.768  31.841  35.006  1.00  0.00     0.037 A 
ATOM     62  C   UNL A   1      42.212  27.814  30.478  1.00  0.00     0.049 A 
ATOM     63  C   UNL A   1      40.900  30.843  35.002  1.00  0.00     0.074 A 
ATOM     64  C   UNL A   1      43.327  27.000  30.573  1.00  0.00     0.029 A 
ATOM     65  N   UNL A   1      42.071  28.444  31.706  1.00  0.00    -0.354 N 
ATOM     66  N   UNL A   1      41.335  30.080  34.029  1.00  0.00    -0.248 NA
ATOM     67  C   UNL A   1      41.650  30.692  36.258  1.00  0.00     0.031 C 
ATOM     68  C   UNL A   1      43.823  27.090  31.878  1.00  0.00     0.029 A 
ATOM     69  C   UNL A   1      43.062  28.015  32.575  1.00  0.00     0.049 A 
ATOM     70  H   UNL A   1      41.370  29.099  31.928  1.00  0.00     0.167 HD
ATOM     71  C   UNL A   1      42.430  29.393  34.539  1.00  0.00     0.074 A 
ATOM     72  C   UNL A   1      42.601  29.840  35.906  1.00  0.00     0.031 C 
ATOM     73  C   UNL A   1      43.227  28.476  33.931  1.00  0.00     0.037 A 
BRANCH  60  74
ATOM     74  C   UNL A   1      41.571  27.203  28.107  1.00  0.00     0.064 A 
ATOM     75  C   UNL A   1      40.961  25.958  27.885  1.00  0.00     0.173 A 
ATOM     76  C   UNL A   1      42.429  27.696  27.111  1.00  0.00     0.173 A 
ATOM     77  F   UNL A   1      40.144  25.433  28.811  1.00  0.00    -0.203 F 
ATOM     78  C   UNL A   1      41.229  25.221  26.734  1.00  0.00     0.198 A 
ATOM     79  C   UNL A   1      42.667  26.972  25.945  1.00  0.00     0.198 A 
ATOM     80  F   UNL A   1      43.038  28.881  27.268  1.00  0.00    -0.203 F 
ATOM     81  F   UNL A   1      40.686  24.006  26.576  1.00  0.00    -0.200 F 
ATOM     82  C   UNL A   1      42.077  25.731  25.762  1.00  0.00     0.200 A 
ATOM     83  F   UNL A   1      43.475  27.474  25.001  1.00  0.00    -0.200 F 
ATOM     84  F   UNL A   1      42.333  25.022  24.655  1.00  0.00    -0.200 F 
ENDBRANCH  60  74
BRANCH  61  85
ATOM     85  C   UNL A   1      39.478  32.649  36.220  1.00  0.00     0.064 A 
ATOM     86  C   UNL A   1      38.529  32.226  37.162  1.00  0.00     0.173 A 
ATOM     87  C   UNL A   1      40.117  33.877  36.450  1.00  0.00     0.173 A 
ATOM     88  F   UNL A   1      37.870  31.072  36.977  1.00  0.00    -0.203 F 
ATOM     89  C   UNL A   1      38.214  33.008  38.272  1.00  0.00     0.198 A 
ATOM     90  C   UNL A   1      39.826  34.643  37.576  1.00  0.00     0.198 A 
ATOM     91  F   UNL A   1      41.031  34.330  35.579  1.00  0.00    -0.203 F 
ATOM     92  F   UNL A   1      37.263  32.605  39.125  1.00  0.00    -0.200 F 
ATOM     93  C   UNL A   1      38.867  34.213  38.481  1.00  0.00     0.200 A 
ATOM     94  F   UNL A   1      40.469  35.800  37.781  1.00  0.00    -0.200 F 
ATOM     95  F   UNL A   1      38.566  34.965  39.548  1.00  0.00    -0.200 F 
ENDBRANCH  61  85
BRANCH  73  96
ATOM     96  C   UNL A   1      44.389  27.938  34.721  1.00  0.00     0.064 A 
ATOM     97  C   UNL A   1      45.634  28.583  34.749  1.00  0.00     0.173 A 
ATOM     98  C   UNL A   1      44.245  26.764  35.479  1.00  0.00     0.173 A 
ATOM     99  F   UNL A   1      45.831  29.702  34.035  1.00  0.00    -0.203 F 
ATOM    100  C   UNL A   1      46.701  28.051  35.468  1.00  0.00     0.198 A 
ATOM    101  C   UNL A   1      45.302  26.257  36.229  1.00  0.00     0.198 A 
ATOM    102  F   UNL A   1      43.072  26.111  35.499  1.00  0.00    -0.203 F 
ATOM    103  F   UNL A   1      47.901  28.648  35.423  1.00  0.00    -0.200 F 
ATOM    104  C   UNL A   1      46.534  26.893  36.212  1.00  0.00     0.200 A 
ATOM    105  F   UNL A   1      45.131  25.148  36.962  1.00  0.00    -0.200 F 
ATOM    106  F   UNL A   1      47.562  26.384  36.905  1.00  0.00    -0.200 F 
ENDBRANCH  73  96
ENDBRANCH  47  48
ENDBRANCH  40  42
ENDBRANCH  39  40
ENDBRANCH  38  39
ENDBRANCH  37  38
ENDBRANCH  36  37
ENDBRANCH  35  36
ENDBRANCH  34  35
ENDBRANCH   1  34
TORSDOF 22
ENDMDL
