MODEL 1
REMARK VINA RESULT:      -9.3      0.000      0.000
REMARK SMILES CCC[NH2+][C@@]1(C(=O)OCCOCCOCCOCCOC(=O)c2ccc(-c3c4nc(c(-c5c(F)c(F)c(F)c(F)c5F)c5ccc([nH]5)c(-c5c(F)c(F)c(F)c(F)c5F)c5nc(c(-c6c(F)c(F)c(F)c(F)c6F)c6ccc3[nH]6)C=C5)C=C4)cc2)CC[C@@H](Sc2ccc(Cl)cc2)C1
REMARK SMILES IDX 13 1 12 2 11 3 10 4 9 5 8 6 6 7 7 8 5 9 86 10 97 11 87 12
REMARK SMILES IDX 88 13 4 14 3 17 2 18 1 19 89 20 90 21 91 22 96 23 92 24
REMARK SMILES IDX 95 25 93 26 94 27 14 28 15 29 16 30 17 31 18 32 19 33 20 34
REMARK SMILES IDX 21 35 22 36 23 37 24 38 85 39 25 40 84 41 26 42 27 43 28 44
REMARK SMILES IDX 78 45 29 46 83 47 77 48 79 49 30 50 82 51 76 52 75 53 31 55
REMARK SMILES IDX 63 56 43 57 62 58 44 59 47 60 61 61 80 62 45 63 46 64 60 66
REMARK SMILES IDX 81 67 48 68 32 69 33 70 41 71 34 72 35 73 39 74 42 75 36 76
REMARK SMILES IDX 37 77 40 78 38 79 64 80 65 81 73 82 66 83 67 84 71 85 74 86
REMARK SMILES IDX 68 87 69 88 72 89 70 90 49 91 50 92 58 93 51 94 52 95 56 96
REMARK SMILES IDX 59 97 53 98 54 99 57 100 55 101
REMARK H PARENT 4 15 4 16 79 54 47 65
REMARK Flexibility Score: inf
ROOT
ATOM      1  C   UNL A   1      31.068  24.445  26.088  1.00  0.00     0.188 C 
ENDROOT
BRANCH   1   2
ATOM      2  C   UNL A   1      30.994  23.125  26.862  1.00  0.00     0.188 C 
BRANCH   2   3
ATOM      3  O   UNL A   1      32.126  22.282  26.853  1.00  0.00    -0.376 OA
BRANCH   3   4
ATOM      4  C   UNL A   1      32.963  22.212  27.999  1.00  0.00     0.202 C 
BRANCH   4   5
ATOM      5  C   UNL A   1      34.498  22.429  27.989  1.00  0.00     0.261 C 
BRANCH   5   6
ATOM      6  O   UNL A   1      35.129  22.999  26.819  1.00  0.00    -0.459 OA
BRANCH   6   7
ATOM      7  C   UNL A   1      35.866  22.144  26.064  1.00  0.00     0.368 C 
ATOM      8  O   UNL A   1      36.999  21.772  26.369  1.00  0.00    -0.245 OA
BRANCH   7   9
ATOM      9  C   UNL A   1      35.173  21.636  24.750  1.00  0.00     0.195 C 
ATOM     10  C   UNL A   1      36.152  21.924  23.592  1.00  0.00     0.082 C 
ATOM     11  C   UNL A   1      33.893  22.319  24.229  1.00  0.00     0.096 C 
ATOM     12  C   UNL A   1      35.824  23.347  23.141  1.00  0.00     0.022 C 
ATOM     13  C   UNL A   1      34.326  23.509  23.376  1.00  0.00     0.059 C 
BRANCH   9  14
ATOM     14  N   UNL A   1      35.020  20.139  24.868  1.00  0.00    -0.332 N 
ATOM     15  H   UNL A   1      35.374  19.713  24.010  1.00  0.00     0.347 HD
ATOM     16  H   UNL A   1      35.543  19.856  25.697  1.00  0.00     0.347 HD
BRANCH  14  17
ATOM     17  C   UNL A   1      33.641  19.687  25.069  1.00  0.00     0.261 C 
BRANCH  17  18
ATOM     18  C   UNL A   1      33.143  18.635  24.075  1.00  0.00     0.058 C 
ATOM     19  C   UNL A   1      34.193  17.588  23.733  1.00  0.00     0.010 C 
ENDBRANCH  17  18
ENDBRANCH  14  17
ENDBRANCH   9  14
BRANCH  13  20
ATOM     20  S   UNL A   1      33.276  23.772  21.882  1.00  0.00    -0.122 SA
BRANCH  20  21
ATOM     21  C   UNL A   1      32.476  25.336  22.197  1.00  0.00     0.008 A 
ATOM     22  C   UNL A   1      33.240  26.507  22.174  1.00  0.00     0.016 A 
ATOM     23  C   UNL A   1      31.127  25.417  22.559  1.00  0.00     0.016 A 
ATOM     24  C   UNL A   1      32.648  27.746  22.444  1.00  0.00     0.021 A 
ATOM     25  C   UNL A   1      30.525  26.656  22.799  1.00  0.00     0.021 A 
ATOM     26  C   UNL A   1      31.289  27.816  22.736  1.00  0.00     0.041 A 
ATOM     27  Cl  UNL A   1      30.553  29.340  23.041  1.00  0.00    -0.084 Cl
ENDBRANCH  20  21
ENDBRANCH  13  20
ENDBRANCH   7   9
ENDBRANCH   6   7
ENDBRANCH   5   6
ENDBRANCH   4   5
ENDBRANCH   3   4
ENDBRANCH   2   3
ENDBRANCH   1   2
BRANCH   1  28
ATOM     28  O   UNL A   1      32.369  24.914  25.806  1.00  0.00    -0.377 OA
BRANCH  28  29
ATOM     29  C   UNL A   1      32.601  26.306  25.969  1.00  0.00     0.188 C 
BRANCH  29  30
ATOM     30  C   UNL A   1      31.432  27.213  26.397  1.00  0.00     0.188 C 
BRANCH  30  31
ATOM     31  O   UNL A   1      31.674  27.960  27.581  1.00  0.00    -0.376 OA
BRANCH  31  32
ATOM     32  C   UNL A   1      31.434  29.358  27.597  1.00  0.00     0.202 C 
BRANCH  32  33
ATOM     33  C   UNL A   1      31.818  30.200  26.368  1.00  0.00     0.261 C 
BRANCH  33  34
ATOM     34  O   UNL A   1      33.162  30.705  26.311  1.00  0.00    -0.460 OA
BRANCH  34  35
ATOM     35  C   UNL A   1      33.503  31.739  27.105  1.00  0.00     0.338 C 
ATOM     36  O   UNL A   1      32.833  32.724  27.365  1.00  0.00    -0.246 OA
BRANCH  35  37
ATOM     37  C   UNL A   1      34.757  31.361  27.796  1.00  0.00     0.060 A 
ATOM     38  C   UNL A   1      34.940  30.028  28.194  1.00  0.00     0.016 A 
ATOM     39  C   UNL A   1      35.770  32.300  28.002  1.00  0.00     0.016 A 
ATOM     40  C   UNL A   1      36.132  29.634  28.801  1.00  0.00     0.010 A 
ATOM     41  C   UNL A   1      36.948  31.912  28.645  1.00  0.00     0.010 A 
ATOM     42  C   UNL A   1      37.128  30.582  29.065  1.00  0.00    -0.014 A 
BRANCH  42  43
ATOM     43  C   UNL A   1      38.274  30.223  29.934  1.00  0.00     0.031 A 
ATOM     44  C   UNL A   1      39.300  29.264  29.399  1.00  0.00     0.074 A 
ATOM     45  C   UNL A   1      38.414  30.749  31.164  1.00  0.00     0.049 A 
ATOM     46  N   UNL A   1      40.345  28.745  29.990  1.00  0.00    -0.248 NA
ATOM     47  C   UNL A   1      39.120  28.828  28.004  1.00  0.00     0.031 C 
ATOM     48  C   UNL A   1      37.517  31.729  31.772  1.00  0.00     0.029 A 
ATOM     49  N   UNL A   1      39.362  30.517  32.129  1.00  0.00    -0.354 N 
ATOM     50  C   UNL A   1      40.939  27.918  29.047  1.00  0.00     0.074 A 
ATOM     51  C   UNL A   1      40.130  27.985  27.850  1.00  0.00     0.031 C 
ATOM     52  C   UNL A   1      37.948  32.001  33.017  1.00  0.00     0.029 A 
ATOM     53  C   UNL A   1      39.126  31.184  33.306  1.00  0.00     0.049 A 
ATOM     54  H   UNL A   1      40.139  29.928  31.990  1.00  0.00     0.167 HD
ATOM     55  C   UNL A   1      42.060  27.171  29.170  1.00  0.00     0.037 A 
ATOM     56  C   UNL A   1      39.769  31.113  34.489  1.00  0.00     0.037 A 
ATOM     57  C   UNL A   1      42.863  27.109  30.363  1.00  0.00     0.049 A 
ATOM     58  C   UNL A   1      40.964  30.198  34.623  1.00  0.00     0.074 A 
ATOM     59  C   UNL A   1      44.033  26.403  30.577  1.00  0.00     0.029 A 
ATOM     60  N   UNL A   1      42.570  27.767  31.548  1.00  0.00    -0.354 N 
ATOM     61  N   UNL A   1      41.542  29.446  33.718  1.00  0.00    -0.248 NA
ATOM     62  C   UNL A   1      41.595  30.122  35.951  1.00  0.00     0.031 C 
ATOM     63  C   UNL A   1      44.412  26.578  31.911  1.00  0.00     0.029 A 
ATOM     64  C   UNL A   1      43.517  27.450  32.508  1.00  0.00     0.049 A 
ATOM     65  H   UNL A   1      41.803  28.368  31.686  1.00  0.00     0.167 HD
ATOM     66  C   UNL A   1      42.618  28.838  34.354  1.00  0.00     0.074 A 
ATOM     67  C   UNL A   1      42.626  29.324  35.717  1.00  0.00     0.031 C 
ATOM     68  C   UNL A   1      43.518  27.952  33.858  1.00  0.00     0.037 A 
BRANCH  55  69
ATOM     69  C   UNL A   1      42.476  26.330  28.000  1.00  0.00     0.064 A 
ATOM     70  C   UNL A   1      41.941  25.053  27.776  1.00  0.00     0.173 A 
ATOM     71  C   UNL A   1      43.376  26.840  27.051  1.00  0.00     0.173 A 
ATOM     72  F   UNL A   1      41.090  24.513  28.663  1.00  0.00    -0.203 F 
ATOM     73  C   UNL A   1      42.300  24.314  26.652  1.00  0.00     0.198 A 
ATOM     74  C   UNL A   1      43.708  26.113  25.913  1.00  0.00     0.198 A 
ATOM     75  F   UNL A   1      43.916  28.057  27.218  1.00  0.00    -0.203 F 
ATOM     76  F   UNL A   1      41.802  23.083  26.475  1.00  0.00    -0.200 F 
ATOM     77  C   UNL A   1      43.172  24.849  25.716  1.00  0.00     0.200 A 
ATOM     78  F   UNL A   1      44.540  26.637  25.002  1.00  0.00    -0.200 F 
ATOM     79  F   UNL A   1      43.500  24.145  24.623  1.00  0.00    -0.200 F 
ENDBRANCH  55  69
BRANCH  56  80
ATOM     80  C   UNL A   1      39.286  31.892  35.662  1.00  0.00     0.064 A 
ATOM     81  C   UNL A   1      39.810  33.160  35.956  1.00  0.00     0.173 A 
ATOM     82  C   UNL A   1      38.340  31.359  36.551  1.00  0.00     0.173 A 
ATOM     83  F   UNL A   1      40.737  33.703  35.154  1.00  0.00    -0.203 F 
ATOM     84  C   UNL A   1      39.432  33.847  37.108  1.00  0.00     0.198 A 
ATOM     85  C   UNL A   1      37.936  32.065  37.684  1.00  0.00     0.198 A 
ATOM     86  F   UNL A   1      37.810  30.150  36.323  1.00  0.00    -0.203 F 
ATOM     87  F   UNL A   1      40.003  35.025  37.400  1.00  0.00    -0.200 F 
ATOM     88  C   UNL A   1      38.493  33.302  37.969  1.00  0.00     0.200 A 
ATOM     89  F   UNL A   1      37.019  31.537  38.505  1.00  0.00    -0.200 F 
ATOM     90  F   UNL A   1      38.136  33.959  39.080  1.00  0.00    -0.200 F 
ENDBRANCH  56  80
BRANCH  68  91
ATOM     91  C   UNL A   1      44.609  27.482  34.779  1.00  0.00     0.064 A 
ATOM     92  C   UNL A   1      44.452  26.352  35.596  1.00  0.00     0.173 A 
ATOM     93  C   UNL A   1      45.846  28.147  34.811  1.00  0.00     0.173 A 
ATOM     94  F   UNL A   1      43.288  25.687  35.612  1.00  0.00    -0.203 F 
ATOM     95  C   UNL A   1      45.480  25.926  36.433  1.00  0.00     0.198 A 
ATOM     96  C   UNL A   1      46.883  27.696  35.622  1.00  0.00     0.198 A 
ATOM     97  F   UNL A   1      46.054  29.227  34.042  1.00  0.00    -0.203 F 
ATOM     98  F   UNL A   1      45.288  24.879  37.246  1.00  0.00    -0.200 F 
ATOM     99  C   UNL A   1      46.697  26.592  36.439  1.00  0.00     0.200 A 
ATOM    100  F   UNL A   1      48.064  28.330  35.611  1.00  0.00    -0.200 F 
ATOM    101  F   UNL A   1      47.688  26.174  37.239  1.00  0.00    -0.200 F 
ENDBRANCH  68  91
ENDBRANCH  42  43
ENDBRANCH  35  37
ENDBRANCH  34  35
ENDBRANCH  33  34
ENDBRANCH  32  33
ENDBRANCH  31  32
ENDBRANCH  30  31
ENDBRANCH  29  30
ENDBRANCH  28  29
ENDBRANCH   1  28
TORSDOF 25
ENDMDL
MODEL 2
REMARK VINA RESULT:      -8.9      7.869     11.278
REMARK SMILES CCC[NH2+][C@@]1(C(=O)OCCOCCOCCOCCOC(=O)c2ccc(-c3c4nc(c(-c5c(F)c(F)c(F)c(F)c5F)c5ccc([nH]5)c(-c5c(F)c(F)c(F)c(F)c5F)c5nc(c(-c6c(F)c(F)c(F)c(F)c6F)c6ccc3[nH]6)C=C5)C=C4)cc2)CC[C@@H](Sc2ccc(Cl)cc2)C1
REMARK SMILES IDX 13 1 12 2 11 3 10 4 9 5 8 6 6 7 7 8 5 9 86 10 97 11 87 12
REMARK SMILES IDX 88 13 4 14 3 17 2 18 1 19 89 20 90 21 91 22 96 23 92 24
REMARK SMILES IDX 95 25 93 26 94 27 14 28 15 29 16 30 17 31 18 32 19 33 20 34
REMARK SMILES IDX 21 35 22 36 23 37 24 38 85 39 25 40 84 41 26 42 27 43 28 44
REMARK SMILES IDX 78 45 29 46 83 47 77 48 79 49 30 50 82 51 76 52 75 53 31 55
REMARK SMILES IDX 63 56 43 57 62 58 44 59 47 60 61 61 80 62 45 63 46 64 60 66
REMARK SMILES IDX 81 67 48 68 32 69 33 70 41 71 34 72 35 73 39 74 42 75 36 76
REMARK SMILES IDX 37 77 40 78 38 79 64 80 65 81 73 82 66 83 67 84 71 85 74 86
REMARK SMILES IDX 68 87 69 88 72 89 70 90 49 91 50 92 58 93 51 94 52 95 56 96
REMARK SMILES IDX 59 97 53 98 54 99 57 100 55 101
REMARK H PARENT 4 15 4 16 79 54 47 65
REMARK Flexibility Score: inf
ROOT
ATOM      1  C   UNL A   1      40.752  20.255  26.482  1.00  0.00     0.188 C 
ENDROOT
BRANCH   1   2
ATOM      2  C   UNL A   1      40.439  21.718  26.810  1.00  0.00     0.188 C 
BRANCH   2   3
ATOM      3  O   UNL A   1      39.136  22.196  26.551  1.00  0.00    -0.376 OA
BRANCH   3   4
ATOM      4  C   UNL A   1      38.345  21.579  25.545  1.00  0.00     0.202 C 
BRANCH   4   5
ATOM      5  C   UNL A   1      36.903  22.006  25.165  1.00  0.00     0.261 C 
BRANCH   5   6
ATOM      6  O   UNL A   1      35.789  21.520  25.947  1.00  0.00    -0.459 OA
BRANCH   6   7
ATOM      7  C   UNL A   1      35.041  20.541  25.374  1.00  0.00     0.368 C 
ATOM      8  O   UNL A   1      35.513  19.655  24.663  1.00  0.00    -0.245 OA
BRANCH   7   9
ATOM      9  C   UNL A   1      33.503  20.600  25.683  1.00  0.00     0.195 C 
ATOM     10  C   UNL A   1      32.780  20.682  24.321  1.00  0.00     0.082 C 
ATOM     11  C   UNL A   1      32.899  21.818  26.409  1.00  0.00     0.096 C 
ATOM     12  C   UNL A   1      32.709  22.174  24.000  1.00  0.00     0.022 C 
ATOM     13  C   UNL A   1      32.586  22.873  25.349  1.00  0.00     0.059 C 
BRANCH   9  14
ATOM     14  N   UNL A   1      33.121  19.293  26.334  1.00  0.00    -0.332 N 
ATOM     15  H   UNL A   1      33.919  18.961  26.877  1.00  0.00     0.347 HD
ATOM     16  H   UNL A   1      32.300  19.483  26.911  1.00  0.00     0.347 HD
BRANCH  14  17
ATOM     17  C   UNL A   1      32.736  18.239  25.392  1.00  0.00     0.261 C 
BRANCH  17  18
ATOM     18  C   UNL A   1      33.100  16.814  25.817  1.00  0.00     0.058 C 
ATOM     19  C   UNL A   1      33.229  15.853  24.643  1.00  0.00     0.010 C 
ENDBRANCH  17  18
ENDBRANCH  14  17
ENDBRANCH   9  14
BRANCH  13  20
ATOM     20  S   UNL A   1      31.022  23.799  25.665  1.00  0.00    -0.122 SA
BRANCH  20  21
ATOM     21  C   UNL A   1      31.254  25.333  24.783  1.00  0.00     0.008 A 
ATOM     22  C   UNL A   1      32.548  25.719  24.421  1.00  0.00     0.016 A 
ATOM     23  C   UNL A   1      30.192  26.206  24.525  1.00  0.00     0.016 A 
ATOM     24  C   UNL A   1      32.767  26.929  23.753  1.00  0.00     0.021 A 
ATOM     25  C   UNL A   1      30.402  27.401  23.831  1.00  0.00     0.021 A 
ATOM     26  C   UNL A   1      31.690  27.755  23.444  1.00  0.00     0.041 A 
ATOM     27  Cl  UNL A   1      31.953  29.230  22.599  1.00  0.00    -0.084 Cl
ENDBRANCH  20  21
ENDBRANCH  13  20
ENDBRANCH   7   9
ENDBRANCH   6   7
ENDBRANCH   5   6
ENDBRANCH   4   5
ENDBRANCH   3   4
ENDBRANCH   2   3
ENDBRANCH   1   2
BRANCH   1  28
ATOM     28  O   UNL A   1      41.984  19.771  26.971  1.00  0.00    -0.377 OA
BRANCH  28  29
ATOM     29  C   UNL A   1      42.569  18.680  26.275  1.00  0.00     0.188 C 
BRANCH  29  30
ATOM     30  C   UNL A   1      43.508  18.968  25.089  1.00  0.00     0.188 C 
BRANCH  30  31
ATOM     31  O   UNL A   1      44.794  18.374  25.202  1.00  0.00    -0.376 OA
BRANCH  31  32
ATOM     32  C   UNL A   1      45.955  19.188  25.159  1.00  0.00     0.202 C 
BRANCH  32  33
ATOM     33  C   UNL A   1      45.805  20.701  24.930  1.00  0.00     0.261 C 
BRANCH  33  34
ATOM     34  O   UNL A   1      46.033  21.562  26.057  1.00  0.00    -0.460 OA
BRANCH  34  35
ATOM     35  C   UNL A   1      45.172  22.574  26.288  1.00  0.00     0.338 C 
ATOM     36  O   UNL A   1      44.026  22.491  26.695  1.00  0.00    -0.246 OA
BRANCH  35  37
ATOM     37  C   UNL A   1      45.943  23.834  26.175  1.00  0.00     0.060 A 
ATOM     38  C   UNL A   1      46.558  24.360  27.321  1.00  0.00     0.016 A 
ATOM     39  C   UNL A   1      46.104  24.463  24.939  1.00  0.00     0.016 A 
ATOM     40  C   UNL A   1      47.332  25.518  27.233  1.00  0.00     0.010 A 
ATOM     41  C   UNL A   1      46.848  25.644  24.860  1.00  0.00     0.010 A 
ATOM     42  C   UNL A   1      47.450  26.188  26.009  1.00  0.00    -0.014 A 
BRANCH  42  43
ATOM     43  C   UNL A   1      48.048  27.543  25.966  1.00  0.00     0.031 A 
ATOM     44  C   UNL A   1      49.509  27.666  25.634  1.00  0.00     0.074 A 
ATOM     45  C   UNL A   1      47.311  28.643  26.199  1.00  0.00     0.049 A 
ATOM     46  N   UNL A   1      50.271  28.728  25.606  1.00  0.00    -0.248 NA
ATOM     47  C   UNL A   1      50.206  26.416  25.286  1.00  0.00     0.031 C 
ATOM     48  C   UNL A   1      45.877  28.658  26.477  1.00  0.00     0.029 A 
ATOM     49  N   UNL A   1      47.677  29.966  26.252  1.00  0.00    -0.354 N 
ATOM     50  C   UNL A   1      51.535  28.275  25.249  1.00  0.00     0.074 A 
ATOM     51  C   UNL A   1      51.445  26.841  25.090  1.00  0.00     0.031 C 
ATOM     52  C   UNL A   1      45.487  29.927  26.691  1.00  0.00     0.029 A 
ATOM     53  C   UNL A   1      46.651  30.808  26.604  1.00  0.00     0.049 A 
ATOM     54  H   UNL A   1      48.589  30.280  26.055  1.00  0.00     0.167 HD
ATOM     55  C   UNL A   1      52.666  28.994  25.070  1.00  0.00     0.037 A 
ATOM     56  C   UNL A   1      46.664  32.131  26.861  1.00  0.00     0.037 A 
ATOM     57  C   UNL A   1      52.750  30.422  25.227  1.00  0.00     0.049 A 
ATOM     58  C   UNL A   1      47.964  32.893  26.742  1.00  0.00     0.074 A 
ATOM     59  C   UNL A   1      53.845  31.247  25.041  1.00  0.00     0.029 A 
ATOM     60  N   UNL A   1      51.700  31.236  25.624  1.00  0.00    -0.354 N 
ATOM     61  N   UNL A   1      49.146  32.466  26.370  1.00  0.00    -0.248 NA
ATOM     62  C   UNL A   1      47.928  34.324  27.083  1.00  0.00     0.031 C 
ATOM     63  C   UNL A   1      53.478  32.549  25.389  1.00  0.00     0.029 A 
ATOM     64  C   UNL A   1      52.134  32.548  25.726  1.00  0.00     0.049 A 
ATOM     65  H   UNL A   1      50.783  30.928  25.807  1.00  0.00     0.167 HD
ATOM     66  C   UNL A   1      49.982  33.576  26.400  1.00  0.00     0.074 A 
ATOM     67  C   UNL A   1      49.167  34.701  26.806  1.00  0.00     0.031 C 
ATOM     68  C   UNL A   1      51.307  33.660  26.121  1.00  0.00     0.037 A 
BRANCH  55  69
ATOM     69  C   UNL A   1      53.921  28.253  24.714  1.00  0.00     0.064 A 
ATOM     70  C   UNL A   1      54.305  28.042  23.382  1.00  0.00     0.173 A 
ATOM     71  C   UNL A   1      54.786  27.808  25.726  1.00  0.00     0.173 A 
ATOM     72  F   UNL A   1      53.505  28.433  22.378  1.00  0.00    -0.203 F 
ATOM     73  C   UNL A   1      55.503  27.402  23.076  1.00  0.00     0.198 A 
ATOM     74  C   UNL A   1      55.997  27.197  25.417  1.00  0.00     0.198 A 
ATOM     75  F   UNL A   1      54.465  27.987  27.017  1.00  0.00    -0.203 F 
ATOM     76  F   UNL A   1      55.834  27.180  21.797  1.00  0.00    -0.200 F 
ATOM     77  C   UNL A   1      56.353  26.991  24.092  1.00  0.00     0.200 A 
ATOM     78  F   UNL A   1      56.823  26.814  26.400  1.00  0.00    -0.200 F 
ATOM     79  F   UNL A   1      57.516  26.394  23.796  1.00  0.00    -0.200 F 
ENDBRANCH  55  69
BRANCH  56  80
ATOM     80  C   UNL A   1      45.423  32.830  27.296  1.00  0.00     0.064 A 
ATOM     81  C   UNL A   1      44.614  33.513  26.375  1.00  0.00     0.173 A 
ATOM     82  C   UNL A   1      45.056  32.888  28.649  1.00  0.00     0.173 A 
ATOM     83  F   UNL A   1      44.935  33.513  25.073  1.00  0.00    -0.203 F 
ATOM     84  C   UNL A   1      43.509  34.251  26.794  1.00  0.00     0.198 A 
ATOM     85  C   UNL A   1      43.929  33.597  29.061  1.00  0.00     0.198 A 
ATOM     86  F   UNL A   1      45.796  32.261  29.574  1.00  0.00    -0.203 F 
ATOM     87  F   UNL A   1      42.795  34.950  25.900  1.00  0.00    -0.200 F 
ATOM     88  C   UNL A   1      43.164  34.289  28.136  1.00  0.00     0.200 A 
ATOM     89  F   UNL A   1      43.594  33.620  30.359  1.00  0.00    -0.200 F 
ATOM     90  F   UNL A   1      42.106  35.005  28.539  1.00  0.00    -0.200 F 
ENDBRANCH  56  80
BRANCH  68  91
ATOM     91  C   UNL A   1      51.950  35.015  26.205  1.00  0.00     0.064 A 
ATOM     92  C   UNL A   1      52.084  35.842  25.079  1.00  0.00     0.173 A 
ATOM     93  C   UNL A   1      52.401  35.511  27.439  1.00  0.00     0.173 A 
ATOM     94  F   UNL A   1      51.681  35.413  23.875  1.00  0.00    -0.203 F 
ATOM     95  C   UNL A   1      52.674  37.099  25.181  1.00  0.00     0.198 A 
ATOM     96  C   UNL A   1      52.956  36.783  27.543  1.00  0.00     0.198 A 
ATOM     97  F   UNL A   1      52.287  34.767  28.550  1.00  0.00    -0.203 F 
ATOM     98  F   UNL A   1      52.842  37.848  24.082  1.00  0.00    -0.200 F 
ATOM     99  C   UNL A   1      53.100  37.573  26.413  1.00  0.00     0.200 A 
ATOM    100  F   UNL A   1      53.349  37.246  28.738  1.00  0.00    -0.200 F 
ATOM    101  F   UNL A   1      53.659  38.788  26.509  1.00  0.00    -0.200 F 
ENDBRANCH  68  91
ENDBRANCH  42  43
ENDBRANCH  35  37
ENDBRANCH  34  35
ENDBRANCH  33  34
ENDBRANCH  32  33
ENDBRANCH  31  32
ENDBRANCH  30  31
ENDBRANCH  29  30
ENDBRANCH  28  29
ENDBRANCH   1  28
TORSDOF 25
ENDMDL
MODEL 3
REMARK VINA RESULT:      -8.7      7.889     12.756
REMARK SMILES CCC[NH2+][C@@]1(C(=O)OCCOCCOCCOCCOC(=O)c2ccc(-c3c4nc(c(-c5c(F)c(F)c(F)c(F)c5F)c5ccc([nH]5)c(-c5c(F)c(F)c(F)c(F)c5F)c5nc(c(-c6c(F)c(F)c(F)c(F)c6F)c6ccc3[nH]6)C=C5)C=C4)cc2)CC[C@@H](Sc2ccc(Cl)cc2)C1
REMARK SMILES IDX 13 1 12 2 11 3 10 4 9 5 8 6 6 7 7 8 5 9 86 10 97 11 87 12
REMARK SMILES IDX 88 13 4 14 3 17 2 18 1 19 89 20 90 21 91 22 96 23 92 24
REMARK SMILES IDX 95 25 93 26 94 27 14 28 15 29 16 30 17 31 18 32 19 33 20 34
REMARK SMILES IDX 21 35 22 36 23 37 24 38 85 39 25 40 84 41 26 42 27 43 28 44
REMARK SMILES IDX 78 45 29 46 83 47 77 48 79 49 30 50 82 51 76 52 75 53 31 55
REMARK SMILES IDX 63 56 43 57 62 58 44 59 47 60 61 61 80 62 45 63 46 64 60 66
REMARK SMILES IDX 81 67 48 68 32 69 33 70 41 71 34 72 35 73 39 74 42 75 36 76
REMARK SMILES IDX 37 77 40 78 38 79 64 80 65 81 73 82 66 83 67 84 71 85 74 86
REMARK SMILES IDX 68 87 69 88 72 89 70 90 49 91 50 92 58 93 51 94 52 95 56 96
REMARK SMILES IDX 59 97 53 98 54 99 57 100 55 101
REMARK H PARENT 4 15 4 16 79 54 47 65
REMARK Flexibility Score: inf
ROOT
ATOM      1  C   UNL A   1      40.927  20.424  26.506  1.00  0.00     0.188 C 
ENDROOT
BRANCH   1   2
ATOM      2  C   UNL A   1      40.708  21.929  26.689  1.00  0.00     0.188 C 
BRANCH   2   3
ATOM      3  O   UNL A   1      39.400  22.437  26.529  1.00  0.00    -0.376 OA
BRANCH   3   4
ATOM      4  C   UNL A   1      38.451  21.714  25.757  1.00  0.00     0.202 C 
BRANCH   4   5
ATOM      5  C   UNL A   1      37.002  22.183  25.467  1.00  0.00     0.261 C 
BRANCH   5   6
ATOM      6  O   UNL A   1      35.899  21.548  26.152  1.00  0.00    -0.459 OA
BRANCH   6   7
ATOM      7  C   UNL A   1      35.147  20.697  25.407  1.00  0.00     0.368 C 
ATOM      8  O   UNL A   1      35.625  19.824  24.684  1.00  0.00    -0.245 OA
BRANCH   7   9
ATOM      9  C   UNL A   1      33.593  20.886  25.530  1.00  0.00     0.195 C 
ATOM     10  C   UNL A   1      33.052  21.053  24.094  1.00  0.00     0.082 C 
ATOM     11  C   UNL A   1      33.012  22.142  26.210  1.00  0.00     0.096 C 
ATOM     12  C   UNL A   1      33.150  22.551  23.806  1.00  0.00     0.022 C 
ATOM     13  C   UNL A   1      32.923  23.236  25.149  1.00  0.00     0.059 C 
BRANCH   9  14
ATOM     14  N   UNL A   1      33.023  19.608  26.096  1.00  0.00    -0.332 N 
ATOM     15  H   UNL A   1      33.468  19.431  26.997  1.00  0.00     0.347 HD
ATOM     16  H   UNL A   1      32.015  19.746  26.171  1.00  0.00     0.347 HD
BRANCH  14  17
ATOM     17  C   UNL A   1      33.223  18.431  25.246  1.00  0.00     0.261 C 
BRANCH  17  18
ATOM     18  C   UNL A   1      32.229  18.278  24.092  1.00  0.00     0.058 C 
ATOM     19  C   UNL A   1      32.830  17.595  22.871  1.00  0.00     0.010 C 
ENDBRANCH  17  18
ENDBRANCH  14  17
ENDBRANCH   9  14
BRANCH  13  20
ATOM     20  S   UNL A   1      31.417  24.292  25.298  1.00  0.00    -0.122 SA
BRANCH  20  21
ATOM     21  C   UNL A   1      32.053  25.854  25.883  1.00  0.00     0.008 A 
ATOM     22  C   UNL A   1      31.172  26.772  26.464  1.00  0.00     0.016 A 
ATOM     23  C   UNL A   1      33.389  26.226  25.695  1.00  0.00     0.016 A 
ATOM     24  C   UNL A   1      31.634  28.016  26.908  1.00  0.00     0.021 A 
ATOM     25  C   UNL A   1      33.860  27.456  26.165  1.00  0.00     0.021 A 
ATOM     26  C   UNL A   1      32.980  28.343  26.774  1.00  0.00     0.041 A 
ATOM     27  Cl  UNL A   1      33.556  29.861  27.343  1.00  0.00    -0.084 Cl
ENDBRANCH  20  21
ENDBRANCH  13  20
ENDBRANCH   7   9
ENDBRANCH   6   7
ENDBRANCH   5   6
ENDBRANCH   4   5
ENDBRANCH   3   4
ENDBRANCH   2   3
ENDBRANCH   1   2
BRANCH   1  28
ATOM     28  O   UNL A   1      42.195  19.941  26.895  1.00  0.00    -0.377 OA
BRANCH  28  29
ATOM     29  C   UNL A   1      42.698  18.814  26.193  1.00  0.00     0.188 C 
BRANCH  29  30
ATOM     30  C   UNL A   1      43.720  19.035  25.062  1.00  0.00     0.188 C 
BRANCH  30  31
ATOM     31  O   UNL A   1      44.984  18.427  25.287  1.00  0.00    -0.376 OA
BRANCH  31  32
ATOM     32  C   UNL A   1      46.163  19.215  25.259  1.00  0.00     0.202 C 
BRANCH  32  33
ATOM     33  C   UNL A   1      46.069  20.695  24.850  1.00  0.00     0.261 C 
BRANCH  33  34
ATOM     34  O   UNL A   1      46.037  21.668  25.907  1.00  0.00    -0.460 OA
BRANCH  34  35
ATOM     35  C   UNL A   1      45.082  22.620  25.886  1.00  0.00     0.338 C 
ATOM     36  O   UNL A   1      43.876  22.458  25.952  1.00  0.00    -0.246 OA
BRANCH  35  37
ATOM     37  C   UNL A   1      45.770  23.927  26.000  1.00  0.00     0.060 A 
ATOM     38  C   UNL A   1      45.750  24.804  24.905  1.00  0.00     0.016 A 
ATOM     39  C   UNL A   1      46.384  24.308  27.194  1.00  0.00     0.016 A 
ATOM     40  C   UNL A   1      46.346  26.061  25.001  1.00  0.00     0.010 A 
ATOM     41  C   UNL A   1      47.015  25.553  27.277  1.00  0.00     0.010 A 
ATOM     42  C   UNL A   1      47.016  26.428  26.176  1.00  0.00    -0.014 A 
BRANCH  42  43
ATOM     43  C   UNL A   1      47.864  27.643  26.191  1.00  0.00     0.031 A 
ATOM     44  C   UNL A   1      47.215  28.960  26.511  1.00  0.00     0.074 A 
ATOM     45  C   UNL A   1      49.184  27.580  25.942  1.00  0.00     0.049 A 
ATOM     46  N   UNL A   1      47.727  30.163  26.516  1.00  0.00    -0.248 NA
ATOM     47  C   UNL A   1      45.789  28.913  26.877  1.00  0.00     0.031 C 
ATOM     48  C   UNL A   1      49.937  26.358  25.673  1.00  0.00     0.029 A 
ATOM     49  N   UNL A   1      50.123  28.579  25.864  1.00  0.00    -0.354 N 
ATOM     50  C   UNL A   1      46.689  31.014  26.873  1.00  0.00     0.074 A 
ATOM     51  C   UNL A   1      45.511  30.195  27.058  1.00  0.00     0.031 C 
ATOM     52  C   UNL A   1      51.222  26.680  25.438  1.00  0.00     0.029 A 
ATOM     53  C   UNL A   1      51.372  28.134  25.502  1.00  0.00     0.049 A 
ATOM     54  H   UNL A   1      49.921  29.524  26.049  1.00  0.00     0.167 HD
ATOM     55  C   UNL A   1      46.719  32.357  27.032  1.00  0.00     0.037 A 
ATOM     56  C   UNL A   1      52.493  28.827  25.222  1.00  0.00     0.037 A 
ATOM     57  C   UNL A   1      47.894  33.167  26.848  1.00  0.00     0.049 A 
ATOM     58  C   UNL A   1      52.471  30.335  25.319  1.00  0.00     0.074 A 
ATOM     59  C   UNL A   1      48.032  34.533  27.014  1.00  0.00     0.029 A 
ATOM     60  N   UNL A   1      49.130  32.685  26.443  1.00  0.00    -0.354 N 
ATOM     61  N   UNL A   1      51.497  31.130  25.691  1.00  0.00    -0.248 NA
ATOM     62  C   UNL A   1      53.708  31.042  24.953  1.00  0.00     0.031 C 
ATOM     63  C   UNL A   1      49.332  34.890  26.644  1.00  0.00     0.029 A 
ATOM     64  C   UNL A   1      50.024  33.736  26.315  1.00  0.00     0.049 A 
ATOM     65  H   UNL A   1      49.340  31.740  26.272  1.00  0.00     0.167 HD
ATOM     66  C   UNL A   1      52.012  32.420  25.637  1.00  0.00     0.074 A 
ATOM     67  C   UNL A   1      53.391  32.301  25.215  1.00  0.00     0.031 C 
ATOM     68  C   UNL A   1      51.399  33.600  25.906  1.00  0.00     0.037 A 
BRANCH  55  69
ATOM     69  C   UNL A   1      45.439  33.050  27.393  1.00  0.00     0.064 A 
ATOM     70  C   UNL A   1      45.023  33.193  28.725  1.00  0.00     0.173 A 
ATOM     71  C   UNL A   1      44.650  33.639  26.392  1.00  0.00     0.173 A 
ATOM     72  F   UNL A   1      45.732  32.634  29.718  1.00  0.00    -0.203 F 
ATOM     73  C   UNL A   1      43.860  33.891  29.040  1.00  0.00     0.198 A 
ATOM     74  C   UNL A   1      43.506  34.361  26.712  1.00  0.00     0.198 A 
ATOM     75  F   UNL A   1      45.004  33.531  25.102  1.00  0.00    -0.203 F 
ATOM     76  F   UNL A   1      43.463  33.987  30.316  1.00  0.00    -0.200 F 
ATOM     77  C   UNL A   1      43.109  34.484  28.036  1.00  0.00     0.200 A 
ATOM     78  F   UNL A   1      42.790  34.946  25.742  1.00  0.00    -0.200 F 
ATOM     79  F   UNL A   1      42.001  35.173  28.342  1.00  0.00    -0.200 F 
ENDBRANCH  55  69
BRANCH  56  80
ATOM     80  C   UNL A   1      53.729  28.123  24.782  1.00  0.00     0.064 A 
ATOM     81  C   UNL A   1      54.676  27.669  25.713  1.00  0.00     0.173 A 
ATOM     82  C   UNL A   1      54.023  27.949  23.421  1.00  0.00     0.173 A 
ATOM     83  F   UNL A   1      54.457  27.836  27.026  1.00  0.00    -0.203 F 
ATOM     84  C   UNL A   1      55.879  27.100  25.300  1.00  0.00     0.198 A 
ATOM     85  C   UNL A   1      55.211  27.346  23.011  1.00  0.00     0.198 A 
ATOM     86  F   UNL A   1      53.159  28.369  22.487  1.00  0.00    -0.203 F 
ATOM     87  F   UNL A   1      56.795  26.740  26.211  1.00  0.00    -0.200 F 
ATOM     88  C   UNL A   1      56.144  26.935  23.949  1.00  0.00     0.200 A 
ATOM     89  F   UNL A   1      55.457  27.178  21.704  1.00  0.00    -0.200 F 
ATOM     90  F   UNL A   1      57.305  26.395  23.552  1.00  0.00    -0.200 F 
ENDBRANCH  56  80
BRANCH  68  91
ATOM     91  C   UNL A   1      52.222  34.852  25.794  1.00  0.00     0.064 A 
ATOM     92  C   UNL A   1      52.836  35.437  26.911  1.00  0.00     0.173 A 
ATOM     93  C   UNL A   1      52.436  35.451  24.541  1.00  0.00     0.173 A 
ATOM     94  F   UNL A   1      52.655  34.913  28.132  1.00  0.00    -0.203 F 
ATOM     95  C   UNL A   1      53.604  36.591  26.784  1.00  0.00     0.198 A 
ATOM     96  C   UNL A   1      53.235  36.583  24.413  1.00  0.00     0.198 A 
ATOM     97  F   UNL A   1      51.882  34.926  23.437  1.00  0.00    -0.203 F 
ATOM     98  F   UNL A   1      54.133  37.165  27.874  1.00  0.00    -0.200 F 
ATOM     99  C   UNL A   1      53.811  37.158  25.535  1.00  0.00     0.200 A 
ATOM    100  F   UNL A   1      53.449  37.117  23.202  1.00  0.00    -0.200 F 
ATOM    101  F   UNL A   1      54.559  38.264  25.414  1.00  0.00    -0.200 F 
ENDBRANCH  68  91
ENDBRANCH  42  43
ENDBRANCH  35  37
ENDBRANCH  34  35
ENDBRANCH  33  34
ENDBRANCH  32  33
ENDBRANCH  31  32
ENDBRANCH  30  31
ENDBRANCH  29  30
ENDBRANCH  28  29
ENDBRANCH   1  28
TORSDOF 25
ENDMDL
