MODEL 1
REMARK VINA RESULT:      -9.8      0.000      0.000
REMARK SMILES Cc1cccc(C[N@@H+](C)C[C@]2(C(=O)OCCOCCOCCOCCOC(=O)c3ccc(-c4c5nc(c(-c6c(F)c(F)c(F)c(F)c6F)c6ccc([nH]6)c(-c6c(F)c(F)c(F)c(F)c6F)c6nc(c(-c7c(F)c(F)c(F)c(F)c7F)c7ccc4[nH]7)C=C6)C=C5)cc3)CCOC2)n1
REMARK SMILES IDX 19 1 18 2 17 3 16 4 15 5 14 6 12 7 13 8 11 9 92 10 95 11
REMARK SMILES IDX 93 12 94 13 10 14 8 15 9 16 7 18 6 19 1 20 2 21 3 22 96 23
REMARK SMILES IDX 4 24 5 25 20 26 21 27 22 28 23 29 24 30 25 31 26 32 27 33
REMARK SMILES IDX 28 34 29 35 30 36 91 37 31 38 90 39 32 40 33 41 34 42 84 43
REMARK SMILES IDX 35 44 89 45 83 46 85 47 36 48 88 49 82 50 81 51 37 53 69 54
REMARK SMILES IDX 49 55 68 56 50 57 53 58 67 59 86 60 51 61 52 62 66 64 87 65
REMARK SMILES IDX 54 66 38 67 39 68 47 69 40 70 41 71 45 72 48 73 42 74 43 75
REMARK SMILES IDX 46 76 44 77 70 78 71 79 79 80 72 81 73 82 77 83 80 84 74 85
REMARK SMILES IDX 75 86 78 87 76 88 55 89 56 90 64 91 57 92 58 93 62 94 65 95
REMARK SMILES IDX 59 96 60 97 63 98 61 99
REMARK H PARENT 8 17 85 52 53 63
REMARK Flexibility Score: inf
ROOT
ATOM      1  C   UNL A   1      35.209  30.743  27.676  1.00  0.00     0.188 C 
ENDROOT
BRANCH   1   2
ATOM      2  C   UNL A   1      34.722  29.291  27.524  1.00  0.00     0.188 C 
BRANCH   2   3
ATOM      3  O   UNL A   1      34.288  28.908  26.227  1.00  0.00    -0.376 OA
BRANCH   3   4
ATOM      4  C   UNL A   1      33.411  27.794  26.136  1.00  0.00     0.202 C 
BRANCH   4   5
ATOM      5  C   UNL A   1      32.068  27.971  26.844  1.00  0.00     0.261 C 
BRANCH   5   6
ATOM      6  O   UNL A   1      31.387  26.711  27.001  1.00  0.00    -0.463 OA
BRANCH   6   7
ATOM      7  C   UNL A   1      30.887  26.123  25.887  1.00  0.00     0.320 C 
ATOM      8  O   UNL A   1      30.209  26.718  25.059  1.00  0.00    -0.251 OA
BRANCH   7   9
ATOM      9  C   UNL A   1      31.254  24.648  25.793  1.00  0.00     0.142 C 
ATOM     10  C   UNL A   1      32.571  24.250  26.453  1.00  0.00     0.055 C 
ATOM     11  C   UNL A   1      30.277  23.946  26.748  1.00  0.00     0.185 C 
ATOM     12  C   UNL A   1      32.320  22.866  27.005  1.00  0.00     0.161 C 
ATOM     13  O   UNL A   1      30.916  22.758  27.239  1.00  0.00    -0.380 OA
BRANCH   9  14
ATOM     14  C   UNL A   1      31.049  24.083  24.349  1.00  0.00     0.283 C 
BRANCH  14  15
ATOM     15  N   UNL A   1      31.881  24.467  23.211  1.00  0.00    -0.331 N 
ATOM     16  C   UNL A   1      31.496  25.589  22.383  1.00  0.00     0.333 C 
ATOM     17  H   UNL A   1      32.371  24.740  24.064  1.00  0.00     0.348 HD
BRANCH  15  18
ATOM     18  C   UNL A   1      33.001  23.657  22.726  1.00  0.00     0.319 C 
BRANCH  18  19
ATOM     19  C   UNL A   1      33.271  22.343  23.434  1.00  0.00     0.095 A 
ATOM     20  C   UNL A   1      36.029  20.904  25.376  1.00  0.00     0.067 C 
ATOM     21  C   UNL A   1      34.691  21.037  24.722  1.00  0.00     0.038 A 
ATOM     22  C   UNL A   1      33.798  19.970  24.707  1.00  0.00     0.023 A 
ATOM     23  N   UNL A   1      34.440  22.216  24.105  1.00  0.00    -0.252 NA
ATOM     24  C   UNL A   1      32.608  20.109  24.014  1.00  0.00     0.004 A 
ATOM     25  C   UNL A   1      32.353  21.301  23.353  1.00  0.00     0.030 A 
ENDBRANCH  18  19
ENDBRANCH  15  18
ENDBRANCH  14  15
ENDBRANCH   9  14
ENDBRANCH   7   9
ENDBRANCH   6   7
ENDBRANCH   5   6
ENDBRANCH   4   5
ENDBRANCH   3   4
ENDBRANCH   2   3
ENDBRANCH   1   2
BRANCH   1  26
ATOM     26  O   UNL A   1      34.292  31.797  27.926  1.00  0.00    -0.377 OA
BRANCH  26  27
ATOM     27  C   UNL A   1      34.413  32.503  29.146  1.00  0.00     0.188 C 
BRANCH  27  28
ATOM     28  C   UNL A   1      34.396  34.042  29.091  1.00  0.00     0.188 C 
BRANCH  28  29
ATOM     29  O   UNL A   1      33.094  34.624  29.109  1.00  0.00    -0.376 OA
BRANCH  29  30
ATOM     30  C   UNL A   1      33.047  36.040  28.985  1.00  0.00     0.202 C 
BRANCH  30  31
ATOM     31  C   UNL A   1      32.929  36.771  30.329  1.00  0.00     0.261 C 
BRANCH  31  32
ATOM     32  O   UNL A   1      32.339  35.996  31.383  1.00  0.00    -0.460 OA
BRANCH  32  33
ATOM     33  C   UNL A   1      32.899  36.116  32.608  1.00  0.00     0.338 C 
ATOM     34  O   UNL A   1      32.442  36.681  33.574  1.00  0.00    -0.246 OA
BRANCH  33  35
ATOM     35  C   UNL A   1      34.092  35.239  32.636  1.00  0.00     0.060 A 
ATOM     36  C   UNL A   1      33.925  33.906  33.031  1.00  0.00     0.016 A 
ATOM     37  C   UNL A   1      35.343  35.709  32.225  1.00  0.00     0.016 A 
ATOM     38  C   UNL A   1      35.008  33.030  32.998  1.00  0.00     0.010 A 
ATOM     39  C   UNL A   1      36.440  34.846  32.246  1.00  0.00     0.010 A 
ATOM     40  C   UNL A   1      36.278  33.511  32.651  1.00  0.00    -0.014 A 
BRANCH  40  41
ATOM     41  C   UNL A   1      37.466  32.701  32.999  1.00  0.00     0.031 A 
ATOM     42  C   UNL A   1      38.156  33.027  34.295  1.00  0.00     0.074 A 
ATOM     43  C   UNL A   1      37.912  31.709  32.211  1.00  0.00     0.049 A 
ATOM     44  N   UNL A   1      39.216  32.488  34.835  1.00  0.00    -0.248 NA
ATOM     45  C   UNL A   1      37.559  34.112  35.092  1.00  0.00     0.031 C 
ATOM     46  C   UNL A   1      37.307  31.285  30.952  1.00  0.00     0.029 A 
ATOM     47  N   UNL A   1      38.999  30.882  32.361  1.00  0.00    -0.354 N 
ATOM     48  C   UNL A   1      39.396  33.151  36.040  1.00  0.00     0.074 A 
ATOM     49  C   UNL A   1      38.363  34.157  36.140  1.00  0.00     0.031 C 
ATOM     50  C   UNL A   1      38.046  30.288  30.428  1.00  0.00     0.029 A 
ATOM     51  C   UNL A   1      39.185  30.022  31.307  1.00  0.00     0.049 A 
ATOM     52  H   UNL A   1      39.587  30.903  33.150  1.00  0.00     0.167 HD
ATOM     53  C   UNL A   1      40.335  32.935  36.988  1.00  0.00     0.037 A 
ATOM     54  C   UNL A   1      40.179  29.142  31.078  1.00  0.00     0.037 A 
ATOM     55  C   UNL A   1      41.391  31.971  36.864  1.00  0.00     0.049 A 
ATOM     56  C   UNL A   1      41.275  28.987  32.106  1.00  0.00     0.074 A 
ATOM     57  C   UNL A   1      42.416  31.694  37.749  1.00  0.00     0.029 A 
ATOM     58  N   UNL A   1      41.563  31.136  35.770  1.00  0.00    -0.354 N 
ATOM     59  N   UNL A   1      41.423  29.594  33.260  1.00  0.00    -0.248 NA
ATOM     60  C   UNL A   1      42.341  28.020  31.802  1.00  0.00     0.031 C 
ATOM     61  C   UNL A   1      43.236  30.720  37.169  1.00  0.00     0.029 A 
ATOM     62  C   UNL A   1      42.691  30.353  35.948  1.00  0.00     0.049 A 
ATOM     63  H   UNL A   1      40.972  31.105  34.984  1.00  0.00     0.167 HD
ATOM     64  C   UNL A   1      42.574  29.064  33.830  1.00  0.00     0.074 A 
ATOM     65  C   UNL A   1      43.080  28.076  32.901  1.00  0.00     0.031 C 
ATOM     66  C   UNL A   1      43.163  29.366  35.014  1.00  0.00     0.037 A 
BRANCH  53  67
ATOM     67  C   UNL A   1      40.267  33.785  38.220  1.00  0.00     0.064 A 
ATOM     68  C   UNL A   1      41.028  34.959  38.340  1.00  0.00     0.173 A 
ATOM     69  C   UNL A   1      39.440  33.424  39.292  1.00  0.00     0.173 A 
ATOM     70  F   UNL A   1      41.856  35.331  37.352  1.00  0.00    -0.203 F 
ATOM     71  C   UNL A   1      40.976  35.729  39.497  1.00  0.00     0.198 A 
ATOM     72  C   UNL A   1      39.371  34.211  40.438  1.00  0.00     0.198 A 
ATOM     73  F   UNL A   1      38.701  32.307  39.230  1.00  0.00    -0.203 F 
ATOM     74  F   UNL A   1      41.748  36.819  39.610  1.00  0.00    -0.200 F 
ATOM     75  C   UNL A   1      40.143  35.359  40.543  1.00  0.00     0.200 A 
ATOM     76  F   UNL A   1      38.562  33.855  41.445  1.00  0.00    -0.200 F 
ATOM     77  F   UNL A   1      40.093  36.102  41.656  1.00  0.00    -0.200 F 
ENDBRANCH  53  67
BRANCH  54  78
ATOM     78  C   UNL A   1      40.210  28.349  29.819  1.00  0.00     0.064 A 
ATOM     79  C   UNL A   1      40.874  28.818  28.678  1.00  0.00     0.173 A 
ATOM     80  C   UNL A   1      39.530  27.126  29.717  1.00  0.00     0.173 A 
ATOM     81  F   UNL A   1      41.515  29.996  28.714  1.00  0.00    -0.203 F 
ATOM     82  C   UNL A   1      40.838  28.109  27.478  1.00  0.00     0.198 A 
ATOM     83  C   UNL A   1      39.519  26.403  28.525  1.00  0.00     0.198 A 
ATOM     84  F   UNL A   1      38.871  26.633  30.776  1.00  0.00    -0.203 F 
ATOM     85  F   UNL A   1      41.435  28.610  26.388  1.00  0.00    -0.200 F 
ATOM     86  C   UNL A   1      40.163  26.900  27.404  1.00  0.00     0.200 A 
ATOM     87  F   UNL A   1      38.871  25.232  28.461  1.00  0.00    -0.200 F 
ATOM     88  F   UNL A   1      40.124  26.221  26.249  1.00  0.00    -0.200 F 
ENDBRANCH  54  78
BRANCH  66  89
ATOM     89  C   UNL A   1      44.392  28.592  35.393  1.00  0.00     0.064 A 
ATOM     90  C   UNL A   1      44.313  27.385  36.103  1.00  0.00     0.173 A 
ATOM     91  C   UNL A   1      45.660  29.035  34.987  1.00  0.00     0.173 A 
ATOM     92  F   UNL A   1      43.124  26.925  36.522  1.00  0.00    -0.203 F 
ATOM     93  C   UNL A   1      45.462  26.663  36.414  1.00  0.00     0.198 A 
ATOM     94  C   UNL A   1      46.803  28.294  35.272  1.00  0.00     0.198 A 
ATOM     95  F   UNL A   1      45.788  30.178  34.295  1.00  0.00    -0.203 F 
ATOM     96  F   UNL A   1      45.367  25.534  37.130  1.00  0.00    -0.200 F 
ATOM     97  C   UNL A   1      46.704  27.114  35.991  1.00  0.00     0.200 A 
ATOM     98  F   UNL A   1      48.000  28.723  34.850  1.00  0.00    -0.200 F 
ATOM     99  F   UNL A   1      47.807  26.410  36.282  1.00  0.00    -0.200 F 
ENDBRANCH  66  89
ENDBRANCH  40  41
ENDBRANCH  33  35
ENDBRANCH  32  33
ENDBRANCH  31  32
ENDBRANCH  30  31
ENDBRANCH  29  30
ENDBRANCH  28  29
ENDBRANCH  27  28
ENDBRANCH  26  27
ENDBRANCH   1  26
TORSDOF 24
ENDMDL
MODEL 2
REMARK VINA RESULT:      -9.8      4.766      7.258
REMARK SMILES Cc1cccc(C[N@@H+](C)C[C@]2(C(=O)OCCOCCOCCOCCOC(=O)c3ccc(-c4c5nc(c(-c6c(F)c(F)c(F)c(F)c6F)c6ccc([nH]6)c(-c6c(F)c(F)c(F)c(F)c6F)c6nc(c(-c7c(F)c(F)c(F)c(F)c7F)c7ccc4[nH]7)C=C6)C=C5)cc3)CCOC2)n1
REMARK SMILES IDX 19 1 18 2 17 3 16 4 15 5 14 6 12 7 13 8 11 9 92 10 95 11
REMARK SMILES IDX 93 12 94 13 10 14 8 15 9 16 7 18 6 19 1 20 2 21 3 22 96 23
REMARK SMILES IDX 4 24 5 25 20 26 21 27 22 28 23 29 24 30 25 31 26 32 27 33
REMARK SMILES IDX 28 34 29 35 30 36 91 37 31 38 90 39 32 40 33 41 34 42 84 43
REMARK SMILES IDX 35 44 89 45 83 46 85 47 36 48 88 49 82 50 81 51 37 53 69 54
REMARK SMILES IDX 49 55 68 56 50 57 53 58 67 59 86 60 51 61 52 62 66 64 87 65
REMARK SMILES IDX 54 66 38 67 39 68 47 69 40 70 41 71 45 72 48 73 42 74 43 75
REMARK SMILES IDX 46 76 44 77 70 78 71 79 79 80 72 81 73 82 77 83 80 84 74 85
REMARK SMILES IDX 75 86 78 87 76 88 55 89 56 90 64 91 57 92 58 93 62 94 65 95
REMARK SMILES IDX 59 96 60 97 63 98 61 99
REMARK H PARENT 8 17 85 52 53 63
REMARK Flexibility Score: inf
ROOT
ATOM      1  C   UNL A   1      34.811  32.652  28.114  1.00  0.00     0.188 C 
ENDROOT
BRANCH   1   2
ATOM      2  C   UNL A   1      33.983  31.390  27.810  1.00  0.00     0.188 C 
BRANCH   2   3
ATOM      3  O   UNL A   1      34.708  30.263  27.340  1.00  0.00    -0.376 OA
BRANCH   3   4
ATOM      4  C   UNL A   1      34.042  29.393  26.435  1.00  0.00     0.202 C 
BRANCH   4   5
ATOM      5  C   UNL A   1      32.620  29.814  26.063  1.00  0.00     0.261 C 
BRANCH   5   6
ATOM      6  O   UNL A   1      31.855  28.697  25.571  1.00  0.00    -0.463 OA
BRANCH   6   7
ATOM      7  C   UNL A   1      31.649  27.655  26.413  1.00  0.00     0.320 C 
ATOM      8  O   UNL A   1      31.409  27.791  27.606  1.00  0.00    -0.251 OA
BRANCH   7   9
ATOM      9  C   UNL A   1      31.760  26.309  25.710  1.00  0.00     0.142 C 
ATOM     10  C   UNL A   1      31.331  25.095  26.530  1.00  0.00     0.055 C 
ATOM     11  C   UNL A   1      30.625  26.320  24.674  1.00  0.00     0.185 C 
ATOM     12  C   UNL A   1      30.700  24.158  25.526  1.00  0.00     0.161 C 
ATOM     13  O   UNL A   1      30.218  24.963  24.450  1.00  0.00    -0.380 OA
BRANCH   9  14
ATOM     14  C   UNL A   1      33.126  26.147  24.966  1.00  0.00     0.283 C 
BRANCH  14  15
ATOM     15  N   UNL A   1      33.233  25.784  23.554  1.00  0.00    -0.331 N 
ATOM     16  C   UNL A   1      33.334  26.820  22.550  1.00  0.00     0.333 C 
ATOM     17  H   UNL A   1      34.122  25.563  24.003  1.00  0.00     0.348 HD
BRANCH  15  18
ATOM     18  C   UNL A   1      33.046  24.417  23.061  1.00  0.00     0.319 C 
BRANCH  18  19
ATOM     19  C   UNL A   1      34.000  23.353  23.569  1.00  0.00     0.095 A 
ATOM     20  C   UNL A   1      33.691  20.099  25.231  1.00  0.00     0.067 C 
ATOM     21  C   UNL A   1      34.317  21.286  24.571  1.00  0.00     0.038 A 
ATOM     22  C   UNL A   1      35.701  21.420  24.517  1.00  0.00     0.023 A 
ATOM     23  N   UNL A   1      33.467  22.229  24.101  1.00  0.00    -0.252 NA
ATOM     24  C   UNL A   1      36.236  22.577  23.975  1.00  0.00     0.004 A 
ATOM     25  C   UNL A   1      35.375  23.562  23.517  1.00  0.00     0.030 A 
ENDBRANCH  18  19
ENDBRANCH  15  18
ENDBRANCH  14  15
ENDBRANCH   9  14
ENDBRANCH   7   9
ENDBRANCH   6   7
ENDBRANCH   5   6
ENDBRANCH   4   5
ENDBRANCH   3   4
ENDBRANCH   2   3
ENDBRANCH   1   2
BRANCH   1  26
ATOM     26  O   UNL A   1      34.294  33.946  27.845  1.00  0.00    -0.377 OA
BRANCH  26  27
ATOM     27  C   UNL A   1      33.227  34.411  28.649  1.00  0.00     0.188 C 
BRANCH  27  28
ATOM     28  C   UNL A   1      33.567  35.350  29.822  1.00  0.00     0.188 C 
BRANCH  28  29
ATOM     29  O   UNL A   1      34.321  34.744  30.870  1.00  0.00    -0.376 OA
BRANCH  29  30
ATOM     30  C   UNL A   1      34.332  35.442  32.109  1.00  0.00     0.202 C 
BRANCH  30  31
ATOM     31  C   UNL A   1      35.520  35.077  33.010  1.00  0.00     0.261 C 
BRANCH  31  32
ATOM     32  O   UNL A   1      36.442  34.140  32.434  1.00  0.00    -0.460 OA
BRANCH  32  33
ATOM     33  C   UNL A   1      36.342  32.858  32.854  1.00  0.00     0.338 C 
ATOM     34  O   UNL A   1      35.496  32.384  33.577  1.00  0.00    -0.246 OA
BRANCH  33  35
ATOM     35  C   UNL A   1      37.335  32.066  32.094  1.00  0.00     0.060 A 
ATOM     36  C   UNL A   1      38.345  31.410  32.809  1.00  0.00     0.016 A 
ATOM     37  C   UNL A   1      37.240  31.928  30.706  1.00  0.00     0.016 A 
ATOM     38  C   UNL A   1      39.253  30.593  32.137  1.00  0.00     0.010 A 
ATOM     39  C   UNL A   1      38.184  31.156  30.027  1.00  0.00     0.010 A 
ATOM     40  C   UNL A   1      39.204  30.504  30.740  1.00  0.00    -0.014 A 
BRANCH  40  41
ATOM     41  C   UNL A   1      40.383  29.978  30.017  1.00  0.00     0.031 A 
ATOM     42  C   UNL A   1      41.505  30.944  29.753  1.00  0.00     0.074 A 
ATOM     43  C   UNL A   1      40.468  28.698  29.620  1.00  0.00     0.049 A 
ATOM     44  N   UNL A   1      42.641  30.755  29.137  1.00  0.00    -0.248 NA
ATOM     45  C   UNL A   1      41.316  32.313  30.264  1.00  0.00     0.031 C 
ATOM     46  C   UNL A   1      39.457  27.668  29.846  1.00  0.00     0.029 A 
ATOM     47  N   UNL A   1      41.461  28.052  28.925  1.00  0.00    -0.354 N 
ATOM     48  C   UNL A   1      43.307  31.971  29.207  1.00  0.00     0.074 A 
ATOM     49  C   UNL A   1      42.439  32.902  29.890  1.00  0.00     0.031 C 
ATOM     50  C   UNL A   1      39.872  26.520  29.278  1.00  0.00     0.029 A 
ATOM     51  C   UNL A   1      41.166  26.743  28.632  1.00  0.00     0.049 A 
ATOM     52  H   UNL A   1      42.304  28.486  28.662  1.00  0.00     0.167 HD
ATOM     53  C   UNL A   1      44.540  32.283  28.750  1.00  0.00     0.037 A 
ATOM     54  C   UNL A   1      41.859  25.845  27.904  1.00  0.00     0.037 A 
ATOM     55  C   UNL A   1      45.380  31.372  28.026  1.00  0.00     0.049 A 
ATOM     56  C   UNL A   1      43.192  26.247  27.318  1.00  0.00     0.074 A 
ATOM     57  C   UNL A   1      46.633  31.594  27.487  1.00  0.00     0.029 A 
ATOM     58  N   UNL A   1      45.037  30.062  27.726  1.00  0.00    -0.354 N 
ATOM     59  N   UNL A   1      43.832  27.389  27.414  1.00  0.00    -0.248 NA
ATOM     60  C   UNL A   1      43.901  25.232  26.524  1.00  0.00     0.031 C 
ATOM     61  C   UNL A   1      47.030  30.430  26.821  1.00  0.00     0.029 A 
ATOM     62  C   UNL A   1      46.048  29.467  26.992  1.00  0.00     0.049 A 
ATOM     63  H   UNL A   1      44.199  29.621  27.994  1.00  0.00     0.167 HD
ATOM     64  C   UNL A   1      45.026  27.220  26.724  1.00  0.00     0.074 A 
ATOM     65  C   UNL A   1      45.028  25.862  26.223  1.00  0.00     0.031 C 
ATOM     66  C   UNL A   1      46.031  28.107  26.519  1.00  0.00     0.037 A 
BRANCH  53  67
ATOM     67  C   UNL A   1      45.026  33.678  29.000  1.00  0.00     0.064 A 
ATOM     68  C   UNL A   1      45.819  33.984  30.118  1.00  0.00     0.173 A 
ATOM     69  C   UNL A   1      44.698  34.717  28.120  1.00  0.00     0.173 A 
ATOM     70  F   UNL A   1      46.136  33.028  31.004  1.00  0.00    -0.203 F 
ATOM     71  C   UNL A   1      46.246  35.287  30.355  1.00  0.00     0.198 A 
ATOM     72  C   UNL A   1      45.150  36.015  28.346  1.00  0.00     0.198 A 
ATOM     73  F   UNL A   1      43.936  34.477  27.043  1.00  0.00    -0.203 F 
ATOM     74  F   UNL A   1      46.959  35.567  31.454  1.00  0.00    -0.200 F 
ATOM     75  C   UNL A   1      45.918  36.300  29.466  1.00  0.00     0.200 A 
ATOM     76  F   UNL A   1      44.835  36.991  27.484  1.00  0.00    -0.200 F 
ATOM     77  F   UNL A   1      46.332  37.553  29.694  1.00  0.00    -0.200 F 
ENDBRANCH  53  67
BRANCH  54  78
ATOM     78  C   UNL A   1      41.308  24.484  27.663  1.00  0.00     0.064 A 
ATOM     79  C   UNL A   1      41.883  23.350  28.253  1.00  0.00     0.173 A 
ATOM     80  C   UNL A   1      40.223  24.286  26.796  1.00  0.00     0.173 A 
ATOM     81  F   UNL A   1      42.940  23.483  29.067  1.00  0.00    -0.203 F 
ATOM     82  C   UNL A   1      41.411  22.070  27.966  1.00  0.00     0.198 A 
ATOM     83  C   UNL A   1      39.733  23.007  26.533  1.00  0.00     0.198 A 
ATOM     84  F   UNL A   1      39.639  25.335  26.199  1.00  0.00    -0.203 F 
ATOM     85  F   UNL A   1      42.016  21.000  28.500  1.00  0.00    -0.200 F 
ATOM     86  C   UNL A   1      40.334  21.900  27.110  1.00  0.00     0.200 A 
ATOM     87  F   UNL A   1      38.688  22.849  25.709  1.00  0.00    -0.200 F 
ATOM     88  F   UNL A   1      39.885  20.669  26.831  1.00  0.00    -0.200 F 
ENDBRANCH  54  78
BRANCH  66  89
ATOM     89  C   UNL A   1      47.235  27.628  25.761  1.00  0.00     0.064 A 
ATOM     90  C   UNL A   1      47.302  27.701  24.362  1.00  0.00     0.173 A 
ATOM     91  C   UNL A   1      48.358  27.145  26.450  1.00  0.00     0.173 A 
ATOM     92  F   UNL A   1      46.250  28.145  23.658  1.00  0.00    -0.203 F 
ATOM     93  C   UNL A   1      48.442  27.285  23.680  1.00  0.00     0.198 A 
ATOM     94  C   UNL A   1      49.507  26.760  25.766  1.00  0.00     0.198 A 
ATOM     95  F   UNL A   1      48.348  27.067  27.789  1.00  0.00    -0.203 F 
ATOM     96  F   UNL A   1      48.469  27.323  22.340  1.00  0.00    -0.200 F 
ATOM     97  C   UNL A   1      49.545  26.824  24.382  1.00  0.00     0.200 A 
ATOM     98  F   UNL A   1      50.577  26.330  26.447  1.00  0.00    -0.200 F 
ATOM     99  F   UNL A   1      50.646  26.435  23.722  1.00  0.00    -0.200 F 
ENDBRANCH  66  89
ENDBRANCH  40  41
ENDBRANCH  33  35
ENDBRANCH  32  33
ENDBRANCH  31  32
ENDBRANCH  30  31
ENDBRANCH  29  30
ENDBRANCH  28  29
ENDBRANCH  27  28
ENDBRANCH  26  27
ENDBRANCH   1  26
TORSDOF 24
ENDMDL
MODEL 3
REMARK VINA RESULT:      -9.8      1.088      2.249
REMARK SMILES Cc1cccc(C[N@@H+](C)C[C@]2(C(=O)OCCOCCOCCOCCOC(=O)c3ccc(-c4c5nc(c(-c6c(F)c(F)c(F)c(F)c6F)c6ccc([nH]6)c(-c6c(F)c(F)c(F)c(F)c6F)c6nc(c(-c7c(F)c(F)c(F)c(F)c7F)c7ccc4[nH]7)C=C6)C=C5)cc3)CCOC2)n1
REMARK SMILES IDX 19 1 18 2 17 3 16 4 15 5 14 6 12 7 13 8 11 9 92 10 95 11
REMARK SMILES IDX 93 12 94 13 10 14 8 15 9 16 7 18 6 19 1 20 2 21 3 22 96 23
REMARK SMILES IDX 4 24 5 25 20 26 21 27 22 28 23 29 24 30 25 31 26 32 27 33
REMARK SMILES IDX 28 34 29 35 30 36 91 37 31 38 90 39 32 40 33 41 34 42 84 43
REMARK SMILES IDX 35 44 89 45 83 46 85 47 36 48 88 49 82 50 81 51 37 53 69 54
REMARK SMILES IDX 49 55 68 56 50 57 53 58 67 59 86 60 51 61 52 62 66 64 87 65
REMARK SMILES IDX 54 66 38 67 39 68 47 69 40 70 41 71 45 72 48 73 42 74 43 75
REMARK SMILES IDX 46 76 44 77 70 78 71 79 79 80 72 81 73 82 77 83 80 84 74 85
REMARK SMILES IDX 75 86 78 87 76 88 55 89 56 90 64 91 57 92 58 93 62 94 65 95
REMARK SMILES IDX 59 96 60 97 63 98 61 99
REMARK H PARENT 8 17 85 52 53 63
REMARK Flexibility Score: inf
ROOT
ATOM      1  C   UNL A   1      34.867  30.675  27.750  1.00  0.00     0.188 C 
ENDROOT
BRANCH   1   2
ATOM      2  C   UNL A   1      34.207  29.290  27.622  1.00  0.00     0.188 C 
BRANCH   2   3
ATOM      3  O   UNL A   1      34.090  28.771  26.306  1.00  0.00    -0.376 OA
BRANCH   3   4
ATOM      4  C   UNL A   1      33.680  27.416  26.175  1.00  0.00     0.202 C 
BRANCH   4   5
ATOM      5  C   UNL A   1      32.178  27.178  26.335  1.00  0.00     0.261 C 
BRANCH   5   6
ATOM      6  O   UNL A   1      31.792  25.895  25.806  1.00  0.00    -0.463 OA
BRANCH   6   7
ATOM      7  C   UNL A   1      31.797  25.742  24.459  1.00  0.00     0.320 C 
ATOM      8  O   UNL A   1      31.198  26.487  23.695  1.00  0.00    -0.251 OA
BRANCH   7   9
ATOM      9  C   UNL A   1      32.620  24.540  24.014  1.00  0.00     0.142 C 
ATOM     10  C   UNL A   1      32.061  23.756  22.830  1.00  0.00     0.055 C 
ATOM     11  C   UNL A   1      33.860  25.149  23.342  1.00  0.00     0.185 C 
ATOM     12  C   UNL A   1      33.280  23.295  22.066  1.00  0.00     0.161 C 
ATOM     13  O   UNL A   1      34.327  24.221  22.353  1.00  0.00    -0.380 OA
BRANCH   9  14
ATOM     14  C   UNL A   1      33.077  23.662  25.224  1.00  0.00     0.283 C 
BRANCH  14  15
ATOM     15  N   UNL A   1      32.335  22.493  25.692  1.00  0.00    -0.331 N 
ATOM     16  C   UNL A   1      30.931  22.614  26.017  1.00  0.00     0.333 C 
ATOM     17  H   UNL A   1      32.513  22.372  24.694  1.00  0.00     0.348 HD
BRANCH  15  18
ATOM     18  C   UNL A   1      32.977  21.224  26.046  1.00  0.00     0.319 C 
BRANCH  18  19
ATOM     19  C   UNL A   1      32.729  20.037  25.135  1.00  0.00     0.095 A 
ATOM     20  C   UNL A   1      32.593  16.393  25.520  1.00  0.00     0.067 C 
ATOM     21  C   UNL A   1      32.512  17.742  24.881  1.00  0.00     0.038 A 
ATOM     22  C   UNL A   1      32.305  17.867  23.510  1.00  0.00     0.023 A 
ATOM     23  N   UNL A   1      32.715  18.805  25.695  1.00  0.00    -0.252 NA
ATOM     24  C   UNL A   1      32.326  19.133  22.948  1.00  0.00     0.004 A 
ATOM     25  C   UNL A   1      32.562  20.226  23.767  1.00  0.00     0.030 A 
ENDBRANCH  18  19
ENDBRANCH  15  18
ENDBRANCH  14  15
ENDBRANCH   9  14
ENDBRANCH   7   9
ENDBRANCH   6   7
ENDBRANCH   5   6
ENDBRANCH   4   5
ENDBRANCH   3   4
ENDBRANCH   2   3
ENDBRANCH   1   2
BRANCH   1  26
ATOM     26  O   UNL A   1      34.088  31.835  27.998  1.00  0.00    -0.377 OA
BRANCH  26  27
ATOM     27  C   UNL A   1      34.409  32.616  29.133  1.00  0.00     0.188 C 
BRANCH  27  28
ATOM     28  C   UNL A   1      34.375  34.148  28.984  1.00  0.00     0.188 C 
BRANCH  28  29
ATOM     29  O   UNL A   1      33.089  34.736  29.167  1.00  0.00    -0.376 OA
BRANCH  29  30
ATOM     30  C   UNL A   1      33.035  36.153  29.060  1.00  0.00     0.202 C 
BRANCH  30  31
ATOM     31  C   UNL A   1      32.887  36.866  30.412  1.00  0.00     0.261 C 
BRANCH  31  32
ATOM     32  O   UNL A   1      32.338  36.054  31.459  1.00  0.00    -0.460 OA
BRANCH  32  33
ATOM     33  C   UNL A   1      32.926  36.154  32.673  1.00  0.00     0.338 C 
ATOM     34  O   UNL A   1      32.505  36.731  33.649  1.00  0.00    -0.246 OA
BRANCH  33  35
ATOM     35  C   UNL A   1      34.091  35.242  32.676  1.00  0.00     0.060 A 
ATOM     36  C   UNL A   1      33.920  33.950  33.189  1.00  0.00     0.016 A 
ATOM     37  C   UNL A   1      35.317  35.635  32.131  1.00  0.00     0.016 A 
ATOM     38  C   UNL A   1      34.972  33.038  33.139  1.00  0.00     0.010 A 
ATOM     39  C   UNL A   1      36.388  34.739  32.133  1.00  0.00     0.010 A 
ATOM     40  C   UNL A   1      36.222  33.446  32.655  1.00  0.00    -0.014 A 
BRANCH  40  41
ATOM     41  C   UNL A   1      37.412  32.625  32.970  1.00  0.00     0.031 A 
ATOM     42  C   UNL A   1      38.129  32.933  34.256  1.00  0.00     0.074 A 
ATOM     43  C   UNL A   1      37.836  31.639  32.163  1.00  0.00     0.049 A 
ATOM     44  N   UNL A   1      39.196  32.381  34.769  1.00  0.00    -0.248 NA
ATOM     45  C   UNL A   1      37.555  34.013  35.077  1.00  0.00     0.031 C 
ATOM     46  C   UNL A   1      37.204  31.233  30.911  1.00  0.00     0.029 A 
ATOM     47  N   UNL A   1      38.920  30.804  32.283  1.00  0.00    -0.354 N 
ATOM     48  C   UNL A   1      39.404  33.030  35.978  1.00  0.00     0.074 A 
ATOM     49  C   UNL A   1      38.380  34.041  36.109  1.00  0.00     0.031 C 
ATOM     50  C   UNL A   1      37.926  30.237  30.362  1.00  0.00     0.029 A 
ATOM     51  C   UNL A   1      39.081  29.954  31.215  1.00  0.00     0.049 A 
ATOM     52  H   UNL A   1      39.524  30.812  33.060  1.00  0.00     0.167 HD
ATOM     53  C   UNL A   1      40.360  32.798  36.905  1.00  0.00     0.037 A 
ATOM     54  C   UNL A   1      40.065  29.070  30.957  1.00  0.00     0.037 A 
ATOM     55  C   UNL A   1      41.407  31.829  36.750  1.00  0.00     0.049 A 
ATOM     56  C   UNL A   1      41.179  28.898  31.963  1.00  0.00     0.074 A 
ATOM     57  C   UNL A   1      42.448  31.535  37.611  1.00  0.00     0.029 A 
ATOM     58  N   UNL A   1      41.553  31.005  35.643  1.00  0.00    -0.354 N 
ATOM     59  N   UNL A   1      41.354  29.492  33.120  1.00  0.00    -0.248 NA
ATOM     60  C   UNL A   1      42.233  27.928  31.627  1.00  0.00     0.031 C 
ATOM     61  C   UNL A   1      43.250  30.563  37.005  1.00  0.00     0.029 A 
ATOM     62  C   UNL A   1      42.678  30.213  35.791  1.00  0.00     0.049 A 
ATOM     63  H   UNL A   1      40.946  30.986  34.869  1.00  0.00     0.167 HD
ATOM     64  C   UNL A   1      42.512  28.947  33.661  1.00  0.00     0.074 A 
ATOM     65  C   UNL A   1      42.994  27.967  32.712  1.00  0.00     0.031 C 
ATOM     66  C   UNL A   1      43.126  29.233  34.836  1.00  0.00     0.037 A 
BRANCH  53  67
ATOM     67  C   UNL A   1      40.322  33.634  38.147  1.00  0.00     0.064 A 
ATOM     68  C   UNL A   1      39.474  33.309  39.219  1.00  0.00     0.173 A 
ATOM     69  C   UNL A   1      41.134  34.769  38.270  1.00  0.00     0.173 A 
ATOM     70  F   UNL A   1      38.657  32.248  39.137  1.00  0.00    -0.203 F 
ATOM     71  C   UNL A   1      39.428  34.105  40.359  1.00  0.00     0.198 A 
ATOM     72  C   UNL A   1      41.105  35.548  39.423  1.00  0.00     0.198 A 
ATOM     73  F   UNL A   1      41.954  35.126  37.271  1.00  0.00    -0.203 F 
ATOM     74  F   UNL A   1      38.576  33.806  41.349  1.00  0.00    -0.200 F 
ATOM     75  C   UNL A   1      40.248  35.220  40.464  1.00  0.00     0.200 A 
ATOM     76  F   UNL A   1      41.900  36.621  39.525  1.00  0.00    -0.200 F 
ATOM     77  F   UNL A   1      40.204  35.984  41.564  1.00  0.00    -0.200 F 
ENDBRANCH  53  67
BRANCH  54  78
ATOM     78  C   UNL A   1      40.065  28.292  29.690  1.00  0.00     0.064 A 
ATOM     79  C   UNL A   1      39.434  27.044  29.601  1.00  0.00     0.173 A 
ATOM     80  C   UNL A   1      40.741  28.760  28.553  1.00  0.00     0.173 A 
ATOM     81  F   UNL A   1      38.799  26.538  30.668  1.00  0.00    -0.203 F 
ATOM     82  C   UNL A   1      39.500  26.283  28.434  1.00  0.00     0.198 A 
ATOM     83  C   UNL A   1      40.781  28.012  27.377  1.00  0.00     0.198 A 
ATOM     84  F   UNL A   1      41.368  29.945  28.584  1.00  0.00    -0.203 F 
ATOM     85  F   UNL A   1      38.936  25.068  28.396  1.00  0.00    -0.200 F 
ATOM     86  C   UNL A   1      40.170  26.769  27.322  1.00  0.00     0.200 A 
ATOM     87  F   UNL A   1      41.425  28.490  26.303  1.00  0.00    -0.200 F 
ATOM     88  F   UNL A   1      40.237  26.036  26.203  1.00  0.00    -0.200 F 
ENDBRANCH  54  78
BRANCH  66  89
ATOM     89  C   UNL A   1      44.357  28.447  35.183  1.00  0.00     0.064 A 
ATOM     90  C   UNL A   1      44.283  27.221  35.859  1.00  0.00     0.173 A 
ATOM     91  C   UNL A   1      45.623  28.901  34.779  1.00  0.00     0.173 A 
ATOM     92  F   UNL A   1      43.097  26.751  36.275  1.00  0.00    -0.203 F 
ATOM     93  C   UNL A   1      45.433  26.490  36.139  1.00  0.00     0.198 A 
ATOM     94  C   UNL A   1      46.767  28.151  35.033  1.00  0.00     0.198 A 
ATOM     95  F   UNL A   1      45.746  30.063  34.119  1.00  0.00    -0.203 F 
ATOM     96  F   UNL A   1      45.344  25.341  36.824  1.00  0.00    -0.200 F 
ATOM     97  C   UNL A   1      46.672  26.951  35.719  1.00  0.00     0.200 A 
ATOM     98  F   UNL A   1      47.960  28.591  34.612  1.00  0.00    -0.200 F 
ATOM     99  F   UNL A   1      47.777  26.238  35.980  1.00  0.00    -0.200 F 
ENDBRANCH  66  89
ENDBRANCH  40  41
ENDBRANCH  33  35
ENDBRANCH  32  33
ENDBRANCH  31  32
ENDBRANCH  30  31
ENDBRANCH  29  30
ENDBRANCH  28  29
ENDBRANCH  27  28
ENDBRANCH  26  27
ENDBRANCH   1  26
TORSDOF 24
ENDMDL
