MODEL 1
REMARK VINA RESULT:      -9.8      0.000      0.000
REMARK SMILES COC(=O)[C@@H](C)S(=O)(=O)N(C)c1snc(C)c1C(=O)OCCOCCOCCOCCOC(=O)c1ccc(-c2c3nc(c(-c4c(F)c(F)c(F)c(F)c4F)c4ccc([nH]4)c(-c4c(F)c(F)c(F)c(F)c4F)c4nc(c(-c5c(F)c(F)c(F)c(F)c5F)c5ccc2[nH]5)C=C4)C=C3)cc1
REMARK SMILES IDX 24 1 23 2 22 3 21 4 20 5 18 6 19 7 17 8 12 9 13 10 14 11
REMARK SMILES IDX 15 12 16 13 10 14 11 15 7 16 8 17 9 18 5 19 6 20 3 21 4 22
REMARK SMILES IDX 2 23 1 24 25 25 26 26 27 27 28 28 29 29 30 30 31 31 32 32
REMARK SMILES IDX 33 33 34 34 35 35 36 36 97 37 37 38 96 39 38 40 39 41 40 42
REMARK SMILES IDX 90 43 41 44 95 45 89 46 91 47 42 48 94 49 88 50 87 51 43 53
REMARK SMILES IDX 75 54 55 55 74 56 56 57 59 58 73 59 92 60 57 61 58 62 72 64
REMARK SMILES IDX 93 65 60 66 44 67 45 68 53 69 46 70 47 71 51 72 54 73 48 74
REMARK SMILES IDX 49 75 52 76 50 77 76 78 77 79 85 80 78 81 79 82 83 83 86 84
REMARK SMILES IDX 80 85 81 86 84 87 82 88 61 89 62 90 70 91 63 92 64 93 68 94
REMARK SMILES IDX 71 95 65 96 66 97 69 98 67 99
REMARK H PARENT 91 52 59 63
REMARK Flexibility Score: inf
ROOT
ATOM      1  C   UNL A   1      33.434  32.395  27.289  1.00  0.00     0.188 C 
ENDROOT
BRANCH   1   2
ATOM      2  O   UNL A   1      32.290  31.577  27.273  1.00  0.00    -0.376 OA
BRANCH   2   3
ATOM      3  C   UNL A   1      32.324  30.202  26.974  1.00  0.00     0.202 C 
BRANCH   3   4
ATOM      4  C   UNL A   1      32.844  29.677  25.634  1.00  0.00     0.261 C 
BRANCH   4   5
ATOM      5  O   UNL A   1      32.343  28.400  25.257  1.00  0.00    -0.460 OA
BRANCH   5   6
ATOM      6  C   UNL A   1      31.663  28.350  24.076  1.00  0.00     0.343 C 
ATOM      7  O   UNL A   1      30.896  29.213  23.683  1.00  0.00    -0.246 OA
BRANCH   6   8
ATOM      8  C   UNL A   1      32.122  27.260  23.234  1.00  0.00     0.118 A 
ATOM      9  C   UNL A   1      31.676  25.942  23.232  1.00  0.00     0.140 A 
ATOM     10  S   UNL A   1      32.531  25.110  21.980  1.00  0.00    -0.017 S 
ATOM     11  N   UNL A   1      33.611  26.298  21.656  1.00  0.00    -0.195 NA
ATOM     12  C   UNL A   1      33.313  27.364  22.395  1.00  0.00     0.068 A 
ATOM     13  C   UNL A   1      34.317  28.473  22.372  1.00  0.00     0.069 C 
BRANCH   9  14
ATOM     14  N   UNL A   1      30.752  25.260  24.165  1.00  0.00    -0.261 N 
ATOM     15  C   UNL A   1      29.431  25.946  24.262  1.00  0.00     0.164 C 
BRANCH  14  16
ATOM     16  S   UNL A   1      31.516  24.850  25.644  1.00  0.00     0.249 S 
ATOM     17  O   UNL A   1      30.978  25.747  26.649  1.00  0.00    -0.206 OA
ATOM     18  O   UNL A   1      32.951  24.841  25.429  1.00  0.00    -0.206 OA
BRANCH  16  19
ATOM     19  C   UNL A   1      31.089  23.161  26.072  1.00  0.00     0.236 C 
ATOM     20  C   UNL A   1      29.880  22.915  26.956  1.00  0.00     0.039 C 
BRANCH  19  21
ATOM     21  C   UNL A   1      32.337  22.440  26.481  1.00  0.00     0.325 C 
ATOM     22  O   UNL A   1      33.057  22.809  27.401  1.00  0.00    -0.251 OA
BRANCH  21  23
ATOM     23  O   UNL A   1      32.575  21.343  25.717  1.00  0.00    -0.468 OA
ATOM     24  C   UNL A   1      32.822  21.632  24.339  1.00  0.00     0.282 C 
ENDBRANCH  21  23
ENDBRANCH  19  21
ENDBRANCH  16  19
ENDBRANCH  14  16
ENDBRANCH   9  14
ENDBRANCH   6   8
ENDBRANCH   5   6
ENDBRANCH   4   5
ENDBRANCH   3   4
ENDBRANCH   2   3
ENDBRANCH   1   2
BRANCH   1  25
ATOM     25  C   UNL A   1      34.112  32.600  28.670  1.00  0.00     0.188 C 
BRANCH  25  26
ATOM     26  O   UNL A   1      34.764  33.793  29.074  1.00  0.00    -0.377 OA
BRANCH  26  27
ATOM     27  C   UNL A   1      34.455  35.031  28.466  1.00  0.00     0.188 C 
BRANCH  27  28
ATOM     28  C   UNL A   1      33.109  35.741  28.739  1.00  0.00     0.188 C 
BRANCH  28  29
ATOM     29  O   UNL A   1      32.517  35.611  30.015  1.00  0.00    -0.376 OA
BRANCH  29  30
ATOM     30  C   UNL A   1      32.800  36.382  31.162  1.00  0.00     0.202 C 
BRANCH  30  31
ATOM     31  C   UNL A   1      32.607  35.909  32.594  1.00  0.00     0.261 C 
BRANCH  31  32
ATOM     32  O   UNL A   1      33.160  34.652  32.889  1.00  0.00    -0.460 OA
BRANCH  32  33
ATOM     33  C   UNL A   1      34.422  34.739  33.348  1.00  0.00     0.338 C 
ATOM     34  O   UNL A   1      34.836  35.393  34.282  1.00  0.00    -0.246 OA
BRANCH  33  35
ATOM     35  C   UNL A   1      35.277  34.036  32.399  1.00  0.00     0.060 A 
ATOM     36  C   UNL A   1      35.085  32.660  32.329  1.00  0.00     0.016 A 
ATOM     37  C   UNL A   1      36.477  34.668  32.036  1.00  0.00     0.016 A 
ATOM     38  C   UNL A   1      36.201  31.884  32.159  1.00  0.00     0.010 A 
ATOM     39  C   UNL A   1      37.593  33.892  31.908  1.00  0.00     0.010 A 
ATOM     40  C   UNL A   1      37.449  32.516  32.054  1.00  0.00    -0.014 A 
BRANCH  40  41
ATOM     41  C   UNL A   1      38.602  31.679  31.835  1.00  0.00     0.031 A 
ATOM     42  C   UNL A   1      39.280  31.448  33.126  1.00  0.00     0.074 A 
ATOM     43  C   UNL A   1      38.915  31.149  30.637  1.00  0.00     0.049 A 
ATOM     44  N   UNL A   1      40.385  31.982  33.519  1.00  0.00    -0.248 NA
ATOM     45  C   UNL A   1      38.524  30.785  34.207  1.00  0.00     0.031 C 
ATOM     46  C   UNL A   1      38.088  31.153  29.426  1.00  0.00     0.029 A 
ATOM     47  N   UNL A   1      39.998  30.401  30.271  1.00  0.00    -0.354 N 
ATOM     48  C   UNL A   1      40.607  31.444  34.782  1.00  0.00     0.074 A 
ATOM     49  C   UNL A   1      39.334  30.982  35.249  1.00  0.00     0.031 C 
ATOM     50  C   UNL A   1      38.582  30.255  28.542  1.00  0.00     0.029 A 
ATOM     51  C   UNL A   1      39.831  29.725  29.059  1.00  0.00     0.049 A 
ATOM     52  H   UNL A   1      40.820  30.344  30.810  1.00  0.00     0.167 HD
ATOM     53  C   UNL A   1      41.864  31.026  35.088  1.00  0.00     0.037 A 
ATOM     54  C   UNL A   1      40.654  28.764  28.567  1.00  0.00     0.037 A 
ATOM     55  C   UNL A   1      42.815  31.669  34.211  1.00  0.00     0.049 A 
ATOM     56  C   UNL A   1      41.960  28.912  29.249  1.00  0.00     0.074 A 
ATOM     57  C   UNL A   1      43.374  32.922  34.083  1.00  0.00     0.029 A 
ATOM     58  N   UNL A   1      42.948  31.044  33.000  1.00  0.00    -0.354 N 
ATOM     59  N   UNL A   1      42.760  29.921  29.047  1.00  0.00    -0.248 NA
ATOM     60  C   UNL A   1      42.228  28.126  30.450  1.00  0.00     0.031 C 
ATOM     61  C   UNL A   1      43.803  33.039  32.726  1.00  0.00     0.029 A 
ATOM     62  C   UNL A   1      43.555  31.838  32.071  1.00  0.00     0.049 A 
ATOM     63  H   UNL A   1      42.639  30.126  32.820  1.00  0.00     0.167 HD
ATOM     64  C   UNL A   1      43.326  30.150  30.283  1.00  0.00     0.074 A 
ATOM     65  C   UNL A   1      43.106  28.933  31.051  1.00  0.00     0.031 C 
ATOM     66  C   UNL A   1      43.594  31.423  30.691  1.00  0.00     0.037 A 
BRANCH  53  67
ATOM     67  C   UNL A   1      42.178  29.667  35.705  1.00  0.00     0.064 A 
ATOM     68  C   UNL A   1      43.166  29.612  36.712  1.00  0.00     0.173 A 
ATOM     69  C   UNL A   1      41.807  28.411  35.168  1.00  0.00     0.173 A 
ATOM     70  F   UNL A   1      43.603  30.735  37.301  1.00  0.00    -0.203 F 
ATOM     71  C   UNL A   1      43.791  28.416  37.077  1.00  0.00     0.198 A 
ATOM     72  C   UNL A   1      42.409  27.217  35.562  1.00  0.00     0.198 A 
ATOM     73  F   UNL A   1      40.920  28.269  34.182  1.00  0.00    -0.203 F 
ATOM     74  F   UNL A   1      44.803  28.437  37.956  1.00  0.00    -0.200 F 
ATOM     75  C   UNL A   1      43.421  27.221  36.493  1.00  0.00     0.200 A 
ATOM     76  F   UNL A   1      42.045  26.072  34.965  1.00  0.00    -0.200 F 
ATOM     77  F   UNL A   1      44.058  26.083  36.797  1.00  0.00    -0.200 F 
ENDBRANCH  53  67
BRANCH  54  78
ATOM     78  C   UNL A   1      40.365  27.574  27.732  1.00  0.00     0.064 A 
ATOM     79  C   UNL A   1      41.120  27.302  26.577  1.00  0.00     0.173 A 
ATOM     80  C   UNL A   1      39.578  26.520  28.229  1.00  0.00     0.173 A 
ATOM     81  F   UNL A   1      41.924  28.242  26.058  1.00  0.00    -0.203 F 
ATOM     82  C   UNL A   1      41.127  26.036  25.983  1.00  0.00     0.198 A 
ATOM     83  C   UNL A   1      39.585  25.256  27.634  1.00  0.00     0.198 A 
ATOM     84  F   UNL A   1      38.874  26.668  29.360  1.00  0.00    -0.203 F 
ATOM     85  F   UNL A   1      41.918  25.794  24.929  1.00  0.00    -0.200 F 
ATOM     86  C   UNL A   1      40.372  25.009  26.524  1.00  0.00     0.200 A 
ATOM     87  F   UNL A   1      38.881  24.258  28.189  1.00  0.00    -0.200 F 
ATOM     88  F   UNL A   1      40.439  23.774  26.006  1.00  0.00    -0.200 F 
ENDBRANCH  54  78
BRANCH  66  89
ATOM     89  C   UNL A   1      43.835  32.450  29.635  1.00  0.00     0.064 A 
ATOM     90  C   UNL A   1      42.894  33.394  29.197  1.00  0.00     0.173 A 
ATOM     91  C   UNL A   1      45.120  32.500  29.078  1.00  0.00     0.173 A 
ATOM     92  F   UNL A   1      41.667  33.447  29.735  1.00  0.00    -0.203 F 
ATOM     93  C   UNL A   1      43.227  34.329  28.215  1.00  0.00     0.198 A 
ATOM     94  C   UNL A   1      45.459  33.455  28.129  1.00  0.00     0.198 A 
ATOM     95  F   UNL A   1      46.062  31.634  29.486  1.00  0.00    -0.203 F 
ATOM     96  F   UNL A   1      42.313  35.214  27.792  1.00  0.00    -0.200 F 
ATOM     97  C   UNL A   1      44.510  34.362  27.689  1.00  0.00     0.200 A 
ATOM     98  F   UNL A   1      46.712  33.504  27.656  1.00  0.00    -0.200 F 
ATOM     99  F   UNL A   1      44.840  35.279  26.769  1.00  0.00    -0.200 F 
ENDBRANCH  66  89
ENDBRANCH  40  41
ENDBRANCH  33  35
ENDBRANCH  32  33
ENDBRANCH  31  32
ENDBRANCH  30  31
ENDBRANCH  29  30
ENDBRANCH  28  29
ENDBRANCH  27  28
ENDBRANCH  26  27
ENDBRANCH  25  26
ENDBRANCH   1  25
TORSDOF 25
ENDMDL
MODEL 2
REMARK VINA RESULT:      -9.6      3.833      9.733
REMARK SMILES COC(=O)[C@@H](C)S(=O)(=O)N(C)c1snc(C)c1C(=O)OCCOCCOCCOCCOC(=O)c1ccc(-c2c3nc(c(-c4c(F)c(F)c(F)c(F)c4F)c4ccc([nH]4)c(-c4c(F)c(F)c(F)c(F)c4F)c4nc(c(-c5c(F)c(F)c(F)c(F)c5F)c5ccc2[nH]5)C=C4)C=C3)cc1
REMARK SMILES IDX 24 1 23 2 22 3 21 4 20 5 18 6 19 7 17 8 12 9 13 10 14 11
REMARK SMILES IDX 15 12 16 13 10 14 11 15 7 16 8 17 9 18 5 19 6 20 3 21 4 22
REMARK SMILES IDX 2 23 1 24 25 25 26 26 27 27 28 28 29 29 30 30 31 31 32 32
REMARK SMILES IDX 33 33 34 34 35 35 36 36 97 37 37 38 96 39 38 40 39 41 40 42
REMARK SMILES IDX 90 43 41 44 95 45 89 46 91 47 42 48 94 49 88 50 87 51 43 53
REMARK SMILES IDX 75 54 55 55 74 56 56 57 59 58 73 59 92 60 57 61 58 62 72 64
REMARK SMILES IDX 93 65 60 66 44 67 45 68 53 69 46 70 47 71 51 72 54 73 48 74
REMARK SMILES IDX 49 75 52 76 50 77 76 78 77 79 85 80 78 81 79 82 83 83 86 84
REMARK SMILES IDX 80 85 81 86 84 87 82 88 61 89 62 90 70 91 63 92 64 93 68 94
REMARK SMILES IDX 71 95 65 96 66 97 69 98 67 99
REMARK H PARENT 91 52 59 63
REMARK Flexibility Score: inf
ROOT
ATOM      1  C   UNL A   1      40.643  19.766  26.393  1.00  0.00     0.188 C 
ENDROOT
BRANCH   1   2
ATOM      2  O   UNL A   1      40.489  21.156  26.547  1.00  0.00    -0.376 OA
BRANCH   2   3
ATOM      3  C   UNL A   1      39.249  21.815  26.449  1.00  0.00     0.202 C 
BRANCH   3   4
ATOM      4  C   UNL A   1      38.255  21.508  25.327  1.00  0.00     0.261 C 
BRANCH   4   5
ATOM      5  O   UNL A   1      36.885  21.645  25.688  1.00  0.00    -0.460 OA
BRANCH   5   6
ATOM      6  C   UNL A   1      36.019  21.890  24.665  1.00  0.00     0.343 C 
ATOM      7  O   UNL A   1      36.298  22.521  23.659  1.00  0.00    -0.246 OA
BRANCH   6   8
ATOM      8  C   UNL A   1      34.790  21.129  24.803  1.00  0.00     0.118 A 
ATOM      9  C   UNL A   1      33.549  21.590  25.232  1.00  0.00     0.140 A 
ATOM     10  S   UNL A   1      32.445  20.263  25.134  1.00  0.00    -0.017 S 
ATOM     11  N   UNL A   1      33.559  19.101  24.834  1.00  0.00    -0.195 NA
ATOM     12  C   UNL A   1      34.754  19.673  24.710  1.00  0.00     0.068 A 
ATOM     13  C   UNL A   1      35.918  18.736  24.631  1.00  0.00     0.069 C 
BRANCH   9  14
ATOM     14  N   UNL A   1      33.179  22.903  25.803  1.00  0.00    -0.261 N 
ATOM     15  C   UNL A   1      32.942  22.838  27.275  1.00  0.00     0.164 C 
BRANCH  14  16
ATOM     16  S   UNL A   1      31.984  23.700  24.867  1.00  0.00     0.249 S 
ATOM     17  O   UNL A   1      30.701  23.338  25.438  1.00  0.00    -0.206 OA
ATOM     18  O   UNL A   1      32.224  23.397  23.468  1.00  0.00    -0.206 OA
BRANCH  16  19
ATOM     19  C   UNL A   1      32.215  25.473  25.015  1.00  0.00     0.236 C 
ATOM     20  C   UNL A   1      33.500  25.993  25.634  1.00  0.00     0.039 C 
BRANCH  19  21
ATOM     21  C   UNL A   1      30.956  26.076  25.558  1.00  0.00     0.325 C 
ATOM     22  O   UNL A   1      30.787  26.329  26.745  1.00  0.00    -0.251 OA
BRANCH  21  23
ATOM     23  O   UNL A   1      30.032  26.304  24.590  1.00  0.00    -0.468 OA
ATOM     24  C   UNL A   1      30.524  27.052  23.475  1.00  0.00     0.282 C 
ENDBRANCH  21  23
ENDBRANCH  19  21
ENDBRANCH  16  19
ENDBRANCH  14  16
ENDBRANCH   9  14
ENDBRANCH   6   8
ENDBRANCH   5   6
ENDBRANCH   4   5
ENDBRANCH   3   4
ENDBRANCH   2   3
ENDBRANCH   1   2
BRANCH   1  25
ATOM     25  C   UNL A   1      42.092  19.257  26.171  1.00  0.00     0.188 C 
BRANCH  25  26
ATOM     26  O   UNL A   1      42.998  19.803  25.226  1.00  0.00    -0.377 OA
BRANCH  26  27
ATOM     27  C   UNL A   1      44.184  19.117  24.877  1.00  0.00     0.188 C 
BRANCH  27  28
ATOM     28  C   UNL A   1      45.340  19.840  24.148  1.00  0.00     0.188 C 
BRANCH  28  29
ATOM     29  O   UNL A   1      45.656  21.166  24.519  1.00  0.00    -0.376 OA
BRANCH  29  30
ATOM     30  C   UNL A   1      45.047  22.345  24.041  1.00  0.00     0.202 C 
BRANCH  30  31
ATOM     31  C   UNL A   1      44.778  23.584  24.881  1.00  0.00     0.261 C 
BRANCH  31  32
ATOM     32  O   UNL A   1      43.632  24.312  24.524  1.00  0.00    -0.460 OA
BRANCH  32  33
ATOM     33  C   UNL A   1      42.870  24.629  25.587  1.00  0.00     0.338 C 
ATOM     34  O   UNL A   1      41.983  23.976  26.095  1.00  0.00    -0.246 OA
BRANCH  33  35
ATOM     35  C   UNL A   1      43.169  26.014  25.934  1.00  0.00     0.060 A 
ATOM     36  C   UNL A   1      43.830  26.195  27.145  1.00  0.00     0.016 A 
ATOM     37  C   UNL A   1      42.381  27.005  25.329  1.00  0.00     0.016 A 
ATOM     38  C   UNL A   1      43.470  27.284  27.893  1.00  0.00     0.010 A 
ATOM     39  C   UNL A   1      41.993  28.067  26.093  1.00  0.00     0.010 A 
ATOM     40  C   UNL A   1      42.481  28.145  27.394  1.00  0.00    -0.014 A 
BRANCH  40  41
ATOM     41  C   UNL A   1      42.149  29.306  28.182  1.00  0.00     0.031 A 
ATOM     42  C   UNL A   1      43.231  30.300  28.052  1.00  0.00     0.074 A 
ATOM     43  C   UNL A   1      40.982  29.443  28.842  1.00  0.00     0.049 A 
ATOM     44  N   UNL A   1      44.119  30.589  28.940  1.00  0.00    -0.248 NA
ATOM     45  C   UNL A   1      43.545  30.825  26.708  1.00  0.00     0.031 C 
ATOM     46  C   UNL A   1      39.803  28.579  28.741  1.00  0.00     0.029 A 
ATOM     47  N   UNL A   1      40.563  30.446  29.671  1.00  0.00    -0.354 N 
ATOM     48  C   UNL A   1      44.897  31.581  28.352  1.00  0.00     0.074 A 
ATOM     49  C   UNL A   1      44.695  31.462  26.939  1.00  0.00     0.031 C 
ATOM     50  C   UNL A   1      38.736  29.210  29.285  1.00  0.00     0.029 A 
ATOM     51  C   UNL A   1      39.184  30.447  29.897  1.00  0.00     0.049 A 
ATOM     52  H   UNL A   1      41.176  31.105  30.071  1.00  0.00     0.167 HD
ATOM     53  C   UNL A   1      45.239  32.658  29.108  1.00  0.00     0.037 A 
ATOM     54  C   UNL A   1      38.482  31.438  30.505  1.00  0.00     0.037 A 
ATOM     55  C   UNL A   1      45.129  32.322  30.509  1.00  0.00     0.049 A 
ATOM     56  C   UNL A   1      39.444  32.235  31.300  1.00  0.00     0.074 A 
ATOM     57  C   UNL A   1      45.847  31.583  31.423  1.00  0.00     0.029 A 
ATOM     58  N   UNL A   1      43.855  32.438  30.997  1.00  0.00    -0.354 N 
ATOM     59  N   UNL A   1      40.033  31.782  32.370  1.00  0.00    -0.248 NA
ATOM     60  C   UNL A   1      40.050  33.421  30.701  1.00  0.00     0.031 C 
ATOM     61  C   UNL A   1      44.934  31.217  32.458  1.00  0.00     0.029 A 
ATOM     62  C   UNL A   1      43.696  31.790  32.188  1.00  0.00     0.049 A 
ATOM     63  H   UNL A   1      43.135  32.931  30.540  1.00  0.00     0.167 HD
ATOM     64  C   UNL A   1      41.292  32.340  32.319  1.00  0.00     0.074 A 
ATOM     65  C   UNL A   1      41.193  33.457  31.390  1.00  0.00     0.031 C 
ATOM     66  C   UNL A   1      42.376  31.632  32.746  1.00  0.00     0.037 A 
BRANCH  53  67
ATOM     67  C   UNL A   1      45.079  34.102  28.645  1.00  0.00     0.064 A 
ATOM     68  C   UNL A   1      46.225  34.926  28.647  1.00  0.00     0.173 A 
ATOM     69  C   UNL A   1      43.852  34.793  28.503  1.00  0.00     0.173 A 
ATOM     70  F   UNL A   1      47.449  34.394  28.773  1.00  0.00    -0.203 F 
ATOM     71  C   UNL A   1      46.139  36.322  28.606  1.00  0.00     0.198 A 
ATOM     72  C   UNL A   1      43.775  36.183  28.427  1.00  0.00     0.198 A 
ATOM     73  F   UNL A   1      42.664  34.187  28.520  1.00  0.00    -0.203 F 
ATOM     74  F   UNL A   1      47.252  37.059  28.727  1.00  0.00    -0.200 F 
ATOM     75  C   UNL A   1      44.914  36.949  28.509  1.00  0.00     0.200 A 
ATOM     76  F   UNL A   1      42.570  36.769  28.352  1.00  0.00    -0.200 F 
ATOM     77  F   UNL A   1      44.823  38.285  28.530  1.00  0.00    -0.200 F 
ENDBRANCH  53  67
BRANCH  54  78
ATOM     78  C   UNL A   1      37.096  31.916  30.291  1.00  0.00     0.064 A 
ATOM     79  C   UNL A   1      36.147  31.868  31.328  1.00  0.00     0.173 A 
ATOM     80  C   UNL A   1      36.775  32.723  29.185  1.00  0.00     0.173 A 
ATOM     81  F   UNL A   1      36.389  31.149  32.434  1.00  0.00    -0.203 F 
ATOM     82  C   UNL A   1      34.971  32.625  31.285  1.00  0.00     0.198 A 
ATOM     83  C   UNL A   1      35.600  33.478  29.143  1.00  0.00     0.198 A 
ATOM     84  F   UNL A   1      37.646  32.878  28.178  1.00  0.00    -0.203 F 
ATOM     85  F   UNL A   1      34.129  32.614  32.327  1.00  0.00    -0.200 F 
ATOM     86  C   UNL A   1      34.708  33.442  30.199  1.00  0.00     0.200 A 
ATOM     87  F   UNL A   1      35.374  34.296  28.105  1.00  0.00    -0.200 F 
ATOM     88  F   UNL A   1      33.623  34.230  30.192  1.00  0.00    -0.200 F 
ENDBRANCH  54  78
BRANCH  66  89
ATOM     89  C   UNL A   1      42.147  30.570  33.770  1.00  0.00     0.064 A 
ATOM     90  C   UNL A   1      41.793  29.242  33.489  1.00  0.00     0.173 A 
ATOM     91  C   UNL A   1      42.353  30.923  35.109  1.00  0.00     0.173 A 
ATOM     92  F   UNL A   1      41.645  28.818  32.226  1.00  0.00    -0.203 F 
ATOM     93  C   UNL A   1      41.622  28.317  34.521  1.00  0.00     0.198 A 
ATOM     94  C   UNL A   1      42.221  29.992  36.131  1.00  0.00     0.198 A 
ATOM     95  F   UNL A   1      42.721  32.176  35.424  1.00  0.00    -0.203 F 
ATOM     96  F   UNL A   1      41.265  27.056  34.242  1.00  0.00    -0.200 F 
ATOM     97  C   UNL A   1      41.844  28.692  35.838  1.00  0.00     0.200 A 
ATOM     98  F   UNL A   1      42.476  30.354  37.395  1.00  0.00    -0.200 F 
ATOM     99  F   UNL A   1      41.711  27.797  36.827  1.00  0.00    -0.200 F 
ENDBRANCH  66  89
ENDBRANCH  40  41
ENDBRANCH  33  35
ENDBRANCH  32  33
ENDBRANCH  31  32
ENDBRANCH  30  31
ENDBRANCH  29  30
ENDBRANCH  28  29
ENDBRANCH  27  28
ENDBRANCH  26  27
ENDBRANCH  25  26
ENDBRANCH   1  25
TORSDOF 25
ENDMDL
MODEL 3
REMARK VINA RESULT:      -9.6      2.714      3.916
REMARK SMILES COC(=O)[C@@H](C)S(=O)(=O)N(C)c1snc(C)c1C(=O)OCCOCCOCCOCCOC(=O)c1ccc(-c2c3nc(c(-c4c(F)c(F)c(F)c(F)c4F)c4ccc([nH]4)c(-c4c(F)c(F)c(F)c(F)c4F)c4nc(c(-c5c(F)c(F)c(F)c(F)c5F)c5ccc2[nH]5)C=C4)C=C3)cc1
REMARK SMILES IDX 24 1 23 2 22 3 21 4 20 5 18 6 19 7 17 8 12 9 13 10 14 11
REMARK SMILES IDX 15 12 16 13 10 14 11 15 7 16 8 17 9 18 5 19 6 20 3 21 4 22
REMARK SMILES IDX 2 23 1 24 25 25 26 26 27 27 28 28 29 29 30 30 31 31 32 32
REMARK SMILES IDX 33 33 34 34 35 35 36 36 97 37 37 38 96 39 38 40 39 41 40 42
REMARK SMILES IDX 90 43 41 44 95 45 89 46 91 47 42 48 94 49 88 50 87 51 43 53
REMARK SMILES IDX 75 54 55 55 74 56 56 57 59 58 73 59 92 60 57 61 58 62 72 64
REMARK SMILES IDX 93 65 60 66 44 67 45 68 53 69 46 70 47 71 51 72 54 73 48 74
REMARK SMILES IDX 49 75 52 76 50 77 76 78 77 79 85 80 78 81 79 82 83 83 86 84
REMARK SMILES IDX 80 85 81 86 84 87 82 88 61 89 62 90 70 91 63 92 64 93 68 94
REMARK SMILES IDX 71 95 65 96 66 97 69 98 67 99
REMARK H PARENT 91 52 59 63
REMARK Flexibility Score: inf
ROOT
ATOM      1  C   UNL A   1      35.389  30.719  27.716  1.00  0.00     0.188 C 
ENDROOT
BRANCH   1   2
ATOM      2  O   UNL A   1      34.905  29.624  26.977  1.00  0.00    -0.376 OA
BRANCH   2   3
ATOM      3  C   UNL A   1      33.715  28.941  27.291  1.00  0.00     0.202 C 
BRANCH   3   4
ATOM      4  C   UNL A   1      33.070  27.948  26.322  1.00  0.00     0.261 C 
BRANCH   4   5
ATOM      5  O   UNL A   1      31.660  28.076  26.186  1.00  0.00    -0.460 OA
BRANCH   5   6
ATOM      6  C   UNL A   1      31.005  26.981  25.706  1.00  0.00     0.343 C 
ATOM      7  O   UNL A   1      30.254  26.280  26.363  1.00  0.00    -0.246 OA
BRANCH   6   8
ATOM      8  C   UNL A   1      31.127  26.868  24.263  1.00  0.00     0.118 A 
ATOM      9  C   UNL A   1      31.817  25.897  23.542  1.00  0.00     0.140 A 
ATOM     10  S   UNL A   1      31.563  26.225  21.863  1.00  0.00    -0.017 S 
ATOM     11  N   UNL A   1      30.853  27.688  22.053  1.00  0.00    -0.195 NA
ATOM     12  C   UNL A   1      30.704  27.928  23.354  1.00  0.00     0.068 A 
ATOM     13  C   UNL A   1      30.253  29.309  23.712  1.00  0.00     0.069 C 
BRANCH   9  14
ATOM     14  N   UNL A   1      32.723  24.832  24.026  1.00  0.00    -0.261 N 
ATOM     15  C   UNL A   1      34.158  25.136  23.750  1.00  0.00     0.164 C 
BRANCH  14  16
ATOM     16  S   UNL A   1      32.170  23.269  23.590  1.00  0.00     0.249 S 
ATOM     17  O   UNL A   1      32.906  22.888  22.399  1.00  0.00    -0.206 OA
ATOM     18  O   UNL A   1      30.721  23.299  23.523  1.00  0.00    -0.206 OA
BRANCH  16  19
ATOM     19  C   UNL A   1      32.561  22.124  24.914  1.00  0.00     0.236 C 
ATOM     20  C   UNL A   1      32.220  20.656  24.735  1.00  0.00     0.039 C 
BRANCH  19  21
ATOM     21  C   UNL A   1      32.122  22.726  26.214  1.00  0.00     0.325 C 
ATOM     22  O   UNL A   1      30.970  22.666  26.628  1.00  0.00    -0.251 OA
BRANCH  21  23
ATOM     23  O   UNL A   1      33.138  23.344  26.868  1.00  0.00    -0.468 OA
ATOM     24  C   UNL A   1      34.359  22.600  26.887  1.00  0.00     0.282 C 
ENDBRANCH  21  23
ENDBRANCH  19  21
ENDBRANCH  16  19
ENDBRANCH  14  16
ENDBRANCH   9  14
ENDBRANCH   6   8
ENDBRANCH   5   6
ENDBRANCH   4   5
ENDBRANCH   3   4
ENDBRANCH   2   3
ENDBRANCH   1   2
BRANCH   1  25
ATOM     25  C   UNL A   1      34.382  31.869  27.979  1.00  0.00     0.188 C 
BRANCH  25  26
ATOM     26  O   UNL A   1      34.735  33.240  28.065  1.00  0.00    -0.377 OA
BRANCH  26  27
ATOM     27  C   UNL A   1      33.744  34.237  28.212  1.00  0.00     0.188 C 
BRANCH  27  28
ATOM     28  C   UNL A   1      33.384  34.807  29.603  1.00  0.00     0.188 C 
BRANCH  28  29
ATOM     29  O   UNL A   1      33.661  34.030  30.750  1.00  0.00    -0.376 OA
BRANCH  29  30
ATOM     30  C   UNL A   1      34.567  34.343  31.785  1.00  0.00     0.202 C 
BRANCH  30  31
ATOM     31  C   UNL A   1      36.040  33.963  31.791  1.00  0.00     0.261 C 
BRANCH  31  32
ATOM     32  O   UNL A   1      36.388  32.902  30.940  1.00  0.00    -0.460 OA
BRANCH  32  33
ATOM     33  C   UNL A   1      36.620  31.758  31.612  1.00  0.00     0.338 C 
ATOM     34  O   UNL A   1      36.262  31.461  32.732  1.00  0.00    -0.246 OA
BRANCH  33  35
ATOM     35  C   UNL A   1      37.561  30.976  30.818  1.00  0.00     0.060 A 
ATOM     36  C   UNL A   1      37.290  29.613  30.747  1.00  0.00     0.016 A 
ATOM     37  C   UNL A   1      38.840  31.520  30.630  1.00  0.00     0.016 A 
ATOM     38  C   UNL A   1      38.365  28.764  30.766  1.00  0.00     0.010 A 
ATOM     39  C   UNL A   1      39.909  30.672  30.690  1.00  0.00     0.010 A 
ATOM     40  C   UNL A   1      39.654  29.313  30.841  1.00  0.00    -0.014 A 
BRANCH  40  41
ATOM     41  C   UNL A   1      40.769  28.399  30.818  1.00  0.00     0.031 A 
ATOM     42  C   UNL A   1      41.273  28.222  32.193  1.00  0.00     0.074 A 
ATOM     43  C   UNL A   1      41.186  27.769  29.702  1.00  0.00     0.049 A 
ATOM     44  N   UNL A   1      42.356  28.720  32.684  1.00  0.00    -0.248 NA
ATOM     45  C   UNL A   1      40.354  27.681  33.214  1.00  0.00     0.031 C 
ATOM     46  C   UNL A   1      40.510  27.734  28.402  1.00  0.00     0.029 A 
ATOM     47  N   UNL A   1      42.255  26.938  29.520  1.00  0.00    -0.354 N 
ATOM     48  C   UNL A   1      42.392  28.261  33.996  1.00  0.00     0.074 A 
ATOM     49  C   UNL A   1      41.046  27.906  34.333  1.00  0.00     0.031 C 
ATOM     50  C   UNL A   1      41.047  26.750  27.644  1.00  0.00     0.029 A 
ATOM     51  C   UNL A   1      42.189  26.188  28.342  1.00  0.00     0.049 A 
ATOM     52  H   UNL A   1      43.002  26.873  30.158  1.00  0.00     0.167 HD
ATOM     53  C   UNL A   1      43.575  27.796  34.479  1.00  0.00     0.037 A 
ATOM     54  C   UNL A   1      43.001  25.151  28.016  1.00  0.00     0.037 A 
ATOM     55  C   UNL A   1      44.663  28.321  33.686  1.00  0.00     0.049 A 
ATOM     56  C   UNL A   1      44.224  25.273  28.842  1.00  0.00     0.074 A 
ATOM     57  C   UNL A   1      45.312  29.528  33.548  1.00  0.00     0.029 A 
ATOM     58  N   UNL A   1      44.897  27.606  32.543  1.00  0.00    -0.354 N 
ATOM     59  N   UNL A   1      45.105  26.218  28.675  1.00  0.00    -0.248 NA
ATOM     60  C   UNL A   1      44.298  24.560  30.114  1.00  0.00     0.031 C 
ATOM     61  C   UNL A   1      45.905  29.526  32.249  1.00  0.00     0.029 A 
ATOM     62  C   UNL A   1      45.660  28.297  31.646  1.00  0.00     0.049 A 
ATOM     63  H   UNL A   1      44.553  26.696  32.385  1.00  0.00     0.167 HD
ATOM     64  C   UNL A   1      45.535  26.503  29.954  1.00  0.00     0.074 A 
ATOM     65  C   UNL A   1      45.148  25.356  30.765  1.00  0.00     0.031 C 
ATOM     66  C   UNL A   1      45.834  27.784  30.310  1.00  0.00     0.037 A 
BRANCH  53  67
ATOM     67  C   UNL A   1      43.726  26.468  35.214  1.00  0.00     0.064 A 
ATOM     68  C   UNL A   1      44.361  26.482  36.475  1.00  0.00     0.173 A 
ATOM     69  C   UNL A   1      43.574  25.185  34.640  1.00  0.00     0.173 A 
ATOM     70  F   UNL A   1      44.564  27.637  37.126  1.00  0.00    -0.203 F 
ATOM     71  C   UNL A   1      44.880  25.322  37.060  1.00  0.00     0.198 A 
ATOM     72  C   UNL A   1      44.063  24.027  35.244  1.00  0.00     0.198 A 
ATOM     73  F   UNL A   1      43.035  24.979  33.437  1.00  0.00    -0.203 F 
ATOM     74  F   UNL A   1      45.575  25.409  38.203  1.00  0.00    -0.200 F 
ATOM     75  C   UNL A   1      44.742  24.098  36.438  1.00  0.00     0.200 A 
ATOM     76  F   UNL A   1      43.932  22.852  34.610  1.00  0.00    -0.200 F 
ATOM     77  F   UNL A   1      45.289  22.995  36.965  1.00  0.00    -0.200 F 
ENDBRANCH  53  67
BRANCH  54  78
ATOM     78  C   UNL A   1      42.737  23.922  27.229  1.00  0.00     0.064 A 
ATOM     79  C   UNL A   1      43.224  23.787  25.917  1.00  0.00     0.173 A 
ATOM     80  C   UNL A   1      42.298  22.745  27.859  1.00  0.00     0.173 A 
ATOM     81  F   UNL A   1      43.694  24.856  25.257  1.00  0.00    -0.203 F 
ATOM     82  C   UNL A   1      43.314  22.540  25.290  1.00  0.00     0.198 A 
ATOM     83  C   UNL A   1      42.388  21.499  27.231  1.00  0.00     0.198 A 
ATOM     84  F   UNL A   1      41.876  22.767  29.131  1.00  0.00    -0.203 F 
ATOM     85  F   UNL A   1      43.855  22.442  24.068  1.00  0.00    -0.200 F 
ATOM     86  C   UNL A   1      42.912  21.395  25.956  1.00  0.00     0.200 A 
ATOM     87  F   UNL A   1      42.032  20.393  27.900  1.00  0.00    -0.200 F 
ATOM     88  F   UNL A   1      43.072  20.190  25.389  1.00  0.00    -0.200 F 
ENDBRANCH  54  78
BRANCH  66  89
ATOM     89  C   UNL A   1      46.264  28.718  29.228  1.00  0.00     0.064 A 
ATOM     90  C   UNL A   1      47.569  28.825  28.724  1.00  0.00     0.173 A 
ATOM     91  C   UNL A   1      45.270  29.511  28.641  1.00  0.00     0.173 A 
ATOM     92  F   UNL A   1      48.556  28.047  29.194  1.00  0.00    -0.203 F 
ATOM     93  C   UNL A   1      47.864  29.718  27.693  1.00  0.00     0.198 A 
ATOM     94  C   UNL A   1      45.559  30.371  27.590  1.00  0.00     0.198 A 
ATOM     95  F   UNL A   1      44.000  29.423  29.071  1.00  0.00    -0.203 F 
ATOM     96  F   UNL A   1      49.119  29.824  27.234  1.00  0.00    -0.200 F 
ATOM     97  C   UNL A   1      46.857  30.483  27.124  1.00  0.00     0.200 A 
ATOM     98  F   UNL A   1      44.572  31.077  27.020  1.00  0.00    -0.200 F 
ATOM     99  F   UNL A   1      47.134  31.319  26.112  1.00  0.00    -0.200 F 
ENDBRANCH  66  89
ENDBRANCH  40  41
ENDBRANCH  33  35
ENDBRANCH  32  33
ENDBRANCH  31  32
ENDBRANCH  30  31
ENDBRANCH  29  30
ENDBRANCH  28  29
ENDBRANCH  27  28
ENDBRANCH  26  27
ENDBRANCH  25  26
ENDBRANCH   1  25
TORSDOF 25
ENDMDL
