MODEL 1
REMARK VINA RESULT:     -10.5      0.000      0.000
REMARK SMILES O=C(OCCOCCOCCOCCOC(=O)[C@H](c1c[nH]c2cc(F)ccc12)[NH+]1CC[NH+](CC(=O)N2CCOCC2)CC1)c1ccc(-c2c3nc(c(-c4c(F)c(F)c(F)c(F)c4F)c4ccc([nH]4)c(-c4c(F)c(F)c(F)c(F)c4F)c4nc(c(-c5c(F)c(F)c(F)c(F)c5F)c5ccc2[nH]5)C=C4)C=C3)cc1
REMARK SMILES IDX 10 1 9 2 8 3 7 4 6 5 5 6 4 7 3 8 2 9 1 10 44 11 45 12 106 13
REMARK SMILES IDX 46 14 105 15 47 16 48 17 49 18 99 19 50 20 104 21 98 22
REMARK SMILES IDX 100 23 51 24 103 25 97 26 96 27 52 29 84 30 64 31 83 32
REMARK SMILES IDX 65 33 68 34 82 35 101 36 66 37 67 38 81 40 102 41 69 42
REMARK SMILES IDX 53 43 54 44 62 45 55 46 56 47 60 48 63 49 57 50 58 51 61 52
REMARK SMILES IDX 59 53 85 54 86 55 94 56 87 57 88 58 92 59 95 60 89 61 90 62
REMARK SMILES IDX 93 63 91 64 70 65 71 66 79 67 72 68 73 69 77 70 80 71 74 72
REMARK SMILES IDX 75 73 78 74 76 75 11 76 12 77 13 78 14 79 15 80 16 81 17 82
REMARK SMILES IDX 18 83 29 84 30 85 43 86 31 88 42 89 32 90 33 92 34 93 35 94
REMARK SMILES IDX 36 95 37 96 41 97 38 98 40 99 39 100 19 101 20 102 28 103
REMARK SMILES IDX 21 104 22 105 27 106 23 108 26 109 24 110 25 111
REMARK H PARENT 100 28 68 39 29 87 32 91 21 107
REMARK Flexibility Score: inf
ROOT
ATOM      1  C   UNL A   1      30.931  30.049  24.329  1.00  0.00     0.188 C 
ENDROOT
BRANCH   1   2
ATOM      2  O   UNL A   1      31.775  29.814  25.443  1.00  0.00    -0.377 OA
BRANCH   2   3
ATOM      3  C   UNL A   1      31.606  30.723  26.514  1.00  0.00     0.188 C 
BRANCH   3   4
ATOM      4  C   UNL A   1      32.911  31.199  27.144  1.00  0.00     0.188 C 
BRANCH   4   5
ATOM      5  O   UNL A   1      32.879  32.583  27.510  1.00  0.00    -0.376 OA
BRANCH   5   6
ATOM      6  C   UNL A   1      34.012  33.059  28.242  1.00  0.00     0.202 C 
BRANCH   6   7
ATOM      7  C   UNL A   1      33.897  34.518  28.663  1.00  0.00     0.261 C 
BRANCH   7   8
ATOM      8  O   UNL A   1      32.881  34.744  29.648  1.00  0.00    -0.460 OA
BRANCH   8   9
ATOM      9  C   UNL A   1      33.029  35.064  30.955  1.00  0.00     0.338 C 
ATOM     10  O   UNL A   1      32.139  35.748  31.475  1.00  0.00    -0.246 OA
BRANCH   9  11
ATOM     11  C   UNL A   1      34.172  34.637  31.835  1.00  0.00     0.060 A 
ATOM     12  C   UNL A   1      35.339  35.362  32.094  1.00  0.00     0.016 A 
ATOM     13  C   UNL A   1      34.050  33.369  32.438  1.00  0.00     0.016 A 
ATOM     14  C   UNL A   1      36.382  34.830  32.834  1.00  0.00     0.010 A 
ATOM     15  C   UNL A   1      35.104  32.804  33.158  1.00  0.00     0.010 A 
ATOM     16  C   UNL A   1      36.297  33.517  33.284  1.00  0.00    -0.014 A 
BRANCH  16  17
ATOM     17  C   UNL A   1      37.583  32.838  33.512  1.00  0.00     0.031 A 
ATOM     18  C   UNL A   1      38.217  33.044  34.858  1.00  0.00     0.074 A 
ATOM     19  C   UNL A   1      38.018  31.911  32.646  1.00  0.00     0.049 A 
ATOM     20  N   UNL A   1      39.324  32.553  35.346  1.00  0.00    -0.248 NA
ATOM     21  C   UNL A   1      37.481  33.904  35.806  1.00  0.00     0.031 C 
ATOM     22  C   UNL A   1      37.340  31.531  31.407  1.00  0.00     0.029 A 
ATOM     23  N   UNL A   1      39.107  31.088  32.703  1.00  0.00    -0.354 N 
ATOM     24  C   UNL A   1      39.430  33.077  36.629  1.00  0.00     0.074 A 
ATOM     25  C   UNL A   1      38.280  33.915  36.857  1.00  0.00     0.031 C 
ATOM     26  C   UNL A   1      38.026  30.534  30.823  1.00  0.00     0.029 A 
ATOM     27  C   UNL A   1      39.220  30.258  31.616  1.00  0.00     0.049 A 
ATOM     28  H   UNL A   1      39.748  31.090  33.450  1.00  0.00     0.167 HD
ATOM     29  C   UNL A   1      40.417  32.876  37.531  1.00  0.00     0.037 A 
ATOM     30  C   UNL A   1      40.210  29.403  31.301  1.00  0.00     0.037 A 
ATOM     31  C   UNL A   1      41.544  32.029  37.262  1.00  0.00     0.049 A 
ATOM     32  C   UNL A   1      41.360  29.288  32.268  1.00  0.00     0.074 A 
ATOM     33  C   UNL A   1      42.657  31.789  38.040  1.00  0.00     0.029 A 
ATOM     34  N   UNL A   1      41.689  31.279  36.100  1.00  0.00    -0.354 N 
ATOM     35  N   UNL A   1      41.513  29.852  33.446  1.00  0.00    -0.248 NA
ATOM     36  C   UNL A   1      42.478  28.431  31.863  1.00  0.00     0.031 C 
ATOM     37  C   UNL A   1      43.505  30.938  37.321  1.00  0.00     0.029 A 
ATOM     38  C   UNL A   1      42.886  30.589  36.129  1.00  0.00     0.049 A 
ATOM     39  H   UNL A   1      41.035  31.244  35.364  1.00  0.00     0.167 HD
ATOM     40  C   UNL A   1      42.729  29.397  33.935  1.00  0.00     0.074 A 
ATOM     41  C   UNL A   1      43.261  28.496  32.930  1.00  0.00     0.031 C 
ATOM     42  C   UNL A   1      43.356  29.690  35.103  1.00  0.00     0.037 A 
BRANCH  29  43
ATOM     43  C   UNL A   1      40.353  33.667  38.806  1.00  0.00     0.064 A 
ATOM     44  C   UNL A   1      39.634  33.231  39.929  1.00  0.00     0.173 A 
ATOM     45  C   UNL A   1      40.976  34.923  38.877  1.00  0.00     0.173 A 
ATOM     46  F   UNL A   1      38.987  32.055  39.905  1.00  0.00    -0.203 F 
ATOM     47  C   UNL A   1      39.511  34.038  41.060  1.00  0.00     0.198 A 
ATOM     48  C   UNL A   1      40.877  35.713  40.019  1.00  0.00     0.198 A 
ATOM     49  F   UNL A   1      41.664  35.397  37.828  1.00  0.00    -0.203 F 
ATOM     50  F   UNL A   1      38.757  33.633  42.093  1.00  0.00    -0.200 F 
ATOM     51  C   UNL A   1      40.135  35.275  41.105  1.00  0.00     0.200 A 
ATOM     52  F   UNL A   1      41.482  36.908  40.060  1.00  0.00    -0.200 F 
ATOM     53  F   UNL A   1      40.006  36.055  42.188  1.00  0.00    -0.200 F 
ENDBRANCH  29  43
BRANCH  30  54
ATOM     54  C   UNL A   1      40.181  28.650  30.017  1.00  0.00     0.064 A 
ATOM     55  C   UNL A   1      39.514  27.423  29.904  1.00  0.00     0.173 A 
ATOM     56  C   UNL A   1      40.844  29.133  28.877  1.00  0.00     0.173 A 
ATOM     57  F   UNL A   1      38.880  26.905  30.966  1.00  0.00    -0.203 F 
ATOM     58  C   UNL A   1      39.530  26.699  28.711  1.00  0.00     0.198 A 
ATOM     59  C   UNL A   1      40.830  28.426  27.676  1.00  0.00     0.198 A 
ATOM     60  F   UNL A   1      41.502  30.301  28.926  1.00  0.00    -0.203 F 
ATOM     61  F   UNL A   1      38.929  25.503  28.648  1.00  0.00    -0.200 F 
ATOM     62  C   UNL A   1      40.183  27.204  27.597  1.00  0.00     0.200 A 
ATOM     63  F   UNL A   1      41.451  28.927  26.600  1.00  0.00    -0.200 F 
ATOM     64  F   UNL A   1      40.197  26.509  26.452  1.00  0.00    -0.200 F 
ENDBRANCH  30  54
BRANCH  42  65
ATOM     65  C   UNL A   1      44.648  28.979  35.371  1.00  0.00     0.064 A 
ATOM     66  C   UNL A   1      45.884  29.522  34.994  1.00  0.00     0.173 A 
ATOM     67  C   UNL A   1      44.642  27.754  36.057  1.00  0.00     0.173 A 
ATOM     68  F   UNL A   1      45.937  30.683  34.326  1.00  0.00    -0.203 F 
ATOM     69  C   UNL A   1      47.068  28.843  35.262  1.00  0.00     0.198 A 
ATOM     70  C   UNL A   1      45.830  27.101  36.358  1.00  0.00     0.198 A 
ATOM     71  F   UNL A   1      43.483  27.204  36.448  1.00  0.00    -0.203 F 
ATOM     72  F   UNL A   1      48.235  29.347  34.841  1.00  0.00    -0.200 F 
ATOM     73  C   UNL A   1      47.040  27.638  35.951  1.00  0.00     0.200 A 
ATOM     74  F   UNL A   1      45.802  25.948  37.041  1.00  0.00    -0.200 F 
ATOM     75  F   UNL A   1      48.183  26.992  36.216  1.00  0.00    -0.200 F 
ENDBRANCH  42  65
ENDBRANCH  16  17
ENDBRANCH   9  11
ENDBRANCH   8   9
ENDBRANCH   7   8
ENDBRANCH   6   7
ENDBRANCH   5   6
ENDBRANCH   4   5
ENDBRANCH   3   4
ENDBRANCH   2   3
ENDBRANCH   1   2
BRANCH   1  76
ATOM     76  C   UNL A   1      30.091  28.855  23.773  1.00  0.00     0.188 C 
BRANCH  76  77
ATOM     77  O   UNL A   1      30.647  28.169  22.660  1.00  0.00    -0.376 OA
BRANCH  77  78
ATOM     78  C   UNL A   1      30.732  26.754  22.835  1.00  0.00     0.202 C 
BRANCH  78  79
ATOM     79  C   UNL A   1      31.788  26.321  23.865  1.00  0.00     0.261 C 
BRANCH  79  80
ATOM     80  O   UNL A   1      32.185  24.934  23.714  1.00  0.00    -0.459 OA
BRANCH  80  81
ATOM     81  C   UNL A   1      33.391  24.697  23.142  1.00  0.00     0.370 C 
ATOM     82  O   UNL A   1      33.860  25.539  22.373  1.00  0.00    -0.245 OA
BRANCH  81  83
ATOM     83  C   UNL A   1      34.025  23.282  23.521  1.00  0.00     0.328 C 
BRANCH  83  84
ATOM     84  N   UNL A   1      35.430  23.467  23.903  1.00  0.00    -0.310 N 
ATOM     85  C   UNL A   1      35.816  24.203  25.111  1.00  0.00     0.325 C 
ATOM     86  C   UNL A   1      36.278  22.327  23.638  1.00  0.00     0.325 C 
ATOM     87  H   UNL A   1      35.623  24.203  23.223  1.00  0.00     0.349 HD
ATOM     88  C   UNL A   1      36.501  23.426  26.258  1.00  0.00     0.325 C 
ATOM     89  C   UNL A   1      36.704  21.495  24.864  1.00  0.00     0.325 C 
ATOM     90  N   UNL A   1      37.349  22.287  25.897  1.00  0.00    -0.318 N 
ATOM     91  H   UNL A   1      37.425  21.723  26.743  1.00  0.00     0.348 HD
BRANCH  90  92
ATOM     92  C   UNL A   1      38.766  22.576  25.634  1.00  0.00     0.364 C 
BRANCH  92  93
ATOM     93  C   UNL A   1      39.831  21.627  26.203  1.00  0.00     0.277 C 
ATOM     94  O   UNL A   1      39.502  20.477  26.516  1.00  0.00    -0.268 OA
ATOM     95  N   UNL A   1      41.175  22.031  26.250  1.00  0.00    -0.333 N 
ATOM     96  C   UNL A   1      41.679  23.387  26.546  1.00  0.00     0.148 C 
ATOM     97  C   UNL A   1      42.163  20.986  26.504  1.00  0.00     0.148 C 
ATOM     98  C   UNL A   1      43.112  23.676  26.116  1.00  0.00     0.181 C 
ATOM     99  C   UNL A   1      43.512  21.373  25.900  1.00  0.00     0.181 C 
ATOM    100  O   UNL A   1      43.989  22.602  26.463  1.00  0.00    -0.378 OA
ENDBRANCH  92  93
ENDBRANCH  90  92
ENDBRANCH  83  84
BRANCH  83 101
ATOM    101  C   UNL A   1      33.411  22.283  24.571  1.00  0.00     0.046 A 
ATOM    102  C   UNL A   1      33.404  22.410  25.955  1.00  0.00     0.094 A 
ATOM    103  C   UNL A   1      32.994  20.884  24.331  1.00  0.00     0.009 A 
ATOM    104  N   UNL A   1      33.111  21.202  26.536  1.00  0.00    -0.361 N 
ATOM    105  C   UNL A   1      32.900  20.245  25.575  1.00  0.00     0.049 A 
ATOM    106  C   UNL A   1      32.783  20.074  23.183  1.00  0.00     0.014 A 
ATOM    107  H   UNL A   1      33.056  21.044  27.506  1.00  0.00     0.166 HD
ATOM    108  C   UNL A   1      32.678  18.865  25.728  1.00  0.00     0.065 A 
ATOM    109  C   UNL A   1      32.522  18.696  23.320  1.00  0.00     0.040 A 
ATOM    110  C   UNL A   1      32.492  18.110  24.576  1.00  0.00     0.125 A 
ATOM    111  F   UNL A   1      32.285  16.788  24.685  1.00  0.00    -0.207 F 
ENDBRANCH  83 101
ENDBRANCH  81  83
ENDBRANCH  80  81
ENDBRANCH  79  80
ENDBRANCH  78  79
ENDBRANCH  77  78
ENDBRANCH  76  77
ENDBRANCH   1  76
TORSDOF 24
ENDMDL
MODEL 2
REMARK VINA RESULT:     -10.4      3.669      8.778
REMARK SMILES O=C(OCCOCCOCCOCCOC(=O)[C@H](c1c[nH]c2cc(F)ccc12)[NH+]1CC[NH+](CC(=O)N2CCOCC2)CC1)c1ccc(-c2c3nc(c(-c4c(F)c(F)c(F)c(F)c4F)c4ccc([nH]4)c(-c4c(F)c(F)c(F)c(F)c4F)c4nc(c(-c5c(F)c(F)c(F)c(F)c5F)c5ccc2[nH]5)C=C4)C=C3)cc1
REMARK SMILES IDX 10 1 9 2 8 3 7 4 6 5 5 6 4 7 3 8 2 9 1 10 44 11 45 12 106 13
REMARK SMILES IDX 46 14 105 15 47 16 48 17 49 18 99 19 50 20 104 21 98 22
REMARK SMILES IDX 100 23 51 24 103 25 97 26 96 27 52 29 84 30 64 31 83 32
REMARK SMILES IDX 65 33 68 34 82 35 101 36 66 37 67 38 81 40 102 41 69 42
REMARK SMILES IDX 53 43 54 44 62 45 55 46 56 47 60 48 63 49 57 50 58 51 61 52
REMARK SMILES IDX 59 53 85 54 86 55 94 56 87 57 88 58 92 59 95 60 89 61 90 62
REMARK SMILES IDX 93 63 91 64 70 65 71 66 79 67 72 68 73 69 77 70 80 71 74 72
REMARK SMILES IDX 75 73 78 74 76 75 11 76 12 77 13 78 14 79 15 80 16 81 17 82
REMARK SMILES IDX 18 83 29 84 30 85 43 86 31 88 42 89 32 90 33 92 34 93 35 94
REMARK SMILES IDX 36 95 37 96 41 97 38 98 40 99 39 100 19 101 20 102 28 103
REMARK SMILES IDX 21 104 22 105 27 106 23 108 26 109 24 110 25 111
REMARK H PARENT 100 28 68 39 29 87 32 91 21 107
REMARK Flexibility Score: inf
ROOT
ATOM      1  C   UNL A   1      34.474  32.912  27.760  1.00  0.00     0.188 C 
ENDROOT
BRANCH   1   2
ATOM      2  O   UNL A   1      35.224  33.972  28.327  1.00  0.00    -0.377 OA
BRANCH   2   3
ATOM      3  C   UNL A   1      34.546  35.212  28.382  1.00  0.00     0.188 C 
BRANCH   3   4
ATOM      4  C   UNL A   1      33.291  35.202  29.249  1.00  0.00     0.188 C 
BRANCH   4   5
ATOM      5  O   UNL A   1      33.164  36.379  30.056  1.00  0.00    -0.376 OA
BRANCH   5   6
ATOM      6  C   UNL A   1      32.501  36.202  31.311  1.00  0.00     0.202 C 
BRANCH   6   7
ATOM      7  C   UNL A   1      33.280  36.759  32.496  1.00  0.00     0.261 C 
BRANCH   7   8
ATOM      8  O   UNL A   1      33.941  35.747  33.264  1.00  0.00    -0.460 OA
BRANCH   8   9
ATOM      9  C   UNL A   1      34.051  34.424  33.000  1.00  0.00     0.338 C 
ATOM     10  O   UNL A   1      33.020  33.744  33.070  1.00  0.00    -0.246 OA
BRANCH   9  11
ATOM     11  C   UNL A   1      35.318  33.714  32.605  1.00  0.00     0.060 A 
ATOM     12  C   UNL A   1      35.820  32.534  33.163  1.00  0.00     0.016 A 
ATOM     13  C   UNL A   1      36.073  34.318  31.580  1.00  0.00     0.016 A 
ATOM     14  C   UNL A   1      37.054  32.021  32.800  1.00  0.00     0.010 A 
ATOM     15  C   UNL A   1      37.334  33.834  31.227  1.00  0.00     0.010 A 
ATOM     16  C   UNL A   1      37.847  32.725  31.901  1.00  0.00    -0.014 A 
BRANCH  16  17
ATOM     17  C   UNL A   1      39.295  32.489  32.008  1.00  0.00     0.031 A 
ATOM     18  C   UNL A   1      39.890  31.528  31.017  1.00  0.00     0.074 A 
ATOM     19  C   UNL A   1      40.051  33.272  32.791  1.00  0.00     0.049 A 
ATOM     20  N   UNL A   1      41.129  31.151  30.856  1.00  0.00    -0.248 NA
ATOM     21  C   UNL A   1      38.956  30.928  30.044  1.00  0.00     0.031 C 
ATOM     22  C   UNL A   1      39.546  34.354  33.637  1.00  0.00     0.029 A 
ATOM     23  N   UNL A   1      41.405  33.311  32.963  1.00  0.00    -0.354 N 
ATOM     24  C   UNL A   1      41.110  30.247  29.800  1.00  0.00     0.074 A 
ATOM     25  C   UNL A   1      39.747  30.132  29.347  1.00  0.00     0.031 C 
ATOM     26  C   UNL A   1      40.586  34.962  34.233  1.00  0.00     0.029 A 
ATOM     27  C   UNL A   1      41.814  34.267  33.858  1.00  0.00     0.049 A 
ATOM     28  H   UNL A   1      42.028  32.710  32.492  1.00  0.00     0.167 HD
ATOM     29  C   UNL A   1      42.150  29.567  29.268  1.00  0.00     0.037 A 
ATOM     30  C   UNL A   1      43.048  34.510  34.335  1.00  0.00     0.037 A 
ATOM     31  C   UNL A   1      43.493  29.715  29.750  1.00  0.00     0.049 A 
ATOM     32  C   UNL A   1      44.174  33.655  33.813  1.00  0.00     0.074 A 
ATOM     33  C   UNL A   1      44.634  29.041  29.368  1.00  0.00     0.029 A 
ATOM     34  N   UNL A   1      43.866  30.619  30.740  1.00  0.00    -0.354 N 
ATOM     35  N   UNL A   1      44.149  32.730  32.878  1.00  0.00    -0.248 NA
ATOM     36  C   UNL A   1      45.494  33.862  34.416  1.00  0.00     0.031 C 
ATOM     37  C   UNL A   1      45.688  29.496  30.169  1.00  0.00     0.029 A 
ATOM     38  C   UNL A   1      45.218  30.506  30.998  1.00  0.00     0.049 A 
ATOM     39  H   UNL A   1      43.255  31.247  31.190  1.00  0.00     0.167 HD
ATOM     40  C   UNL A   1      45.451  32.267  32.759  1.00  0.00     0.074 A 
ATOM     41  C   UNL A   1      46.242  33.028  33.709  1.00  0.00     0.031 C 
ATOM     42  C   UNL A   1      45.956  31.305  31.946  1.00  0.00     0.037 A 
BRANCH  29  43
ATOM     43  C   UNL A   1      41.835  28.550  28.209  1.00  0.00     0.064 A 
ATOM     44  C   UNL A   1      41.272  27.299  28.508  1.00  0.00     0.173 A 
ATOM     45  C   UNL A   1      42.166  28.813  26.871  1.00  0.00     0.173 A 
ATOM     46  F   UNL A   1      40.971  26.978  29.775  1.00  0.00    -0.203 F 
ATOM     47  C   UNL A   1      41.089  26.339  27.513  1.00  0.00     0.198 A 
ATOM     48  C   UNL A   1      41.953  27.864  25.876  1.00  0.00     0.198 A 
ATOM     49  F   UNL A   1      42.720  29.986  26.530  1.00  0.00    -0.203 F 
ATOM     50  F   UNL A   1      40.619  25.124  27.834  1.00  0.00    -0.200 F 
ATOM     51  C   UNL A   1      41.425  26.623  26.199  1.00  0.00     0.200 A 
ATOM     52  F   UNL A   1      42.277  28.142  24.605  1.00  0.00    -0.200 F 
ATOM     53  F   UNL A   1      41.259  25.695  25.245  1.00  0.00    -0.200 F 
ENDBRANCH  29  43
BRANCH  30  54
ATOM     54  C   UNL A   1      43.267  35.550  35.377  1.00  0.00     0.064 A 
ATOM     55  C   UNL A   1      43.108  35.265  36.740  1.00  0.00     0.173 A 
ATOM     56  C   UNL A   1      43.619  36.865  35.029  1.00  0.00     0.173 A 
ATOM     57  F   UNL A   1      42.755  34.031  37.129  1.00  0.00    -0.203 F 
ATOM     58  C   UNL A   1      43.269  36.256  37.709  1.00  0.00     0.198 A 
ATOM     59  C   UNL A   1      43.813  37.846  35.999  1.00  0.00     0.198 A 
ATOM     60  F   UNL A   1      43.781  37.198  33.740  1.00  0.00    -0.203 F 
ATOM     61  F   UNL A   1      43.059  35.967  39.000  1.00  0.00    -0.200 F 
ATOM     62  C   UNL A   1      43.627  37.543  37.339  1.00  0.00     0.200 A 
ATOM     63  F   UNL A   1      44.173  39.083  35.635  1.00  0.00    -0.200 F 
ATOM     64  F   UNL A   1      43.781  38.494  38.270  1.00  0.00    -0.200 F 
ENDBRANCH  30  54
BRANCH  42  65
ATOM     65  C   UNL A   1      47.436  31.076  32.012  1.00  0.00     0.064 A 
ATOM     66  C   UNL A   1      48.003  30.151  32.900  1.00  0.00     0.173 A 
ATOM     67  C   UNL A   1      48.290  31.765  31.137  1.00  0.00     0.173 A 
ATOM     68  F   UNL A   1      47.227  29.479  33.764  1.00  0.00    -0.203 F 
ATOM     69  C   UNL A   1      49.380  29.953  32.935  1.00  0.00     0.198 A 
ATOM     70  C   UNL A   1      49.659  31.534  31.148  1.00  0.00     0.198 A 
ATOM     71  F   UNL A   1      47.790  32.650  30.261  1.00  0.00    -0.203 F 
ATOM     72  F   UNL A   1      49.909  29.112  33.833  1.00  0.00    -0.200 F 
ATOM     73  C   UNL A   1      50.205  30.638  32.054  1.00  0.00     0.200 A 
ATOM     74  F   UNL A   1      50.451  32.181  30.282  1.00  0.00    -0.200 F 
ATOM     75  F   UNL A   1      51.529  30.438  32.083  1.00  0.00    -0.200 F 
ENDBRANCH  42  65
ENDBRANCH  16  17
ENDBRANCH   9  11
ENDBRANCH   8   9
ENDBRANCH   7   8
ENDBRANCH   6   7
ENDBRANCH   5   6
ENDBRANCH   4   5
ENDBRANCH   3   4
ENDBRANCH   2   3
ENDBRANCH   1   2
BRANCH   1  76
ATOM     76  C   UNL A   1      35.063  31.467  27.831  1.00  0.00     0.188 C 
BRANCH  76  77
ATOM     77  O   UNL A   1      34.126  30.406  27.703  1.00  0.00    -0.376 OA
BRANCH  77  78
ATOM     78  C   UNL A   1      32.839  30.822  27.245  1.00  0.00     0.202 C 
BRANCH  78  79
ATOM     79  C   UNL A   1      31.913  29.656  26.863  1.00  0.00     0.261 C 
BRANCH  79  80
ATOM     80  O   UNL A   1      32.348  28.388  27.418  1.00  0.00    -0.459 OA
BRANCH  80  81
ATOM     81  C   UNL A   1      31.778  27.267  26.915  1.00  0.00     0.370 C 
ATOM     82  O   UNL A   1      30.778  26.807  27.471  1.00  0.00    -0.245 OA
BRANCH  81  83
ATOM     83  C   UNL A   1      32.549  26.650  25.661  1.00  0.00     0.328 C 
BRANCH  83  84
ATOM     84  N   UNL A   1      32.303  25.204  25.604  1.00  0.00    -0.310 N 
ATOM     85  C   UNL A   1      31.239  24.629  24.774  1.00  0.00     0.325 C 
ATOM     86  C   UNL A   1      33.497  24.391  25.637  1.00  0.00     0.325 C 
ATOM     87  H   UNL A   1      31.825  25.148  26.504  1.00  0.00     0.349 HD
ATOM     88  C   UNL A   1      31.639  23.739  23.576  1.00  0.00     0.325 C 
ATOM     89  C   UNL A   1      33.917  23.741  24.303  1.00  0.00     0.325 C 
ATOM     90  N   UNL A   1      32.863  22.943  23.700  1.00  0.00    -0.318 N 
ATOM     91  H   UNL A   1      33.135  22.709  22.745  1.00  0.00     0.348 HD
BRANCH  90  92
ATOM     92  C   UNL A   1      32.721  21.600  24.279  1.00  0.00     0.364 C 
BRANCH  92  93
ATOM     93  C   UNL A   1      32.379  20.426  23.349  1.00  0.00     0.277 C 
ATOM     94  O   UNL A   1      31.987  20.668  22.201  1.00  0.00    -0.268 OA
ATOM     95  N   UNL A   1      32.626  19.108  23.765  1.00  0.00    -0.333 N 
ATOM     96  C   UNL A   1      32.463  18.569  25.130  1.00  0.00     0.148 C 
ATOM     97  C   UNL A   1      32.573  18.077  22.733  1.00  0.00     0.148 C 
ATOM     98  C   UNL A   1      33.194  17.264  25.424  1.00  0.00     0.181 C 
ATOM     99  C   UNL A   1      33.457  16.892  23.122  1.00  0.00     0.181 C 
ATOM    100  O   UNL A   1      33.026  16.320  24.364  1.00  0.00    -0.378 OA
ENDBRANCH  92  93
ENDBRANCH  90  92
ENDBRANCH  83  84
BRANCH  83 101
ATOM    101  C   UNL A   1      32.415  27.178  24.184  1.00  0.00     0.046 A 
ATOM    102  C   UNL A   1      33.434  27.362  23.257  1.00  0.00     0.094 A 
ATOM    103  C   UNL A   1      31.250  27.864  23.586  1.00  0.00     0.009 A 
ATOM    104  N   UNL A   1      32.995  28.158  22.229  1.00  0.00    -0.361 N 
ATOM    105  C   UNL A   1      31.684  28.515  22.424  1.00  0.00     0.049 A 
ATOM    106  C   UNL A   1      29.896  28.077  23.965  1.00  0.00     0.014 A 
ATOM    107  H   UNL A   1      33.543  28.432  21.458  1.00  0.00     0.166 HD
ATOM    108  C   UNL A   1      30.882  29.396  21.676  1.00  0.00     0.065 A 
ATOM    109  C   UNL A   1      29.068  28.927  23.206  1.00  0.00     0.040 A 
ATOM    110  C   UNL A   1      29.570  29.585  22.094  1.00  0.00     0.125 A 
ATOM    111  F   UNL A   1      28.779  30.424  21.408  1.00  0.00    -0.207 F 
ENDBRANCH  83 101
ENDBRANCH  81  83
ENDBRANCH  80  81
ENDBRANCH  79  80
ENDBRANCH  78  79
ENDBRANCH  77  78
ENDBRANCH  76  77
ENDBRANCH   1  76
TORSDOF 24
ENDMDL
MODEL 3
REMARK VINA RESULT:     -10.1      5.828      9.093
REMARK SMILES O=C(OCCOCCOCCOCCOC(=O)[C@H](c1c[nH]c2cc(F)ccc12)[NH+]1CC[NH+](CC(=O)N2CCOCC2)CC1)c1ccc(-c2c3nc(c(-c4c(F)c(F)c(F)c(F)c4F)c4ccc([nH]4)c(-c4c(F)c(F)c(F)c(F)c4F)c4nc(c(-c5c(F)c(F)c(F)c(F)c5F)c5ccc2[nH]5)C=C4)C=C3)cc1
REMARK SMILES IDX 10 1 9 2 8 3 7 4 6 5 5 6 4 7 3 8 2 9 1 10 44 11 45 12 106 13
REMARK SMILES IDX 46 14 105 15 47 16 48 17 49 18 99 19 50 20 104 21 98 22
REMARK SMILES IDX 100 23 51 24 103 25 97 26 96 27 52 29 84 30 64 31 83 32
REMARK SMILES IDX 65 33 68 34 82 35 101 36 66 37 67 38 81 40 102 41 69 42
REMARK SMILES IDX 53 43 54 44 62 45 55 46 56 47 60 48 63 49 57 50 58 51 61 52
REMARK SMILES IDX 59 53 85 54 86 55 94 56 87 57 88 58 92 59 95 60 89 61 90 62
REMARK SMILES IDX 93 63 91 64 70 65 71 66 79 67 72 68 73 69 77 70 80 71 74 72
REMARK SMILES IDX 75 73 78 74 76 75 11 76 12 77 13 78 14 79 15 80 16 81 17 82
REMARK SMILES IDX 18 83 29 84 30 85 43 86 31 88 42 89 32 90 33 92 34 93 35 94
REMARK SMILES IDX 36 95 37 96 41 97 38 98 40 99 39 100 19 101 20 102 28 103
REMARK SMILES IDX 21 104 22 105 27 106 23 108 26 109 24 110 25 111
REMARK H PARENT 100 28 68 39 29 87 32 91 21 107
REMARK Flexibility Score: inf
ROOT
ATOM      1  C   UNL A   1      31.179  29.254  24.523  1.00  0.00     0.188 C 
ENDROOT
BRANCH   1   2
ATOM      2  O   UNL A   1      32.385  29.228  25.267  1.00  0.00    -0.377 OA
BRANCH   2   3
ATOM      3  C   UNL A   1      32.550  30.310  26.163  1.00  0.00     0.188 C 
BRANCH   3   4
ATOM      4  C   UNL A   1      33.866  30.289  26.935  1.00  0.00     0.188 C 
BRANCH   4   5
ATOM      5  O   UNL A   1      33.890  31.227  28.017  1.00  0.00    -0.376 OA
BRANCH   5   6
ATOM      6  C   UNL A   1      35.190  31.612  28.475  1.00  0.00     0.202 C 
BRANCH   6   7
ATOM      7  C   UNL A   1      35.192  32.186  29.887  1.00  0.00     0.261 C 
BRANCH   7   8
ATOM      8  O   UNL A   1      35.611  31.241  30.879  1.00  0.00    -0.460 OA
BRANCH   8   9
ATOM      9  C   UNL A   1      36.652  31.328  31.741  1.00  0.00     0.338 C 
ATOM     10  O   UNL A   1      36.385  31.506  32.936  1.00  0.00    -0.246 OA
BRANCH   9  11
ATOM     11  C   UNL A   1      38.105  31.202  31.371  1.00  0.00     0.060 A 
ATOM     12  C   UNL A   1      39.197  31.319  32.236  1.00  0.00     0.016 A 
ATOM     13  C   UNL A   1      38.379  30.958  30.010  1.00  0.00     0.016 A 
ATOM     14  C   UNL A   1      40.503  31.294  31.773  1.00  0.00     0.010 A 
ATOM     15  C   UNL A   1      39.687  30.965  29.522  1.00  0.00     0.010 A 
ATOM     16  C   UNL A   1      40.739  31.211  30.406  1.00  0.00    -0.014 A 
BRANCH  16  17
ATOM     17  C   UNL A   1      42.019  31.771  29.945  1.00  0.00     0.031 A 
ATOM     18  C   UNL A   1      43.017  30.792  29.394  1.00  0.00     0.074 A 
ATOM     19  C   UNL A   1      42.167  33.098  29.815  1.00  0.00     0.049 A 
ATOM     20  N   UNL A   1      44.206  30.999  28.896  1.00  0.00    -0.248 NA
ATOM     21  C   UNL A   1      42.603  29.375  29.375  1.00  0.00     0.031 C 
ATOM     22  C   UNL A   1      41.154  34.096  30.158  1.00  0.00     0.029 A 
ATOM     23  N   UNL A   1      43.207  33.829  29.314  1.00  0.00    -0.354 N 
ATOM     24  C   UNL A   1      44.686  29.742  28.546  1.00  0.00     0.074 A 
ATOM     25  C   UNL A   1      43.670  28.776  28.877  1.00  0.00     0.031 C 
ATOM     26  C   UNL A   1      41.621  35.316  29.843  1.00  0.00     0.029 A 
ATOM     27  C   UNL A   1      42.985  35.182  29.341  1.00  0.00     0.049 A 
ATOM     28  H   UNL A   1      44.035  33.423  28.968  1.00  0.00     0.167 HD
ATOM     29  C   UNL A   1      45.885  29.431  28.004  1.00  0.00     0.037 A 
ATOM     30  C   UNL A   1      43.823  36.186  29.025  1.00  0.00     0.037 A 
ATOM     31  C   UNL A   1      46.868  30.428  27.687  1.00  0.00     0.049 A 
ATOM     32  C   UNL A   1      45.198  35.812  28.536  1.00  0.00     0.074 A 
ATOM     33  C   UNL A   1      48.152  30.264  27.209  1.00  0.00     0.029 A 
ATOM     34  N   UNL A   1      46.657  31.796  27.827  1.00  0.00    -0.354 N 
ATOM     35  N   UNL A   1      45.696  34.620  28.289  1.00  0.00    -0.248 NA
ATOM     36  C   UNL A   1      46.134  36.914  28.292  1.00  0.00     0.031 C 
ATOM     37  C   UNL A   1      48.737  31.532  27.115  1.00  0.00     0.029 A 
ATOM     38  C   UNL A   1      47.795  32.490  27.465  1.00  0.00     0.049 A 
ATOM     39  H   UNL A   1      45.819  32.209  28.139  1.00  0.00     0.167 HD
ATOM     40  C   UNL A   1      46.990  34.829  27.835  1.00  0.00     0.074 A 
ATOM     41  C   UNL A   1      47.191  36.266  27.824  1.00  0.00     0.031 C 
ATOM     42  C   UNL A   1      47.931  33.926  27.459  1.00  0.00     0.037 A 
BRANCH  29  43
ATOM     43  C   UNL A   1      46.207  27.974  27.840  1.00  0.00     0.064 A 
ATOM     44  C   UNL A   1      45.912  27.263  26.666  1.00  0.00     0.173 A 
ATOM     45  C   UNL A   1      46.767  27.261  28.911  1.00  0.00     0.173 A 
ATOM     46  F   UNL A   1      45.342  27.885  25.624  1.00  0.00    -0.203 F 
ATOM     47  C   UNL A   1      46.130  25.887  26.587  1.00  0.00     0.198 A 
ATOM     48  C   UNL A   1      47.013  25.894  28.818  1.00  0.00     0.198 A 
ATOM     49  F   UNL A   1      47.056  27.886  30.062  1.00  0.00    -0.203 F 
ATOM     50  F   UNL A   1      45.772  25.216  25.483  1.00  0.00    -0.200 F 
ATOM     51  C   UNL A   1      46.683  25.206  27.660  1.00  0.00     0.200 A 
ATOM     52  F   UNL A   1      47.549  25.238  29.856  1.00  0.00    -0.200 F 
ATOM     53  F   UNL A   1      46.882  23.882  27.586  1.00  0.00    -0.200 F 
ENDBRANCH  29  43
BRANCH  30  54
ATOM     54  C   UNL A   1      43.410  37.604  29.208  1.00  0.00     0.064 A 
ATOM     55  C   UNL A   1      43.781  38.332  30.347  1.00  0.00     0.173 A 
ATOM     56  C   UNL A   1      42.613  38.258  28.254  1.00  0.00     0.173 A 
ATOM     57  F   UNL A   1      44.525  37.752  31.300  1.00  0.00    -0.203 F 
ATOM     58  C   UNL A   1      43.351  39.646  30.535  1.00  0.00     0.198 A 
ATOM     59  C   UNL A   1      42.214  39.582  28.426  1.00  0.00     0.198 A 
ATOM     60  F   UNL A   1      42.225  37.611  27.145  1.00  0.00    -0.203 F 
ATOM     61  F   UNL A   1      43.676  40.300  31.659  1.00  0.00    -0.200 F 
ATOM     62  C   UNL A   1      42.574  40.272  29.573  1.00  0.00     0.200 A 
ATOM     63  F   UNL A   1      41.475  40.184  27.485  1.00  0.00    -0.200 F 
ATOM     64  F   UNL A   1      42.163  41.534  29.754  1.00  0.00    -0.200 F 
ENDBRANCH  30  54
BRANCH  42  65
ATOM     65  C   UNL A   1      49.228  34.478  26.950  1.00  0.00     0.064 A 
ATOM     66  C   UNL A   1      49.365  34.964  25.643  1.00  0.00     0.173 A 
ATOM     67  C   UNL A   1      50.337  34.558  27.807  1.00  0.00     0.173 A 
ATOM     68  F   UNL A   1      48.336  34.896  24.785  1.00  0.00    -0.203 F 
ATOM     69  C   UNL A   1      50.579  35.478  25.200  1.00  0.00     0.198 A 
ATOM     70  C   UNL A   1      51.535  35.110  27.373  1.00  0.00     0.198 A 
ATOM     71  F   UNL A   1      50.249  34.117  29.071  1.00  0.00    -0.203 F 
ATOM     72  F   UNL A   1      50.708  35.882  23.929  1.00  0.00    -0.200 F 
ATOM     73  C   UNL A   1      51.660  35.558  26.067  1.00  0.00     0.200 A 
ATOM     74  F   UNL A   1      52.571  35.205  28.218  1.00  0.00    -0.200 F 
ATOM     75  F   UNL A   1      52.825  36.063  25.640  1.00  0.00    -0.200 F 
ENDBRANCH  42  65
ENDBRANCH  16  17
ENDBRANCH   9  11
ENDBRANCH   8   9
ENDBRANCH   7   8
ENDBRANCH   6   7
ENDBRANCH   5   6
ENDBRANCH   4   5
ENDBRANCH   3   4
ENDBRANCH   2   3
ENDBRANCH   1   2
BRANCH   1  76
ATOM     76  C   UNL A   1      30.303  27.962  24.488  1.00  0.00     0.188 C 
BRANCH  76  77
ATOM     77  O   UNL A   1      30.162  27.340  23.218  1.00  0.00    -0.376 OA
BRANCH  77  78
ATOM     78  C   UNL A   1      30.549  25.966  23.200  1.00  0.00     0.202 C 
BRANCH  78  79
ATOM     79  C   UNL A   1      31.982  25.721  23.699  1.00  0.00     0.261 C 
BRANCH  79  80
ATOM     80  O   UNL A   1      32.384  24.331  23.593  1.00  0.00    -0.459 OA
BRANCH  80  81
ATOM     81  C   UNL A   1      33.617  24.083  23.089  1.00  0.00     0.370 C 
ATOM     82  O   UNL A   1      34.122  24.904  22.320  1.00  0.00    -0.245 OA
BRANCH  81  83
ATOM     83  C   UNL A   1      34.235  22.682  23.538  1.00  0.00     0.328 C 
BRANCH  83  84
ATOM     84  N   UNL A   1      35.649  22.864  23.888  1.00  0.00    -0.310 N 
ATOM     85  C   UNL A   1      36.078  23.819  24.916  1.00  0.00     0.325 C 
ATOM     86  C   UNL A   1      36.430  21.649  23.882  1.00  0.00     0.325 C 
ATOM     87  H   UNL A   1      35.883  23.427  23.069  1.00  0.00     0.349 HD
ATOM     88  C   UNL A   1      36.718  23.268  26.210  1.00  0.00     0.325 C 
ATOM     89  C   UNL A   1      36.809  21.075  25.262  1.00  0.00     0.325 C 
ATOM     90  N   UNL A   1      37.499  22.033  26.109  1.00  0.00    -0.318 N 
ATOM     91  H   UNL A   1      37.543  21.659  27.057  1.00  0.00     0.348 HD
BRANCH  90  92
ATOM     92  C   UNL A   1      38.930  22.179  25.807  1.00  0.00     0.364 C 
BRANCH  92  93
ATOM     93  C   UNL A   1      39.894  22.532  26.949  1.00  0.00     0.277 C 
ATOM     94  O   UNL A   1      40.223  21.648  27.750  1.00  0.00    -0.268 OA
ATOM     95  N   UNL A   1      40.479  23.807  27.004  1.00  0.00    -0.333 N 
ATOM     96  C   UNL A   1      39.838  25.087  26.639  1.00  0.00     0.148 C 
ATOM     97  C   UNL A   1      41.605  23.972  27.918  1.00  0.00     0.148 C 
ATOM     98  C   UNL A   1      40.782  26.252  26.365  1.00  0.00     0.181 C 
ATOM     99  C   UNL A   1      42.522  25.094  27.433  1.00  0.00     0.181 C 
ATOM    100  O   UNL A   1      41.810  26.336  27.355  1.00  0.00    -0.378 OA
ENDBRANCH  92  93
ENDBRANCH  90  92
ENDBRANCH  83  84
BRANCH  83 101
ATOM    101  C   UNL A   1      33.623  21.753  24.652  1.00  0.00     0.046 A 
ATOM    102  C   UNL A   1      33.679  21.936  26.030  1.00  0.00     0.094 A 
ATOM    103  C   UNL A   1      33.135  20.367  24.488  1.00  0.00     0.009 A 
ATOM    104  N   UNL A   1      33.358  20.767  26.671  1.00  0.00    -0.361 N 
ATOM    105  C   UNL A   1      33.066  19.782  25.760  1.00  0.00     0.049 A 
ATOM    106  C   UNL A   1      32.842  19.522  23.383  1.00  0.00     0.014 A 
ATOM    107  H   UNL A   1      33.337  20.650  27.648  1.00  0.00     0.166 HD
ATOM    108  C   UNL A   1      32.790  18.421  25.979  1.00  0.00     0.065 A 
ATOM    109  C   UNL A   1      32.526  18.164  23.588  1.00  0.00     0.040 A 
ATOM    110  C   UNL A   1      32.523  17.630  24.867  1.00  0.00     0.125 A 
ATOM    111  F   UNL A   1      32.264  16.325  25.040  1.00  0.00    -0.207 F 
ENDBRANCH  83 101
ENDBRANCH  81  83
ENDBRANCH  80  81
ENDBRANCH  79  80
ENDBRANCH  78  79
ENDBRANCH  77  78
ENDBRANCH  76  77
ENDBRANCH   1  76
TORSDOF 24
ENDMDL
