MODEL 1
REMARK VINA RESULT:     -10.2      0.000      0.000
REMARK SMILES COc1ccc2c(c1)C=C(C(=O)OCCOCCOCCOCCOC(=O)c1ccc(-c3c4nc(c(-c5c(F)c(F)c(F)c(F)c5F)c5ccc([nH]5)c(-c5c(F)c(F)c(F)c(F)c5F)c5nc(c(-c6c(F)c(F)c(F)c(F)c6F)c6ccc3[nH]6)C=C5)C=C4)cc1)[C@H](C(F)(F)F)O2
REMARK SMILES IDX 20 1 19 2 18 3 17 4 16 5 15 6 14 7 13 8 11 9 12 10 10 11
REMARK SMILES IDX 3 12 4 13 8 14 5 15 7 16 6 17 9 18 96 19 91 20 2 21 1 22
REMARK SMILES IDX 92 23 93 24 94 25 95 26 21 27 22 28 23 29 24 30 25 31 26 32
REMARK SMILES IDX 27 33 28 34 29 35 90 36 30 37 89 38 31 39 32 40 33 41 83 42
REMARK SMILES IDX 34 43 88 44 82 45 84 46 35 47 87 48 81 49 80 50 36 52 68 53
REMARK SMILES IDX 48 54 67 55 49 56 52 57 66 58 85 59 50 60 51 61 65 63 86 64
REMARK SMILES IDX 53 65 37 66 38 67 46 68 39 69 40 70 44 71 47 72 41 73 42 74
REMARK SMILES IDX 45 75 43 76 69 77 70 78 78 79 71 80 72 81 76 82 79 83 73 84
REMARK SMILES IDX 74 85 77 86 75 87 54 88 55 89 63 90 56 91 57 92 61 93 64 94
REMARK SMILES IDX 58 95 59 96 62 97 60 98
REMARK H PARENT 84 51 52 62
REMARK Flexibility Score: inf
ROOT
ATOM      1  C   UNL A   1      31.891  26.485  26.609  1.00  0.00     0.188 C 
ENDROOT
BRANCH   1   2
ATOM      2  O   UNL A   1      30.479  26.301  26.543  1.00  0.00    -0.377 OA
BRANCH   2   3
ATOM      3  C   UNL A   1      29.917  25.606  25.441  1.00  0.00     0.188 C 
BRANCH   3   4
ATOM      4  C   UNL A   1      30.422  25.938  24.022  1.00  0.00     0.188 C 
BRANCH   4   5
ATOM      5  O   UNL A   1      31.037  24.847  23.355  1.00  0.00    -0.376 OA
BRANCH   5   6
ATOM      6  C   UNL A   1      31.921  25.130  22.287  1.00  0.00     0.202 C 
BRANCH   6   7
ATOM      7  C   UNL A   1      33.387  24.712  22.463  1.00  0.00     0.261 C 
BRANCH   7   8
ATOM      8  O   UNL A   1      33.592  23.396  22.999  1.00  0.00    -0.460 OA
BRANCH   8   9
ATOM      9  C   UNL A   1      33.998  23.308  24.285  1.00  0.00     0.338 C 
ATOM     10  O   UNL A   1      33.976  24.206  25.106  1.00  0.00    -0.246 OA
BRANCH   9  11
ATOM     11  C   UNL A   1      34.327  21.901  24.597  1.00  0.00     0.087 C 
ATOM     12  C   UNL A   1      33.163  17.248  25.136  1.00  0.00     0.119 A 
ATOM     13  C   UNL A   1      34.510  16.908  24.985  1.00  0.00     0.050 A 
ATOM     14  C   UNL A   1      32.774  18.592  25.064  1.00  0.00     0.058 A 
ATOM     15  C   UNL A   1      35.468  17.907  24.800  1.00  0.00     0.051 A 
ATOM     16  C   UNL A   1      33.727  19.594  24.860  1.00  0.00     0.021 A 
ATOM     17  C   UNL A   1      35.077  19.241  24.756  1.00  0.00     0.128 A 
ATOM     18  C   UNL A   1      33.344  20.985  24.627  1.00  0.00     0.027 C 
ATOM     19  O   UNL A   1      36.062  20.164  24.523  1.00  0.00    -0.475 OA
ATOM     20  C   UNL A   1      35.744  21.510  24.967  1.00  0.00     0.316 C 
BRANCH  12  21
ATOM     21  O   UNL A   1      32.139  16.354  25.285  1.00  0.00    -0.497 OA
ATOM     22  C   UNL A   1      32.518  14.995  25.473  1.00  0.00     0.278 C 
ENDBRANCH  12  21
BRANCH  20  23
ATOM     23  C   UNL A   1      36.908  22.431  24.562  1.00  0.00     0.430 C 
ATOM     24  F   UNL A   1      36.758  22.908  23.306  1.00  0.00    -0.167 F 
ATOM     25  F   UNL A   1      36.932  23.528  25.367  1.00  0.00    -0.167 F 
ATOM     26  F   UNL A   1      38.113  21.839  24.661  1.00  0.00    -0.167 F 
ENDBRANCH  20  23
ENDBRANCH   9  11
ENDBRANCH   8   9
ENDBRANCH   7   8
ENDBRANCH   6   7
ENDBRANCH   5   6
ENDBRANCH   4   5
ENDBRANCH   3   4
ENDBRANCH   2   3
ENDBRANCH   1   2
BRANCH   1  27
ATOM     27  C   UNL A   1      32.522  27.880  26.844  1.00  0.00     0.188 C 
BRANCH  27  28
ATOM     28  O   UNL A   1      31.629  28.971  26.691  1.00  0.00    -0.376 OA
BRANCH  28  29
ATOM     29  C   UNL A   1      32.156  30.193  26.212  1.00  0.00     0.202 C 
BRANCH  29  30
ATOM     30  C   UNL A   1      32.962  31.029  27.215  1.00  0.00     0.261 C 
BRANCH  30  31
ATOM     31  O   UNL A   1      34.327  30.628  27.413  1.00  0.00    -0.460 OA
BRANCH  31  32
ATOM     32  C   UNL A   1      34.972  31.136  28.484  1.00  0.00     0.338 C 
ATOM     33  O   UNL A   1      34.545  31.946  29.291  1.00  0.00    -0.246 OA
BRANCH  32  34
ATOM     34  C   UNL A   1      36.242  30.396  28.631  1.00  0.00     0.060 A 
ATOM     35  C   UNL A   1      36.492  29.693  29.819  1.00  0.00     0.016 A 
ATOM     36  C   UNL A   1      37.171  30.383  27.589  1.00  0.00     0.016 A 
ATOM     37  C   UNL A   1      37.694  29.003  29.979  1.00  0.00     0.010 A 
ATOM     38  C   UNL A   1      38.384  29.712  27.762  1.00  0.00     0.010 A 
ATOM     39  C   UNL A   1      38.665  29.051  28.970  1.00  0.00    -0.014 A 
BRANCH  39  40
ATOM     40  C   UNL A   1      40.050  28.609  29.261  1.00  0.00     0.031 A 
ATOM     41  C   UNL A   1      40.914  29.511  30.102  1.00  0.00     0.074 A 
ATOM     42  C   UNL A   1      40.525  27.432  28.819  1.00  0.00     0.049 A 
ATOM     43  N   UNL A   1      42.169  29.381  30.445  1.00  0.00    -0.248 NA
ATOM     44  C   UNL A   1      40.270  30.728  30.621  1.00  0.00     0.031 C 
ATOM     45  C   UNL A   1      39.770  26.453  28.043  1.00  0.00     0.029 A 
ATOM     46  N   UNL A   1      41.770  26.869  28.958  1.00  0.00    -0.354 N 
ATOM     47  C   UNL A   1      42.462  30.496  31.220  1.00  0.00     0.074 A 
ATOM     48  C   UNL A   1      41.270  31.313  31.261  1.00  0.00     0.031 C 
ATOM     49  C   UNL A   1      40.573  25.409  27.765  1.00  0.00     0.029 A 
ATOM     50  C   UNL A   1      41.905  25.666  28.311  1.00  0.00     0.049 A 
ATOM     51  H   UNL A   1      42.497  27.289  29.472  1.00  0.00     0.167 HD
ATOM     52  C   UNL A   1      43.619  30.805  31.854  1.00  0.00     0.037 A 
ATOM     53  C   UNL A   1      42.990  24.880  28.161  1.00  0.00     0.037 A 
ATOM     54  C   UNL A   1      44.807  29.996  31.800  1.00  0.00     0.049 A 
ATOM     55  C   UNL A   1      44.296  25.300  28.790  1.00  0.00     0.074 A 
ATOM     56  C   UNL A   1      46.034  30.224  32.397  1.00  0.00     0.029 A 
ATOM     57  N   UNL A   1      44.918  28.803  31.101  1.00  0.00    -0.354 N 
ATOM     58  N   UNL A   1      44.565  26.346  29.534  1.00  0.00    -0.248 NA
ATOM     59  C   UNL A   1      45.454  24.422  28.560  1.00  0.00     0.031 C 
ATOM     60  C   UNL A   1      46.903  29.199  32.014  1.00  0.00     0.029 A 
ATOM     61  C   UNL A   1      46.200  28.295  31.234  1.00  0.00     0.049 A 
ATOM     62  H   UNL A   1      44.192  28.380  30.587  1.00  0.00     0.167 HD
ATOM     63  C   UNL A   1      45.903  26.230  29.893  1.00  0.00     0.074 A 
ATOM     64  C   UNL A   1      46.389  25.005  29.296  1.00  0.00     0.031 C 
ATOM     65  C   UNL A   1      46.662  27.061  30.651  1.00  0.00     0.037 A 
BRANCH  52  66
ATOM     66  C   UNL A   1      43.657  32.083  32.639  1.00  0.00     0.064 A 
ATOM     67  C   UNL A   1      44.071  33.292  32.059  1.00  0.00     0.173 A 
ATOM     68  C   UNL A   1      43.249  32.107  33.981  1.00  0.00     0.173 A 
ATOM     69  F   UNL A   1      44.487  33.323  30.784  1.00  0.00    -0.203 F 
ATOM     70  C   UNL A   1      44.099  34.471  32.801  1.00  0.00     0.198 A 
ATOM     71  C   UNL A   1      43.246  33.292  34.710  1.00  0.00     0.198 A 
ATOM     72  F   UNL A   1      42.843  30.979  34.585  1.00  0.00    -0.203 F 
ATOM     73  F   UNL A   1      44.547  35.602  32.240  1.00  0.00    -0.200 F 
ATOM     74  C   UNL A   1      43.679  34.471  34.123  1.00  0.00     0.200 A 
ATOM     75  F   UNL A   1      42.828  33.294  35.983  1.00  0.00    -0.200 F 
ATOM     76  F   UNL A   1      43.698  35.608  34.832  1.00  0.00    -0.200 F 
ENDBRANCH  52  66
BRANCH  53  77
ATOM     77  C   UNL A   1      42.905  23.620  27.373  1.00  0.00     0.064 A 
ATOM     78  C   UNL A   1      42.393  22.445  27.942  1.00  0.00     0.173 A 
ATOM     79  C   UNL A   1      43.383  23.549  26.056  1.00  0.00     0.173 A 
ATOM     80  F   UNL A   1      41.949  22.451  29.207  1.00  0.00    -0.203 F 
ATOM     81  C   UNL A   1      42.392  21.242  27.237  1.00  0.00     0.198 A 
ATOM     82  C   UNL A   1      43.349  22.354  25.339  1.00  0.00     0.198 A 
ATOM     83  F   UNL A   1      43.887  24.641  25.464  1.00  0.00    -0.203 F 
ATOM     84  F   UNL A   1      41.958  20.121  27.829  1.00  0.00    -0.200 F 
ATOM     85  C   UNL A   1      42.866  21.199  25.934  1.00  0.00     0.200 A 
ATOM     86  F   UNL A   1      43.797  22.320  24.077  1.00  0.00    -0.200 F 
ATOM     87  F   UNL A   1      42.870  20.042  25.259  1.00  0.00    -0.200 F 
ENDBRANCH  53  77
BRANCH  65  88
ATOM     88  C   UNL A   1      48.079  26.646  30.932  1.00  0.00     0.064 A 
ATOM     89  C   UNL A   1      49.149  27.058  30.123  1.00  0.00     0.173 A 
ATOM     90  C   UNL A   1      48.373  25.855  32.054  1.00  0.00     0.173 A 
ATOM     91  F   UNL A   1      48.922  27.805  29.032  1.00  0.00    -0.203 F 
ATOM     92  C   UNL A   1      50.454  26.665  30.408  1.00  0.00     0.198 A 
ATOM     93  C   UNL A   1      49.683  25.495  32.356  1.00  0.00     0.198 A 
ATOM     94  F   UNL A   1      47.390  25.442  32.867  1.00  0.00    -0.203 F 
ATOM     95  F   UNL A   1      51.453  27.022  29.589  1.00  0.00    -0.200 F 
ATOM     96  C   UNL A   1      50.722  25.892  31.528  1.00  0.00     0.200 A 
ATOM     97  F   UNL A   1      49.941  24.764  33.450  1.00  0.00    -0.200 F 
ATOM     98  F   UNL A   1      51.979  25.522  31.806  1.00  0.00    -0.200 F 
ENDBRANCH  65  88
ENDBRANCH  39  40
ENDBRANCH  32  34
ENDBRANCH  31  32
ENDBRANCH  30  31
ENDBRANCH  29  30
ENDBRANCH  28  29
ENDBRANCH  27  28
ENDBRANCH   1  27
TORSDOF 22
ENDMDL
MODEL 2
REMARK VINA RESULT:     -10.2      3.438      5.244
REMARK SMILES COc1ccc2c(c1)C=C(C(=O)OCCOCCOCCOCCOC(=O)c1ccc(-c3c4nc(c(-c5c(F)c(F)c(F)c(F)c5F)c5ccc([nH]5)c(-c5c(F)c(F)c(F)c(F)c5F)c5nc(c(-c6c(F)c(F)c(F)c(F)c6F)c6ccc3[nH]6)C=C5)C=C4)cc1)[C@H](C(F)(F)F)O2
REMARK SMILES IDX 20 1 19 2 18 3 17 4 16 5 15 6 14 7 13 8 11 9 12 10 10 11
REMARK SMILES IDX 3 12 4 13 8 14 5 15 7 16 6 17 9 18 96 19 91 20 2 21 1 22
REMARK SMILES IDX 92 23 93 24 94 25 95 26 21 27 22 28 23 29 24 30 25 31 26 32
REMARK SMILES IDX 27 33 28 34 29 35 90 36 30 37 89 38 31 39 32 40 33 41 83 42
REMARK SMILES IDX 34 43 88 44 82 45 84 46 35 47 87 48 81 49 80 50 36 52 68 53
REMARK SMILES IDX 48 54 67 55 49 56 52 57 66 58 85 59 50 60 51 61 65 63 86 64
REMARK SMILES IDX 53 65 37 66 38 67 46 68 39 69 40 70 44 71 47 72 41 73 42 74
REMARK SMILES IDX 45 75 43 76 69 77 70 78 78 79 71 80 72 81 76 82 79 83 73 84
REMARK SMILES IDX 74 85 77 86 75 87 54 88 55 89 63 90 56 91 57 92 61 93 64 94
REMARK SMILES IDX 58 95 59 96 62 97 60 98
REMARK H PARENT 84 51 52 62
REMARK Flexibility Score: inf
ROOT
ATOM      1  C   UNL A   1      33.227  28.282  26.391  1.00  0.00     0.188 C 
ENDROOT
BRANCH   1   2
ATOM      2  O   UNL A   1      32.108  27.827  25.634  1.00  0.00    -0.377 OA
BRANCH   2   3
ATOM      3  C   UNL A   1      31.737  28.519  24.452  1.00  0.00     0.188 C 
BRANCH   3   4
ATOM      4  C   UNL A   1      30.368  28.211  23.812  1.00  0.00     0.188 C 
BRANCH   4   5
ATOM      5  O   UNL A   1      30.445  27.739  22.477  1.00  0.00    -0.376 OA
BRANCH   5   6
ATOM      6  C   UNL A   1      31.465  26.813  22.153  1.00  0.00     0.202 C 
BRANCH   6   7
ATOM      7  C   UNL A   1      31.460  25.475  22.905  1.00  0.00     0.261 C 
BRANCH   7   8
ATOM      8  O   UNL A   1      32.744  25.015  23.351  1.00  0.00    -0.460 OA
BRANCH   8   9
ATOM      9  C   UNL A   1      32.794  24.383  24.545  1.00  0.00     0.338 C 
ATOM     10  O   UNL A   1      32.005  24.521  25.461  1.00  0.00    -0.246 OA
BRANCH   9  11
ATOM     11  C   UNL A   1      33.869  23.369  24.516  1.00  0.00     0.087 C 
ATOM     12  C   UNL A   1      38.329  21.825  25.524  1.00  0.00     0.119 A 
ATOM     13  C   UNL A   1      37.895  20.507  25.359  1.00  0.00     0.050 A 
ATOM     14  C   UNL A   1      37.422  22.880  25.366  1.00  0.00     0.058 A 
ATOM     15  C   UNL A   1      36.571  20.246  25.001  1.00  0.00     0.051 A 
ATOM     16  C   UNL A   1      36.090  22.622  25.026  1.00  0.00     0.021 A 
ATOM     17  C   UNL A   1      35.682  21.300  24.820  1.00  0.00     0.128 A 
ATOM     18  C   UNL A   1      35.083  23.680  25.003  1.00  0.00     0.027 C 
ATOM     19  O   UNL A   1      34.388  20.968  24.518  1.00  0.00    -0.475 OA
ATOM     20  C   UNL A   1      33.633  22.022  23.861  1.00  0.00     0.316 C 
BRANCH  12  21
ATOM     21  O   UNL A   1      39.589  22.195  25.908  1.00  0.00    -0.497 OA
ATOM     22  C   UNL A   1      40.347  21.208  26.599  1.00  0.00     0.278 C 
ENDBRANCH  12  21
BRANCH  20  23
ATOM     23  C   UNL A   1      32.192  21.523  23.667  1.00  0.00     0.430 C 
ATOM     24  F   UNL A   1      32.154  20.217  23.318  1.00  0.00    -0.167 F 
ATOM     25  F   UNL A   1      31.512  21.604  24.843  1.00  0.00    -0.167 F 
ATOM     26  F   UNL A   1      31.500  22.236  22.758  1.00  0.00    -0.167 F 
ENDBRANCH  20  23
ENDBRANCH   9  11
ENDBRANCH   8   9
ENDBRANCH   7   8
ENDBRANCH   6   7
ENDBRANCH   5   6
ENDBRANCH   4   5
ENDBRANCH   3   4
ENDBRANCH   2   3
ENDBRANCH   1   2
BRANCH   1  27
ATOM     27  C   UNL A   1      33.481  29.789  26.644  1.00  0.00     0.188 C 
BRANCH  27  28
ATOM     28  O   UNL A   1      32.390  30.488  27.221  1.00  0.00    -0.376 OA
BRANCH  28  29
ATOM     29  C   UNL A   1      31.891  31.618  26.530  1.00  0.00     0.202 C 
BRANCH  29  30
ATOM     30  C   UNL A   1      31.830  32.931  27.322  1.00  0.00     0.261 C 
BRANCH  30  31
ATOM     31  O   UNL A   1      33.038  33.709  27.341  1.00  0.00    -0.460 OA
BRANCH  31  32
ATOM     32  C   UNL A   1      33.213  34.554  28.378  1.00  0.00     0.338 C 
ATOM     33  O   UNL A   1      32.504  35.496  28.694  1.00  0.00    -0.246 OA
BRANCH  32  34
ATOM     34  C   UNL A   1      34.325  34.030  29.197  1.00  0.00     0.060 A 
ATOM     35  C   UNL A   1      35.646  34.330  28.833  1.00  0.00     0.016 A 
ATOM     36  C   UNL A   1      34.059  33.258  30.330  1.00  0.00     0.016 A 
ATOM     37  C   UNL A   1      36.707  33.827  29.586  1.00  0.00     0.010 A 
ATOM     38  C   UNL A   1      35.124  32.735  31.068  1.00  0.00     0.010 A 
ATOM     39  C   UNL A   1      36.451  32.987  30.678  1.00  0.00    -0.014 A 
BRANCH  39  40
ATOM     40  C   UNL A   1      37.554  32.194  31.270  1.00  0.00     0.031 A 
ATOM     41  C   UNL A   1      38.057  32.594  32.630  1.00  0.00     0.074 A 
ATOM     42  C   UNL A   1      38.081  31.133  30.636  1.00  0.00     0.049 A 
ATOM     43  N   UNL A   1      39.044  32.103  33.333  1.00  0.00    -0.248 NA
ATOM     44  C   UNL A   1      37.347  33.706  33.284  1.00  0.00     0.031 C 
ATOM     45  C   UNL A   1      37.646  30.617  29.341  1.00  0.00     0.029 A 
ATOM     46  N   UNL A   1      39.112  30.302  31.002  1.00  0.00    -0.354 N 
ATOM     47  C   UNL A   1      39.072  32.843  34.508  1.00  0.00     0.074 A 
ATOM     48  C   UNL A   1      38.034  33.843  34.407  1.00  0.00     0.031 C 
ATOM     49  C   UNL A   1      38.412  29.560  29.015  1.00  0.00     0.029 A 
ATOM     50  C   UNL A   1      39.414  29.350  30.060  1.00  0.00     0.049 A 
ATOM     51  H   UNL A   1      39.590  30.382  31.859  1.00  0.00     0.167 HD
ATOM     52  C   UNL A   1      39.882  32.692  35.583  1.00  0.00     0.037 A 
ATOM     53  C   UNL A   1      40.402  28.434  30.039  1.00  0.00     0.037 A 
ATOM     54  C   UNL A   1      40.923  31.704  35.675  1.00  0.00     0.049 A 
ATOM     55  C   UNL A   1      41.359  28.356  31.205  1.00  0.00     0.074 A 
ATOM     56  C   UNL A   1      41.806  31.475  36.714  1.00  0.00     0.029 A 
ATOM     57  N   UNL A   1      41.225  30.783  34.683  1.00  0.00    -0.354 N 
ATOM     58  N   UNL A   1      41.372  29.047  32.320  1.00  0.00    -0.248 NA
ATOM     59  C   UNL A   1      42.439  27.364  31.110  1.00  0.00     0.031 C 
ATOM     60  C   UNL A   1      42.678  30.452  36.329  1.00  0.00     0.029 A 
ATOM     61  C   UNL A   1      42.296  29.997  35.077  1.00  0.00     0.049 A 
ATOM     62  H   UNL A   1      40.748  30.699  33.825  1.00  0.00     0.167 HD
ATOM     63  C   UNL A   1      42.429  28.546  33.071  1.00  0.00     0.074 A 
ATOM     64  C   UNL A   1      43.027  27.484  32.291  1.00  0.00     0.031 C 
ATOM     65  C   UNL A   1      42.865  28.928  34.297  1.00  0.00     0.037 A 
BRANCH  52  66
ATOM     66  C   UNL A   1      39.686  33.635  36.734  1.00  0.00     0.064 A 
ATOM     67  C   UNL A   1      40.320  34.887  36.777  1.00  0.00     0.173 A 
ATOM     68  C   UNL A   1      38.833  33.296  37.795  1.00  0.00     0.173 A 
ATOM     69  F   UNL A   1      41.159  35.254  35.797  1.00  0.00    -0.203 F 
ATOM     70  C   UNL A   1      40.127  35.752  37.852  1.00  0.00     0.198 A 
ATOM     71  C   UNL A   1      38.616  34.177  38.851  1.00  0.00     0.198 A 
ATOM     72  F   UNL A   1      38.202  32.112  37.804  1.00  0.00    -0.203 F 
ATOM     73  F   UNL A   1      40.783  36.919  37.897  1.00  0.00    -0.200 F 
ATOM     74  C   UNL A   1      39.269  35.399  38.883  1.00  0.00     0.200 A 
ATOM     75  F   UNL A   1      37.776  33.841  39.840  1.00  0.00    -0.200 F 
ATOM     76  F   UNL A   1      39.077  36.237  39.912  1.00  0.00    -0.200 F 
ENDBRANCH  52  66
BRANCH  53  77
ATOM     77  C   UNL A   1      40.559  27.519  28.876  1.00  0.00     0.064 A 
ATOM     78  C   UNL A   1      39.813  26.334  28.784  1.00  0.00     0.173 A 
ATOM     79  C   UNL A   1      41.492  27.780  27.862  1.00  0.00     0.173 A 
ATOM     80  F   UNL A   1      38.927  26.024  29.740  1.00  0.00    -0.203 F 
ATOM     81  C   UNL A   1      40.018  25.432  27.740  1.00  0.00     0.198 A 
ATOM     82  C   UNL A   1      41.672  26.894  26.801  1.00  0.00     0.198 A 
ATOM     83  F   UNL A   1      42.235  28.894  27.903  1.00  0.00    -0.203 F 
ATOM     84  F   UNL A   1      39.339  24.277  27.713  1.00  0.00    -0.200 F 
ATOM     85  C   UNL A   1      40.945  25.715  26.748  1.00  0.00     0.200 A 
ATOM     86  F   UNL A   1      42.560  27.177  25.839  1.00  0.00    -0.200 F 
ATOM     87  F   UNL A   1      41.146  24.845  25.749  1.00  0.00    -0.200 F 
ENDBRANCH  53  77
BRANCH  65  88
ATOM     88  C   UNL A   1      44.004  28.156  34.902  1.00  0.00     0.064 A 
ATOM     89  C   UNL A   1      43.797  26.991  35.657  1.00  0.00     0.173 A 
ATOM     90  C   UNL A   1      45.329  28.568  34.687  1.00  0.00     0.173 A 
ATOM     91  F   UNL A   1      42.551  26.559  35.902  1.00  0.00    -0.203 F 
ATOM     92  C   UNL A   1      44.870  26.290  36.201  1.00  0.00     0.198 A 
ATOM     93  C   UNL A   1      46.400  27.844  35.202  1.00  0.00     0.198 A 
ATOM     94  F   UNL A   1      45.586  29.669  33.964  1.00  0.00    -0.203 F 
ATOM     95  F   UNL A   1      44.644  25.214  36.967  1.00  0.00    -0.200 F 
ATOM     96  C   UNL A   1      46.170  26.711  35.967  1.00  0.00     0.200 A 
ATOM     97  F   UNL A   1      47.657  28.243  34.958  1.00  0.00    -0.200 F 
ATOM     98  F   UNL A   1      47.201  26.030  36.484  1.00  0.00    -0.200 F 
ENDBRANCH  65  88
ENDBRANCH  39  40
ENDBRANCH  32  34
ENDBRANCH  31  32
ENDBRANCH  30  31
ENDBRANCH  29  30
ENDBRANCH  28  29
ENDBRANCH  27  28
ENDBRANCH   1  27
TORSDOF 22
ENDMDL
MODEL 3
REMARK VINA RESULT:     -10.1      4.092      9.626
REMARK SMILES COc1ccc2c(c1)C=C(C(=O)OCCOCCOCCOCCOC(=O)c1ccc(-c3c4nc(c(-c5c(F)c(F)c(F)c(F)c5F)c5ccc([nH]5)c(-c5c(F)c(F)c(F)c(F)c5F)c5nc(c(-c6c(F)c(F)c(F)c(F)c6F)c6ccc3[nH]6)C=C5)C=C4)cc1)[C@H](C(F)(F)F)O2
REMARK SMILES IDX 20 1 19 2 18 3 17 4 16 5 15 6 14 7 13 8 11 9 12 10 10 11
REMARK SMILES IDX 3 12 4 13 8 14 5 15 7 16 6 17 9 18 96 19 91 20 2 21 1 22
REMARK SMILES IDX 92 23 93 24 94 25 95 26 21 27 22 28 23 29 24 30 25 31 26 32
REMARK SMILES IDX 27 33 28 34 29 35 90 36 30 37 89 38 31 39 32 40 33 41 83 42
REMARK SMILES IDX 34 43 88 44 82 45 84 46 35 47 87 48 81 49 80 50 36 52 68 53
REMARK SMILES IDX 48 54 67 55 49 56 52 57 66 58 85 59 50 60 51 61 65 63 86 64
REMARK SMILES IDX 53 65 37 66 38 67 46 68 39 69 40 70 44 71 47 72 41 73 42 74
REMARK SMILES IDX 45 75 43 76 69 77 70 78 78 79 71 80 72 81 76 82 79 83 73 84
REMARK SMILES IDX 74 85 77 86 75 87 54 88 55 89 63 90 56 91 57 92 61 93 64 94
REMARK SMILES IDX 58 95 59 96 62 97 60 98
REMARK H PARENT 84 51 52 62
REMARK Flexibility Score: inf
ROOT
ATOM      1  C   UNL A   1      40.994  21.487  26.179  1.00  0.00     0.188 C 
ENDROOT
BRANCH   1   2
ATOM      2  O   UNL A   1      40.107  22.433  26.771  1.00  0.00    -0.377 OA
BRANCH   2   3
ATOM      3  C   UNL A   1      38.726  22.390  26.449  1.00  0.00     0.188 C 
BRANCH   3   4
ATOM      4  C   UNL A   1      37.999  23.713  26.133  1.00  0.00     0.188 C 
BRANCH   4   5
ATOM      5  O   UNL A   1      37.311  23.714  24.892  1.00  0.00    -0.376 OA
BRANCH   5   6
ATOM      6  C   UNL A   1      35.896  23.750  24.912  1.00  0.00     0.202 C 
BRANCH   6   7
ATOM      7  C   UNL A   1      35.162  23.054  23.758  1.00  0.00     0.261 C 
BRANCH   7   8
ATOM      8  O   UNL A   1      34.044  22.240  24.143  1.00  0.00    -0.460 OA
BRANCH   8   9
ATOM      9  C   UNL A   1      32.930  22.321  23.382  1.00  0.00     0.338 C 
ATOM     10  O   UNL A   1      32.509  21.459  22.634  1.00  0.00    -0.246 OA
BRANCH   9  11
ATOM     11  C   UNL A   1      32.201  23.563  23.716  1.00  0.00     0.087 C 
ATOM     12  C   UNL A   1      30.287  27.845  22.577  1.00  0.00     0.119 A 
ATOM     13  C   UNL A   1      29.471  27.766  23.709  1.00  0.00     0.050 A 
ATOM     14  C   UNL A   1      31.173  26.800  22.285  1.00  0.00     0.058 A 
ATOM     15  C   UNL A   1      29.566  26.666  24.564  1.00  0.00     0.051 A 
ATOM     16  C   UNL A   1      31.257  25.688  23.129  1.00  0.00     0.021 A 
ATOM     17  C   UNL A   1      30.466  25.645  24.282  1.00  0.00     0.128 A 
ATOM     18  C   UNL A   1      32.054  24.515  22.778  1.00  0.00     0.027 C 
ATOM     19  O   UNL A   1      30.471  24.575  25.137  1.00  0.00    -0.475 OA
ATOM     20  C   UNL A   1      31.701  23.801  25.127  1.00  0.00     0.316 C 
BRANCH  12  21
ATOM     21  O   UNL A   1      30.253  28.853  21.653  1.00  0.00    -0.497 OA
ATOM     22  C   UNL A   1      29.565  30.036  22.044  1.00  0.00     0.278 C 
ENDBRANCH  12  21
BRANCH  20  23
ATOM     23  C   UNL A   1      31.514  22.601  26.071  1.00  0.00     0.430 C 
ATOM     24  F   UNL A   1      32.589  22.418  26.871  1.00  0.00    -0.167 F 
ATOM     25  F   UNL A   1      30.471  22.833  26.913  1.00  0.00    -0.167 F 
ATOM     26  F   UNL A   1      31.254  21.450  25.422  1.00  0.00    -0.167 F 
ENDBRANCH  20  23
ENDBRANCH   9  11
ENDBRANCH   8   9
ENDBRANCH   7   8
ENDBRANCH   6   7
ENDBRANCH   5   6
ENDBRANCH   4   5
ENDBRANCH   3   4
ENDBRANCH   2   3
ENDBRANCH   1   2
BRANCH   1  27
ATOM     27  C   UNL A   1      40.759  19.961  26.303  1.00  0.00     0.188 C 
BRANCH  27  28
ATOM     28  O   UNL A   1      41.701  19.155  25.615  1.00  0.00    -0.376 OA
BRANCH  28  29
ATOM     29  C   UNL A   1      42.704  18.513  26.380  1.00  0.00     0.202 C 
BRANCH  29  30
ATOM     30  C   UNL A   1      43.863  17.882  25.595  1.00  0.00     0.261 C 
BRANCH  30  31
ATOM     31  O   UNL A   1      44.973  18.749  25.311  1.00  0.00    -0.460 OA
BRANCH  31  32
ATOM     32  C   UNL A   1      44.859  19.574  24.249  1.00  0.00     0.338 C 
ATOM     33  O   UNL A   1      44.768  19.260  23.074  1.00  0.00    -0.246 OA
BRANCH  32  34
ATOM     34  C   UNL A   1      44.669  20.943  24.769  1.00  0.00     0.060 A 
ATOM     35  C   UNL A   1      44.289  21.965  23.886  1.00  0.00     0.016 A 
ATOM     36  C   UNL A   1      44.850  21.211  26.127  1.00  0.00     0.016 A 
ATOM     37  C   UNL A   1      44.123  23.267  24.359  1.00  0.00     0.010 A 
ATOM     38  C   UNL A   1      44.707  22.519  26.593  1.00  0.00     0.010 A 
ATOM     39  C   UNL A   1      44.379  23.558  25.705  1.00  0.00    -0.014 A 
BRANCH  39  40
ATOM     40  C   UNL A   1      44.527  24.969  26.136  1.00  0.00     0.031 A 
ATOM     41  C   UNL A   1      45.885  25.605  26.007  1.00  0.00     0.074 A 
ATOM     42  C   UNL A   1      43.487  25.678  26.605  1.00  0.00     0.049 A 
ATOM     43  N   UNL A   1      46.287  26.796  26.367  1.00  0.00    -0.248 NA
ATOM     44  C   UNL A   1      46.934  24.778  25.389  1.00  0.00     0.031 C 
ATOM     45  C   UNL A   1      42.116  25.190  26.729  1.00  0.00     0.029 A 
ATOM     46  N   UNL A   1      43.431  26.967  27.075  1.00  0.00    -0.354 N 
ATOM     47  C   UNL A   1      47.629  26.861  26.018  1.00  0.00     0.074 A 
ATOM     48  C   UNL A   1      47.987  25.577  25.459  1.00  0.00     0.031 C 
ATOM     49  C   UNL A   1      41.353  26.168  27.251  1.00  0.00     0.029 A 
ATOM     50  C   UNL A   1      42.190  27.334  27.533  1.00  0.00     0.049 A 
ATOM     51  H   UNL A   1      44.208  27.572  27.084  1.00  0.00     0.167 HD
ATOM     52  C   UNL A   1      48.485  27.903  26.140  1.00  0.00     0.037 A 
ATOM     53  C   UNL A   1      41.788  28.474  28.130  1.00  0.00     0.037 A 
ATOM     54  C   UNL A   1      48.129  29.175  26.708  1.00  0.00     0.049 A 
ATOM     55  C   UNL A   1      42.789  29.582  28.350  1.00  0.00     0.074 A 
ATOM     56  C   UNL A   1      48.924  30.294  26.888  1.00  0.00     0.029 A 
ATOM     57  N   UNL A   1      46.871  29.496  27.198  1.00  0.00    -0.354 N 
ATOM     58  N   UNL A   1      44.053  29.645  28.004  1.00  0.00    -0.248 NA
ATOM     59  C   UNL A   1      42.303  30.786  29.041  1.00  0.00     0.031 C 
ATOM     60  C   UNL A   1      48.163  31.271  27.536  1.00  0.00     0.029 A 
ATOM     61  C   UNL A   1      46.875  30.787  27.699  1.00  0.00     0.049 A 
ATOM     62  H   UNL A   1      46.092  28.894  27.190  1.00  0.00     0.167 HD
ATOM     63  C   UNL A   1      44.497  30.902  28.397  1.00  0.00     0.074 A 
ATOM     64  C   UNL A   1      43.365  31.576  28.996  1.00  0.00     0.031 C 
ATOM     65  C   UNL A   1      45.731  31.452  28.272  1.00  0.00     0.037 A 
BRANCH  52  66
ATOM     66  C   UNL A   1      49.895  27.699  25.668  1.00  0.00     0.064 A 
ATOM     67  C   UNL A   1      50.947  27.465  26.568  1.00  0.00     0.173 A 
ATOM     68  C   UNL A   1      50.196  27.708  24.298  1.00  0.00     0.173 A 
ATOM     69  F   UNL A   1      50.717  27.463  27.890  1.00  0.00    -0.203 F 
ATOM     70  C   UNL A   1      52.250  27.276  26.115  1.00  0.00     0.198 A 
ATOM     71  C   UNL A   1      51.494  27.485  23.846  1.00  0.00     0.198 A 
ATOM     72  F   UNL A   1      49.228  27.926  23.394  1.00  0.00    -0.203 F 
ATOM     73  F   UNL A   1      53.246  27.107  26.995  1.00  0.00    -0.200 F 
ATOM     74  C   UNL A   1      52.521  27.278  24.754  1.00  0.00     0.200 A 
ATOM     75  F   UNL A   1      51.751  27.473  22.531  1.00  0.00    -0.200 F 
ATOM     76  F   UNL A   1      53.774  27.086  24.320  1.00  0.00    -0.200 F 
ENDBRANCH  52  66
BRANCH  53  77
ATOM     77  C   UNL A   1      40.379  28.633  28.582  1.00  0.00     0.064 A 
ATOM     78  C   UNL A   1      39.401  29.158  27.725  1.00  0.00     0.173 A 
ATOM     79  C   UNL A   1      39.992  28.314  29.892  1.00  0.00     0.173 A 
ATOM     80  F   UNL A   1      39.724  29.505  26.471  1.00  0.00    -0.203 F 
ATOM     81  C   UNL A   1      38.100  29.389  28.171  1.00  0.00     0.198 A 
ATOM     82  C   UNL A   1      38.682  28.513  30.326  1.00  0.00     0.198 A 
ATOM     83  F   UNL A   1      40.887  27.813  30.754  1.00  0.00    -0.203 F 
ATOM     84  F   UNL A   1      37.203  29.954  27.351  1.00  0.00    -0.200 F 
ATOM     85  C   UNL A   1      37.741  29.062  29.470  1.00  0.00     0.200 A 
ATOM     86  F   UNL A   1      38.338  28.185  31.578  1.00  0.00    -0.200 F 
ATOM     87  F   UNL A   1      36.493  29.290  29.900  1.00  0.00    -0.200 F 
ENDBRANCH  53  77
BRANCH  65  88
ATOM     88  C   UNL A   1      45.910  32.871  28.733  1.00  0.00     0.064 A 
ATOM     89  C   UNL A   1      45.642  33.965  27.896  1.00  0.00     0.173 A 
ATOM     90  C   UNL A   1      46.319  33.140  30.049  1.00  0.00     0.173 A 
ATOM     91  F   UNL A   1      45.260  33.765  26.626  1.00  0.00    -0.203 F 
ATOM     92  C   UNL A   1      45.810  35.271  28.349  1.00  0.00     0.198 A 
ATOM     93  C   UNL A   1      46.450  34.446  30.509  1.00  0.00     0.198 A 
ATOM     94  F   UNL A   1      46.578  32.132  30.896  1.00  0.00    -0.203 F 
ATOM     95  F   UNL A   1      45.604  36.299  27.514  1.00  0.00    -0.200 F 
ATOM     96  C   UNL A   1      46.205  35.512  29.657  1.00  0.00     0.200 A 
ATOM     97  F   UNL A   1      46.813  34.676  31.779  1.00  0.00    -0.200 F 
ATOM     98  F   UNL A   1      46.357  36.769  30.093  1.00  0.00    -0.200 F 
ENDBRANCH  65  88
ENDBRANCH  39  40
ENDBRANCH  32  34
ENDBRANCH  31  32
ENDBRANCH  30  31
ENDBRANCH  29  30
ENDBRANCH  28  29
ENDBRANCH  27  28
ENDBRANCH   1  27
TORSDOF 22
ENDMDL
