MODEL 1
REMARK VINA RESULT:     -10.5      0.000      0.000
REMARK SMILES CC(C)[NH2+][C@]1(C(=O)OCCOCCOCCOCCOC(=O)c2ccc(-c3c4nc(c(-c5c(F)c(F)c(F)c(F)c5F)c5ccc([nH]5)c(-c5c(F)c(F)c(F)c(F)c5F)c5nc(c(-c6c(F)c(F)c(F)c(F)c6F)c6ccc3[nH]6)C=C5)C=C4)cc2)CCC[C@H]([N@H+](C)C2CCCCC2)C1
REMARK SMILES IDX 14 1 13 2 12 3 11 4 10 5 9 6 8 7 6 8 7 9 5 10 86 11 98 12
REMARK SMILES IDX 87 13 89 14 88 15 4 16 2 19 1 20 3 21 90 22 91 23 92 25
REMARK SMILES IDX 93 26 97 27 94 28 96 29 95 30 15 31 16 32 17 33 18 34 19 35
REMARK SMILES IDX 20 36 21 37 22 38 23 39 24 40 85 41 25 42 84 43 26 44 27 45
REMARK SMILES IDX 28 46 78 47 29 48 83 49 77 50 79 51 30 52 82 53 76 54 75 55
REMARK SMILES IDX 31 57 63 58 43 59 62 60 44 61 47 62 61 63 80 64 45 65 46 66
REMARK SMILES IDX 60 68 81 69 48 70 32 71 33 72 41 73 34 74 35 75 39 76 42 77
REMARK SMILES IDX 36 78 37 79 40 80 38 81 64 82 65 83 73 84 66 85 67 86 71 87
REMARK SMILES IDX 74 88 68 89 69 90 72 91 70 92 49 93 50 94 58 95 51 96 52 97
REMARK SMILES IDX 56 98 59 99 53 100 54 101 57 102 55 103
REMARK H PARENT 4 17 4 18 90 24 79 56 47 67
REMARK Flexibility Score: inf
ROOT
ATOM      1  O   UNL A   1      41.319  20.615  27.583  1.00  0.00    -0.377 OA
ENDROOT
BRANCH   1   2
ATOM      2  C   UNL A   1      40.555  20.991  26.446  1.00  0.00     0.188 C 
BRANCH   2   3
ATOM      3  C   UNL A   1      39.457  22.075  26.414  1.00  0.00     0.188 C 
BRANCH   3   4
ATOM      4  O   UNL A   1      38.542  21.848  25.360  1.00  0.00    -0.376 OA
BRANCH   4   5
ATOM      5  C   UNL A   1      37.435  22.733  25.259  1.00  0.00     0.202 C 
BRANCH   5   6
ATOM      6  C   UNL A   1      36.151  22.210  24.575  1.00  0.00     0.261 C 
BRANCH   6   7
ATOM      7  O   UNL A   1      35.022  23.104  24.676  1.00  0.00    -0.459 OA
BRANCH   7   8
ATOM      8  C   UNL A   1      34.306  23.469  25.835  1.00  0.00     0.368 C 
ATOM      9  O   UNL A   1      34.331  22.876  26.894  1.00  0.00    -0.245 OA
BRANCH   8  10
ATOM     10  C   UNL A   1      33.443  24.785  25.368  1.00  0.00     0.200 C 
ATOM     11  C   UNL A   1      32.205  24.576  26.320  1.00  0.00     0.081 C 
ATOM     12  C   UNL A   1      33.741  26.319  25.420  1.00  0.00     0.146 C 
ATOM     13  C   UNL A   1      31.124  25.661  26.515  1.00  0.00     0.013 C 
ATOM     14  C   UNL A   1      32.428  27.377  25.014  1.00  0.00     0.190 C 
ATOM     15  C   UNL A   1      31.378  27.117  26.105  1.00  0.00     0.065 C 
BRANCH  10  16
ATOM     16  N   UNL A   1      33.555  24.479  23.926  1.00  0.00    -0.330 N 
ATOM     17  H   UNL A   1      34.182  25.170  23.511  1.00  0.00     0.347 HD
ATOM     18  H   UNL A   1      33.892  23.518  23.880  1.00  0.00     0.347 HD
BRANCH  16  19
ATOM     19  C   UNL A   1      32.354  24.490  23.181  1.00  0.00     0.176 C 
ATOM     20  C   UNL A   1      32.524  25.211  21.834  1.00  0.00     0.075 C 
ATOM     21  C   UNL A   1      31.766  23.063  23.359  1.00  0.00     0.075 C 
ENDBRANCH  16  19
ENDBRANCH  10  16
BRANCH  14  22
ATOM     22  N   UNL A   1      32.001  28.002  23.509  1.00  0.00    -0.332 N 
ATOM     23  C   UNL A   1      33.150  28.821  23.081  1.00  0.00     0.333 C 
ATOM     24  H   UNL A   1      31.741  27.120  23.068  1.00  0.00     0.348 HD
BRANCH  22  25
ATOM     25  C   UNL A   1      30.654  28.743  23.064  1.00  0.00     0.184 C 
ATOM     26  C   UNL A   1      29.276  27.914  23.183  1.00  0.00     0.065 C 
ATOM     27  C   UNL A   1      30.044  29.976  23.866  1.00  0.00     0.065 C 
ATOM     28  C   UNL A   1      27.950  28.673  22.753  1.00  0.00     0.006 C 
ATOM     29  C   UNL A   1      29.157  30.832  22.965  1.00  0.00     0.006 C 
ATOM     30  C   UNL A   1      27.809  30.180  23.034  1.00  0.00     0.000 C 
ENDBRANCH  22  25
ENDBRANCH  14  22
ENDBRANCH   8  10
ENDBRANCH   7   8
ENDBRANCH   6   7
ENDBRANCH   5   6
ENDBRANCH   4   5
ENDBRANCH   3   4
ENDBRANCH   2   3
ENDBRANCH   1   2
BRANCH   1  31
ATOM     31  C   UNL A   1      42.071  19.431  27.472  1.00  0.00     0.188 C 
BRANCH  31  32
ATOM     32  C   UNL A   1      42.380  19.055  26.016  1.00  0.00     0.188 C 
BRANCH  32  33
ATOM     33  O   UNL A   1      43.770  19.103  25.730  1.00  0.00    -0.376 OA
BRANCH  33  34
ATOM     34  C   UNL A   1      44.284  20.063  24.829  1.00  0.00     0.202 C 
BRANCH  34  35
ATOM     35  C   UNL A   1      44.913  21.372  25.335  1.00  0.00     0.261 C 
BRANCH  35  36
ATOM     36  O   UNL A   1      44.132  22.178  26.217  1.00  0.00    -0.460 OA
BRANCH  36  37
ATOM     37  C   UNL A   1      43.486  23.240  25.680  1.00  0.00     0.338 C 
ATOM     38  O   UNL A   1      43.032  23.352  24.573  1.00  0.00    -0.246 OA
BRANCH  37  39
ATOM     39  C   UNL A   1      43.292  24.196  26.793  1.00  0.00     0.060 A 
ATOM     40  C   UNL A   1      42.429  23.860  27.846  1.00  0.00     0.016 A 
ATOM     41  C   UNL A   1      44.007  25.393  26.810  1.00  0.00     0.016 A 
ATOM     42  C   UNL A   1      42.296  24.715  28.938  1.00  0.00     0.010 A 
ATOM     43  C   UNL A   1      43.831  26.276  27.873  1.00  0.00     0.010 A 
ATOM     44  C   UNL A   1      42.960  25.947  28.928  1.00  0.00    -0.014 A 
BRANCH  44  45
ATOM     45  C   UNL A   1      42.540  27.022  29.850  1.00  0.00     0.031 A 
ATOM     46  C   UNL A   1      43.266  27.111  31.160  1.00  0.00     0.074 A 
ATOM     47  C   UNL A   1      41.528  27.856  29.561  1.00  0.00     0.049 A 
ATOM     48  N   UNL A   1      42.985  27.813  32.224  1.00  0.00    -0.248 NA
ATOM     49  C   UNL A   1      44.471  26.272  31.289  1.00  0.00     0.031 C 
ATOM     50  C   UNL A   1      40.800  27.905  28.296  1.00  0.00     0.029 A 
ATOM     51  N   UNL A   1      40.920  28.808  30.340  1.00  0.00    -0.354 N 
ATOM     52  C   UNL A   1      43.967  27.490  33.150  1.00  0.00     0.074 A 
ATOM     53  C   UNL A   1      44.836  26.511  32.538  1.00  0.00     0.031 C 
ATOM     54  C   UNL A   1      39.822  28.823  28.394  1.00  0.00     0.029 A 
ATOM     55  C   UNL A   1      39.825  29.384  29.745  1.00  0.00     0.049 A 
ATOM     56  H   UNL A   1      41.239  29.055  31.238  1.00  0.00     0.167 HD
ATOM     57  C   UNL A   1      44.128  27.970  34.404  1.00  0.00     0.037 A 
ATOM     58  C   UNL A   1      38.913  30.233  30.259  1.00  0.00     0.037 A 
ATOM     59  C   UNL A   1      43.244  28.926  35.007  1.00  0.00     0.049 A 
ATOM     60  C   UNL A   1      39.049  30.671  31.699  1.00  0.00     0.074 A 
ATOM     61  C   UNL A   1      43.299  29.470  36.277  1.00  0.00     0.029 A 
ATOM     62  N   UNL A   1      42.135  29.476  34.379  1.00  0.00    -0.354 N 
ATOM     63  N   UNL A   1      39.974  30.365  32.578  1.00  0.00    -0.248 NA
ATOM     64  C   UNL A   1      38.009  31.571  32.221  1.00  0.00     0.031 C 
ATOM     65  C   UNL A   1      42.190  30.306  36.438  1.00  0.00     0.029 A 
ATOM     66  C   UNL A   1      41.488  30.342  35.243  1.00  0.00     0.049 A 
ATOM     67  H   UNL A   1      41.852  29.279  33.457  1.00  0.00     0.167 HD
ATOM     68  C   UNL A   1      39.659  31.073  33.731  1.00  0.00     0.074 A 
ATOM     69  C   UNL A   1      38.453  31.821  33.445  1.00  0.00     0.031 C 
ATOM     70  C   UNL A   1      40.313  31.109  34.919  1.00  0.00     0.037 A 
BRANCH  57  71
ATOM     71  C   UNL A   1      45.275  27.436  35.207  1.00  0.00     0.064 A 
ATOM     72  C   UNL A   1      46.535  28.054  35.194  1.00  0.00     0.173 A 
ATOM     73  C   UNL A   1      45.109  26.300  36.014  1.00  0.00     0.173 A 
ATOM     74  F   UNL A   1      46.754  29.129  34.423  1.00  0.00    -0.203 F 
ATOM     75  C   UNL A   1      47.592  27.539  35.941  1.00  0.00     0.198 A 
ATOM     76  C   UNL A   1      46.157  25.810  36.786  1.00  0.00     0.198 A 
ATOM     77  F   UNL A   1      43.925  25.669  36.059  1.00  0.00    -0.203 F 
ATOM     78  F   UNL A   1      48.800  28.113  35.871  1.00  0.00    -0.200 F 
ATOM     79  C   UNL A   1      47.399  26.424  36.743  1.00  0.00     0.200 A 
ATOM     80  F   UNL A   1      45.966  24.740  37.570  1.00  0.00    -0.200 F 
ATOM     81  F   UNL A   1      48.414  25.936  37.469  1.00  0.00    -0.200 F 
ENDBRANCH  57  71
BRANCH  58  82
ATOM     82  C   UNL A   1      37.776  30.714  29.428  1.00  0.00     0.064 A 
ATOM     83  C   UNL A   1      37.703  32.051  29.013  1.00  0.00     0.173 A 
ATOM     84  C   UNL A   1      36.717  29.865  29.071  1.00  0.00     0.173 A 
ATOM     85  F   UNL A   1      38.677  32.910  29.349  1.00  0.00    -0.203 F 
ATOM     86  C   UNL A   1      36.604  32.526  28.299  1.00  0.00     0.198 A 
ATOM     87  C   UNL A   1      35.634  30.334  28.329  1.00  0.00     0.198 A 
ATOM     88  F   UNL A   1      36.731  28.577  29.445  1.00  0.00    -0.203 F 
ATOM     89  F   UNL A   1      36.533  33.824  27.970  1.00  0.00    -0.200 F 
ATOM     90  C   UNL A   1      35.573  31.667  27.954  1.00  0.00     0.200 A 
ATOM     91  F   UNL A   1      34.645  29.497  27.987  1.00  0.00    -0.200 F 
ATOM     92  F   UNL A   1      34.514  32.126  27.272  1.00  0.00    -0.200 F 
ENDBRANCH  58  82
BRANCH  70  93
ATOM     93  C   UNL A   1      39.805  32.049  35.974  1.00  0.00     0.064 A 
ATOM     94  C   UNL A   1      40.333  33.336  36.145  1.00  0.00     0.173 A 
ATOM     95  C   UNL A   1      38.704  31.679  36.764  1.00  0.00     0.173 A 
ATOM     96  F   UNL A   1      41.391  33.733  35.423  1.00  0.00    -0.203 F 
ATOM     97  C   UNL A   1      39.785  34.213  37.079  1.00  0.00     0.198 A 
ATOM     98  C   UNL A   1      38.138  32.570  37.670  1.00  0.00     0.198 A 
ATOM     99  F   UNL A   1      38.155  30.461  36.632  1.00  0.00    -0.203 F 
ATOM    100  F   UNL A   1      40.326  35.427  37.251  1.00  0.00    -0.200 F 
ATOM    101  C   UNL A   1      38.682  33.835  37.830  1.00  0.00     0.200 A 
ATOM    102  F   UNL A   1      37.059  32.209  38.379  1.00  0.00    -0.200 F 
ATOM    103  F   UNL A   1      38.142  34.691  38.708  1.00  0.00    -0.200 F 
ENDBRANCH  70  93
ENDBRANCH  44  45
ENDBRANCH  37  39
ENDBRANCH  36  37
ENDBRANCH  35  36
ENDBRANCH  34  35
ENDBRANCH  33  34
ENDBRANCH  32  33
ENDBRANCH  31  32
ENDBRANCH   1  31
TORSDOF 24
ENDMDL
MODEL 2
REMARK VINA RESULT:     -10.3      0.877      2.383
REMARK SMILES CC(C)[NH2+][C@]1(C(=O)OCCOCCOCCOCCOC(=O)c2ccc(-c3c4nc(c(-c5c(F)c(F)c(F)c(F)c5F)c5ccc([nH]5)c(-c5c(F)c(F)c(F)c(F)c5F)c5nc(c(-c6c(F)c(F)c(F)c(F)c6F)c6ccc3[nH]6)C=C5)C=C4)cc2)CCC[C@H]([N@H+](C)C2CCCCC2)C1
REMARK SMILES IDX 14 1 13 2 12 3 11 4 10 5 9 6 8 7 6 8 7 9 5 10 86 11 98 12
REMARK SMILES IDX 87 13 89 14 88 15 4 16 2 19 1 20 3 21 90 22 91 23 92 25
REMARK SMILES IDX 93 26 97 27 94 28 96 29 95 30 15 31 16 32 17 33 18 34 19 35
REMARK SMILES IDX 20 36 21 37 22 38 23 39 24 40 85 41 25 42 84 43 26 44 27 45
REMARK SMILES IDX 28 46 78 47 29 48 83 49 77 50 79 51 30 52 82 53 76 54 75 55
REMARK SMILES IDX 31 57 63 58 43 59 62 60 44 61 47 62 61 63 80 64 45 65 46 66
REMARK SMILES IDX 60 68 81 69 48 70 32 71 33 72 41 73 34 74 35 75 39 76 42 77
REMARK SMILES IDX 36 78 37 79 40 80 38 81 64 82 65 83 73 84 66 85 67 86 71 87
REMARK SMILES IDX 74 88 68 89 69 90 72 91 70 92 49 93 50 94 58 95 51 96 52 97
REMARK SMILES IDX 56 98 59 99 53 100 54 101 57 102 55 103
REMARK H PARENT 4 17 4 18 90 24 79 56 47 67
REMARK Flexibility Score: inf
ROOT
ATOM      1  O   UNL A   1      41.127  20.654  27.286  1.00  0.00    -0.377 OA
ENDROOT
BRANCH   1   2
ATOM      2  C   UNL A   1      40.380  20.694  26.079  1.00  0.00     0.188 C 
BRANCH   2   3
ATOM      3  C   UNL A   1      38.984  21.327  25.902  1.00  0.00     0.188 C 
BRANCH   3   4
ATOM      4  O   UNL A   1      38.105  20.450  25.225  1.00  0.00    -0.376 OA
BRANCH   4   5
ATOM      5  C   UNL A   1      36.862  20.983  24.792  1.00  0.00     0.202 C 
BRANCH   5   6
ATOM      6  C   UNL A   1      35.594  20.122  24.997  1.00  0.00     0.261 C 
BRANCH   6   7
ATOM      7  O   UNL A   1      34.376  20.885  25.128  1.00  0.00    -0.459 OA
BRANCH   7   8
ATOM      8  C   UNL A   1      33.858  21.498  26.288  1.00  0.00     0.368 C 
ATOM      9  O   UNL A   1      34.016  21.101  27.425  1.00  0.00    -0.245 OA
BRANCH   8  10
ATOM     10  C   UNL A   1      32.993  22.768  25.711  1.00  0.00     0.200 C 
ATOM     11  C   UNL A   1      32.729  22.205  24.263  1.00  0.00     0.081 C 
ATOM     12  C   UNL A   1      31.637  23.412  26.150  1.00  0.00     0.146 C 
ATOM     13  C   UNL A   1      31.732  22.872  23.290  1.00  0.00     0.013 C 
ATOM     14  C   UNL A   1      30.978  24.623  25.097  1.00  0.00     0.190 C 
ATOM     15  C   UNL A   1      30.680  23.869  23.791  1.00  0.00     0.065 C 
BRANCH  10  16
ATOM     16  N   UNL A   1      33.987  23.776  26.137  1.00  0.00    -0.330 N 
ATOM     17  H   UNL A   1      33.477  24.612  26.423  1.00  0.00     0.347 HD
ATOM     18  H   UNL A   1      34.521  23.329  26.882  1.00  0.00     0.347 HD
BRANCH  16  19
ATOM     19  C   UNL A   1      34.944  24.168  25.174  1.00  0.00     0.176 C 
ATOM     20  C   UNL A   1      34.460  25.365  24.341  1.00  0.00     0.075 C 
ATOM     21  C   UNL A   1      36.306  24.094  25.919  1.00  0.00     0.075 C 
ENDBRANCH  16  19
ENDBRANCH  10  16
BRANCH  14  22
ATOM     22  N   UNL A   1      31.222  26.289  25.119  1.00  0.00    -0.332 N 
ATOM     23  C   UNL A   1      31.629  26.611  26.499  1.00  0.00     0.333 C 
ATOM     24  H   UNL A   1      31.851  26.341  24.317  1.00  0.00     0.348 HD
BRANCH  22  25
ATOM     25  C   UNL A   1      30.271  27.461  24.583  1.00  0.00     0.184 C 
ATOM     26  C   UNL A   1      30.958  28.882  24.258  1.00  0.00     0.065 C 
ATOM     27  C   UNL A   1      29.568  27.414  23.157  1.00  0.00     0.065 C 
ATOM     28  C   UNL A   1      30.002  30.026  23.712  1.00  0.00     0.006 C 
ATOM     29  C   UNL A   1      28.321  28.295  23.130  1.00  0.00     0.006 C 
ATOM     30  C   UNL A   1      28.831  29.660  22.782  1.00  0.00     0.000 C 
ENDBRANCH  22  25
ENDBRANCH  14  22
ENDBRANCH   8  10
ENDBRANCH   7   8
ENDBRANCH   6   7
ENDBRANCH   5   6
ENDBRANCH   4   5
ENDBRANCH   3   4
ENDBRANCH   2   3
ENDBRANCH   1   2
BRANCH   1  31
ATOM     31  C   UNL A   1      42.049  19.599  27.421  1.00  0.00     0.188 C 
BRANCH  31  32
ATOM     32  C   UNL A   1      42.496  19.022  26.070  1.00  0.00     0.188 C 
BRANCH  32  33
ATOM     33  O   UNL A   1      43.875  19.247  25.817  1.00  0.00    -0.376 OA
BRANCH  33  34
ATOM     34  C   UNL A   1      44.280  20.206  24.860  1.00  0.00     0.202 C 
BRANCH  34  35
ATOM     35  C   UNL A   1      44.930  21.532  25.289  1.00  0.00     0.261 C 
BRANCH  35  36
ATOM     36  O   UNL A   1      44.194  22.363  26.186  1.00  0.00    -0.460 OA
BRANCH  36  37
ATOM     37  C   UNL A   1      43.483  23.382  25.648  1.00  0.00     0.338 C 
ATOM     38  O   UNL A   1      43.016  23.460  24.543  1.00  0.00    -0.246 OA
BRANCH  37  39
ATOM     39  C   UNL A   1      43.238  24.331  26.757  1.00  0.00     0.060 A 
ATOM     40  C   UNL A   1      42.361  23.971  27.790  1.00  0.00     0.016 A 
ATOM     41  C   UNL A   1      43.921  25.547  26.790  1.00  0.00     0.016 A 
ATOM     42  C   UNL A   1      42.182  24.821  28.880  1.00  0.00     0.010 A 
ATOM     43  C   UNL A   1      43.697  26.423  27.849  1.00  0.00     0.010 A 
ATOM     44  C   UNL A   1      42.812  26.070  28.885  1.00  0.00    -0.014 A 
BRANCH  44  45
ATOM     45  C   UNL A   1      42.343  27.133  29.798  1.00  0.00     0.031 A 
ATOM     46  C   UNL A   1      43.069  27.271  31.104  1.00  0.00     0.074 A 
ATOM     47  C   UNL A   1      41.290  27.912  29.506  1.00  0.00     0.049 A 
ATOM     48  N   UNL A   1      42.759  27.969  32.162  1.00  0.00    -0.248 NA
ATOM     49  C   UNL A   1      44.316  26.494  31.236  1.00  0.00     0.031 C 
ATOM     50  C   UNL A   1      40.556  27.912  28.244  1.00  0.00     0.029 A 
ATOM     51  N   UNL A   1      40.639  28.841  30.278  1.00  0.00    -0.354 N 
ATOM     52  C   UNL A   1      43.760  27.704  33.086  1.00  0.00     0.074 A 
ATOM     53  C   UNL A   1      44.673  26.763  32.480  1.00  0.00     0.031 C 
ATOM     54  C   UNL A   1      39.533  28.781  28.337  1.00  0.00     0.029 A 
ATOM     55  C   UNL A   1      39.514  29.356  29.682  1.00  0.00     0.049 A 
ATOM     56  H   UNL A   1      40.949  29.113  31.172  1.00  0.00     0.167 HD
ATOM     57  C   UNL A   1      43.901  28.205  34.335  1.00  0.00     0.037 A 
ATOM     58  C   UNL A   1      38.563  30.164  30.192  1.00  0.00     0.037 A 
ATOM     59  C   UNL A   1      42.974  29.123  34.933  1.00  0.00     0.049 A 
ATOM     60  C   UNL A   1      38.684  30.623  31.627  1.00  0.00     0.074 A 
ATOM     61  C   UNL A   1      43.007  29.681  36.197  1.00  0.00     0.029 A 
ATOM     62  N   UNL A   1      41.837  29.610  34.304  1.00  0.00    -0.354 N 
ATOM     63  N   UNL A   1      39.626  30.372  32.504  1.00  0.00    -0.248 NA
ATOM     64  C   UNL A   1      37.602  31.476  32.145  1.00  0.00     0.031 C 
ATOM     65  C   UNL A   1      41.859  30.463  36.354  1.00  0.00     0.029 A 
ATOM     66  C   UNL A   1      41.151  30.452  35.162  1.00  0.00     0.049 A 
ATOM     67  H   UNL A   1      41.560  29.390  33.385  1.00  0.00     0.167 HD
ATOM     68  C   UNL A   1      39.282  31.075  33.652  1.00  0.00     0.074 A 
ATOM     69  C   UNL A   1      38.039  31.759  33.364  1.00  0.00     0.031 C 
ATOM     70  C   UNL A   1      39.937  31.156  34.835  1.00  0.00     0.037 A 
BRANCH  57  71
ATOM     71  C   UNL A   1      45.077  27.736  35.138  1.00  0.00     0.064 A 
ATOM     72  C   UNL A   1      45.037  26.544  35.878  1.00  0.00     0.173 A 
ATOM     73  C   UNL A   1      46.266  28.480  35.155  1.00  0.00     0.173 A 
ATOM     74  F   UNL A   1      43.917  25.807  35.913  1.00  0.00    -0.203 F 
ATOM     75  C   UNL A   1      46.136  26.129  36.625  1.00  0.00     0.198 A 
ATOM     76  C   UNL A   1      47.375  28.043  35.873  1.00  0.00     0.198 A 
ATOM     77  F   UNL A   1      46.356  29.629  34.467  1.00  0.00    -0.203 F 
ATOM     78  F   UNL A   1      46.057  25.016  37.366  1.00  0.00    -0.200 F 
ATOM     79  C   UNL A   1      47.306  26.873  36.614  1.00  0.00     0.200 A 
ATOM     80  F   UNL A   1      48.509  28.757  35.852  1.00  0.00    -0.200 F 
ATOM     81  F   UNL A   1      48.368  26.466  37.324  1.00  0.00    -0.200 F 
ENDBRANCH  57  71
BRANCH  58  82
ATOM     82  C   UNL A   1      37.400  30.579  29.361  1.00  0.00     0.064 A 
ATOM     83  C   UNL A   1      36.379  29.671  29.048  1.00  0.00     0.173 A 
ATOM     84  C   UNL A   1      37.306  31.872  28.825  1.00  0.00     0.173 A 
ATOM     85  F   UNL A   1      36.433  28.415  29.514  1.00  0.00    -0.203 F 
ATOM     86  C   UNL A   1      35.325  30.031  28.209  1.00  0.00     0.198 A 
ATOM     87  C   UNL A   1      36.235  32.240  28.012  1.00  0.00     0.198 A 
ATOM     88  F   UNL A   1      38.257  32.781  29.088  1.00  0.00    -0.203 F 
ATOM     89  F   UNL A   1      34.397  29.123  27.876  1.00  0.00    -0.200 F 
ATOM     90  C   UNL A   1      35.253  31.316  27.695  1.00  0.00     0.200 A 
ATOM     91  F   UNL A   1      36.162  33.488  27.527  1.00  0.00    -0.200 F 
ATOM     92  F   UNL A   1      34.243  31.660  26.883  1.00  0.00    -0.200 F 
ENDBRANCH  58  82
BRANCH  70  93
ATOM     93  C   UNL A   1      39.388  32.080  35.884  1.00  0.00     0.064 A 
ATOM     94  C   UNL A   1      38.409  31.673  36.800  1.00  0.00     0.173 A 
ATOM     95  C   UNL A   1      39.928  33.370  36.027  1.00  0.00     0.173 A 
ATOM     96  F   UNL A   1      37.854  30.456  36.700  1.00  0.00    -0.203 F 
ATOM     97  C   UNL A   1      37.980  32.529  37.813  1.00  0.00     0.198 A 
ATOM     98  C   UNL A   1      39.523  34.207  37.060  1.00  0.00     0.198 A 
ATOM     99  F   UNL A   1      40.876  33.803  35.182  1.00  0.00    -0.203 F 
ATOM    100  F   UNL A   1      37.017  32.133  38.658  1.00  0.00    -0.200 F 
ATOM    101  C   UNL A   1      38.545  33.788  37.949  1.00  0.00     0.200 A 
ATOM    102  F   UNL A   1      40.085  35.415  37.203  1.00  0.00    -0.200 F 
ATOM    103  F   UNL A   1      38.148  34.598  38.941  1.00  0.00    -0.200 F 
ENDBRANCH  70  93
ENDBRANCH  44  45
ENDBRANCH  37  39
ENDBRANCH  36  37
ENDBRANCH  35  36
ENDBRANCH  34  35
ENDBRANCH  33  34
ENDBRANCH  32  33
ENDBRANCH  31  32
ENDBRANCH   1  31
TORSDOF 24
ENDMDL
MODEL 3
REMARK VINA RESULT:     -10.1      0.903      7.004
REMARK SMILES CC(C)[NH2+][C@]1(C(=O)OCCOCCOCCOCCOC(=O)c2ccc(-c3c4nc(c(-c5c(F)c(F)c(F)c(F)c5F)c5ccc([nH]5)c(-c5c(F)c(F)c(F)c(F)c5F)c5nc(c(-c6c(F)c(F)c(F)c(F)c6F)c6ccc3[nH]6)C=C5)C=C4)cc2)CCC[C@H]([N@H+](C)C2CCCCC2)C1
REMARK SMILES IDX 14 1 13 2 12 3 11 4 10 5 9 6 8 7 6 8 7 9 5 10 86 11 98 12
REMARK SMILES IDX 87 13 89 14 88 15 4 16 2 19 1 20 3 21 90 22 91 23 92 25
REMARK SMILES IDX 93 26 97 27 94 28 96 29 95 30 15 31 16 32 17 33 18 34 19 35
REMARK SMILES IDX 20 36 21 37 22 38 23 39 24 40 85 41 25 42 84 43 26 44 27 45
REMARK SMILES IDX 28 46 78 47 29 48 83 49 77 50 79 51 30 52 82 53 76 54 75 55
REMARK SMILES IDX 31 57 63 58 43 59 62 60 44 61 47 62 61 63 80 64 45 65 46 66
REMARK SMILES IDX 60 68 81 69 48 70 32 71 33 72 41 73 34 74 35 75 39 76 42 77
REMARK SMILES IDX 36 78 37 79 40 80 38 81 64 82 65 83 73 84 66 85 67 86 71 87
REMARK SMILES IDX 74 88 68 89 69 90 72 91 70 92 49 93 50 94 58 95 51 96 52 97
REMARK SMILES IDX 56 98 59 99 53 100 54 101 57 102 55 103
REMARK H PARENT 4 17 4 18 90 24 79 56 47 67
REMARK Flexibility Score: inf
ROOT
ATOM      1  O   UNL A   1      41.353  20.344  25.582  1.00  0.00    -0.377 OA
ENDROOT
BRANCH   1   2
ATOM      2  C   UNL A   1      40.735  21.283  26.450  1.00  0.00     0.188 C 
BRANCH   2   3
ATOM      3  C   UNL A   1      39.279  21.782  26.349  1.00  0.00     0.188 C 
BRANCH   3   4
ATOM      4  O   UNL A   1      39.229  23.165  26.057  1.00  0.00    -0.376 OA
BRANCH   4   5
ATOM      5  C   UNL A   1      37.944  23.759  25.941  1.00  0.00     0.202 C 
BRANCH   5   6
ATOM      6  C   UNL A   1      36.942  23.128  24.947  1.00  0.00     0.261 C 
BRANCH   6   7
ATOM      7  O   UNL A   1      35.628  22.897  25.499  1.00  0.00    -0.459 OA
BRANCH   7   8
ATOM      8  C   UNL A   1      34.417  22.703  24.802  1.00  0.00     0.368 C 
ATOM      9  O   UNL A   1      34.077  21.675  24.253  1.00  0.00    -0.245 OA
BRANCH   8  10
ATOM     10  C   UNL A   1      33.678  24.167  24.882  1.00  0.00     0.200 C 
ATOM     11  C   UNL A   1      32.505  23.760  25.853  1.00  0.00     0.081 C 
ATOM     12  C   UNL A   1      34.155  25.568  25.385  1.00  0.00     0.146 C 
ATOM     13  C   UNL A   1      31.577  24.807  26.507  1.00  0.00     0.013 C 
ATOM     14  C   UNL A   1      32.945  26.806  25.491  1.00  0.00     0.190 C 
ATOM     15  C   UNL A   1      31.965  26.290  26.555  1.00  0.00     0.065 C 
BRANCH  10  16
ATOM     16  N   UNL A   1      33.636  24.343  23.414  1.00  0.00    -0.330 N 
ATOM     17  H   UNL A   1      34.362  25.014  23.163  1.00  0.00     0.347 HD
ATOM     18  H   UNL A   1      33.766  23.409  23.027  1.00  0.00     0.347 HD
BRANCH  16  19
ATOM     19  C   UNL A   1      32.418  24.807  22.868  1.00  0.00     0.176 C 
ATOM     20  C   UNL A   1      32.647  25.687  21.627  1.00  0.00     0.075 C 
ATOM     21  C   UNL A   1      31.466  23.580  22.925  1.00  0.00     0.075 C 
ENDBRANCH  16  19
ENDBRANCH  10  16
BRANCH  14  22
ATOM     22  N   UNL A   1      32.472  27.924  24.323  1.00  0.00    -0.332 N 
ATOM     23  C   UNL A   1      33.282  29.129  24.578  1.00  0.00     0.333 C 
ATOM     24  H   UNL A   1      32.595  27.323  23.507  1.00  0.00     0.348 HD
BRANCH  22  25
ATOM     25  C   UNL A   1      30.999  28.383  23.895  1.00  0.00     0.184 C 
ATOM     26  C   UNL A   1      30.865  29.334  22.600  1.00  0.00     0.065 C 
ATOM     27  C   UNL A   1      29.912  27.368  23.329  1.00  0.00     0.065 C 
ATOM     28  C   UNL A   1      29.395  29.764  22.182  1.00  0.00     0.006 C 
ATOM     29  C   UNL A   1      28.498  27.898  23.552  1.00  0.00     0.006 C 
ATOM     30  C   UNL A   1      28.231  28.773  22.364  1.00  0.00     0.000 C 
ENDBRANCH  22  25
ENDBRANCH  14  22
ENDBRANCH   8  10
ENDBRANCH   7   8
ENDBRANCH   6   7
ENDBRANCH   5   6
ENDBRANCH   4   5
ENDBRANCH   3   4
ENDBRANCH   2   3
ENDBRANCH   1   2
BRANCH   1  31
ATOM     31  C   UNL A   1      42.342  19.519  26.150  1.00  0.00     0.188 C 
BRANCH  31  32
ATOM     32  C   UNL A   1      43.594  19.396  25.269  1.00  0.00     0.188 C 
BRANCH  32  33
ATOM     33  O   UNL A   1      44.019  20.650  24.757  1.00  0.00    -0.376 OA
BRANCH  33  34
ATOM     34  C   UNL A   1      44.268  21.733  25.631  1.00  0.00     0.202 C 
BRANCH  34  35
ATOM     35  C   UNL A   1      45.640  22.426  25.669  1.00  0.00     0.261 C 
BRANCH  35  36
ATOM     36  O   UNL A   1      45.727  23.670  26.364  1.00  0.00    -0.460 OA
BRANCH  36  37
ATOM     37  C   UNL A   1      45.211  24.761  25.751  1.00  0.00     0.338 C 
ATOM     38  O   UNL A   1      45.244  25.043  24.583  1.00  0.00    -0.246 OA
BRANCH  37  39
ATOM     39  C   UNL A   1      44.434  25.475  26.788  1.00  0.00     0.060 A 
ATOM     40  C   UNL A   1      44.711  26.824  27.049  1.00  0.00     0.016 A 
ATOM     41  C   UNL A   1      43.402  24.815  27.456  1.00  0.00     0.016 A 
ATOM     42  C   UNL A   1      43.935  27.531  27.967  1.00  0.00     0.010 A 
ATOM     43  C   UNL A   1      42.664  25.504  28.416  1.00  0.00     0.010 A 
ATOM     44  C   UNL A   1      42.943  26.856  28.687  1.00  0.00    -0.014 A 
BRANCH  44  45
ATOM     45  C   UNL A   1      42.389  27.451  29.920  1.00  0.00     0.031 A 
ATOM     46  C   UNL A   1      41.111  28.227  29.780  1.00  0.00     0.074 A 
ATOM     47  C   UNL A   1      43.012  27.351  31.105  1.00  0.00     0.049 A 
ATOM     48  N   UNL A   1      40.512  29.009  30.636  1.00  0.00    -0.248 NA
ATOM     49  C   UNL A   1      40.425  28.114  28.481  1.00  0.00     0.031 C 
ATOM     50  C   UNL A   1      44.216  26.569  31.369  1.00  0.00     0.029 A 
ATOM     51  N   UNL A   1      42.722  27.946  32.307  1.00  0.00    -0.354 N 
ATOM     52  C   UNL A   1      39.391  29.490  29.975  1.00  0.00     0.074 A 
ATOM     53  C   UNL A   1      39.403  28.937  28.640  1.00  0.00     0.031 C 
ATOM     54  C   UNL A   1      44.580  26.753  32.651  1.00  0.00     0.029 A 
ATOM     55  C   UNL A   1      43.663  27.707  33.277  1.00  0.00     0.049 A 
ATOM     56  H   UNL A   1      41.915  28.489  32.460  1.00  0.00     0.167 HD
ATOM     57  C   UNL A   1      38.434  30.323  30.444  1.00  0.00     0.037 A 
ATOM     58  C   UNL A   1      43.784  28.239  34.510  1.00  0.00     0.037 A 
ATOM     59  C   UNL A   1      38.446  30.883  31.766  1.00  0.00     0.049 A 
ATOM     60  C   UNL A   1      42.764  29.253  34.973  1.00  0.00     0.074 A 
ATOM     61  C   UNL A   1      37.539  31.752  32.343  1.00  0.00     0.029 A 
ATOM     62  N   UNL A   1      39.426  30.630  32.716  1.00  0.00    -0.354 N 
ATOM     63  N   UNL A   1      41.705  29.713  34.349  1.00  0.00    -0.248 NA
ATOM     64  C   UNL A   1      42.959  29.828  36.313  1.00  0.00     0.031 C 
ATOM     65  C   UNL A   1      38.000  32.071  33.623  1.00  0.00     0.029 A 
ATOM     66  C   UNL A   1      39.153  31.342  33.871  1.00  0.00     0.049 A 
ATOM     67  H   UNL A   1      40.199  30.035  32.587  1.00  0.00     0.167 HD
ATOM     68  C   UNL A   1      41.083  30.583  35.236  1.00  0.00     0.074 A 
ATOM     69  C   UNL A   1      41.885  30.594  36.441  1.00  0.00     0.031 C 
ATOM     70  C   UNL A   1      39.945  31.302  35.074  1.00  0.00     0.037 A 
BRANCH  57  71
ATOM     71  C   UNL A   1      37.328  30.702  29.507  1.00  0.00     0.064 A 
ATOM     72  C   UNL A   1      37.288  31.959  28.882  1.00  0.00     0.173 A 
ATOM     73  C   UNL A   1      36.302  29.791  29.215  1.00  0.00     0.173 A 
ATOM     74  F   UNL A   1      38.232  32.874  29.144  1.00  0.00    -0.203 F 
ATOM     75  C   UNL A   1      36.247  32.296  28.020  1.00  0.00     0.198 A 
ATOM     76  C   UNL A   1      35.283  30.119  28.326  1.00  0.00     0.198 A 
ATOM     77  F   UNL A   1      36.290  28.578  29.789  1.00  0.00    -0.203 F 
ATOM     78  F   UNL A   1      36.200  33.520  27.478  1.00  0.00    -0.200 F 
ATOM     79  C   UNL A   1      35.252  31.373  27.736  1.00  0.00     0.200 A 
ATOM     80  F   UNL A   1      34.329  29.222  28.042  1.00  0.00    -0.200 F 
ATOM     81  F   UNL A   1      34.257  31.696  26.898  1.00  0.00    -0.200 F 
ENDBRANCH  57  71
BRANCH  58  82
ATOM     82  C   UNL A   1      44.917  27.850  35.392  1.00  0.00     0.064 A 
ATOM     83  C   UNL A   1      46.142  28.529  35.334  1.00  0.00     0.173 A 
ATOM     84  C   UNL A   1      44.819  26.765  36.277  1.00  0.00     0.173 A 
ATOM     85  F   UNL A   1      46.297  29.557  34.486  1.00  0.00    -0.203 F 
ATOM     86  C   UNL A   1      47.231  28.123  36.103  1.00  0.00     0.198 A 
ATOM     87  C   UNL A   1      45.899  26.380  37.070  1.00  0.00     0.198 A 
ATOM     88  F   UNL A   1      43.673  26.075  36.372  1.00  0.00    -0.203 F 
ATOM     89  F   UNL A   1      48.408  28.753  35.979  1.00  0.00    -0.200 F 
ATOM     90  C   UNL A   1      47.107  27.052  36.973  1.00  0.00     0.200 A 
ATOM     91  F   UNL A   1      45.771  25.351  37.919  1.00  0.00    -0.200 F 
ATOM     92  F   UNL A   1      48.157  26.657  37.708  1.00  0.00    -0.200 F 
ENDBRANCH  58  82
BRANCH  70  93
ATOM     93  C   UNL A   1      39.438  32.092  36.245  1.00  0.00     0.064 A 
ATOM     94  C   UNL A   1      39.942  33.359  36.567  1.00  0.00     0.173 A 
ATOM     95  C   UNL A   1      38.358  31.603  37.000  1.00  0.00     0.173 A 
ATOM     96  F   UNL A   1      40.979  33.867  35.884  1.00  0.00    -0.203 F 
ATOM     97  C   UNL A   1      39.393  34.102  37.610  1.00  0.00     0.198 A 
ATOM     98  C   UNL A   1      37.790  32.362  38.017  1.00  0.00     0.198 A 
ATOM     99  F   UNL A   1      37.831  30.400  36.725  1.00  0.00    -0.203 F 
ATOM    100  F   UNL A   1      39.913  35.297  37.924  1.00  0.00    -0.200 F 
ATOM    101  C   UNL A   1      38.311  33.609  38.324  1.00  0.00     0.200 A 
ATOM    102  F   UNL A   1      36.731  31.893  38.692  1.00  0.00    -0.200 F 
ATOM    103  F   UNL A   1      37.769  34.338  39.310  1.00  0.00    -0.200 F 
ENDBRANCH  70  93
ENDBRANCH  44  45
ENDBRANCH  37  39
ENDBRANCH  36  37
ENDBRANCH  35  36
ENDBRANCH  34  35
ENDBRANCH  33  34
ENDBRANCH  32  33
ENDBRANCH  31  32
ENDBRANCH   1  31
TORSDOF 24
ENDMDL
