MODEL 1
REMARK VINA RESULT:     -10.2      0.000      0.000
REMARK SMILES O=C(OCCOCCOCCOCCOC(=O)c1cccc(CSc2nc(-c3ccccc3)n[nH]2)c1)c1ccc(-c2c3nc(c(-c4c(F)c(F)c(F)c(F)c4F)c4ccc([nH]4)c(-c4c(F)c(F)c(F)c(F)c4F)c4nc(c(-c5c(F)c(F)c(F)c(F)c5F)c5ccc2[nH]5)C=C4)C=C3)cc1
REMARK SMILES IDX 10 1 9 2 8 3 7 4 6 5 5 6 4 7 3 8 2 9 1 10 37 11 38 12 99 13
REMARK SMILES IDX 39 14 98 15 40 16 41 17 42 18 92 19 43 20 97 21 91 22 93 23
REMARK SMILES IDX 44 24 96 25 90 26 89 27 45 29 77 30 57 31 76 32 58 33 61 34
REMARK SMILES IDX 75 35 94 36 59 37 60 38 74 40 95 41 62 42 46 43 47 44 55 45
REMARK SMILES IDX 48 46 49 47 53 48 56 49 50 50 51 51 54 52 52 53 78 54 79 55
REMARK SMILES IDX 87 56 80 57 81 58 85 59 88 60 82 61 83 62 86 63 84 64 63 65
REMARK SMILES IDX 64 66 72 67 65 68 66 69 70 70 73 71 67 72 68 73 71 74 69 75
REMARK SMILES IDX 11 76 12 77 13 78 14 79 15 80 16 81 17 82 18 83 19 84 36 85
REMARK SMILES IDX 20 86 22 87 21 88 23 89 24 90 25 91 26 92 35 93 27 94 34 95
REMARK SMILES IDX 28 97 29 98 33 99 30 100 32 101 31 102
REMARK H PARENT 93 28 61 39 35 96
REMARK Flexibility Score: inf
ROOT
ATOM      1  C   UNL A   1      33.266  35.220  28.982  1.00  0.00     0.188 C 
ENDROOT
BRANCH   1   2
ATOM      2  O   UNL A   1      32.617  35.150  30.248  1.00  0.00    -0.377 OA
BRANCH   2   3
ATOM      3  C   UNL A   1      32.809  36.261  31.119  1.00  0.00     0.188 C 
BRANCH   3   4
ATOM      4  C   UNL A   1      33.092  35.912  32.579  1.00  0.00     0.188 C 
BRANCH   4   5
ATOM      5  O   UNL A   1      33.081  34.501  32.792  1.00  0.00    -0.376 OA
BRANCH   5   6
ATOM      6  C   UNL A   1      34.333  33.897  33.118  1.00  0.00     0.202 C 
BRANCH   6   7
ATOM      7  C   UNL A   1      34.860  32.901  32.084  1.00  0.00     0.261 C 
BRANCH   7   8
ATOM      8  O   UNL A   1      35.914  32.060  32.578  1.00  0.00    -0.460 OA
BRANCH   8   9
ATOM      9  C   UNL A   1      36.508  30.997  31.980  1.00  0.00     0.338 C 
ATOM     10  O   UNL A   1      35.863  29.956  31.867  1.00  0.00    -0.246 OA
BRANCH   9  11
ATOM     11  C   UNL A   1      37.896  31.010  31.424  1.00  0.00     0.060 A 
ATOM     12  C   UNL A   1      38.243  31.354  30.120  1.00  0.00     0.016 A 
ATOM     13  C   UNL A   1      38.939  30.692  32.312  1.00  0.00     0.016 A 
ATOM     14  C   UNL A   1      39.545  31.268  29.661  1.00  0.00     0.010 A 
ATOM     15  C   UNL A   1      40.265  30.628  31.871  1.00  0.00     0.010 A 
ATOM     16  C   UNL A   1      40.552  30.855  30.521  1.00  0.00    -0.014 A 
BRANCH  16  17
ATOM     17  C   UNL A   1      41.804  30.401  29.892  1.00  0.00     0.031 A 
ATOM     18  C   UNL A   1      41.778  29.058  29.224  1.00  0.00     0.074 A 
ATOM     19  C   UNL A   1      42.830  31.254  29.737  1.00  0.00     0.049 A 
ATOM     20  N   UNL A   1      42.735  28.407  28.621  1.00  0.00    -0.248 NA
ATOM     21  C   UNL A   1      40.483  28.353  29.221  1.00  0.00     0.031 C 
ATOM     22  C   UNL A   1      42.848  32.646  30.196  1.00  0.00     0.029 A 
ATOM     23  N   UNL A   1      44.032  31.095  29.104  1.00  0.00    -0.354 N 
ATOM     24  C   UNL A   1      42.171  27.202  28.223  1.00  0.00     0.074 A 
ATOM     25  C   UNL A   1      40.791  27.205  28.644  1.00  0.00     0.031 C 
ATOM     26  C   UNL A   1      43.993  33.222  29.797  1.00  0.00     0.029 A 
ATOM     27  C   UNL A   1      44.818  32.221  29.133  1.00  0.00     0.049 A 
ATOM     28  H   UNL A   1      44.306  30.256  28.668  1.00  0.00     0.167 HD
ATOM     29  C   UNL A   1      42.770  26.180  27.572  1.00  0.00     0.037 A 
ATOM     30  C   UNL A   1      46.079  32.390  28.698  1.00  0.00     0.037 A 
ATOM     31  C   UNL A   1      44.141  26.232  27.146  1.00  0.00     0.049 A 
ATOM     32  C   UNL A   1      46.758  31.205  28.064  1.00  0.00     0.074 A 
ATOM     33  C   UNL A   1      44.903  25.251  26.544  1.00  0.00     0.029 A 
ATOM     34  N   UNL A   1      44.950  27.355  27.278  1.00  0.00    -0.354 N 
ATOM     35  N   UNL A   1      46.267  30.019  27.787  1.00  0.00    -0.248 NA
ATOM     36  C   UNL A   1      48.167  31.371  27.696  1.00  0.00     0.031 C 
ATOM     37  C   UNL A   1      46.192  25.766  26.360  1.00  0.00     0.029 A 
ATOM     38  C   UNL A   1      46.213  27.087  26.784  1.00  0.00     0.049 A 
ATOM     39  H   UNL A   1      44.667  28.214  27.668  1.00  0.00     0.167 HD
ATOM     40  C   UNL A   1      47.293  29.306  27.189  1.00  0.00     0.074 A 
ATOM     41  C   UNL A   1      48.433  30.203  27.130  1.00  0.00     0.031 C 
ATOM     42  C   UNL A   1      47.305  28.028  26.731  1.00  0.00     0.037 A 
BRANCH  29  43
ATOM     43  C   UNL A   1      41.973  24.920  27.396  1.00  0.00     0.064 A 
ATOM     44  C   UNL A   1      40.852  24.845  26.555  1.00  0.00     0.173 A 
ATOM     45  C   UNL A   1      42.304  23.779  28.144  1.00  0.00     0.173 A 
ATOM     46  F   UNL A   1      40.467  25.918  25.846  1.00  0.00    -0.203 F 
ATOM     47  C   UNL A   1      40.072  23.691  26.499  1.00  0.00     0.198 A 
ATOM     48  C   UNL A   1      41.540  22.617  28.062  1.00  0.00     0.198 A 
ATOM     49  F   UNL A   1      43.357  23.797  28.974  1.00  0.00    -0.203 F 
ATOM     50  F   UNL A   1      38.961  23.670  25.749  1.00  0.00    -0.200 F 
ATOM     51  C   UNL A   1      40.418  22.578  27.250  1.00  0.00     0.200 A 
ATOM     52  F   UNL A   1      41.879  21.543  28.788  1.00  0.00    -0.200 F 
ATOM     53  F   UNL A   1      39.659  21.474  27.207  1.00  0.00    -0.200 F 
ENDBRANCH  29  43
BRANCH  30  54
ATOM     54  C   UNL A   1      46.783  33.688  28.893  1.00  0.00     0.064 A 
ATOM     55  C   UNL A   1      47.564  33.932  30.031  1.00  0.00     0.173 A 
ATOM     56  C   UNL A   1      46.674  34.723  27.950  1.00  0.00     0.173 A 
ATOM     57  F   UNL A   1      47.688  32.988  30.974  1.00  0.00    -0.203 F 
ATOM     58  C   UNL A   1      48.191  35.164  30.227  1.00  0.00     0.198 A 
ATOM     59  C   UNL A   1      47.328  35.941  28.130  1.00  0.00     0.198 A 
ATOM     60  F   UNL A   1      45.937  34.551  26.843  1.00  0.00    -0.203 F 
ATOM     61  F   UNL A   1      48.888  35.387  31.349  1.00  0.00    -0.200 F 
ATOM     62  C   UNL A   1      48.077  36.164  29.274  1.00  0.00     0.200 A 
ATOM     63  F   UNL A   1      47.226  36.898  27.198  1.00  0.00    -0.200 F 
ATOM     64  F   UNL A   1      48.680  37.347  29.462  1.00  0.00    -0.200 F 
ENDBRANCH  30  54
BRANCH  42  65
ATOM     65  C   UNL A   1      48.567  27.562  26.071  1.00  0.00     0.064 A 
ATOM     66  C   UNL A   1      49.670  27.118  26.813  1.00  0.00     0.173 A 
ATOM     67  C   UNL A   1      48.650  27.522  24.672  1.00  0.00     0.173 A 
ATOM     68  F   UNL A   1      49.640  27.152  28.155  1.00  0.00    -0.203 F 
ATOM     69  C   UNL A   1      50.826  26.682  26.176  1.00  0.00     0.198 A 
ATOM     70  C   UNL A   1      49.793  27.049  24.038  1.00  0.00     0.198 A 
ATOM     71  F   UNL A   1      47.614  27.926  23.920  1.00  0.00    -0.203 F 
ATOM     72  F   UNL A   1      51.891  26.315  26.902  1.00  0.00    -0.200 F 
ATOM     73  C   UNL A   1      50.884  26.640  24.791  1.00  0.00     0.200 A 
ATOM     74  F   UNL A   1      49.839  26.992  22.701  1.00  0.00    -0.200 F 
ATOM     75  F   UNL A   1      51.995  26.209  24.178  1.00  0.00    -0.200 F 
ENDBRANCH  42  65
ENDBRANCH  16  17
ENDBRANCH   9  11
ENDBRANCH   8   9
ENDBRANCH   7   8
ENDBRANCH   6   7
ENDBRANCH   5   6
ENDBRANCH   4   5
ENDBRANCH   3   4
ENDBRANCH   2   3
ENDBRANCH   1   2
BRANCH   1  76
ATOM     76  C   UNL A   1      33.292  33.953  28.092  1.00  0.00     0.188 C 
BRANCH  76  77
ATOM     77  O   UNL A   1      32.044  33.638  27.497  1.00  0.00    -0.376 OA
BRANCH  77  78
ATOM     78  C   UNL A   1      31.939  32.349  26.905  1.00  0.00     0.202 C 
BRANCH  78  79
ATOM     79  C   UNL A   1      33.043  31.317  27.206  1.00  0.00     0.261 C 
BRANCH  79  80
ATOM     80  O   UNL A   1      32.912  30.023  26.592  1.00  0.00    -0.460 OA
BRANCH  80  81
ATOM     81  C   UNL A   1      34.013  29.247  26.470  1.00  0.00     0.338 C 
ATOM     82  O   UNL A   1      35.123  29.479  26.915  1.00  0.00    -0.246 OA
BRANCH  81  83
ATOM     83  C   UNL A   1      33.555  27.943  25.929  1.00  0.00     0.060 A 
ATOM     84  C   UNL A   1      32.959  27.015  26.796  1.00  0.00     0.016 A 
ATOM     85  C   UNL A   1      33.620  27.673  24.560  1.00  0.00     0.020 A 
ATOM     86  C   UNL A   1      32.359  25.864  26.283  1.00  0.00     0.001 A 
ATOM     87  C   UNL A   1      33.179  26.430  24.074  1.00  0.00    -0.037 A 
ATOM     88  C   UNL A   1      32.475  25.569  24.927  1.00  0.00     0.004 A 
BRANCH  87  89
ATOM     89  C   UNL A   1      33.644  25.939  22.726  1.00  0.00     0.113 C 
BRANCH  89  90
ATOM     90  S   UNL A   1      32.242  25.659  21.569  1.00  0.00    -0.082 SA
BRANCH  90  91
ATOM     91  C   UNL A   1      30.993  26.700  22.161  1.00  0.00     0.184 A 
ATOM     92  N   UNL A   1      30.769  27.952  21.844  1.00  0.00    -0.201 NA
ATOM     93  N   UNL A   1      30.055  26.286  23.052  1.00  0.00    -0.254 N 
ATOM     94  C   UNL A   1      29.709  28.300  22.663  1.00  0.00     0.182 A 
ATOM     95  N   UNL A   1      29.273  27.299  23.447  1.00  0.00    -0.153 NA
ATOM     96  H   UNL A   1      29.962  25.358  23.366  1.00  0.00     0.192 HD
BRANCH  94  97
ATOM     97  C   UNL A   1      29.062  29.604  22.610  1.00  0.00     0.021 A 
ATOM     98  C   UNL A   1      29.437  30.563  21.658  1.00  0.00     0.012 A 
ATOM     99  C   UNL A   1      28.094  29.936  23.567  1.00  0.00     0.012 A 
ATOM    100  C   UNL A   1      28.861  31.837  21.673  1.00  0.00     0.001 A 
ATOM    101  C   UNL A   1      27.533  31.215  23.592  1.00  0.00     0.001 A 
ATOM    102  C   UNL A   1      27.916  32.165  22.646  1.00  0.00     0.000 A 
ENDBRANCH  94  97
ENDBRANCH  90  91
ENDBRANCH  89  90
ENDBRANCH  87  89
ENDBRANCH  81  83
ENDBRANCH  80  81
ENDBRANCH  79  80
ENDBRANCH  78  79
ENDBRANCH  77  78
ENDBRANCH  76  77
ENDBRANCH   1  76
TORSDOF 24
ENDMDL
MODEL 2
REMARK VINA RESULT:      -9.6      3.273      7.948
REMARK SMILES O=C(OCCOCCOCCOCCOC(=O)c1cccc(CSc2nc(-c3ccccc3)n[nH]2)c1)c1ccc(-c2c3nc(c(-c4c(F)c(F)c(F)c(F)c4F)c4ccc([nH]4)c(-c4c(F)c(F)c(F)c(F)c4F)c4nc(c(-c5c(F)c(F)c(F)c(F)c5F)c5ccc2[nH]5)C=C4)C=C3)cc1
REMARK SMILES IDX 10 1 9 2 8 3 7 4 6 5 5 6 4 7 3 8 2 9 1 10 37 11 38 12 99 13
REMARK SMILES IDX 39 14 98 15 40 16 41 17 42 18 92 19 43 20 97 21 91 22 93 23
REMARK SMILES IDX 44 24 96 25 90 26 89 27 45 29 77 30 57 31 76 32 58 33 61 34
REMARK SMILES IDX 75 35 94 36 59 37 60 38 74 40 95 41 62 42 46 43 47 44 55 45
REMARK SMILES IDX 48 46 49 47 53 48 56 49 50 50 51 51 54 52 52 53 78 54 79 55
REMARK SMILES IDX 87 56 80 57 81 58 85 59 88 60 82 61 83 62 86 63 84 64 63 65
REMARK SMILES IDX 64 66 72 67 65 68 66 69 70 70 73 71 67 72 68 73 71 74 69 75
REMARK SMILES IDX 11 76 12 77 13 78 14 79 15 80 16 81 17 82 18 83 19 84 36 85
REMARK SMILES IDX 20 86 22 87 21 88 23 89 24 90 25 91 26 92 35 93 27 94 34 95
REMARK SMILES IDX 28 97 29 98 33 99 30 100 32 101 31 102
REMARK H PARENT 93 28 61 39 35 96
REMARK Flexibility Score: inf
ROOT
ATOM      1  C   UNL A   1      34.304  34.797  28.703  1.00  0.00     0.188 C 
ENDROOT
BRANCH   1   2
ATOM      2  O   UNL A   1      33.273  34.640  29.672  1.00  0.00    -0.377 OA
BRANCH   2   3
ATOM      3  C   UNL A   1      32.591  35.827  30.068  1.00  0.00     0.188 C 
BRANCH   3   4
ATOM      4  C   UNL A   1      33.463  36.901  30.717  1.00  0.00     0.188 C 
BRANCH   4   5
ATOM      5  O   UNL A   1      33.291  36.931  32.134  1.00  0.00    -0.376 OA
BRANCH   5   6
ATOM      6  C   UNL A   1      34.245  36.203  32.906  1.00  0.00     0.202 C 
BRANCH   6   7
ATOM      7  C   UNL A   1      33.840  34.769  33.253  1.00  0.00     0.261 C 
BRANCH   7   8
ATOM      8  O   UNL A   1      34.945  33.854  33.307  1.00  0.00    -0.460 OA
BRANCH   8   9
ATOM      9  C   UNL A   1      35.248  32.832  32.469  1.00  0.00     0.338 C 
ATOM     10  O   UNL A   1      34.333  32.308  31.835  1.00  0.00    -0.246 OA
BRANCH   9  11
ATOM     11  C   UNL A   1      36.630  32.308  32.244  1.00  0.00     0.060 A 
ATOM     12  C   UNL A   1      37.678  32.367  33.160  1.00  0.00     0.016 A 
ATOM     13  C   UNL A   1      36.873  31.661  31.019  1.00  0.00     0.016 A 
ATOM     14  C   UNL A   1      38.951  31.926  32.846  1.00  0.00     0.010 A 
ATOM     15  C   UNL A   1      38.147  31.183  30.697  1.00  0.00     0.010 A 
ATOM     16  C   UNL A   1      39.202  31.379  31.595  1.00  0.00    -0.014 A 
BRANCH  16  17
ATOM     17  C   UNL A   1      40.614  31.309  31.184  1.00  0.00     0.031 A 
ATOM     18  C   UNL A   1      41.249  32.588  30.719  1.00  0.00     0.074 A 
ATOM     19  C   UNL A   1      41.337  30.206  31.436  1.00  0.00     0.049 A 
ATOM     20  N   UNL A   1      42.457  32.808  30.279  1.00  0.00    -0.248 NA
ATOM     21  C   UNL A   1      40.404  33.796  30.773  1.00  0.00     0.031 C 
ATOM     22  C   UNL A   1      40.825  28.987  32.068  1.00  0.00     0.029 A 
ATOM     23  N   UNL A   1      42.667  29.950  31.244  1.00  0.00    -0.354 N 
ATOM     24  C   UNL A   1      42.493  34.157  29.952  1.00  0.00     0.074 A 
ATOM     25  C   UNL A   1      41.195  34.713  30.247  1.00  0.00     0.031 C 
ATOM     26  C   UNL A   1      41.840  28.126  32.241  1.00  0.00     0.029 A 
ATOM     27  C   UNL A   1      43.048  28.698  31.659  1.00  0.00     0.049 A 
ATOM     28  H   UNL A   1      43.290  30.601  30.848  1.00  0.00     0.167 HD
ATOM     29  C   UNL A   1      43.528  34.860  29.439  1.00  0.00     0.037 A 
ATOM     30  C   UNL A   1      44.239  28.086  31.537  1.00  0.00     0.037 A 
ATOM     31  C   UNL A   1      44.814  34.271  29.190  1.00  0.00     0.049 A 
ATOM     32  C   UNL A   1      45.348  28.858  30.872  1.00  0.00     0.074 A 
ATOM     33  C   UNL A   1      45.932  34.834  28.608  1.00  0.00     0.029 A 
ATOM     34  N   UNL A   1      45.146  32.963  29.529  1.00  0.00    -0.354 N 
ATOM     35  N   UNL A   1      45.357  30.102  30.454  1.00  0.00    -0.248 NA
ATOM     36  C   UNL A   1      46.607  28.139  30.646  1.00  0.00     0.031 C 
ATOM     37  C   UNL A   1      46.924  33.849  28.547  1.00  0.00     0.029 A 
ATOM     38  C   UNL A   1      46.448  32.694  29.152  1.00  0.00     0.049 A 
ATOM     39  H   UNL A   1      44.542  32.323  29.971  1.00  0.00     0.167 HD
ATOM     40  C   UNL A   1      46.624  30.328  29.941  1.00  0.00     0.074 A 
ATOM     41  C   UNL A   1      47.363  29.091  30.117  1.00  0.00     0.031 C 
ATOM     42  C   UNL A   1      47.140  31.448  29.373  1.00  0.00     0.037 A 
BRANCH  29  43
ATOM     43  C   UNL A   1      43.256  36.279  29.032  1.00  0.00     0.064 A 
ATOM     44  C   UNL A   1      43.634  37.378  29.819  1.00  0.00     0.173 A 
ATOM     45  C   UNL A   1      42.538  36.537  27.853  1.00  0.00     0.173 A 
ATOM     46  F   UNL A   1      44.289  37.187  30.975  1.00  0.00    -0.203 F 
ATOM     47  C   UNL A   1      43.269  38.675  29.462  1.00  0.00     0.198 A 
ATOM     48  C   UNL A   1      42.203  37.837  27.484  1.00  0.00     0.198 A 
ATOM     49  F   UNL A   1      42.140  35.524  27.069  1.00  0.00    -0.203 F 
ATOM     50  F   UNL A   1      43.573  39.701  30.270  1.00  0.00    -0.200 F 
ATOM     51  C   UNL A   1      42.557  38.904  28.295  1.00  0.00     0.200 A 
ATOM     52  F   UNL A   1      41.516  38.054  26.354  1.00  0.00    -0.200 F 
ATOM     53  F   UNL A   1      42.195  40.150  27.960  1.00  0.00    -0.200 F 
ENDBRANCH  29  43
BRANCH  30  54
ATOM     54  C   UNL A   1      44.423  26.681  31.996  1.00  0.00     0.064 A 
ATOM     55  C   UNL A   1      44.839  26.387  33.301  1.00  0.00     0.173 A 
ATOM     56  C   UNL A   1      44.201  25.599  31.129  1.00  0.00     0.173 A 
ATOM     57  F   UNL A   1      45.085  27.381  34.166  1.00  0.00    -0.203 F 
ATOM     58  C   UNL A   1      45.046  25.070  33.714  1.00  0.00     0.198 A 
ATOM     59  C   UNL A   1      44.374  24.282  31.552  1.00  0.00     0.198 A 
ATOM     60  F   UNL A   1      43.805  25.817  29.866  1.00  0.00    -0.203 F 
ATOM     61  F   UNL A   1      45.496  24.821  34.952  1.00  0.00    -0.200 F 
ATOM     62  C   UNL A   1      44.808  24.019  32.842  1.00  0.00     0.200 A 
ATOM     63  F   UNL A   1      44.128  23.271  30.709  1.00  0.00    -0.200 F 
ATOM     64  F   UNL A   1      45.006  22.754  33.239  1.00  0.00    -0.200 F 
ENDBRANCH  30  54
BRANCH  42  65
ATOM     65  C   UNL A   1      48.581  31.394  28.968  1.00  0.00     0.064 A 
ATOM     66  C   UNL A   1      49.611  31.765  29.844  1.00  0.00     0.173 A 
ATOM     67  C   UNL A   1      48.931  30.921  27.695  1.00  0.00     0.173 A 
ATOM     68  F   UNL A   1      49.321  32.236  31.067  1.00  0.00    -0.203 F 
ATOM     69  C   UNL A   1      50.941  31.696  29.445  1.00  0.00     0.198 A 
ATOM     70  C   UNL A   1      50.264  30.819  27.314  1.00  0.00     0.198 A 
ATOM     71  F   UNL A   1      47.980  30.544  26.827  1.00  0.00    -0.203 F 
ATOM     72  F   UNL A   1      51.909  32.109  30.275  1.00  0.00    -0.200 F 
ATOM     73  C   UNL A   1      51.267  31.216  28.186  1.00  0.00     0.200 A 
ATOM     74  F   UNL A   1      50.577  30.336  26.104  1.00  0.00    -0.200 F 
ATOM     75  F   UNL A   1      52.551  31.141  27.807  1.00  0.00    -0.200 F 
ENDBRANCH  42  65
ENDBRANCH  16  17
ENDBRANCH   9  11
ENDBRANCH   8   9
ENDBRANCH   7   8
ENDBRANCH   6   7
ENDBRANCH   5   6
ENDBRANCH   4   5
ENDBRANCH   3   4
ENDBRANCH   2   3
ENDBRANCH   1   2
BRANCH   1  76
ATOM     76  C   UNL A   1      35.320  33.646  28.509  1.00  0.00     0.188 C 
BRANCH  76  77
ATOM     77  O   UNL A   1      34.883  32.631  27.620  1.00  0.00    -0.376 OA
BRANCH  77  78
ATOM     78  C   UNL A   1      35.575  31.391  27.693  1.00  0.00     0.202 C 
BRANCH  78  79
ATOM     79  C   UNL A   1      34.743  30.097  27.777  1.00  0.00     0.261 C 
BRANCH  79  80
ATOM     80  O   UNL A   1      34.218  29.577  26.543  1.00  0.00    -0.460 OA
BRANCH  80  81
ATOM     81  C   UNL A   1      32.922  29.815  26.238  1.00  0.00     0.338 C 
ATOM     82  O   UNL A   1      32.227  30.723  26.657  1.00  0.00    -0.246 OA
BRANCH  81  83
ATOM     83  C   UNL A   1      32.585  28.926  25.098  1.00  0.00     0.060 A 
ATOM     84  C   UNL A   1      33.133  29.196  23.834  1.00  0.00     0.016 A 
ATOM     85  C   UNL A   1      31.817  27.775  25.290  1.00  0.00     0.020 A 
ATOM     86  C   UNL A   1      32.979  28.278  22.795  1.00  0.00     0.001 A 
ATOM     87  C   UNL A   1      31.512  26.951  24.194  1.00  0.00    -0.037 A 
ATOM     88  C   UNL A   1      32.165  27.162  22.971  1.00  0.00     0.004 A 
BRANCH  87  89
ATOM     89  C   UNL A   1      30.347  25.995  24.268  1.00  0.00     0.113 C 
BRANCH  89  90
ATOM     90  S   UNL A   1      30.713  24.390  23.450  1.00  0.00    -0.082 SA
BRANCH  90  91
ATOM     91  C   UNL A   1      31.978  23.706  24.412  1.00  0.00     0.184 A 
ATOM     92  N   UNL A   1      33.238  23.541  24.088  1.00  0.00    -0.201 NA
ATOM     93  N   UNL A   1      31.779  23.266  25.681  1.00  0.00    -0.254 N 
ATOM     94  C   UNL A   1      33.764  22.889  25.189  1.00  0.00     0.182 A 
ATOM     95  N   UNL A   1      32.874  22.673  26.174  1.00  0.00    -0.153 NA
ATOM     96  H   UNL A   1      30.935  23.371  26.177  1.00  0.00     0.192 HD
BRANCH  94  97
ATOM     97  C   UNL A   1      35.176  22.554  25.312  1.00  0.00     0.021 A 
ATOM     98  C   UNL A   1      36.122  23.520  25.687  1.00  0.00     0.012 A 
ATOM     99  C   UNL A   1      35.613  21.264  24.985  1.00  0.00     0.012 A 
ATOM    100  C   UNL A   1      37.483  23.200  25.723  1.00  0.00     0.001 A 
ATOM    101  C   UNL A   1      36.975  20.952  25.003  1.00  0.00     0.001 A 
ATOM    102  C   UNL A   1      37.909  21.919  25.371  1.00  0.00     0.000 A 
ENDBRANCH  94  97
ENDBRANCH  90  91
ENDBRANCH  89  90
ENDBRANCH  87  89
ENDBRANCH  81  83
ENDBRANCH  80  81
ENDBRANCH  79  80
ENDBRANCH  78  79
ENDBRANCH  77  78
ENDBRANCH  76  77
ENDBRANCH   1  76
TORSDOF 24
ENDMDL
MODEL 3
REMARK VINA RESULT:      -9.4      6.859      9.084
REMARK SMILES O=C(OCCOCCOCCOCCOC(=O)c1cccc(CSc2nc(-c3ccccc3)n[nH]2)c1)c1ccc(-c2c3nc(c(-c4c(F)c(F)c(F)c(F)c4F)c4ccc([nH]4)c(-c4c(F)c(F)c(F)c(F)c4F)c4nc(c(-c5c(F)c(F)c(F)c(F)c5F)c5ccc2[nH]5)C=C4)C=C3)cc1
REMARK SMILES IDX 10 1 9 2 8 3 7 4 6 5 5 6 4 7 3 8 2 9 1 10 37 11 38 12 99 13
REMARK SMILES IDX 39 14 98 15 40 16 41 17 42 18 92 19 43 20 97 21 91 22 93 23
REMARK SMILES IDX 44 24 96 25 90 26 89 27 45 29 77 30 57 31 76 32 58 33 61 34
REMARK SMILES IDX 75 35 94 36 59 37 60 38 74 40 95 41 62 42 46 43 47 44 55 45
REMARK SMILES IDX 48 46 49 47 53 48 56 49 50 50 51 51 54 52 52 53 78 54 79 55
REMARK SMILES IDX 87 56 80 57 81 58 85 59 88 60 82 61 83 62 86 63 84 64 63 65
REMARK SMILES IDX 64 66 72 67 65 68 66 69 70 70 73 71 67 72 68 73 71 74 69 75
REMARK SMILES IDX 11 76 12 77 13 78 14 79 15 80 16 81 17 82 18 83 19 84 36 85
REMARK SMILES IDX 20 86 22 87 21 88 23 89 24 90 25 91 26 92 35 93 27 94 34 95
REMARK SMILES IDX 28 97 29 98 33 99 30 100 32 101 31 102
REMARK H PARENT 93 28 61 39 35 96
REMARK Flexibility Score: inf
ROOT
ATOM      1  C   UNL A   1      34.896  34.956  28.566  1.00  0.00     0.188 C 
ENDROOT
BRANCH   1   2
ATOM      2  O   UNL A   1      33.536  34.765  28.939  1.00  0.00    -0.377 OA
BRANCH   2   3
ATOM      3  C   UNL A   1      32.736  35.941  29.039  1.00  0.00     0.188 C 
BRANCH   3   4
ATOM      4  C   UNL A   1      33.391  37.123  29.752  1.00  0.00     0.188 C 
BRANCH   4   5
ATOM      5  O   UNL A   1      32.843  37.317  31.056  1.00  0.00    -0.376 OA
BRANCH   5   6
ATOM      6  C   UNL A   1      33.780  37.465  32.124  1.00  0.00     0.202 C 
BRANCH   6   7
ATOM      7  C   UNL A   1      33.824  36.300  33.113  1.00  0.00     0.261 C 
BRANCH   7   8
ATOM      8  O   UNL A   1      35.147  35.795  33.351  1.00  0.00    -0.460 OA
BRANCH   8   9
ATOM      9  C   UNL A   1      35.675  34.592  33.016  1.00  0.00     0.338 C 
ATOM     10  O   UNL A   1      35.191  33.990  32.057  1.00  0.00    -0.246 OA
BRANCH   9  11
ATOM     11  C   UNL A   1      36.825  33.949  33.721  1.00  0.00     0.060 A 
ATOM     12  C   UNL A   1      36.774  33.357  34.981  1.00  0.00     0.016 A 
ATOM     13  C   UNL A   1      38.049  33.901  33.030  1.00  0.00     0.016 A 
ATOM     14  C   UNL A   1      37.902  32.849  35.599  1.00  0.00     0.010 A 
ATOM     15  C   UNL A   1      39.193  33.365  33.629  1.00  0.00     0.010 A 
ATOM     16  C   UNL A   1      39.126  32.898  34.945  1.00  0.00    -0.014 A 
BRANCH  16  17
ATOM     17  C   UNL A   1      40.323  32.726  35.785  1.00  0.00     0.031 A 
ATOM     18  C   UNL A   1      41.015  31.396  35.716  1.00  0.00     0.074 A 
ATOM     19  C   UNL A   1      40.878  33.786  36.394  1.00  0.00     0.049 A 
ATOM     20  N   UNL A   1      42.064  30.965  36.362  1.00  0.00    -0.248 NA
ATOM     21  C   UNL A   1      40.452  30.414  34.770  1.00  0.00     0.031 C 
ATOM     22  C   UNL A   1      40.361  35.156  36.343  1.00  0.00     0.029 A 
ATOM     23  N   UNL A   1      42.028  33.890  37.128  1.00  0.00    -0.354 N 
ATOM     24  C   UNL A   1      42.245  29.654  35.943  1.00  0.00     0.074 A 
ATOM     25  C   UNL A   1      41.209  29.353  34.986  1.00  0.00     0.031 C 
ATOM     26  C   UNL A   1      41.211  35.969  36.990  1.00  0.00     0.029 A 
ATOM     27  C   UNL A   1      42.281  35.166  37.569  1.00  0.00     0.049 A 
ATOM     28  H   UNL A   1      42.617  33.126  37.321  1.00  0.00     0.167 HD
ATOM     29  C   UNL A   1      43.197  28.780  36.342  1.00  0.00     0.037 A 
ATOM     30  C   UNL A   1      43.257  35.608  38.382  1.00  0.00     0.037 A 
ATOM     31  C   UNL A   1      44.228  29.133  37.276  1.00  0.00     0.049 A 
ATOM     32  C   UNL A   1      44.247  34.593  38.890  1.00  0.00     0.074 A 
ATOM     33  C   UNL A   1      45.213  28.338  37.827  1.00  0.00     0.029 A 
ATOM     34  N   UNL A   1      44.404  30.414  37.787  1.00  0.00    -0.354 N 
ATOM     35  N   UNL A   1      44.358  33.320  38.589  1.00  0.00    -0.248 NA
ATOM     36  C   UNL A   1      45.237  35.068  39.862  1.00  0.00     0.031 C 
ATOM     37  C   UNL A   1      45.952  29.128  38.715  1.00  0.00     0.029 A 
ATOM     38  C   UNL A   1      45.472  30.430  38.664  1.00  0.00     0.049 A 
ATOM     39  H   UNL A   1      43.849  31.195  37.560  1.00  0.00     0.167 HD
ATOM     40  C   UNL A   1      45.442  32.845  39.309  1.00  0.00     0.074 A 
ATOM     41  C   UNL A   1      45.966  33.977  40.052  1.00  0.00     0.031 C 
ATOM     42  C   UNL A   1      45.964  31.593  39.361  1.00  0.00     0.037 A 
BRANCH  29  43
ATOM     43  C   UNL A   1      43.078  27.367  35.847  1.00  0.00     0.064 A 
ATOM     44  C   UNL A   1      43.826  26.879  34.765  1.00  0.00     0.173 A 
ATOM     45  C   UNL A   1      42.138  26.504  36.433  1.00  0.00     0.173 A 
ATOM     46  F   UNL A   1      44.711  27.673  34.143  1.00  0.00    -0.203 F 
ATOM     47  C   UNL A   1      43.611  25.595  34.265  1.00  0.00     0.198 A 
ATOM     48  C   UNL A   1      41.948  25.212  35.950  1.00  0.00     0.198 A 
ATOM     49  F   UNL A   1      41.386  26.922  37.461  1.00  0.00    -0.203 F 
ATOM     50  F   UNL A   1      44.282  25.178  33.182  1.00  0.00    -0.200 F 
ATOM     51  C   UNL A   1      42.674  24.763  34.858  1.00  0.00     0.200 A 
ATOM     52  F   UNL A   1      41.043  24.410  36.528  1.00  0.00    -0.200 F 
ATOM     53  F   UNL A   1      42.458  23.534  34.368  1.00  0.00    -0.200 F 
ENDBRANCH  29  43
BRANCH  30  54
ATOM     54  C   UNL A   1      43.311  37.037  38.798  1.00  0.00     0.064 A 
ATOM     55  C   UNL A   1      42.595  37.501  39.910  1.00  0.00     0.173 A 
ATOM     56  C   UNL A   1      44.069  37.975  38.080  1.00  0.00     0.173 A 
ATOM     57  F   UNL A   1      41.838  36.653  40.622  1.00  0.00    -0.203 F 
ATOM     58  C   UNL A   1      42.618  38.848  40.274  1.00  0.00     0.198 A 
ATOM     59  C   UNL A   1      44.120  39.315  38.464  1.00  0.00     0.198 A 
ATOM     60  F   UNL A   1      44.772  37.592  37.004  1.00  0.00    -0.203 F 
ATOM     61  F   UNL A   1      41.882  39.273  41.310  1.00  0.00    -0.200 F 
ATOM     62  C   UNL A   1      43.385  39.752  39.555  1.00  0.00     0.200 A 
ATOM     63  F   UNL A   1      44.874  40.180  37.774  1.00  0.00    -0.200 F 
ATOM     64  F   UNL A   1      43.408  41.046  39.905  1.00  0.00    -0.200 F 
ENDBRANCH  30  54
BRANCH  42  65
ATOM     65  C   UNL A   1      47.193  31.411  40.198  1.00  0.00     0.064 A 
ATOM     66  C   UNL A   1      47.124  31.001  41.536  1.00  0.00     0.173 A 
ATOM     67  C   UNL A   1      48.460  31.612  39.630  1.00  0.00     0.173 A 
ATOM     68  F   UNL A   1      45.933  30.810  42.124  1.00  0.00    -0.203 F 
ATOM     69  C   UNL A   1      48.282  30.830  42.287  1.00  0.00     0.198 A 
ATOM     70  C   UNL A   1      49.616  31.404  40.373  1.00  0.00     0.198 A 
ATOM     71  F   UNL A   1      48.575  31.995  38.349  1.00  0.00    -0.203 F 
ATOM     72  F   UNL A   1      48.195  30.493  43.581  1.00  0.00    -0.200 F 
ATOM     73  C   UNL A   1      49.525  31.023  41.704  1.00  0.00     0.200 A 
ATOM     74  F   UNL A   1      50.816  31.573  39.802  1.00  0.00    -0.200 F 
ATOM     75  F   UNL A   1      50.640  30.849  42.427  1.00  0.00    -0.200 F 
ENDBRANCH  42  65
ENDBRANCH  16  17
ENDBRANCH   9  11
ENDBRANCH   8   9
ENDBRANCH   7   8
ENDBRANCH   6   7
ENDBRANCH   5   6
ENDBRANCH   4   5
ENDBRANCH   3   4
ENDBRANCH   2   3
ENDBRANCH   1   2
BRANCH   1  76
ATOM     76  C   UNL A   1      35.868  33.756  28.671  1.00  0.00     0.188 C 
BRANCH  76  77
ATOM     77  O   UNL A   1      35.725  32.802  27.631  1.00  0.00    -0.376 OA
BRANCH  77  78
ATOM     78  C   UNL A   1      36.316  31.529  27.862  1.00  0.00     0.202 C 
BRANCH  78  79
ATOM     79  C   UNL A   1      35.477  30.457  28.583  1.00  0.00     0.261 C 
BRANCH  79  80
ATOM     80  O   UNL A   1      34.795  29.497  27.756  1.00  0.00    -0.460 OA
BRANCH  80  81
ATOM     81  C   UNL A   1      33.579  29.818  27.259  1.00  0.00     0.338 C 
ATOM     82  O   UNL A   1      33.184  30.929  26.952  1.00  0.00    -0.246 OA
BRANCH  81  83
ATOM     83  C   UNL A   1      32.914  28.538  26.905  1.00  0.00     0.060 A 
ATOM     84  C   UNL A   1      31.793  28.124  27.640  1.00  0.00     0.016 A 
ATOM     85  C   UNL A   1      33.330  27.799  25.795  1.00  0.00     0.020 A 
ATOM     86  C   UNL A   1      31.046  27.025  27.216  1.00  0.00     0.001 A 
ATOM     87  C   UNL A   1      32.684  26.591  25.483  1.00  0.00    -0.037 A 
ATOM     88  C   UNL A   1      31.494  26.256  26.144  1.00  0.00     0.004 A 
BRANCH  87  89
ATOM     89  C   UNL A   1      33.371  25.571  24.610  1.00  0.00     0.113 C 
BRANCH  89  90
ATOM     90  S   UNL A   1      32.685  25.542  22.904  1.00  0.00    -0.082 SA
BRANCH  90  91
ATOM     91  C   UNL A   1      32.096  27.151  22.660  1.00  0.00     0.184 A 
ATOM     92  N   UNL A   1      30.876  27.598  22.840  1.00  0.00    -0.201 NA
ATOM     93  N   UNL A   1      32.893  28.170  22.253  1.00  0.00    -0.254 N 
ATOM     94  C   UNL A   1      30.960  28.915  22.426  1.00  0.00     0.182 A 
ATOM     95  N   UNL A   1      32.188  29.285  22.022  1.00  0.00    -0.153 NA
ATOM     96  H   UNL A   1      33.869  28.099  22.143  1.00  0.00     0.192 HD
BRANCH  94  97
ATOM     97  C   UNL A   1      29.841  29.845  22.511  1.00  0.00     0.021 A 
ATOM     98  C   UNL A   1      29.135  30.239  21.365  1.00  0.00     0.012 A 
ATOM     99  C   UNL A   1      29.504  30.411  23.748  1.00  0.00     0.012 A 
ATOM    100  C   UNL A   1      28.116  31.192  21.456  1.00  0.00     0.001 A 
ATOM    101  C   UNL A   1      28.498  31.378  23.833  1.00  0.00     0.001 A 
ATOM    102  C   UNL A   1      27.806  31.768  22.688  1.00  0.00     0.000 A 
ENDBRANCH  94  97
ENDBRANCH  90  91
ENDBRANCH  89  90
ENDBRANCH  87  89
ENDBRANCH  81  83
ENDBRANCH  80  81
ENDBRANCH  79  80
ENDBRANCH  78  79
ENDBRANCH  77  78
ENDBRANCH  76  77
ENDBRANCH   1  76
TORSDOF 24
ENDMDL
