MODEL 1
REMARK VINA RESULT:     -10.8      0.000      0.000
REMARK SMILES CCn1ncc(NC(=O)[C@@H]2CCCC[C@@H]2C(=O)OCCOCCOCCOCCOC(=O)c2ccc(-c3c4nc(c(-c5c(F)c(F)c(F)c(F)c5F)c5ccc([nH]5)c(-c5c(F)c(F)c(F)c(F)c5F)c5nc(c(-c6c(F)c(F)c(F)c(F)c6F)c6ccc3[nH]6)C=C5)C=C4)cc2)c1C(=O)Nc1cnn(C)c1C
REMARK SMILES IDX 23 1 22 2 21 3 20 4 19 5 18 6 16 7 17 8 15 9 10 10 11 11
REMARK SMILES IDX 12 12 14 13 13 14 8 15 7 16 9 18 6 19 3 20 4 21 96 22 5 23
REMARK SMILES IDX 2 24 1 25 97 26 98 27 99 28 100 30 101 31 105 32 102 33
REMARK SMILES IDX 103 34 106 35 104 36 24 37 25 38 26 39 27 40 28 41 29 42
REMARK SMILES IDX 30 43 31 44 32 45 33 46 34 47 95 48 35 49 94 50 36 51 37 52
REMARK SMILES IDX 38 53 88 54 39 55 93 56 87 57 89 58 40 59 92 60 86 61 85 62
REMARK SMILES IDX 41 64 73 65 53 66 72 67 54 68 57 69 71 70 90 71 55 72 56 73
REMARK SMILES IDX 70 75 91 76 58 77 42 78 43 79 51 80 44 81 45 82 49 83 52 84
REMARK SMILES IDX 46 85 47 86 50 87 48 88 74 89 75 90 83 91 76 92 77 93 81 94
REMARK SMILES IDX 84 95 78 96 79 97 82 98 80 99 59 100 60 101 68 102 61 103
REMARK SMILES IDX 62 104 66 105 69 106 63 107 64 108 67 109 65 110
REMARK H PARENT 7 17 99 29 89 63 57 74
REMARK Flexibility Score: inf
ROOT
ATOM      1  C   UNL A   1      32.925  33.910  27.746  1.00  0.00     0.188 C 
ENDROOT
BRANCH   1   2
ATOM      2  C   UNL A   1      32.518  32.535  27.234  1.00  0.00     0.188 C 
BRANCH   2   3
ATOM      3  O   UNL A   1      33.465  31.504  27.518  1.00  0.00    -0.376 OA
BRANCH   3   4
ATOM      4  C   UNL A   1      33.049  30.156  27.294  1.00  0.00     0.202 C 
BRANCH   4   5
ATOM      5  C   UNL A   1      32.775  29.775  25.835  1.00  0.00     0.261 C 
BRANCH   5   6
ATOM      6  O   UNL A   1      31.773  28.747  25.682  1.00  0.00    -0.463 OA
BRANCH   6   7
ATOM      7  C   UNL A   1      32.221  27.486  25.465  1.00  0.00     0.309 C 
ATOM      8  O   UNL A   1      33.185  26.978  26.027  1.00  0.00    -0.252 OA
BRANCH   7   9
ATOM      9  C   UNL A   1      31.399  26.717  24.433  1.00  0.00     0.111 C 
ATOM     10  C   UNL A   1      31.795  26.964  22.983  1.00  0.00     0.093 C 
ATOM     11  C   UNL A   1      31.240  28.265  22.422  1.00  0.00     0.014 C 
ATOM     12  C   UNL A   1      29.717  28.203  22.413  1.00  0.00     0.001 C 
ATOM     13  C   UNL A   1      29.881  26.775  24.623  1.00  0.00     0.016 C 
ATOM     14  C   UNL A   1      29.081  27.716  23.715  1.00  0.00     0.001 C 
BRANCH  10  15
ATOM     15  C   UNL A   1      33.278  26.794  22.785  1.00  0.00     0.228 C 
ATOM     16  N   UNL A   1      33.905  25.605  22.970  1.00  0.00    -0.322 N 
ATOM     17  H   UNL A   1      34.885  25.695  22.952  1.00  0.00     0.170 HD
ATOM     18  O   UNL A   1      33.974  27.732  22.383  1.00  0.00    -0.274 OA
BRANCH  16  19
ATOM     19  C   UNL A   1      33.502  24.293  23.176  1.00  0.00     0.092 A 
ATOM     20  N   UNL A   1      32.710  22.347  23.796  1.00  0.00    -0.258 N 
ATOM     21  N   UNL A   1      32.332  22.450  22.509  1.00  0.00    -0.178 NA
ATOM     22  C   UNL A   1      33.578  23.349  24.208  1.00  0.00     0.150 A 
ATOM     23  C   UNL A   1      32.821  23.620  22.134  1.00  0.00     0.162 A 
BRANCH  20  24
ATOM     24  C   UNL A   1      32.152  21.218  24.513  1.00  0.00     0.142 C 
ATOM     25  C   UNL A   1      32.652  19.886  23.991  1.00  0.00     0.029 C 
ENDBRANCH  20  24
BRANCH  22  26
ATOM     26  C   UNL A   1      34.442  23.292  25.384  1.00  0.00     0.276 C 
ATOM     27  O   UNL A   1      34.515  24.204  26.205  1.00  0.00    -0.267 OA
ATOM     28  N   UNL A   1      34.969  22.053  25.684  1.00  0.00    -0.318 N 
ATOM     29  H   UNL A   1      34.388  21.399  26.135  1.00  0.00     0.170 HD
BRANCH  28  30
ATOM     30  C   UNL A   1      36.263  21.677  25.387  1.00  0.00     0.082 A 
ATOM     31  C   UNL A   1      36.775  20.470  24.883  1.00  0.00     0.161 A 
ATOM     32  C   UNL A   1      37.370  22.459  25.657  1.00  0.00     0.059 A 
ATOM     33  N   UNL A   1      38.102  20.407  25.004  1.00  0.00    -0.179 NA
ATOM     34  N   UNL A   1      38.429  21.583  25.573  1.00  0.00    -0.271 N 
ATOM     35  C   UNL A   1      37.504  23.852  26.151  1.00  0.00     0.068 C 
ATOM     36  C   UNL A   1      39.703  21.689  26.252  1.00  0.00     0.174 C 
ENDBRANCH  28  30
ENDBRANCH  22  26
ENDBRANCH  16  19
ENDBRANCH  10  15
ENDBRANCH   7   9
ENDBRANCH   6   7
ENDBRANCH   5   6
ENDBRANCH   4   5
ENDBRANCH   3   4
ENDBRANCH   2   3
ENDBRANCH   1   2
BRANCH   1  37
ATOM     37  O   UNL A   1      32.761  34.004  29.159  1.00  0.00    -0.377 OA
BRANCH  37  38
ATOM     38  C   UNL A   1      33.341  35.108  29.849  1.00  0.00     0.188 C 
BRANCH  38  39
ATOM     39  C   UNL A   1      34.234  34.804  31.046  1.00  0.00     0.188 C 
BRANCH  39  40
ATOM     40  O   UNL A   1      34.071  33.522  31.669  1.00  0.00    -0.376 OA
BRANCH  40  41
ATOM     41  C   UNL A   1      35.169  32.612  31.720  1.00  0.00     0.202 C 
BRANCH  41  42
ATOM     42  C   UNL A   1      35.384  31.837  30.440  1.00  0.00     0.261 C 
BRANCH  42  43
ATOM     43  O   UNL A   1      36.666  31.231  30.490  1.00  0.00    -0.460 OA
BRANCH  43  44
ATOM     44  C   UNL A   1      36.699  30.053  31.134  1.00  0.00     0.338 C 
ATOM     45  O   UNL A   1      36.306  29.806  32.274  1.00  0.00    -0.246 OA
BRANCH  44  46
ATOM     46  C   UNL A   1      37.455  29.104  30.322  1.00  0.00     0.060 A 
ATOM     47  C   UNL A   1      38.151  28.136  31.044  1.00  0.00     0.016 A 
ATOM     48  C   UNL A   1      37.791  29.453  29.004  1.00  0.00     0.016 A 
ATOM     49  C   UNL A   1      39.378  27.759  30.568  1.00  0.00     0.010 A 
ATOM     50  C   UNL A   1      39.031  29.095  28.542  1.00  0.00     0.010 A 
ATOM     51  C   UNL A   1      39.841  28.337  29.381  1.00  0.00    -0.014 A 
BRANCH  51  52
ATOM     52  C   UNL A   1      41.214  28.077  29.032  1.00  0.00     0.031 A 
ATOM     53  C   UNL A   1      41.429  26.738  28.467  1.00  0.00     0.074 A 
ATOM     54  C   UNL A   1      42.192  28.984  29.181  1.00  0.00     0.049 A 
ATOM     55  N   UNL A   1      42.127  25.777  28.968  1.00  0.00    -0.248 NA
ATOM     56  C   UNL A   1      40.670  26.389  27.259  1.00  0.00     0.031 C 
ATOM     57  C   UNL A   1      42.062  30.417  29.449  1.00  0.00     0.029 A 
ATOM     58  N   UNL A   1      43.531  28.807  29.018  1.00  0.00    -0.354 N 
ATOM     59  C   UNL A   1      42.036  24.745  28.047  1.00  0.00     0.074 A 
ATOM     60  C   UNL A   1      41.014  25.113  27.101  1.00  0.00     0.031 C 
ATOM     61  C   UNL A   1      43.257  31.010  29.225  1.00  0.00     0.029 A 
ATOM     62  C   UNL A   1      44.245  29.987  28.916  1.00  0.00     0.049 A 
ATOM     63  H   UNL A   1      43.954  27.919  28.977  1.00  0.00     0.167 HD
ATOM     64  C   UNL A   1      42.987  23.782  27.989  1.00  0.00     0.037 A 
ATOM     65  C   UNL A   1      45.534  30.105  28.520  1.00  0.00     0.037 A 
ATOM     66  C   UNL A   1      43.724  23.685  29.222  1.00  0.00     0.049 A 
ATOM     67  C   UNL A   1      46.184  28.778  28.676  1.00  0.00     0.074 A 
ATOM     68  C   UNL A   1      43.390  23.410  30.533  1.00  0.00     0.029 A 
ATOM     69  N   UNL A   1      44.989  24.216  29.258  1.00  0.00    -0.354 N 
ATOM     70  N   UNL A   1      46.490  28.230  29.818  1.00  0.00    -0.248 NA
ATOM     71  C   UNL A   1      46.199  27.873  27.533  1.00  0.00     0.031 C 
ATOM     72  C   UNL A   1      44.303  24.161  31.329  1.00  0.00     0.029 A 
ATOM     73  C   UNL A   1      45.151  24.850  30.462  1.00  0.00     0.049 A 
ATOM     74  H   UNL A   1      45.663  24.152  28.544  1.00  0.00     0.167 HD
ATOM     75  C   UNL A   1      46.323  26.869  29.614  1.00  0.00     0.074 A 
ATOM     76  C   UNL A   1      46.293  26.703  28.168  1.00  0.00     0.031 C 
ATOM     77  C   UNL A   1      45.934  26.052  30.635  1.00  0.00     0.037 A 
BRANCH  64  78
ATOM     78  C   UNL A   1      43.487  23.213  26.688  1.00  0.00     0.064 A 
ATOM     79  C   UNL A   1      43.347  21.834  26.449  1.00  0.00     0.173 A 
ATOM     80  C   UNL A   1      44.357  23.902  25.810  1.00  0.00     0.173 A 
ATOM     81  F   UNL A   1      42.568  21.081  27.240  1.00  0.00    -0.203 F 
ATOM     82  C   UNL A   1      44.082  21.183  25.457  1.00  0.00     0.198 A 
ATOM     83  C   UNL A   1      45.040  23.259  24.783  1.00  0.00     0.198 A 
ATOM     84  F   UNL A   1      44.672  25.192  25.979  1.00  0.00    -0.203 F 
ATOM     85  F   UNL A   1      44.019  19.849  25.354  1.00  0.00    -0.200 F 
ATOM     86  C   UNL A   1      44.930  21.894  24.628  1.00  0.00     0.200 A 
ATOM     87  F   UNL A   1      45.872  23.965  24.003  1.00  0.00    -0.200 F 
ATOM     88  F   UNL A   1      45.682  21.263  23.718  1.00  0.00    -0.200 F 
ENDBRANCH  64  78
BRANCH  65  89
ATOM     89  C   UNL A   1      46.182  31.223  27.801  1.00  0.00     0.064 A 
ATOM     90  C   UNL A   1      45.512  31.897  26.767  1.00  0.00     0.173 A 
ATOM     91  C   UNL A   1      47.364  31.823  28.277  1.00  0.00     0.173 A 
ATOM     92  F   UNL A   1      44.354  31.421  26.289  1.00  0.00    -0.203 F 
ATOM     93  C   UNL A   1      45.984  33.109  26.256  1.00  0.00     0.198 A 
ATOM     94  C   UNL A   1      47.845  33.023  27.754  1.00  0.00     0.198 A 
ATOM     95  F   UNL A   1      48.028  31.312  29.323  1.00  0.00    -0.203 F 
ATOM     96  F   UNL A   1      45.280  33.756  25.317  1.00  0.00    -0.200 F 
ATOM     97  C   UNL A   1      47.147  33.674  26.754  1.00  0.00     0.200 A 
ATOM     98  F   UNL A   1      48.952  33.576  28.269  1.00  0.00    -0.200 F 
ATOM     99  F   UNL A   1      47.571  34.861  26.302  1.00  0.00    -0.200 F 
ENDBRANCH  65  89
BRANCH  77 100
ATOM    100  C   UNL A   1      46.107  26.565  32.035  1.00  0.00     0.064 A 
ATOM    101  C   UNL A   1      45.130  27.296  32.733  1.00  0.00     0.173 A 
ATOM    102  C   UNL A   1      47.275  26.217  32.728  1.00  0.00     0.173 A 
ATOM    103  F   UNL A   1      43.944  27.574  32.174  1.00  0.00    -0.203 F 
ATOM    104  C   UNL A   1      45.349  27.715  34.044  1.00  0.00     0.198 A 
ATOM    105  C   UNL A   1      47.471  26.601  34.051  1.00  0.00     0.198 A 
ATOM    106  F   UNL A   1      48.215  25.470  32.128  1.00  0.00    -0.203 F 
ATOM    107  F   UNL A   1      44.417  28.439  34.682  1.00  0.00    -0.200 F 
ATOM    108  C   UNL A   1      46.516  27.363  34.702  1.00  0.00     0.200 A 
ATOM    109  F   UNL A   1      48.580  26.216  34.699  1.00  0.00    -0.200 F 
ATOM    110  F   UNL A   1      46.712  27.740  35.974  1.00  0.00    -0.200 F 
ENDBRANCH  77 100
ENDBRANCH  51  52
ENDBRANCH  44  46
ENDBRANCH  43  44
ENDBRANCH  42  43
ENDBRANCH  41  42
ENDBRANCH  40  41
ENDBRANCH  39  40
ENDBRANCH  38  39
ENDBRANCH  37  38
ENDBRANCH   1  37
TORSDOF 25
ENDMDL
MODEL 2
REMARK VINA RESULT:      -9.7      3.458      8.850
REMARK SMILES CCn1ncc(NC(=O)[C@@H]2CCCC[C@@H]2C(=O)OCCOCCOCCOCCOC(=O)c2ccc(-c3c4nc(c(-c5c(F)c(F)c(F)c(F)c5F)c5ccc([nH]5)c(-c5c(F)c(F)c(F)c(F)c5F)c5nc(c(-c6c(F)c(F)c(F)c(F)c6F)c6ccc3[nH]6)C=C5)C=C4)cc2)c1C(=O)Nc1cnn(C)c1C
REMARK SMILES IDX 23 1 22 2 21 3 20 4 19 5 18 6 16 7 17 8 15 9 10 10 11 11
REMARK SMILES IDX 12 12 14 13 13 14 8 15 7 16 9 18 6 19 3 20 4 21 96 22 5 23
REMARK SMILES IDX 2 24 1 25 97 26 98 27 99 28 100 30 101 31 105 32 102 33
REMARK SMILES IDX 103 34 106 35 104 36 24 37 25 38 26 39 27 40 28 41 29 42
REMARK SMILES IDX 30 43 31 44 32 45 33 46 34 47 95 48 35 49 94 50 36 51 37 52
REMARK SMILES IDX 38 53 88 54 39 55 93 56 87 57 89 58 40 59 92 60 86 61 85 62
REMARK SMILES IDX 41 64 73 65 53 66 72 67 54 68 57 69 71 70 90 71 55 72 56 73
REMARK SMILES IDX 70 75 91 76 58 77 42 78 43 79 51 80 44 81 45 82 49 83 52 84
REMARK SMILES IDX 46 85 47 86 50 87 48 88 74 89 75 90 83 91 76 92 77 93 81 94
REMARK SMILES IDX 84 95 78 96 79 97 82 98 80 99 59 100 60 101 68 102 61 103
REMARK SMILES IDX 62 104 66 105 69 106 63 107 64 108 67 109 65 110
REMARK H PARENT 7 17 99 29 89 63 57 74
REMARK Flexibility Score: inf
ROOT
ATOM      1  C   UNL A   1      39.705  24.773  27.984  1.00  0.00     0.188 C 
ENDROOT
BRANCH   1   2
ATOM      2  C   UNL A   1      39.085  24.479  26.624  1.00  0.00     0.188 C 
BRANCH   2   3
ATOM      3  O   UNL A   1      38.924  23.088  26.345  1.00  0.00    -0.376 OA
BRANCH   3   4
ATOM      4  C   UNL A   1      37.685  22.679  25.765  1.00  0.00     0.202 C 
BRANCH   4   5
ATOM      5  C   UNL A   1      36.544  23.701  25.835  1.00  0.00     0.261 C 
BRANCH   5   6
ATOM      6  O   UNL A   1      35.602  23.448  26.899  1.00  0.00    -0.463 OA
BRANCH   6   7
ATOM      7  C   UNL A   1      34.680  22.477  26.679  1.00  0.00     0.309 C 
ATOM      8  O   UNL A   1      34.449  21.543  27.439  1.00  0.00    -0.252 OA
BRANCH   7   9
ATOM      9  C   UNL A   1      33.920  22.647  25.365  1.00  0.00     0.111 C 
ATOM     10  C   UNL A   1      32.409  22.773  25.509  1.00  0.00     0.093 C 
ATOM     11  C   UNL A   1      31.712  21.435  25.711  1.00  0.00     0.014 C 
ATOM     12  C   UNL A   1      31.924  20.563  24.480  1.00  0.00     0.001 C 
ATOM     13  C   UNL A   1      34.304  21.672  24.250  1.00  0.00     0.016 C 
ATOM     14  C   UNL A   1      33.365  20.491  23.977  1.00  0.00     0.001 C 
BRANCH  10  15
ATOM     15  C   UNL A   1      32.042  23.817  26.529  1.00  0.00     0.228 C 
ATOM     16  N   UNL A   1      32.284  25.139  26.338  1.00  0.00    -0.322 N 
ATOM     17  H   UNL A   1      32.128  25.667  27.154  1.00  0.00     0.170 HD
ATOM     18  O   UNL A   1      31.444  23.507  27.564  1.00  0.00    -0.274 OA
BRANCH  16  19
ATOM     19  C   UNL A   1      32.696  25.927  25.273  1.00  0.00     0.092 A 
ATOM     20  N   UNL A   1      33.477  27.388  23.839  1.00  0.00    -0.258 N 
ATOM     21  N   UNL A   1      33.951  26.213  23.387  1.00  0.00    -0.178 NA
ATOM     22  C   UNL A   1      32.560  27.263  24.873  1.00  0.00     0.150 A 
ATOM     23  C   UNL A   1      33.468  25.332  24.247  1.00  0.00     0.162 A 
BRANCH  20  24
ATOM     24  C   UNL A   1      34.000  28.561  23.170  1.00  0.00     0.142 C 
ATOM     25  C   UNL A   1      34.018  28.417  21.661  1.00  0.00     0.029 C 
ENDBRANCH  20  24
BRANCH  22  26
ATOM     26  C   UNL A   1      31.609  28.289  25.293  1.00  0.00     0.276 C 
ATOM     27  O   UNL A   1      31.157  28.354  26.435  1.00  0.00    -0.267 OA
ATOM     28  N   UNL A   1      31.450  29.351  24.428  1.00  0.00    -0.318 N 
ATOM     29  H   UNL A   1      32.139  30.054  24.425  1.00  0.00     0.170 HD
BRANCH  28  30
ATOM     30  C   UNL A   1      30.381  29.485  23.565  1.00  0.00     0.082 A 
ATOM     31  C   UNL A   1      29.954  28.672  22.501  1.00  0.00     0.161 A 
ATOM     32  C   UNL A   1      29.546  30.585  23.543  1.00  0.00     0.059 A 
ATOM     33  N   UNL A   1      29.051  29.291  21.739  1.00  0.00    -0.179 NA
ATOM     34  N   UNL A   1      28.897  30.491  22.332  1.00  0.00    -0.271 N 
ATOM     35  C   UNL A   1      29.441  31.769  24.432  1.00  0.00     0.068 C 
ATOM     36  C   UNL A   1      28.345  31.578  21.553  1.00  0.00     0.174 C 
ENDBRANCH  28  30
ENDBRANCH  22  26
ENDBRANCH  16  19
ENDBRANCH  10  15
ENDBRANCH   7   9
ENDBRANCH   6   7
ENDBRANCH   5   6
ENDBRANCH   4   5
ENDBRANCH   3   4
ENDBRANCH   2   3
ENDBRANCH   1   2
BRANCH   1  37
ATOM     37  O   UNL A   1      40.891  25.553  27.853  1.00  0.00    -0.377 OA
BRANCH  37  38
ATOM     38  C   UNL A   1      41.264  26.030  26.562  1.00  0.00     0.188 C 
BRANCH  38  39
ATOM     39  C   UNL A   1      42.705  25.811  26.116  1.00  0.00     0.188 C 
BRANCH  39  40
ATOM     40  O   UNL A   1      42.934  24.777  25.149  1.00  0.00    -0.376 OA
BRANCH  40  41
ATOM     41  C   UNL A   1      42.391  23.474  25.358  1.00  0.00     0.202 C 
BRANCH  41  42
ATOM     42  C   UNL A   1      43.433  22.383  25.453  1.00  0.00     0.261 C 
BRANCH  42  43
ATOM     43  O   UNL A   1      43.990  22.404  26.758  1.00  0.00    -0.460 OA
BRANCH  43  44
ATOM     44  C   UNL A   1      45.274  22.795  26.809  1.00  0.00     0.338 C 
ATOM     45  O   UNL A   1      46.198  22.443  26.076  1.00  0.00    -0.246 OA
BRANCH  44  46
ATOM     46  C   UNL A   1      45.464  23.599  28.012  1.00  0.00     0.060 A 
ATOM     47  C   UNL A   1      44.323  23.767  28.794  1.00  0.00     0.016 A 
ATOM     48  C   UNL A   1      46.564  24.470  28.082  1.00  0.00     0.016 A 
ATOM     49  C   UNL A   1      44.148  24.983  29.399  1.00  0.00     0.010 A 
ATOM     50  C   UNL A   1      46.375  25.697  28.665  1.00  0.00     0.010 A 
ATOM     51  C   UNL A   1      45.130  25.963  29.224  1.00  0.00    -0.014 A 
BRANCH  51  52
ATOM     52  C   UNL A   1      44.808  27.286  29.693  1.00  0.00     0.031 A 
ATOM     53  C   UNL A   1      44.729  27.384  31.156  1.00  0.00     0.074 A 
ATOM     54  C   UNL A   1      44.631  28.333  28.870  1.00  0.00     0.049 A 
ATOM     55  N   UNL A   1      43.690  27.659  31.870  1.00  0.00    -0.248 NA
ATOM     56  C   UNL A   1      45.923  27.002  31.920  1.00  0.00     0.031 C 
ATOM     57  C   UNL A   1      44.965  28.431  27.449  1.00  0.00     0.029 A 
ATOM     58  N   UNL A   1      44.193  29.582  29.185  1.00  0.00    -0.354 N 
ATOM     59  C   UNL A   1      44.141  27.655  33.181  1.00  0.00     0.074 A 
ATOM     60  C   UNL A   1      45.470  27.099  33.168  1.00  0.00     0.031 C 
ATOM     61  C   UNL A   1      44.910  29.731  27.079  1.00  0.00     0.029 A 
ATOM     62  C   UNL A   1      44.429  30.524  28.201  1.00  0.00     0.049 A 
ATOM     63  H   UNL A   1      43.748  29.796  30.037  1.00  0.00     0.167 HD
ATOM     64  C   UNL A   1      43.481  28.345  34.142  1.00  0.00     0.037 A 
ATOM     65  C   UNL A   1      44.314  31.865  28.341  1.00  0.00     0.037 A 
ATOM     66  C   UNL A   1      42.115  28.603  33.771  1.00  0.00     0.049 A 
ATOM     67  C   UNL A   1      43.458  32.131  29.525  1.00  0.00     0.074 A 
ATOM     68  C   UNL A   1      41.027  27.810  33.462  1.00  0.00     0.029 A 
ATOM     69  N   UNL A   1      41.789  29.869  33.357  1.00  0.00    -0.354 N 
ATOM     70  N   UNL A   1      42.172  31.925  29.573  1.00  0.00    -0.248 NA
ATOM     71  C   UNL A   1      44.103  32.324  30.819  1.00  0.00     0.031 C 
ATOM     72  C   UNL A   1      40.268  28.553  32.511  1.00  0.00     0.029 A 
ATOM     73  C   UNL A   1      40.928  29.763  32.296  1.00  0.00     0.049 A 
ATOM     74  H   UNL A   1      42.117  30.709  33.752  1.00  0.00     0.167 HD
ATOM     75  C   UNL A   1      41.924  31.548  30.884  1.00  0.00     0.074 A 
ATOM     76  C   UNL A   1      43.107  31.955  31.627  1.00  0.00     0.031 C 
ATOM     77  C   UNL A   1      40.911  30.684  31.183  1.00  0.00     0.037 A 
BRANCH  64  78
ATOM     78  C   UNL A   1      44.195  29.108  35.227  1.00  0.00     0.064 A 
ATOM     79  C   UNL A   1      45.076  30.142  34.865  1.00  0.00     0.173 A 
ATOM     80  C   UNL A   1      44.279  28.672  36.570  1.00  0.00     0.173 A 
ATOM     81  F   UNL A   1      45.097  30.610  33.609  1.00  0.00    -0.203 F 
ATOM     82  C   UNL A   1      46.022  30.646  35.760  1.00  0.00     0.198 A 
ATOM     83  C   UNL A   1      45.182  29.221  37.475  1.00  0.00     0.198 A 
ATOM     84  F   UNL A   1      43.581  27.627  37.031  1.00  0.00    -0.203 F 
ATOM     85  F   UNL A   1      46.929  31.534  35.333  1.00  0.00    -0.200 F 
ATOM     86  C   UNL A   1      46.077  30.183  37.061  1.00  0.00     0.200 A 
ATOM     87  F   UNL A   1      45.232  28.743  38.727  1.00  0.00    -0.200 F 
ATOM     88  F   UNL A   1      47.024  30.620  37.901  1.00  0.00    -0.200 F 
ENDBRANCH  64  78
BRANCH  65  89
ATOM     89  C   UNL A   1      45.078  32.934  27.661  1.00  0.00     0.064 A 
ATOM     90  C   UNL A   1      46.333  33.338  28.143  1.00  0.00     0.173 A 
ATOM     91  C   UNL A   1      44.717  33.404  26.383  1.00  0.00     0.173 A 
ATOM     92  F   UNL A   1      46.776  32.897  29.329  1.00  0.00    -0.203 F 
ATOM     93  C   UNL A   1      47.185  34.145  27.384  1.00  0.00     0.198 A 
ATOM     94  C   UNL A   1      45.560  34.225  25.633  1.00  0.00     0.198 A 
ATOM     95  F   UNL A   1      43.583  33.002  25.792  1.00  0.00    -0.203 F 
ATOM     96  F   UNL A   1      48.403  34.453  27.850  1.00  0.00    -0.200 F 
ATOM     97  C   UNL A   1      46.800  34.583  26.127  1.00  0.00     0.200 A 
ATOM     98  F   UNL A   1      45.188  34.612  24.405  1.00  0.00    -0.200 F 
ATOM     99  F   UNL A   1      47.637  35.312  25.377  1.00  0.00    -0.200 F 
ENDBRANCH  65  89
BRANCH  77 100
ATOM    100  C   UNL A   1      39.836  30.497  30.152  1.00  0.00     0.064 A 
ATOM    101  C   UNL A   1      38.680  31.293  30.064  1.00  0.00     0.173 A 
ATOM    102  C   UNL A   1      40.037  29.533  29.154  1.00  0.00     0.173 A 
ATOM    103  F   UNL A   1      38.473  32.305  30.917  1.00  0.00    -0.203 F 
ATOM    104  C   UNL A   1      37.739  31.080  29.058  1.00  0.00     0.198 A 
ATOM    105  C   UNL A   1      39.114  29.352  28.128  1.00  0.00     0.198 A 
ATOM    106  F   UNL A   1      41.152  28.785  29.156  1.00  0.00    -0.203 F 
ATOM    107  F   UNL A   1      36.627  31.830  29.012  1.00  0.00    -0.200 F 
ATOM    108  C   UNL A   1      37.959  30.115  28.090  1.00  0.00     0.200 A 
ATOM    109  F   UNL A   1      39.356  28.451  27.165  1.00  0.00    -0.200 F 
ATOM    110  F   UNL A   1      37.067  29.932  27.105  1.00  0.00    -0.200 F 
ENDBRANCH  77 100
ENDBRANCH  51  52
ENDBRANCH  44  46
ENDBRANCH  43  44
ENDBRANCH  42  43
ENDBRANCH  41  42
ENDBRANCH  40  41
ENDBRANCH  39  40
ENDBRANCH  38  39
ENDBRANCH  37  38
ENDBRANCH   1  37
TORSDOF 25
ENDMDL
MODEL 3
REMARK VINA RESULT:      -9.6      5.581     11.221
REMARK SMILES CCn1ncc(NC(=O)[C@@H]2CCCC[C@@H]2C(=O)OCCOCCOCCOCCOC(=O)c2ccc(-c3c4nc(c(-c5c(F)c(F)c(F)c(F)c5F)c5ccc([nH]5)c(-c5c(F)c(F)c(F)c(F)c5F)c5nc(c(-c6c(F)c(F)c(F)c(F)c6F)c6ccc3[nH]6)C=C5)C=C4)cc2)c1C(=O)Nc1cnn(C)c1C
REMARK SMILES IDX 23 1 22 2 21 3 20 4 19 5 18 6 16 7 17 8 15 9 10 10 11 11
REMARK SMILES IDX 12 12 14 13 13 14 8 15 7 16 9 18 6 19 3 20 4 21 96 22 5 23
REMARK SMILES IDX 2 24 1 25 97 26 98 27 99 28 100 30 101 31 105 32 102 33
REMARK SMILES IDX 103 34 106 35 104 36 24 37 25 38 26 39 27 40 28 41 29 42
REMARK SMILES IDX 30 43 31 44 32 45 33 46 34 47 95 48 35 49 94 50 36 51 37 52
REMARK SMILES IDX 38 53 88 54 39 55 93 56 87 57 89 58 40 59 92 60 86 61 85 62
REMARK SMILES IDX 41 64 73 65 53 66 72 67 54 68 57 69 71 70 90 71 55 72 56 73
REMARK SMILES IDX 70 75 91 76 58 77 42 78 43 79 51 80 44 81 45 82 49 83 52 84
REMARK SMILES IDX 46 85 47 86 50 87 48 88 74 89 75 90 83 91 76 92 77 93 81 94
REMARK SMILES IDX 84 95 78 96 79 97 82 98 80 99 59 100 60 101 68 102 61 103
REMARK SMILES IDX 62 104 66 105 69 106 63 107 64 108 67 109 65 110
REMARK H PARENT 7 17 99 29 89 63 57 74
REMARK Flexibility Score: inf
ROOT
ATOM      1  C   UNL A   1      46.214  34.961  25.686  1.00  0.00     0.188 C 
ENDROOT
BRANCH   1   2
ATOM      2  C   UNL A   1      47.127  33.870  26.229  1.00  0.00     0.188 C 
BRANCH   2   3
ATOM      3  O   UNL A   1      46.433  32.727  26.732  1.00  0.00    -0.376 OA
BRANCH   3   4
ATOM      4  C   UNL A   1      47.146  31.489  26.755  1.00  0.00     0.202 C 
BRANCH   4   5
ATOM      5  C   UNL A   1      46.936  30.620  28.000  1.00  0.00     0.261 C 
BRANCH   5   6
ATOM      6  O   UNL A   1      47.108  29.208  27.758  1.00  0.00    -0.463 OA
BRANCH   6   7
ATOM      7  C   UNL A   1      46.026  28.417  27.968  1.00  0.00     0.309 C 
ATOM      8  O   UNL A   1      45.319  28.446  28.970  1.00  0.00    -0.252 OA
BRANCH   7   9
ATOM      9  C   UNL A   1      45.742  27.456  26.816  1.00  0.00     0.111 C 
ATOM     10  C   UNL A   1      46.309  26.053  26.995  1.00  0.00     0.093 C 
ATOM     11  C   UNL A   1      47.794  25.961  26.675  1.00  0.00     0.014 C 
ATOM     12  C   UNL A   1      48.017  26.295  25.206  1.00  0.00     0.001 C 
ATOM     13  C   UNL A   1      46.022  28.005  25.415  1.00  0.00     0.016 C 
ATOM     14  C   UNL A   1      47.310  27.558  24.714  1.00  0.00     0.001 C 
BRANCH  10  15
ATOM     15  C   UNL A   1      45.933  25.478  28.335  1.00  0.00     0.228 C 
ATOM     16  N   UNL A   1      44.643  25.360  28.739  1.00  0.00    -0.322 N 
ATOM     17  H   UNL A   1      44.572  25.113  29.690  1.00  0.00     0.170 HD
ATOM     18  O   UNL A   1      46.796  25.033  29.097  1.00  0.00    -0.274 OA
BRANCH  16  19
ATOM     19  C   UNL A   1      43.399  25.501  28.140  1.00  0.00     0.092 A 
ATOM     20  N   UNL A   1      41.425  25.370  27.199  1.00  0.00    -0.258 N 
ATOM     21  N   UNL A   1      41.244  26.252  28.199  1.00  0.00    -0.178 NA
ATOM     22  C   UNL A   1      42.751  25.015  26.997  1.00  0.00     0.150 A 
ATOM     23  C   UNL A   1      42.439  26.339  28.757  1.00  0.00     0.162 A 
BRANCH  20  24
ATOM     24  C   UNL A   1      40.215  24.954  26.519  1.00  0.00     0.142 C 
ATOM     25  C   UNL A   1      39.426  23.923  27.302  1.00  0.00     0.029 C 
ENDBRANCH  20  24
BRANCH  22  26
ATOM     26  C   UNL A   1      43.291  24.407  25.784  1.00  0.00     0.276 C 
ATOM     27  O   UNL A   1      43.357  25.002  24.710  1.00  0.00    -0.267 OA
ATOM     28  N   UNL A   1      43.981  23.226  25.959  1.00  0.00    -0.318 N 
ATOM     29  H   UNL A   1      44.906  23.274  26.293  1.00  0.00     0.170 HD
BRANCH  28  30
ATOM     30  C   UNL A   1      43.450  21.980  25.695  1.00  0.00     0.082 A 
ATOM     31  C   UNL A   1      42.145  21.486  25.859  1.00  0.00     0.161 A 
ATOM     32  C   UNL A   1      44.203  20.896  25.286  1.00  0.00     0.059 A 
ATOM     33  N   UNL A   1      42.104  20.157  25.756  1.00  0.00    -0.179 NA
ATOM     34  N   UNL A   1      43.383  19.813  25.512  1.00  0.00    -0.271 N 
ATOM     35  C   UNL A   1      45.629  20.769  24.894  1.00  0.00     0.068 C 
ATOM     36  C   UNL A   1      43.793  18.451  25.780  1.00  0.00     0.174 C 
ENDBRANCH  28  30
ENDBRANCH  22  26
ENDBRANCH  16  19
ENDBRANCH  10  15
ENDBRANCH   7   9
ENDBRANCH   6   7
ENDBRANCH   5   6
ENDBRANCH   4   5
ENDBRANCH   3   4
ENDBRANCH   2   3
ENDBRANCH   1   2
BRANCH   1  37
ATOM     37  O   UNL A   1      44.842  34.607  25.835  1.00  0.00    -0.377 OA
BRANCH  37  38
ATOM     38  C   UNL A   1      44.085  35.205  26.885  1.00  0.00     0.188 C 
BRANCH  38  39
ATOM     39  C   UNL A   1      42.746  35.834  26.523  1.00  0.00     0.188 C 
BRANCH  39  40
ATOM     40  O   UNL A   1      42.687  37.267  26.501  1.00  0.00    -0.376 OA
BRANCH  40  41
ATOM     41  C   UNL A   1      42.239  37.978  27.656  1.00  0.00     0.202 C 
BRANCH  41  42
ATOM     42  C   UNL A   1      43.271  38.920  28.233  1.00  0.00     0.261 C 
BRANCH  42  43
ATOM     43  O   UNL A   1      44.062  38.204  29.169  1.00  0.00    -0.460 OA
BRANCH  43  44
ATOM     44  C   UNL A   1      43.777  38.465  30.455  1.00  0.00     0.338 C 
ATOM     45  O   UNL A   1      43.599  39.565  30.978  1.00  0.00    -0.246 OA
BRANCH  44  46
ATOM     46  C   UNL A   1      43.880  37.222  31.213  1.00  0.00     0.060 A 
ATOM     47  C   UNL A   1      44.001  36.070  30.438  1.00  0.00     0.016 A 
ATOM     48  C   UNL A   1      43.430  37.197  32.543  1.00  0.00     0.016 A 
ATOM     49  C   UNL A   1      43.362  34.943  30.884  1.00  0.00     0.010 A 
ATOM     50  C   UNL A   1      42.769  36.076  32.975  1.00  0.00     0.010 A 
ATOM     51  C   UNL A   1      42.661  35.007  32.093  1.00  0.00    -0.014 A 
BRANCH  51  52
ATOM     52  C   UNL A   1      41.832  33.874  32.416  1.00  0.00     0.031 A 
ATOM     53  C   UNL A   1      40.526  33.896  31.744  1.00  0.00     0.074 A 
ATOM     54  C   UNL A   1      42.231  32.882  33.227  1.00  0.00     0.049 A 
ATOM     55  N   UNL A   1      39.363  33.991  32.292  1.00  0.00    -0.248 NA
ATOM     56  C   UNL A   1      40.526  33.946  30.277  1.00  0.00     0.031 C 
ATOM     57  C   UNL A   1      43.583  32.600  33.712  1.00  0.00     0.029 A 
ATOM     58  N   UNL A   1      41.494  31.845  33.709  1.00  0.00    -0.354 N 
ATOM     59  C   UNL A   1      38.462  33.941  31.239  1.00  0.00     0.074 A 
ATOM     60  C   UNL A   1      39.225  34.067  30.025  1.00  0.00     0.031 C 
ATOM     61  C   UNL A   1      43.603  31.356  34.245  1.00  0.00     0.029 A 
ATOM     62  C   UNL A   1      42.251  30.817  34.240  1.00  0.00     0.049 A 
ATOM     63  H   UNL A   1      40.509  31.828  33.682  1.00  0.00     0.167 HD
ATOM     64  C   UNL A   1      37.182  33.542  31.442  1.00  0.00     0.037 A 
ATOM     65  C   UNL A   1      41.798  29.584  34.567  1.00  0.00     0.037 A 
ATOM     66  C   UNL A   1      36.790  33.687  32.819  1.00  0.00     0.049 A 
ATOM     67  C   UNL A   1      40.322  29.662  34.719  1.00  0.00     0.074 A 
ATOM     68  C   UNL A   1      36.697  34.750  33.695  1.00  0.00     0.029 A 
ATOM     69  N   UNL A   1      36.725  32.555  33.591  1.00  0.00    -0.354 N 
ATOM     70  N   UNL A   1      39.708  30.250  35.707  1.00  0.00    -0.248 NA
ATOM     71  C   UNL A   1      39.489  29.364  33.560  1.00  0.00     0.031 C 
ATOM     72  C   UNL A   1      36.989  34.214  34.983  1.00  0.00     0.029 A 
ATOM     73  C   UNL A   1      37.238  32.851  34.827  1.00  0.00     0.049 A 
ATOM     74  H   UNL A   1      36.370  31.681  33.307  1.00  0.00     0.167 HD
ATOM     75  C   UNL A   1      38.549  30.765  35.145  1.00  0.00     0.074 A 
ATOM     76  C   UNL A   1      38.398  30.066  33.877  1.00  0.00     0.031 C 
ATOM     77  C   UNL A   1      37.988  31.911  35.628  1.00  0.00     0.037 A 
BRANCH  64  78
ATOM     78  C   UNL A   1      36.441  32.668  30.465  1.00  0.00     0.064 A 
ATOM     79  C   UNL A   1      36.964  31.401  30.154  1.00  0.00     0.173 A 
ATOM     80  C   UNL A   1      35.419  33.138  29.607  1.00  0.00     0.173 A 
ATOM     81  F   UNL A   1      37.956  30.874  30.886  1.00  0.00    -0.203 F 
ATOM     82  C   UNL A   1      36.549  30.693  29.024  1.00  0.00     0.198 A 
ATOM     83  C   UNL A   1      34.966  32.402  28.518  1.00  0.00     0.198 A 
ATOM     84  F   UNL A   1      34.902  34.368  29.714  1.00  0.00    -0.203 F 
ATOM     85  F   UNL A   1      37.168  29.553  28.691  1.00  0.00    -0.200 F 
ATOM     86  C   UNL A   1      35.554  31.196  28.205  1.00  0.00     0.200 A 
ATOM     87  F   UNL A   1      34.013  32.916  27.726  1.00  0.00    -0.200 F 
ATOM     88  F   UNL A   1      35.199  30.549  27.088  1.00  0.00    -0.200 F 
ENDBRANCH  64  78
BRANCH  65  89
ATOM     89  C   UNL A   1      42.523  28.294  34.534  1.00  0.00     0.064 A 
ATOM     90  C   UNL A   1      42.579  27.472  35.671  1.00  0.00     0.173 A 
ATOM     91  C   UNL A   1      42.956  27.720  33.324  1.00  0.00     0.173 A 
ATOM     92  F   UNL A   1      42.139  27.924  36.854  1.00  0.00    -0.203 F 
ATOM     93  C   UNL A   1      43.021  26.148  35.597  1.00  0.00     0.198 A 
ATOM     94  C   UNL A   1      43.415  26.405  33.253  1.00  0.00     0.198 A 
ATOM     95  F   UNL A   1      42.857  28.387  32.165  1.00  0.00    -0.203 F 
ATOM     96  F   UNL A   1      42.994  25.374  36.690  1.00  0.00    -0.200 F 
ATOM     97  C   UNL A   1      43.432  25.614  34.387  1.00  0.00     0.200 A 
ATOM     98  F   UNL A   1      43.778  25.890  32.070  1.00  0.00    -0.200 F 
ATOM     99  F   UNL A   1      43.805  24.330  34.305  1.00  0.00    -0.200 F 
ENDBRANCH  65  89
BRANCH  77 100
ATOM    100  C   UNL A   1      38.390  32.349  37.006  1.00  0.00     0.064 A 
ATOM    101  C   UNL A   1      37.737  31.947  38.184  1.00  0.00     0.173 A 
ATOM    102  C   UNL A   1      39.546  33.132  37.140  1.00  0.00     0.173 A 
ATOM    103  F   UNL A   1      36.691  31.110  38.142  1.00  0.00    -0.203 F 
ATOM    104  C   UNL A   1      38.188  32.370  39.434  1.00  0.00     0.198 A 
ATOM    105  C   UNL A   1      40.016  33.518  38.392  1.00  0.00     0.198 A 
ATOM    106  F   UNL A   1      40.242  33.496  36.052  1.00  0.00    -0.203 F 
ATOM    107  F   UNL A   1      37.531  32.000  40.544  1.00  0.00    -0.200 F 
ATOM    108  C   UNL A   1      39.327  33.150  39.536  1.00  0.00     0.200 A 
ATOM    109  F   UNL A   1      41.147  34.231  38.489  1.00  0.00    -0.200 F 
ATOM    110  F   UNL A   1      39.777  33.531  40.741  1.00  0.00    -0.200 F 
ENDBRANCH  77 100
ENDBRANCH  51  52
ENDBRANCH  44  46
ENDBRANCH  43  44
ENDBRANCH  42  43
ENDBRANCH  41  42
ENDBRANCH  40  41
ENDBRANCH  39  40
ENDBRANCH  38  39
ENDBRANCH  37  38
ENDBRANCH   1  37
TORSDOF 25
ENDMDL
