MODEL 1
REMARK VINA RESULT:      -7.7      0.000      0.000
REMARK SMILES Cn1cc(C[C@H](C(=O)OCCOCCOCCOCCOC(=O)c2ccc(-c3c4nc(c(-c5c(F)c(F)c(F)c(F)c5F)c5ccc([nH]5)c(-c5c(F)c(F)c(F)c(F)c5F)c5nc(c(-c6c(F)c(F)c(F)c(F)c6F)c6ccc3[nH]6)C=C5)C=C4)cc2)c2ccc(F)cc2)cn1
REMARK SMILES IDX 15 1 14 2 13 3 12 4 11 5 10 6 9 7 7 8 8 9 6 10 5 11 4 12
REMARK SMILES IDX 1 13 2 14 3 15 95 16 94 17 87 18 88 19 93 20 89 21 92 22
REMARK SMILES IDX 90 23 91 24 16 25 17 26 18 27 19 28 20 29 21 30 22 31 23 32
REMARK SMILES IDX 24 33 25 34 86 35 26 36 85 37 27 38 28 39 29 40 79 41 30 42
REMARK SMILES IDX 84 43 78 44 80 45 31 46 83 47 77 48 76 49 32 51 64 52 44 53
REMARK SMILES IDX 63 54 45 55 48 56 62 57 81 58 46 59 47 60 61 62 82 63 49 64
REMARK SMILES IDX 33 65 34 66 42 67 35 68 36 69 40 70 43 71 37 72 38 73 41 74
REMARK SMILES IDX 39 75 65 76 66 77 74 78 67 79 68 80 72 81 75 82 69 83 70 84
REMARK SMILES IDX 73 85 71 86 50 87 51 88 59 89 52 90 53 91 57 92 60 93 54 94
REMARK SMILES IDX 55 95 58 96 56 97
REMARK H PARENT 80 50 48 61
REMARK Flexibility Score: inf
ROOT
ATOM      1  O   UNL A   1      38.122  31.825  40.048  1.00  0.00    -0.377 OA
ENDROOT
BRANCH   1   2
ATOM      2  C   UNL A   1      37.438  32.272  38.895  1.00  0.00     0.188 C 
BRANCH   2   3
ATOM      3  C   UNL A   1      38.296  33.105  37.924  1.00  0.00     0.188 C 
BRANCH   3   4
ATOM      4  O   UNL A   1      38.921  32.488  36.806  1.00  0.00    -0.376 OA
BRANCH   4   5
ATOM      5  C   UNL A   1      38.183  31.599  35.978  1.00  0.00     0.202 C 
BRANCH   5   6
ATOM      6  C   UNL A   1      38.881  30.786  34.871  1.00  0.00     0.261 C 
BRANCH   6   7
ATOM      7  O   UNL A   1      38.136  30.651  33.646  1.00  0.00    -0.463 OA
BRANCH   7   8
ATOM      8  C   UNL A   1      38.737  31.041  32.497  1.00  0.00     0.313 C 
ATOM      9  O   UNL A   1      39.894  31.449  32.444  1.00  0.00    -0.252 OA
BRANCH   8  10
ATOM     10  C   UNL A   1      37.903  30.824  31.224  1.00  0.00     0.134 C 
BRANCH  10  11
ATOM     11  C   UNL A   1      37.724  32.237  30.605  1.00  0.00     0.059 C 
BRANCH  11  12
ATOM     12  C   UNL A   1      36.324  32.747  30.507  1.00  0.00    -0.009 A 
ATOM     13  C   UNL A   1      33.700  34.985  29.466  1.00  0.00     0.173 C 
ATOM     14  N   UNL A   1      34.565  33.950  29.976  1.00  0.00    -0.276 N 
ATOM     15  C   UNL A   1      35.884  33.768  29.687  1.00  0.00     0.112 A 
ATOM     16  N   UNL A   1      34.091  33.073  30.875  1.00  0.00    -0.182 NA
ATOM     17  C   UNL A   1      35.161  32.349  31.204  1.00  0.00     0.138 A 
ENDBRANCH  11  12
ENDBRANCH  10  11
BRANCH  10  18
ATOM     18  C   UNL A   1      38.355  29.727  30.236  1.00  0.00    -0.033 A 
ATOM     19  C   UNL A   1      38.680  28.439  30.699  1.00  0.00     0.007 A 
ATOM     20  C   UNL A   1      38.430  29.950  28.842  1.00  0.00     0.007 A 
ATOM     21  C   UNL A   1      39.126  27.444  29.820  1.00  0.00     0.039 A 
ATOM     22  C   UNL A   1      38.877  28.957  27.964  1.00  0.00     0.039 A 
ATOM     23  C   UNL A   1      39.230  27.714  28.463  1.00  0.00     0.123 A 
ATOM     24  F   UNL A   1      39.670  26.765  27.626  1.00  0.00    -0.207 F 
ENDBRANCH  10  18
ENDBRANCH   8  10
ENDBRANCH   7   8
ENDBRANCH   6   7
ENDBRANCH   5   6
ENDBRANCH   4   5
ENDBRANCH   3   4
ENDBRANCH   2   3
ENDBRANCH   1   2
BRANCH   1  25
ATOM     25  C   UNL A   1      37.923  32.587  41.227  1.00  0.00     0.188 C 
BRANCH  25  26
ATOM     26  C   UNL A   1      39.110  33.422  41.745  1.00  0.00     0.188 C 
BRANCH  26  27
ATOM     27  O   UNL A   1      39.412  34.560  40.945  1.00  0.00    -0.376 OA
BRANCH  27  28
ATOM     28  C   UNL A   1      38.596  35.717  41.059  1.00  0.00     0.202 C 
BRANCH  28  29
ATOM     29  C   UNL A   1      38.923  36.923  40.161  1.00  0.00     0.261 C 
BRANCH  29  30
ATOM     30  O   UNL A   1      39.527  36.635  38.891  1.00  0.00    -0.460 OA
BRANCH  30  31
ATOM     31  C   UNL A   1      40.831  36.932  38.725  1.00  0.00     0.338 C 
ATOM     32  O   UNL A   1      41.565  37.498  39.518  1.00  0.00    -0.246 OA
BRANCH  31  33
ATOM     33  C   UNL A   1      41.293  36.268  37.488  1.00  0.00     0.060 A 
ATOM     34  C   UNL A   1      40.343  35.902  36.523  1.00  0.00     0.016 A 
ATOM     35  C   UNL A   1      42.650  36.020  37.269  1.00  0.00     0.016 A 
ATOM     36  C   UNL A   1      40.744  35.252  35.357  1.00  0.00     0.010 A 
ATOM     37  C   UNL A   1      43.049  35.345  36.113  1.00  0.00     0.010 A 
ATOM     38  C   UNL A   1      42.093  34.925  35.170  1.00  0.00    -0.014 A 
BRANCH  38  39
ATOM     39  C   UNL A   1      42.471  33.960  34.109  1.00  0.00     0.031 A 
ATOM     40  C   UNL A   1      42.746  34.494  32.731  1.00  0.00     0.074 A 
ATOM     41  C   UNL A   1      42.591  32.646  34.361  1.00  0.00     0.049 A 
ATOM     42  N   UNL A   1      43.045  33.853  31.630  1.00  0.00    -0.248 NA
ATOM     43  C   UNL A   1      42.670  35.955  32.575  1.00  0.00     0.031 C 
ATOM     44  C   UNL A   1      42.396  32.014  35.662  1.00  0.00     0.029 A 
ATOM     45  N   UNL A   1      42.897  31.605  33.519  1.00  0.00    -0.354 N 
ATOM     46  C   UNL A   1      43.181  34.830  30.653  1.00  0.00     0.074 A 
ATOM     47  C   UNL A   1      42.900  36.102  31.280  1.00  0.00     0.031 C 
ATOM     48  C   UNL A   1      42.572  30.687  35.531  1.00  0.00     0.029 A 
ATOM     49  C   UNL A   1      42.857  30.376  34.129  1.00  0.00     0.049 A 
ATOM     50  H   UNL A   1      43.125  31.728  32.569  1.00  0.00     0.167 HD
ATOM     51  C   UNL A   1      43.518  34.681  29.349  1.00  0.00     0.037 A 
ATOM     52  C   UNL A   1      43.005  29.143  33.607  1.00  0.00     0.037 A 
ATOM     53  C   UNL A   1      43.787  33.412  28.726  1.00  0.00     0.049 A 
ATOM     54  C   UNL A   1      43.298  28.993  32.135  1.00  0.00     0.074 A 
ATOM     55  C   UNL A   1      44.153  33.153  27.419  1.00  0.00     0.029 A 
ATOM     56  N   UNL A   1      43.700  32.184  29.369  1.00  0.00    -0.354 N 
ATOM     57  N   UNL A   1      43.454  29.919  31.221  1.00  0.00    -0.248 NA
ATOM     58  C   UNL A   1      43.439  27.621  31.624  1.00  0.00     0.031 C 
ATOM     59  C   UNL A   1      44.223  31.765  27.252  1.00  0.00     0.029 A 
ATOM     60  C   UNL A   1      43.973  31.162  28.474  1.00  0.00     0.049 A 
ATOM     61  H   UNL A   1      43.479  32.058  30.320  1.00  0.00     0.167 HD
ATOM     62  C   UNL A   1      43.742  29.249  30.038  1.00  0.00     0.074 A 
ATOM     63  C   UNL A   1      43.750  27.836  30.354  1.00  0.00     0.031 C 
ATOM     64  C   UNL A   1      43.982  29.758  28.803  1.00  0.00     0.037 A 
BRANCH  51  65
ATOM     65  C   UNL A   1      43.571  35.923  28.504  1.00  0.00     0.064 A 
ATOM     66  C   UNL A   1      42.422  36.471  27.914  1.00  0.00     0.173 A 
ATOM     67  C   UNL A   1      44.794  36.576  28.285  1.00  0.00     0.173 A 
ATOM     68  F   UNL A   1      41.230  35.878  28.079  1.00  0.00    -0.203 F 
ATOM     69  C   UNL A   1      42.500  37.602  27.106  1.00  0.00     0.198 A 
ATOM     70  C   UNL A   1      44.863  37.727  27.505  1.00  0.00     0.198 A 
ATOM     71  F   UNL A   1      45.924  36.098  28.826  1.00  0.00    -0.203 F 
ATOM     72  F   UNL A   1      41.400  38.068  26.499  1.00  0.00    -0.200 F 
ATOM     73  C   UNL A   1      43.720  38.232  26.907  1.00  0.00     0.200 A 
ATOM     74  F   UNL A   1      46.040  38.343  27.327  1.00  0.00    -0.200 F 
ATOM     75  F   UNL A   1      43.794  39.321  26.129  1.00  0.00    -0.200 F 
ENDBRANCH  51  65
BRANCH  52  76
ATOM     76  C   UNL A   1      42.867  27.948  34.482  1.00  0.00     0.064 A 
ATOM     77  C   UNL A   1      43.932  27.502  35.276  1.00  0.00     0.173 A 
ATOM     78  C   UNL A   1      41.667  27.222  34.537  1.00  0.00     0.173 A 
ATOM     79  F   UNL A   1      45.109  28.145  35.239  1.00  0.00    -0.203 F 
ATOM     80  C   UNL A   1      43.808  26.371  36.080  1.00  0.00     0.198 A 
ATOM     81  C   UNL A   1      41.533  26.110  35.364  1.00  0.00     0.198 A 
ATOM     82  F   UNL A   1      40.617  27.603  33.794  1.00  0.00    -0.203 F 
ATOM     83  F   UNL A   1      44.856  25.941  36.796  1.00  0.00    -0.200 F 
ATOM     84  C   UNL A   1      42.606  25.680  36.131  1.00  0.00     0.200 A 
ATOM     85  F   UNL A   1      40.366  25.455  35.420  1.00  0.00    -0.200 F 
ATOM     86  F   UNL A   1      42.484  24.598  36.911  1.00  0.00    -0.200 F 
ENDBRANCH  52  76
BRANCH  64  87
ATOM     87  C   UNL A   1      44.318  28.788  27.704  1.00  0.00     0.064 A 
ATOM     88  C   UNL A   1      43.340  28.284  26.832  1.00  0.00     0.173 A 
ATOM     89  C   UNL A   1      45.649  28.393  27.491  1.00  0.00     0.173 A 
ATOM     90  F   UNL A   1      42.052  28.619  26.998  1.00  0.00    -0.203 F 
ATOM     91  C   UNL A   1      43.678  27.402  25.808  1.00  0.00     0.198 A 
ATOM     92  C   UNL A   1      45.988  27.540  26.444  1.00  0.00     0.198 A 
ATOM     93  F   UNL A   1      46.626  28.851  28.287  1.00  0.00    -0.203 F 
ATOM     94  F   UNL A   1      42.720  26.893  25.022  1.00  0.00    -0.200 F 
ATOM     95  C   UNL A   1      45.002  27.037  25.610  1.00  0.00     0.200 A 
ATOM     96  F   UNL A   1      47.270  27.205  26.243  1.00  0.00    -0.200 F 
ATOM     97  F   UNL A   1      45.326  26.197  24.619  1.00  0.00    -0.200 F 
ENDBRANCH  64  87
ENDBRANCH  38  39
ENDBRANCH  31  33
ENDBRANCH  30  31
ENDBRANCH  29  30
ENDBRANCH  28  29
ENDBRANCH  27  28
ENDBRANCH  26  27
ENDBRANCH  25  26
ENDBRANCH   1  25
TORSDOF 23
ENDMDL
MODEL 2
REMARK VINA RESULT:      -7.4      7.353     11.714
REMARK SMILES Cn1cc(C[C@H](C(=O)OCCOCCOCCOCCOC(=O)c2ccc(-c3c4nc(c(-c5c(F)c(F)c(F)c(F)c5F)c5ccc([nH]5)c(-c5c(F)c(F)c(F)c(F)c5F)c5nc(c(-c6c(F)c(F)c(F)c(F)c6F)c6ccc3[nH]6)C=C5)C=C4)cc2)c2ccc(F)cc2)cn1
REMARK SMILES IDX 15 1 14 2 13 3 12 4 11 5 10 6 9 7 7 8 8 9 6 10 5 11 4 12
REMARK SMILES IDX 1 13 2 14 3 15 95 16 94 17 87 18 88 19 93 20 89 21 92 22
REMARK SMILES IDX 90 23 91 24 16 25 17 26 18 27 19 28 20 29 21 30 22 31 23 32
REMARK SMILES IDX 24 33 25 34 86 35 26 36 85 37 27 38 28 39 29 40 79 41 30 42
REMARK SMILES IDX 84 43 78 44 80 45 31 46 83 47 77 48 76 49 32 51 64 52 44 53
REMARK SMILES IDX 63 54 45 55 48 56 62 57 81 58 46 59 47 60 61 62 82 63 49 64
REMARK SMILES IDX 33 65 34 66 42 67 35 68 36 69 40 70 43 71 37 72 38 73 41 74
REMARK SMILES IDX 39 75 65 76 66 77 74 78 67 79 68 80 72 81 75 82 69 83 70 84
REMARK SMILES IDX 73 85 71 86 50 87 51 88 59 89 52 90 53 91 57 92 60 93 54 94
REMARK SMILES IDX 55 95 58 96 56 97
REMARK H PARENT 80 50 48 61
REMARK Flexibility Score: inf
ROOT
ATOM      1  O   UNL A   1      44.795  20.150  24.261  1.00  0.00    -0.377 OA
ENDROOT
BRANCH   1   2
ATOM      2  C   UNL A   1      45.767  20.816  25.041  1.00  0.00     0.188 C 
BRANCH   2   3
ATOM      3  C   UNL A   1      45.379  22.245  25.466  1.00  0.00     0.188 C 
BRANCH   3   4
ATOM      4  O   UNL A   1      44.069  22.739  25.219  1.00  0.00    -0.376 OA
BRANCH   4   5
ATOM      5  C   UNL A   1      43.892  24.021  24.631  1.00  0.00     0.202 C 
BRANCH   5   6
ATOM      6  C   UNL A   1      43.851  25.292  25.503  1.00  0.00     0.261 C 
BRANCH   6   7
ATOM      7  O   UNL A   1      42.575  25.959  25.555  1.00  0.00    -0.463 OA
BRANCH   7   8
ATOM      8  C   UNL A   1      42.559  27.300  25.370  1.00  0.00     0.313 C 
ATOM      9  O   UNL A   1      42.720  27.835  24.277  1.00  0.00    -0.252 OA
BRANCH   8  10
ATOM     10  C   UNL A   1      42.202  28.121  26.620  1.00  0.00     0.134 C 
BRANCH  10  11
ATOM     11  C   UNL A   1      41.020  27.365  27.285  1.00  0.00     0.059 C 
BRANCH  11  12
ATOM     12  C   UNL A   1      39.920  28.208  27.840  1.00  0.00    -0.009 A 
ATOM     13  C   UNL A   1      37.302  29.105  30.147  1.00  0.00     0.173 C 
ATOM     14  N   UNL A   1      38.307  28.970  29.122  1.00  0.00    -0.276 N 
ATOM     15  C   UNL A   1      39.291  28.030  29.057  1.00  0.00     0.112 A 
ATOM     16  N   UNL A   1      38.292  29.798  28.065  1.00  0.00    -0.182 NA
ATOM     17  C   UNL A   1      39.265  29.330  27.283  1.00  0.00     0.138 A 
ENDBRANCH  11  12
ENDBRANCH  10  11
BRANCH  10  18
ATOM     18  C   UNL A   1      43.345  28.523  27.577  1.00  0.00    -0.033 A 
ATOM     19  C   UNL A   1      44.626  28.819  27.077  1.00  0.00     0.007 A 
ATOM     20  C   UNL A   1      43.154  28.645  28.973  1.00  0.00     0.007 A 
ATOM     21  C   UNL A   1      45.681  29.150  27.936  1.00  0.00     0.039 A 
ATOM     22  C   UNL A   1      44.208  28.973  29.831  1.00  0.00     0.039 A 
ATOM     23  C   UNL A   1      45.466  29.215  29.305  1.00  0.00     0.123 A 
ATOM     24  F   UNL A   1      46.481  29.518  30.125  1.00  0.00    -0.207 F 
ENDBRANCH  10  18
ENDBRANCH   8  10
ENDBRANCH   7   8
ENDBRANCH   6   7
ENDBRANCH   5   6
ENDBRANCH   4   5
ENDBRANCH   3   4
ENDBRANCH   2   3
ENDBRANCH   1   2
BRANCH   1  25
ATOM     25  C   UNL A   1      44.267  18.954  24.810  1.00  0.00     0.188 C 
BRANCH  25  26
ATOM     26  C   UNL A   1      43.154  19.086  25.867  1.00  0.00     0.188 C 
BRANCH  26  27
ATOM     27  O   UNL A   1      41.928  19.598  25.359  1.00  0.00    -0.376 OA
BRANCH  27  28
ATOM     28  C   UNL A   1      40.801  19.668  26.222  1.00  0.00     0.202 C 
BRANCH  28  29
ATOM     29  C   UNL A   1      40.670  20.895  27.141  1.00  0.00     0.261 C 
BRANCH  29  30
ATOM     30  O   UNL A   1      41.545  22.000  26.869  1.00  0.00    -0.460 OA
BRANCH  30  31
ATOM     31  C   UNL A   1      41.208  23.210  27.357  1.00  0.00     0.338 C 
ATOM     32  O   UNL A   1      40.195  23.847  27.120  1.00  0.00    -0.246 OA
BRANCH  31  33
ATOM     33  C   UNL A   1      42.187  23.561  28.409  1.00  0.00     0.060 A 
ATOM     34  C   UNL A   1      42.264  24.891  28.843  1.00  0.00     0.016 A 
ATOM     35  C   UNL A   1      43.012  22.585  28.976  1.00  0.00     0.016 A 
ATOM     36  C   UNL A   1      43.194  25.258  29.815  1.00  0.00     0.010 A 
ATOM     37  C   UNL A   1      43.962  22.958  29.930  1.00  0.00     0.010 A 
ATOM     38  C   UNL A   1      44.081  24.303  30.326  1.00  0.00    -0.014 A 
BRANCH  38  39
ATOM     39  C   UNL A   1      45.266  24.746  31.100  1.00  0.00     0.031 A 
ATOM     40  C   UNL A   1      46.390  25.411  30.356  1.00  0.00     0.074 A 
ATOM     41  C   UNL A   1      45.339  24.585  32.432  1.00  0.00     0.049 A 
ATOM     42  N   UNL A   1      47.546  25.840  30.795  1.00  0.00    -0.248 NA
ATOM     43  C   UNL A   1      46.180  25.617  28.914  1.00  0.00     0.031 C 
ATOM     44  C   UNL A   1      44.299  23.998  33.271  1.00  0.00     0.029 A 
ATOM     45  N   UNL A   1      46.349  24.896  33.310  1.00  0.00    -0.354 N 
ATOM     46  C   UNL A   1      48.201  26.355  29.684  1.00  0.00     0.074 A 
ATOM     47  C   UNL A   1      47.332  26.155  28.546  1.00  0.00     0.031 C 
ATOM     48  C   UNL A   1      44.730  23.976  34.545  1.00  0.00     0.029 A 
ATOM     49  C   UNL A   1      46.090  24.514  34.602  1.00  0.00     0.049 A 
ATOM     50  H   UNL A   1      47.179  25.351  33.038  1.00  0.00     0.167 HD
ATOM     51  C   UNL A   1      49.417  26.949  29.620  1.00  0.00     0.037 A 
ATOM     52  C   UNL A   1      46.873  24.570  35.697  1.00  0.00     0.037 A 
ATOM     53  C   UNL A   1      50.283  27.137  30.753  1.00  0.00     0.049 A 
ATOM     54  C   UNL A   1      48.257  25.159  35.588  1.00  0.00     0.074 A 
ATOM     55  C   UNL A   1      51.526  27.742  30.799  1.00  0.00     0.029 A 
ATOM     56  N   UNL A   1      50.000  26.704  32.042  1.00  0.00    -0.354 N 
ATOM     57  N   UNL A   1      48.862  25.671  34.543  1.00  0.00    -0.248 NA
ATOM     58  C   UNL A   1      49.066  25.182  36.815  1.00  0.00     0.031 C 
ATOM     59  C   UNL A   1      52.025  27.616  32.100  1.00  0.00     0.029 A 
ATOM     60  C   UNL A   1      51.062  26.998  32.883  1.00  0.00     0.049 A 
ATOM     61  H   UNL A   1      49.169  26.255  32.318  1.00  0.00     0.167 HD
ATOM     62  C   UNL A   1      50.105  26.104  34.990  1.00  0.00     0.074 A 
ATOM     63  C   UNL A   1      50.163  25.804  36.406  1.00  0.00     0.031 C 
ATOM     64  C   UNL A   1      51.105  26.698  34.293  1.00  0.00     0.037 A 
BRANCH  51  65
ATOM     65  C   UNL A   1      49.894  27.399  28.267  1.00  0.00     0.064 A 
ATOM     66  C   UNL A   1      49.815  28.739  27.858  1.00  0.00     0.173 A 
ATOM     67  C   UNL A   1      50.441  26.472  27.367  1.00  0.00     0.173 A 
ATOM     68  F   UNL A   1      49.286  29.664  28.674  1.00  0.00    -0.203 F 
ATOM     69  C   UNL A   1      50.229  29.127  26.587  1.00  0.00     0.198 A 
ATOM     70  C   UNL A   1      50.887  26.869  26.110  1.00  0.00     0.198 A 
ATOM     71  F   UNL A   1      50.543  25.178  27.706  1.00  0.00    -0.203 F 
ATOM     72  F   UNL A   1      50.083  30.400  26.195  1.00  0.00    -0.200 F 
ATOM     73  C   UNL A   1      50.771  28.193  25.716  1.00  0.00     0.200 A 
ATOM     74  F   UNL A   1      51.424  25.968  25.276  1.00  0.00    -0.200 F 
ATOM     75  F   UNL A   1      51.170  28.567  24.493  1.00  0.00    -0.200 F 
ENDBRANCH  51  65
BRANCH  52  76
ATOM     76  C   UNL A   1      46.371  24.040  36.993  1.00  0.00     0.064 A 
ATOM     77  C   UNL A   1      45.765  24.882  37.935  1.00  0.00     0.173 A 
ATOM     78  C   UNL A   1      46.492  22.680  37.318  1.00  0.00     0.173 A 
ATOM     79  F   UNL A   1      45.650  26.195  37.684  1.00  0.00    -0.203 F 
ATOM     80  C   UNL A   1      45.313  24.388  39.158  1.00  0.00     0.198 A 
ATOM     81  C   UNL A   1      46.012  22.181  38.526  1.00  0.00     0.198 A 
ATOM     82  F   UNL A   1      47.067  21.832  36.453  1.00  0.00    -0.203 F 
ATOM     83  F   UNL A   1      44.777  25.223  40.059  1.00  0.00    -0.200 F 
ATOM     84  C   UNL A   1      45.429  23.036  39.449  1.00  0.00     0.200 A 
ATOM     85  F   UNL A   1      46.114  20.873  38.797  1.00  0.00    -0.200 F 
ATOM     86  F   UNL A   1      44.985  22.561  40.620  1.00  0.00    -0.200 F 
ENDBRANCH  52  76
BRANCH  64  87
ATOM     87  C   UNL A   1      52.336  27.108  35.054  1.00  0.00     0.064 A 
ATOM     88  C   UNL A   1      52.421  28.340  35.721  1.00  0.00     0.173 A 
ATOM     89  C   UNL A   1      53.429  26.233  35.157  1.00  0.00     0.173 A 
ATOM     90  F   UNL A   1      51.411  29.219  35.646  1.00  0.00    -0.203 F 
ATOM     91  C   UNL A   1      53.564  28.690  36.437  1.00  0.00     0.198 A 
ATOM     92  C   UNL A   1      54.555  26.570  35.904  1.00  0.00     0.198 A 
ATOM     93  F   UNL A   1      53.399  25.037  34.548  1.00  0.00    -0.203 F 
ATOM     94  F   UNL A   1      53.643  29.893  37.021  1.00  0.00    -0.200 F 
ATOM     95  C   UNL A   1      54.625  27.803  36.535  1.00  0.00     0.200 A 
ATOM     96  F   UNL A   1      55.570  25.703  36.013  1.00  0.00    -0.200 F 
ATOM     97  F   UNL A   1      55.719  28.137  37.232  1.00  0.00    -0.200 F 
ENDBRANCH  64  87
ENDBRANCH  38  39
ENDBRANCH  31  33
ENDBRANCH  30  31
ENDBRANCH  29  30
ENDBRANCH  28  29
ENDBRANCH  27  28
ENDBRANCH  26  27
ENDBRANCH  25  26
ENDBRANCH   1  25
TORSDOF 23
ENDMDL
MODEL 3
REMARK VINA RESULT:      -7.2      7.047     12.473
REMARK SMILES Cn1cc(C[C@H](C(=O)OCCOCCOCCOCCOC(=O)c2ccc(-c3c4nc(c(-c5c(F)c(F)c(F)c(F)c5F)c5ccc([nH]5)c(-c5c(F)c(F)c(F)c(F)c5F)c5nc(c(-c6c(F)c(F)c(F)c(F)c6F)c6ccc3[nH]6)C=C5)C=C4)cc2)c2ccc(F)cc2)cn1
REMARK SMILES IDX 15 1 14 2 13 3 12 4 11 5 10 6 9 7 7 8 8 9 6 10 5 11 4 12
REMARK SMILES IDX 1 13 2 14 3 15 95 16 94 17 87 18 88 19 93 20 89 21 92 22
REMARK SMILES IDX 90 23 91 24 16 25 17 26 18 27 19 28 20 29 21 30 22 31 23 32
REMARK SMILES IDX 24 33 25 34 86 35 26 36 85 37 27 38 28 39 29 40 79 41 30 42
REMARK SMILES IDX 84 43 78 44 80 45 31 46 83 47 77 48 76 49 32 51 64 52 44 53
REMARK SMILES IDX 63 54 45 55 48 56 62 57 81 58 46 59 47 60 61 62 82 63 49 64
REMARK SMILES IDX 33 65 34 66 42 67 35 68 36 69 40 70 43 71 37 72 38 73 41 74
REMARK SMILES IDX 39 75 65 76 66 77 74 78 67 79 68 80 72 81 75 82 69 83 70 84
REMARK SMILES IDX 73 85 71 86 50 87 51 88 59 89 52 90 53 91 57 92 60 93 54 94
REMARK SMILES IDX 55 95 58 96 56 97
REMARK H PARENT 80 50 48 61
REMARK Flexibility Score: inf
ROOT
ATOM      1  O   UNL A   1      32.946  29.423  27.290  1.00  0.00    -0.377 OA
ENDROOT
BRANCH   1   2
ATOM      2  C   UNL A   1      32.510  30.639  26.718  1.00  0.00     0.188 C 
BRANCH   2   3
ATOM      3  C   UNL A   1      31.496  30.480  25.569  1.00  0.00     0.188 C 
BRANCH   3   4
ATOM      4  O   UNL A   1      31.175  29.191  25.065  1.00  0.00    -0.376 OA
BRANCH   4   5
ATOM      5  C   UNL A   1      31.467  28.862  23.713  1.00  0.00     0.202 C 
BRANCH   5   6
ATOM      6  C   UNL A   1      32.567  27.838  23.369  1.00  0.00     0.261 C 
BRANCH   6   7
ATOM      7  O   UNL A   1      32.091  26.538  22.972  1.00  0.00    -0.463 OA
BRANCH   7   8
ATOM      8  C   UNL A   1      33.015  25.603  22.645  1.00  0.00     0.313 C 
ATOM      9  O   UNL A   1      33.793  25.721  21.702  1.00  0.00    -0.252 OA
BRANCH   8  10
ATOM     10  C   UNL A   1      33.108  24.417  23.619  1.00  0.00     0.134 C 
BRANCH  10  11
ATOM     11  C   UNL A   1      32.234  23.298  22.988  1.00  0.00     0.059 C 
BRANCH  11  12
ATOM     12  C   UNL A   1      32.239  21.979  23.687  1.00  0.00    -0.009 A 
ATOM     13  C   UNL A   1      32.408  18.389  23.945  1.00  0.00     0.173 C 
ATOM     14  N   UNL A   1      32.343  19.822  24.092  1.00  0.00    -0.276 N 
ATOM     15  C   UNL A   1      32.536  20.756  23.118  1.00  0.00     0.112 A 
ATOM     16  N   UNL A   1      32.010  20.353  25.279  1.00  0.00    -0.182 NA
ATOM     17  C   UNL A   1      31.938  21.661  25.031  1.00  0.00     0.138 A 
ENDBRANCH  11  12
ENDBRANCH  10  11
BRANCH  10  18
ATOM     18  C   UNL A   1      34.508  23.970  24.089  1.00  0.00    -0.033 A 
ATOM     19  C   UNL A   1      34.946  24.247  25.397  1.00  0.00     0.007 A 
ATOM     20  C   UNL A   1      35.390  23.244  23.254  1.00  0.00     0.007 A 
ATOM     21  C   UNL A   1      36.227  23.880  25.826  1.00  0.00     0.039 A 
ATOM     22  C   UNL A   1      36.670  22.880  23.682  1.00  0.00     0.039 A 
ATOM     23  C   UNL A   1      37.081  23.208  24.963  1.00  0.00     0.123 A 
ATOM     24  F   UNL A   1      38.311  22.870  25.372  1.00  0.00    -0.207 F 
ENDBRANCH  10  18
ENDBRANCH   8  10
ENDBRANCH   7   8
ENDBRANCH   6   7
ENDBRANCH   5   6
ENDBRANCH   4   5
ENDBRANCH   3   4
ENDBRANCH   2   3
ENDBRANCH   1   2
BRANCH   1  25
ATOM     25  C   UNL A   1      34.228  28.970  26.890  1.00  0.00     0.188 C 
BRANCH  25  26
ATOM     26  C   UNL A   1      35.450  29.782  27.363  1.00  0.00     0.188 C 
BRANCH  26  27
ATOM     27  O   UNL A   1      35.897  29.448  28.673  1.00  0.00    -0.376 OA
BRANCH  27  28
ATOM     28  C   UNL A   1      37.264  29.647  29.004  1.00  0.00     0.202 C 
BRANCH  28  29
ATOM     29  C   UNL A   1      37.834  28.876  30.207  1.00  0.00     0.261 C 
BRANCH  29  30
ATOM     30  O   UNL A   1      37.213  29.115  31.479  1.00  0.00    -0.460 OA
BRANCH  30  31
ATOM     31  C   UNL A   1      37.785  28.580  32.576  1.00  0.00     0.338 C 
ATOM     32  O   UNL A   1      38.058  27.407  32.769  1.00  0.00    -0.246 OA
BRANCH  31  33
ATOM     33  C   UNL A   1      38.228  29.694  33.442  1.00  0.00     0.060 A 
ATOM     34  C   UNL A   1      39.428  29.559  34.155  1.00  0.00     0.016 A 
ATOM     35  C   UNL A   1      37.479  30.869  33.540  1.00  0.00     0.016 A 
ATOM     36  C   UNL A   1      39.859  30.581  34.999  1.00  0.00     0.010 A 
ATOM     37  C   UNL A   1      37.898  31.882  34.407  1.00  0.00     0.010 A 
ATOM     38  C   UNL A   1      39.071  31.726  35.167  1.00  0.00    -0.014 A 
BRANCH  38  39
ATOM     39  C   UNL A   1      39.354  32.650  36.292  1.00  0.00     0.031 A 
ATOM     40  C   UNL A   1      40.433  33.680  36.109  1.00  0.00     0.074 A 
ATOM     41  C   UNL A   1      38.659  32.596  37.441  1.00  0.00     0.049 A 
ATOM     42  N   UNL A   1      40.899  34.563  36.954  1.00  0.00    -0.248 NA
ATOM     43  C   UNL A   1      41.079  33.713  34.787  1.00  0.00     0.031 C 
ATOM     44  C   UNL A   1      37.562  31.676  37.723  1.00  0.00     0.029 A 
ATOM     45  N   UNL A   1      38.789  33.333  38.593  1.00  0.00    -0.354 N 
ATOM     46  C   UNL A   1      41.895  35.248  36.271  1.00  0.00     0.074 A 
ATOM     47  C   UNL A   1      41.992  34.657  34.955  1.00  0.00     0.031 C 
ATOM     48  C   UNL A   1      37.126  31.892  38.976  1.00  0.00     0.029 A 
ATOM     49  C   UNL A   1      37.938  32.940  39.595  1.00  0.00     0.049 A 
ATOM     50  H   UNL A   1      39.431  34.073  38.690  1.00  0.00     0.167 HD
ATOM     51  C   UNL A   1      42.657  36.283  36.700  1.00  0.00     0.037 A 
ATOM     52  C   UNL A   1      37.846  33.362  40.871  1.00  0.00     0.037 A 
ATOM     53  C   UNL A   1      42.564  36.861  38.014  1.00  0.00     0.049 A 
ATOM     54  C   UNL A   1      38.762  34.459  41.355  1.00  0.00     0.074 A 
ATOM     55  C   UNL A   1      43.277  37.921  38.542  1.00  0.00     0.029 A 
ATOM     56  N   UNL A   1      41.713  36.412  39.015  1.00  0.00    -0.354 N 
ATOM     57  N   UNL A   1      39.682  35.123  40.698  1.00  0.00    -0.248 NA
ATOM     58  C   UNL A   1      38.620  34.869  42.760  1.00  0.00     0.031 C 
ATOM     59  C   UNL A   1      42.906  38.072  39.883  1.00  0.00     0.029 A 
ATOM     60  C   UNL A   1      41.909  37.153  40.170  1.00  0.00     0.049 A 
ATOM     61  H   UNL A   1      41.066  35.676  38.919  1.00  0.00     0.167 HD
ATOM     62  C   UNL A   1      40.206  36.046  41.596  1.00  0.00     0.074 A 
ATOM     63  C   UNL A   1      39.492  35.864  42.842  1.00  0.00     0.031 C 
ATOM     64  C   UNL A   1      41.187  36.964  41.404  1.00  0.00     0.037 A 
BRANCH  51  65
ATOM     65  C   UNL A   1      43.685  36.823  35.746  1.00  0.00     0.064 A 
ATOM     66  C   UNL A   1      45.028  36.417  35.792  1.00  0.00     0.173 A 
ATOM     67  C   UNL A   1      43.319  37.761  34.769  1.00  0.00     0.173 A 
ATOM     68  F   UNL A   1      45.436  35.535  36.717  1.00  0.00    -0.203 F 
ATOM     69  C   UNL A   1      45.971  36.958  34.923  1.00  0.00     0.198 A 
ATOM     70  C   UNL A   1      44.257  38.273  33.878  1.00  0.00     0.198 A 
ATOM     71  F   UNL A   1      42.049  38.183  34.678  1.00  0.00    -0.203 F 
ATOM     72  F   UNL A   1      47.260  36.605  35.029  1.00  0.00    -0.200 F 
ATOM     73  C   UNL A   1      45.584  37.881  33.962  1.00  0.00     0.200 A 
ATOM     74  F   UNL A   1      43.878  39.153  32.941  1.00  0.00    -0.200 F 
ATOM     75  F   UNL A   1      46.493  38.401  33.125  1.00  0.00    -0.200 F 
ENDBRANCH  51  65
BRANCH  52  76
ATOM     76  C   UNL A   1      36.858  32.736  41.788  1.00  0.00     0.064 A 
ATOM     77  C   UNL A   1      37.232  31.716  42.673  1.00  0.00     0.173 A 
ATOM     78  C   UNL A   1      35.514  33.141  41.794  1.00  0.00     0.173 A 
ATOM     79  F   UNL A   1      38.499  31.274  42.687  1.00  0.00    -0.203 F 
ATOM     80  C   UNL A   1      36.300  31.116  43.518  1.00  0.00     0.198 A 
ATOM     81  C   UNL A   1      34.589  32.563  42.661  1.00  0.00     0.198 A 
ATOM     82  F   UNL A   1      35.101  34.111  40.964  1.00  0.00    -0.203 F 
ATOM     83  F   UNL A   1      36.677  30.113  44.324  1.00  0.00    -0.200 F 
ATOM     84  C   UNL A   1      34.981  31.546  43.518  1.00  0.00     0.200 A 
ATOM     85  F   UNL A   1      33.320  32.991  42.666  1.00  0.00    -0.200 F 
ATOM     86  F   UNL A   1      34.088  30.976  44.338  1.00  0.00    -0.200 F 
ENDBRANCH  52  76
BRANCH  64  87
ATOM     87  C   UNL A   1      41.521  37.876  42.552  1.00  0.00     0.064 A 
ATOM     88  C   UNL A   1      42.582  37.607  43.430  1.00  0.00     0.173 A 
ATOM     89  C   UNL A   1      40.796  39.063  42.747  1.00  0.00     0.173 A 
ATOM     90  F   UNL A   1      43.299  36.482  43.298  1.00  0.00    -0.203 F 
ATOM     91  C   UNL A   1      42.885  38.478  44.476  1.00  0.00     0.198 A 
ATOM     92  C   UNL A   1      41.125  39.948  43.770  1.00  0.00     0.198 A 
ATOM     93  F   UNL A   1      39.778  39.376  41.931  1.00  0.00    -0.203 F 
ATOM     94  F   UNL A   1      43.868  38.173  45.333  1.00  0.00    -0.200 F 
ATOM     95  C   UNL A   1      42.163  39.650  44.639  1.00  0.00     0.200 A 
ATOM     96  F   UNL A   1      40.438  41.090  43.913  1.00  0.00    -0.200 F 
ATOM     97  F   UNL A   1      42.463  40.490  45.639  1.00  0.00    -0.200 F 
ENDBRANCH  64  87
ENDBRANCH  38  39
ENDBRANCH  31  33
ENDBRANCH  30  31
ENDBRANCH  29  30
ENDBRANCH  28  29
ENDBRANCH  27  28
ENDBRANCH  26  27
ENDBRANCH  25  26
ENDBRANCH   1  25
TORSDOF 23
ENDMDL
