MODEL 1
REMARK VINA RESULT:     -10.3      0.000      0.000
REMARK SMILES COc1ccccc1N1C(=O)[C@@H]2[C@@H](C1=O)[C@@](Cc1ccccc1)(C(=O)OCCOCCOCCOCCOC(=O)c1ccc(-c3c4nc(c(-c5c(F)c(F)c(F)c(F)c5F)c5ccc([nH]5)c(-c5c(F)c(F)c(F)c(F)c5F)c5nc(c(-c6c(F)c(F)c(F)c(F)c6F)c6ccc3[nH]6)C=C5)C=C4)cc1)[NH2+][C@H]2c1ccc(C)cc1
REMARK SMILES IDX 32 1 31 2 30 3 29 4 28 5 27 6 26 7 24 8 25 9 16 10 9 11
REMARK SMILES IDX 10 12 14 13 11 14 12 15 13 16 15 17 105 18 104 19 8 22 3 23
REMARK SMILES IDX 4 24 5 25 7 26 6 27 2 28 1 29 106 30 107 31 112 32 108 33
REMARK SMILES IDX 111 34 109 35 110 36 17 37 18 38 19 39 23 40 20 41 22 42
REMARK SMILES IDX 21 43 33 44 34 45 35 46 36 47 37 48 38 49 39 50 40 51 41 52
REMARK SMILES IDX 42 53 103 54 43 55 102 56 44 57 45 58 46 59 96 60 47 61
REMARK SMILES IDX 101 62 95 63 97 64 48 65 100 66 94 67 93 68 49 70 81 71
REMARK SMILES IDX 61 72 80 73 62 74 65 75 79 76 98 77 63 78 64 79 78 81 99 82
REMARK SMILES IDX 66 83 50 84 51 85 59 86 52 87 53 88 57 89 60 90 54 91 55 92
REMARK SMILES IDX 58 93 56 94 82 95 83 96 91 97 84 98 85 99 89 100 92 101
REMARK SMILES IDX 86 102 87 103 90 104 88 105 67 106 68 107 76 108 69 109
REMARK SMILES IDX 70 110 74 111 77 112 71 113 72 114 75 115 73 116
REMARK H PARENT 104 20 104 21 97 69 65 80
REMARK Flexibility Score: inf
ROOT
ATOM      1  O   UNL A   1      31.106  31.199  26.541  1.00  0.00    -0.377 OA
ENDROOT
BRANCH   1   2
ATOM      2  C   UNL A   1      31.648  30.178  25.725  1.00  0.00     0.188 C 
BRANCH   2   3
ATOM      3  C   UNL A   1      32.273  28.873  26.267  1.00  0.00     0.188 C 
BRANCH   3   4
ATOM      4  O   UNL A   1      31.488  27.707  26.114  1.00  0.00    -0.376 OA
BRANCH   4   5
ATOM      5  C   UNL A   1      32.086  26.453  26.391  1.00  0.00     0.202 C 
BRANCH   5   6
ATOM      6  C   UNL A   1      31.177  25.219  26.405  1.00  0.00     0.261 C 
BRANCH   6   7
ATOM      7  O   UNL A   1      31.871  23.956  26.442  1.00  0.00    -0.459 OA
BRANCH   7   8
ATOM      8  C   UNL A   1      31.306  22.909  25.822  1.00  0.00     0.369 C 
ATOM      9  O   UNL A   1      30.107  22.666  25.943  1.00  0.00    -0.245 OA
BRANCH   8  10
ATOM     10  C   UNL A   1      32.306  21.953  25.035  1.00  0.00     0.211 C 
ATOM     11  N   UNL A   1      36.041  22.637  25.326  1.00  0.00    -0.246 N 
ATOM     12  C   UNL A   1      35.553  23.486  24.345  1.00  0.00     0.244 C 
ATOM     13  C   UNL A   1      35.018  21.859  25.874  1.00  0.00     0.245 C 
ATOM     14  O   UNL A   1      36.159  24.178  23.544  1.00  0.00    -0.273 OA
ATOM     15  C   UNL A   1      34.068  23.456  24.495  1.00  0.00     0.162 C 
ATOM     16  C   UNL A   1      33.830  22.050  24.965  1.00  0.00     0.172 C 
ATOM     17  O   UNL A   1      35.071  21.118  26.836  1.00  0.00    -0.273 OA
ATOM     18  C   UNL A   1      33.150  23.536  23.303  1.00  0.00     0.228 C 
ATOM     19  N   UNL A   1      32.111  22.467  23.567  1.00  0.00    -0.324 N 
ATOM     20  H   UNL A   1      31.175  22.859  23.459  1.00  0.00     0.347 HD
ATOM     21  H   UNL A   1      32.219  21.698  22.905  1.00  0.00     0.347 HD
BRANCH  11  22
ATOM     22  C   UNL A   1      37.415  22.579  25.696  1.00  0.00     0.094 A 
ATOM     23  C   UNL A   1      38.258  21.493  25.397  1.00  0.00     0.143 A 
ATOM     24  C   UNL A   1      39.584  21.466  25.857  1.00  0.00     0.048 A 
ATOM     25  C   UNL A   1      40.103  22.529  26.592  1.00  0.00     0.004 A 
ATOM     26  C   UNL A   1      37.972  23.654  26.418  1.00  0.00     0.031 A 
ATOM     27  C   UNL A   1      39.296  23.626  26.871  1.00  0.00     0.002 A 
BRANCH  23  28
ATOM     28  O   UNL A   1      37.877  20.390  24.678  1.00  0.00    -0.495 OA
ATOM     29  C   UNL A   1      38.263  19.163  25.289  1.00  0.00     0.278 C 
ENDBRANCH  23  28
ENDBRANCH  11  22
BRANCH  18  30
ATOM     30  C   UNL A   1      32.582  24.923  23.037  1.00  0.00     0.010 A 
ATOM     31  C   UNL A   1      33.372  26.075  22.879  1.00  0.00     0.010 A 
ATOM     32  C   UNL A   1      31.193  25.082  22.930  1.00  0.00     0.010 A 
ATOM     33  C   UNL A   1      32.808  27.326  22.620  1.00  0.00     0.004 A 
ATOM     34  C   UNL A   1      30.623  26.334  22.663  1.00  0.00     0.004 A 
ATOM     35  C   UNL A   1      31.428  27.465  22.504  1.00  0.00    -0.051 A 
ATOM     36  C   UNL A   1      30.840  28.819  22.241  1.00  0.00     0.044 C 
ENDBRANCH  18  30
BRANCH  10  37
ATOM     37  C   UNL A   1      31.788  20.486  25.198  1.00  0.00     0.117 C 
BRANCH  37  38
ATOM     38  C   UNL A   1      32.503  19.394  24.409  1.00  0.00    -0.041 A 
ATOM     39  C   UNL A   1      33.545  18.662  25.001  1.00  0.00     0.004 A 
ATOM     40  C   UNL A   1      32.165  19.073  23.083  1.00  0.00     0.004 A 
ATOM     41  C   UNL A   1      34.178  17.614  24.317  1.00  0.00     0.000 A 
ATOM     42  C   UNL A   1      32.774  18.006  22.410  1.00  0.00     0.000 A 
ATOM     43  C   UNL A   1      33.778  17.274  23.028  1.00  0.00     0.000 A 
ENDBRANCH  37  38
ENDBRANCH  10  37
ENDBRANCH   8  10
ENDBRANCH   7   8
ENDBRANCH   6   7
ENDBRANCH   5   6
ENDBRANCH   4   5
ENDBRANCH   3   4
ENDBRANCH   2   3
ENDBRANCH   1   2
BRANCH   1  44
ATOM     44  C   UNL A   1      31.865  32.362  26.761  1.00  0.00     0.188 C 
BRANCH  44  45
ATOM     45  C   UNL A   1      33.160  32.140  27.556  1.00  0.00     0.188 C 
BRANCH  45  46
ATOM     46  O   UNL A   1      33.556  33.224  28.374  1.00  0.00    -0.376 OA
BRANCH  46  47
ATOM     47  C   UNL A   1      34.757  33.197  29.125  1.00  0.00     0.202 C 
BRANCH  47  48
ATOM     48  C   UNL A   1      35.951  32.242  28.917  1.00  0.00     0.261 C 
BRANCH  48  49
ATOM     49  O   UNL A   1      35.935  30.958  29.538  1.00  0.00    -0.460 OA
BRANCH  49  50
ATOM     50  C   UNL A   1      36.023  29.871  28.743  1.00  0.00     0.338 C 
ATOM     51  O   UNL A   1      35.170  29.404  28.024  1.00  0.00    -0.246 OA
BRANCH  50  52
ATOM     52  C   UNL A   1      37.444  29.459  28.766  1.00  0.00     0.060 A 
ATOM     53  C   UNL A   1      37.931  28.765  29.882  1.00  0.00     0.016 A 
ATOM     54  C   UNL A   1      38.272  29.718  27.672  1.00  0.00     0.016 A 
ATOM     55  C   UNL A   1      39.255  28.336  29.912  1.00  0.00     0.010 A 
ATOM     56  C   UNL A   1      39.611  29.329  27.722  1.00  0.00     0.010 A 
ATOM     57  C   UNL A   1      40.111  28.661  28.854  1.00  0.00    -0.014 A 
BRANCH  57  58
ATOM     58  C   UNL A   1      41.571  28.510  29.038  1.00  0.00     0.031 A 
ATOM     59  C   UNL A   1      42.238  27.332  28.389  1.00  0.00     0.074 A 
ATOM     60  C   UNL A   1      42.287  29.409  29.732  1.00  0.00     0.049 A 
ATOM     61  N   UNL A   1      43.487  26.948  28.441  1.00  0.00    -0.248 NA
ATOM     62  C   UNL A   1      41.375  26.467  27.568  1.00  0.00     0.031 C 
ATOM     63  C   UNL A   1      41.753  30.618  30.354  1.00  0.00     0.029 A 
ATOM     64  N   UNL A   1      43.625  29.434  30.034  1.00  0.00    -0.354 N 
ATOM     65  C   UNL A   1      43.556  25.796  27.669  1.00  0.00     0.074 A 
ATOM     66  C   UNL A   1      42.221  25.524  27.183  1.00  0.00     0.031 C 
ATOM     67  C   UNL A   1      42.753  31.260  30.984  1.00  0.00     0.029 A 
ATOM     68  C   UNL A   1      43.986  30.486  30.837  1.00  0.00     0.049 A 
ATOM     69  H   UNL A   1      44.265  28.761  29.706  1.00  0.00     0.167 HD
ATOM     70  C   UNL A   1      44.640  25.036  27.387  1.00  0.00     0.037 A 
ATOM     71  C   UNL A   1      45.173  30.768  31.410  1.00  0.00     0.037 A 
ATOM     72  C   UNL A   1      45.961  25.309  27.884  1.00  0.00     0.049 A 
ATOM     73  C   UNL A   1      46.346  29.854  31.155  1.00  0.00     0.074 A 
ATOM     74  C   UNL A   1      47.131  24.610  27.652  1.00  0.00     0.029 A 
ATOM     75  N   UNL A   1      46.282  26.363  28.728  1.00  0.00    -0.354 N 
ATOM     76  N   UNL A   1      46.415  28.779  30.407  1.00  0.00    -0.248 NA
ATOM     77  C   UNL A   1      47.609  30.195  31.825  1.00  0.00     0.031 C 
ATOM     78  C   UNL A   1      48.148  25.200  28.409  1.00  0.00     0.029 A 
ATOM     79  C   UNL A   1      47.628  26.313  29.054  1.00  0.00     0.049 A 
ATOM     80  H   UNL A   1      45.649  27.045  29.048  1.00  0.00     0.167 HD
ATOM     81  C   UNL A   1      47.729  28.336  30.489  1.00  0.00     0.074 A 
ATOM     82  C   UNL A   1      48.428  29.267  31.350  1.00  0.00     0.031 C 
ATOM     83  C   UNL A   1      48.308  27.257  29.905  1.00  0.00     0.037 A 
BRANCH  70  84
ATOM     84  C   UNL A   1      44.429  23.817  26.537  1.00  0.00     0.064 A 
ATOM     85  C   UNL A   1      43.826  22.655  27.043  1.00  0.00     0.173 A 
ATOM     86  C   UNL A   1      44.820  23.819  25.189  1.00  0.00     0.173 A 
ATOM     87  F   UNL A   1      43.449  22.594  28.329  1.00  0.00    -0.203 F 
ATOM     88  C   UNL A   1      43.644  21.533  26.237  1.00  0.00     0.198 A 
ATOM     89  C   UNL A   1      44.606  22.708  24.379  1.00  0.00     0.198 A 
ATOM     90  F   UNL A   1      45.402  24.903  24.655  1.00  0.00    -0.203 F 
ATOM     91  F   UNL A   1      43.115  20.417  26.756  1.00  0.00    -0.200 F 
ATOM     92  C   UNL A   1      44.028  21.563  24.905  1.00  0.00     0.200 A 
ATOM     93  F   UNL A   1      44.964  22.745  23.088  1.00  0.00    -0.200 F 
ATOM     94  F   UNL A   1      43.845  20.487  24.129  1.00  0.00    -0.200 F 
ENDBRANCH  70  84
BRANCH  71  95
ATOM     95  C   UNL A   1      45.310  31.953  32.299  1.00  0.00     0.064 A 
ATOM     96  C   UNL A   1      45.701  33.200  31.791  1.00  0.00     0.173 A 
ATOM     97  C   UNL A   1      45.081  31.857  33.680  1.00  0.00     0.173 A 
ATOM     98  F   UNL A   1      45.958  33.340  30.483  1.00  0.00    -0.203 F 
ATOM     99  C   UNL A   1      45.878  34.297  32.632  1.00  0.00     0.198 A 
ATOM    100  C   UNL A   1      45.225  32.963  34.515  1.00  0.00     0.198 A 
ATOM    101  F   UNL A   1      44.708  30.686  34.219  1.00  0.00    -0.203 F 
ATOM    102  F   UNL A   1      46.305  35.463  32.128  1.00  0.00    -0.200 F 
ATOM    103  C   UNL A   1      45.634  34.179  33.992  1.00  0.00     0.200 A 
ATOM    104  F   UNL A   1      44.976  32.847  35.826  1.00  0.00    -0.200 F 
ATOM    105  F   UNL A   1      45.802  35.235  34.799  1.00  0.00    -0.200 F 
ENDBRANCH  71  95
BRANCH  83 106
ATOM    106  C   UNL A   1      49.780  27.048  30.134  1.00  0.00     0.064 A 
ATOM    107  C   UNL A   1      50.259  26.208  31.150  1.00  0.00     0.173 A 
ATOM    108  C   UNL A   1      50.721  27.659  29.290  1.00  0.00     0.173 A 
ATOM    109  F   UNL A   1      49.404  25.609  31.992  1.00  0.00    -0.203 F 
ATOM    110  C   UNL A   1      51.626  26.010  31.329  1.00  0.00     0.198 A 
ATOM    111  C   UNL A   1      52.084  27.428  29.449  1.00  0.00     0.198 A 
ATOM    112  F   UNL A   1      50.315  28.464  28.296  1.00  0.00    -0.203 F 
ATOM    113  F   UNL A   1      52.063  25.244  32.339  1.00  0.00    -0.200 F 
ATOM    114  C   UNL A   1      52.536  26.612  30.473  1.00  0.00     0.200 A 
ATOM    115  F   UNL A   1      52.959  27.996  28.608  1.00  0.00    -0.200 F 
ATOM    116  F   UNL A   1      53.850  26.411  30.640  1.00  0.00    -0.200 F 
ENDBRANCH  83 106
ENDBRANCH  57  58
ENDBRANCH  50  52
ENDBRANCH  49  50
ENDBRANCH  48  49
ENDBRANCH  47  48
ENDBRANCH  46  47
ENDBRANCH  45  46
ENDBRANCH  44  45
ENDBRANCH   1  44
TORSDOF 25
ENDMDL
MODEL 2
REMARK VINA RESULT:     -10.1      0.921      6.795
REMARK SMILES COc1ccccc1N1C(=O)[C@@H]2[C@@H](C1=O)[C@@](Cc1ccccc1)(C(=O)OCCOCCOCCOCCOC(=O)c1ccc(-c3c4nc(c(-c5c(F)c(F)c(F)c(F)c5F)c5ccc([nH]5)c(-c5c(F)c(F)c(F)c(F)c5F)c5nc(c(-c6c(F)c(F)c(F)c(F)c6F)c6ccc3[nH]6)C=C5)C=C4)cc1)[NH2+][C@H]2c1ccc(C)cc1
REMARK SMILES IDX 32 1 31 2 30 3 29 4 28 5 27 6 26 7 24 8 25 9 16 10 9 11
REMARK SMILES IDX 10 12 14 13 11 14 12 15 13 16 15 17 105 18 104 19 8 22 3 23
REMARK SMILES IDX 4 24 5 25 7 26 6 27 2 28 1 29 106 30 107 31 112 32 108 33
REMARK SMILES IDX 111 34 109 35 110 36 17 37 18 38 19 39 23 40 20 41 22 42
REMARK SMILES IDX 21 43 33 44 34 45 35 46 36 47 37 48 38 49 39 50 40 51 41 52
REMARK SMILES IDX 42 53 103 54 43 55 102 56 44 57 45 58 46 59 96 60 47 61
REMARK SMILES IDX 101 62 95 63 97 64 48 65 100 66 94 67 93 68 49 70 81 71
REMARK SMILES IDX 61 72 80 73 62 74 65 75 79 76 98 77 63 78 64 79 78 81 99 82
REMARK SMILES IDX 66 83 50 84 51 85 59 86 52 87 53 88 57 89 60 90 54 91 55 92
REMARK SMILES IDX 58 93 56 94 82 95 83 96 91 97 84 98 85 99 89 100 92 101
REMARK SMILES IDX 86 102 87 103 90 104 88 105 67 106 68 107 76 108 69 109
REMARK SMILES IDX 70 110 74 111 77 112 71 113 72 114 75 115 73 116
REMARK H PARENT 104 20 104 21 97 69 65 80
REMARK Flexibility Score: inf
ROOT
ATOM      1  O   UNL A   1      31.808  27.822  26.849  1.00  0.00    -0.377 OA
ENDROOT
BRANCH   1   2
ATOM      2  C   UNL A   1      32.722  26.806  26.486  1.00  0.00     0.188 C 
BRANCH   2   3
ATOM      3  C   UNL A   1      32.312  25.371  26.087  1.00  0.00     0.188 C 
BRANCH   3   4
ATOM      4  O   UNL A   1      31.541  24.665  27.041  1.00  0.00    -0.376 OA
BRANCH   4   5
ATOM      5  C   UNL A   1      30.332  24.063  26.614  1.00  0.00     0.202 C 
BRANCH   5   6
ATOM      6  C   UNL A   1      30.340  22.550  26.367  1.00  0.00     0.261 C 
BRANCH   6   7
ATOM      7  O   UNL A   1      31.457  22.068  25.595  1.00  0.00    -0.459 OA
BRANCH   7   8
ATOM      8  C   UNL A   1      31.448  22.289  24.271  1.00  0.00     0.369 C 
ATOM      9  O   UNL A   1      30.596  23.003  23.748  1.00  0.00    -0.245 OA
BRANCH   8  10
ATOM     10  C   UNL A   1      32.529  21.476  23.430  1.00  0.00     0.211 C 
ATOM     11  N   UNL A   1      36.171  21.674  24.525  1.00  0.00    -0.246 N 
ATOM     12  C   UNL A   1      35.923  22.797  23.750  1.00  0.00     0.244 C 
ATOM     13  C   UNL A   1      35.023  20.888  24.656  1.00  0.00     0.245 C 
ATOM     14  O   UNL A   1      36.706  23.609  23.286  1.00  0.00    -0.273 OA
ATOM     15  C   UNL A   1      34.438  22.881  23.633  1.00  0.00     0.162 C 
ATOM     16  C   UNL A   1      34.041  21.432  23.648  1.00  0.00     0.172 C 
ATOM     17  O   UNL A   1      34.853  19.919  25.368  1.00  0.00    -0.273 OA
ATOM     18  C   UNL A   1      33.769  23.365  22.373  1.00  0.00     0.228 C 
ATOM     19  N   UNL A   1      32.644  22.376  22.152  1.00  0.00    -0.324 N 
ATOM     20  H   UNL A   1      31.768  22.875  22.000  1.00  0.00     0.347 HD
ATOM     21  H   UNL A   1      32.835  21.801  21.330  1.00  0.00     0.347 HD
BRANCH  11  22
ATOM     22  C   UNL A   1      37.445  21.381  25.091  1.00  0.00     0.094 A 
ATOM     23  C   UNL A   1      38.189  22.301  25.854  1.00  0.00     0.143 A 
ATOM     24  C   UNL A   1      39.471  21.974  26.320  1.00  0.00     0.048 A 
ATOM     25  C   UNL A   1      40.023  20.720  26.064  1.00  0.00     0.004 A 
ATOM     26  C   UNL A   1      38.013  20.111  24.870  1.00  0.00     0.031 A 
ATOM     27  C   UNL A   1      39.291  19.787  25.340  1.00  0.00     0.002 A 
BRANCH  23  28
ATOM     28  O   UNL A   1      37.761  23.561  26.183  1.00  0.00    -0.495 OA
ATOM     29  C   UNL A   1      38.644  24.236  27.074  1.00  0.00     0.278 C 
ENDBRANCH  23  28
ENDBRANCH  11  22
BRANCH  18  30
ATOM     30  C   UNL A   1      33.335  24.823  22.410  1.00  0.00     0.010 A 
ATOM     31  C   UNL A   1      34.082  25.846  23.021  1.00  0.00     0.010 A 
ATOM     32  C   UNL A   1      32.129  25.192  21.798  1.00  0.00     0.010 A 
ATOM     33  C   UNL A   1      33.653  27.175  23.017  1.00  0.00     0.004 A 
ATOM     34  C   UNL A   1      31.698  26.525  21.785  1.00  0.00     0.004 A 
ATOM     35  C   UNL A   1      32.459  27.527  22.394  1.00  0.00    -0.051 A 
ATOM     36  C   UNL A   1      32.007  28.956  22.413  1.00  0.00     0.044 C 
ENDBRANCH  18  30
BRANCH  10  37
ATOM     37  C   UNL A   1      31.913  20.080  23.091  1.00  0.00     0.117 C 
BRANCH  37  38
ATOM     38  C   UNL A   1      32.552  18.852  23.734  1.00  0.00    -0.041 A 
ATOM     39  C   UNL A   1      33.436  18.048  22.996  1.00  0.00     0.004 A 
ATOM     40  C   UNL A   1      32.295  18.473  25.062  1.00  0.00     0.004 A 
ATOM     41  C   UNL A   1      34.081  16.950  23.581  1.00  0.00     0.000 A 
ATOM     42  C   UNL A   1      32.962  17.395  25.658  1.00  0.00     0.000 A 
ATOM     43  C   UNL A   1      33.859  16.636  24.919  1.00  0.00     0.000 A 
ENDBRANCH  37  38
ENDBRANCH  10  37
ENDBRANCH   8  10
ENDBRANCH   7   8
ENDBRANCH   6   7
ENDBRANCH   5   6
ENDBRANCH   4   5
ENDBRANCH   3   4
ENDBRANCH   2   3
ENDBRANCH   1   2
BRANCH   1  44
ATOM     44  C   UNL A   1      31.487  28.812  25.903  1.00  0.00     0.188 C 
BRANCH  44  45
ATOM     45  C   UNL A   1      32.306  30.106  26.028  1.00  0.00     0.188 C 
BRANCH  45  46
ATOM     46  O   UNL A   1      32.621  30.491  27.351  1.00  0.00    -0.376 OA
BRANCH  46  47
ATOM     47  C   UNL A   1      33.421  31.627  27.631  1.00  0.00     0.202 C 
BRANCH  47  48
ATOM     48  C   UNL A   1      34.934  31.634  27.938  1.00  0.00     0.261 C 
BRANCH  48  49
ATOM     49  O   UNL A   1      35.502  30.550  28.672  1.00  0.00    -0.460 OA
BRANCH  49  50
ATOM     50  C   UNL A   1      35.912  29.466  27.982  1.00  0.00     0.338 C 
ATOM     51  O   UNL A   1      35.294  28.829  27.160  1.00  0.00    -0.246 OA
BRANCH  50  52
ATOM     52  C   UNL A   1      37.353  29.311  28.279  1.00  0.00     0.060 A 
ATOM     53  C   UNL A   1      38.290  29.675  27.302  1.00  0.00     0.016 A 
ATOM     54  C   UNL A   1      37.770  28.851  29.529  1.00  0.00     0.016 A 
ATOM     55  C   UNL A   1      39.653  29.571  27.571  1.00  0.00     0.010 A 
ATOM     56  C   UNL A   1      39.135  28.703  29.782  1.00  0.00     0.010 A 
ATOM     57  C   UNL A   1      40.077  29.037  28.793  1.00  0.00    -0.014 A 
BRANCH  57  58
ATOM     58  C   UNL A   1      41.486  28.612  28.941  1.00  0.00     0.031 A 
ATOM     59  C   UNL A   1      42.400  29.492  29.744  1.00  0.00     0.074 A 
ATOM     60  C   UNL A   1      41.932  27.463  28.407  1.00  0.00     0.049 A 
ATOM     61  N   UNL A   1      43.681  29.371  29.978  1.00  0.00    -0.248 NA
ATOM     62  C   UNL A   1      41.781  30.674  30.368  1.00  0.00     0.031 C 
ATOM     63  C   UNL A   1      41.121  26.507  27.660  1.00  0.00     0.029 A 
ATOM     64  N   UNL A   1      43.190  26.915  28.410  1.00  0.00    -0.354 N 
ATOM     65  C   UNL A   1      44.021  30.462  30.767  1.00  0.00     0.074 A 
ATOM     66  C   UNL A   1      42.822  31.250  30.949  1.00  0.00     0.031 C 
ATOM     67  C   UNL A   1      41.907  25.493  27.256  1.00  0.00     0.029 A 
ATOM     68  C   UNL A   1      43.281  25.751  27.688  1.00  0.00     0.049 A 
ATOM     69  H   UNL A   1      43.953  27.316  28.884  1.00  0.00     0.167 HD
ATOM     70  C   UNL A   1      45.226  30.773  31.297  1.00  0.00     0.037 A 
ATOM     71  C   UNL A   1      44.361  25.003  27.388  1.00  0.00     0.037 A 
ATOM     72  C   UNL A   1      46.414  29.988  31.101  1.00  0.00     0.049 A 
ATOM     73  C   UNL A   1      45.712  25.421  27.914  1.00  0.00     0.074 A 
ATOM     74  C   UNL A   1      47.685  30.207  31.600  1.00  0.00     0.029 A 
ATOM     75  N   UNL A   1      46.478  28.835  30.331  1.00  0.00    -0.354 N 
ATOM     76  N   UNL A   1      46.027  26.440  28.679  1.00  0.00    -0.248 NA
ATOM     77  C   UNL A   1      46.859  24.583  27.536  1.00  0.00     0.031 C 
ATOM     78  C   UNL A   1      48.533  29.226  31.078  1.00  0.00     0.029 A 
ATOM     79  C   UNL A   1      47.776  28.351  30.314  1.00  0.00     0.049 A 
ATOM     80  H   UNL A   1      45.716  28.423  29.865  1.00  0.00     0.167 HD
ATOM     81  C   UNL A   1      47.396  26.346  28.899  1.00  0.00     0.074 A 
ATOM     82  C   UNL A   1      47.850  25.163  28.198  1.00  0.00     0.031 C 
ATOM     83  C   UNL A   1      48.206  27.163  29.618  1.00  0.00     0.037 A 
BRANCH  70  84
ATOM     84  C   UNL A   1      45.324  32.037  32.101  1.00  0.00     0.064 A 
ATOM     85  C   UNL A   1      45.124  32.050  33.490  1.00  0.00     0.173 A 
ATOM     86  C   UNL A   1      45.644  33.251  31.474  1.00  0.00     0.173 A 
ATOM     87  F   UNL A   1      44.799  30.921  34.137  1.00  0.00    -0.203 F 
ATOM     88  C   UNL A   1      45.215  33.236  34.216  1.00  0.00     0.198 A 
ATOM     89  C   UNL A   1      45.768  34.427  32.207  1.00  0.00     0.198 A 
ATOM     90  F   UNL A   1      45.845  33.294  30.148  1.00  0.00    -0.203 F 
ATOM     91  F   UNL A   1      44.967  33.234  35.532  1.00  0.00    -0.200 F 
ATOM     92  C   UNL A   1      45.544  34.421  33.575  1.00  0.00     0.200 A 
ATOM     93  F   UNL A   1      46.100  35.568  31.588  1.00  0.00    -0.200 F 
ATOM     94  F   UNL A   1      45.640  35.559  34.276  1.00  0.00    -0.200 F 
ENDBRANCH  70  84
BRANCH  71  95
ATOM     95  C   UNL A   1      44.219  23.796  26.530  1.00  0.00     0.064 A 
ATOM     96  C   UNL A   1      43.657  22.613  27.029  1.00  0.00     0.173 A 
ATOM     97  C   UNL A   1      44.667  23.792  25.200  1.00  0.00     0.173 A 
ATOM     98  F   UNL A   1      43.237  22.555  28.302  1.00  0.00    -0.203 F 
ATOM     99  C   UNL A   1      43.570  21.467  26.240  1.00  0.00     0.198 A 
ATOM    100  C   UNL A   1      44.548  22.656  24.401  1.00  0.00     0.198 A 
ATOM    101  F   UNL A   1      45.215  24.897  24.672  1.00  0.00    -0.203 F 
ATOM    102  F   UNL A   1      43.079  20.334  26.761  1.00  0.00    -0.200 F 
ATOM    103  C   UNL A   1      44.010  21.492  24.925  1.00  0.00     0.200 A 
ATOM    104  F   UNL A   1      44.962  22.689  23.128  1.00  0.00    -0.200 F 
ATOM    105  F   UNL A   1      43.923  20.391  24.167  1.00  0.00    -0.200 F 
ENDBRANCH  71  95
BRANCH  83 106
ATOM    106  C   UNL A   1      49.657  26.785  29.725  1.00  0.00     0.064 A 
ATOM    107  C   UNL A   1      50.622  27.290  28.841  1.00  0.00     0.173 A 
ATOM    108  C   UNL A   1      50.094  25.944  30.762  1.00  0.00     0.173 A 
ATOM    109  F   UNL A   1      50.258  28.087  27.826  1.00  0.00    -0.203 F 
ATOM    110  C   UNL A   1      51.965  26.944  28.974  1.00  0.00     0.198 A 
ATOM    111  C   UNL A   1      51.441  25.632  30.913  1.00  0.00     0.198 A 
ATOM    112  F   UNL A   1      49.214  25.442  31.641  1.00  0.00    -0.203 F 
ATOM    113  F   UNL A   1      52.862  27.397  28.086  1.00  0.00    -0.200 F 
ATOM    114  C   UNL A   1      52.375  26.124  30.015  1.00  0.00     0.200 A 
ATOM    115  F   UNL A   1      51.836  24.855  31.931  1.00  0.00    -0.200 F 
ATOM    116  F   UNL A   1      53.669  25.803  30.148  1.00  0.00    -0.200 F 
ENDBRANCH  83 106
ENDBRANCH  57  58
ENDBRANCH  50  52
ENDBRANCH  49  50
ENDBRANCH  48  49
ENDBRANCH  47  48
ENDBRANCH  46  47
ENDBRANCH  45  46
ENDBRANCH  44  45
ENDBRANCH   1  44
TORSDOF 25
ENDMDL
MODEL 3
REMARK VINA RESULT:     -10.1      2.239      3.590
REMARK SMILES COc1ccccc1N1C(=O)[C@@H]2[C@@H](C1=O)[C@@](Cc1ccccc1)(C(=O)OCCOCCOCCOCCOC(=O)c1ccc(-c3c4nc(c(-c5c(F)c(F)c(F)c(F)c5F)c5ccc([nH]5)c(-c5c(F)c(F)c(F)c(F)c5F)c5nc(c(-c6c(F)c(F)c(F)c(F)c6F)c6ccc3[nH]6)C=C5)C=C4)cc1)[NH2+][C@H]2c1ccc(C)cc1
REMARK SMILES IDX 32 1 31 2 30 3 29 4 28 5 27 6 26 7 24 8 25 9 16 10 9 11
REMARK SMILES IDX 10 12 14 13 11 14 12 15 13 16 15 17 105 18 104 19 8 22 3 23
REMARK SMILES IDX 4 24 5 25 7 26 6 27 2 28 1 29 106 30 107 31 112 32 108 33
REMARK SMILES IDX 111 34 109 35 110 36 17 37 18 38 19 39 23 40 20 41 22 42
REMARK SMILES IDX 21 43 33 44 34 45 35 46 36 47 37 48 38 49 39 50 40 51 41 52
REMARK SMILES IDX 42 53 103 54 43 55 102 56 44 57 45 58 46 59 96 60 47 61
REMARK SMILES IDX 101 62 95 63 97 64 48 65 100 66 94 67 93 68 49 70 81 71
REMARK SMILES IDX 61 72 80 73 62 74 65 75 79 76 98 77 63 78 64 79 78 81 99 82
REMARK SMILES IDX 66 83 50 84 51 85 59 86 52 87 53 88 57 89 60 90 54 91 55 92
REMARK SMILES IDX 58 93 56 94 82 95 83 96 91 97 84 98 85 99 89 100 92 101
REMARK SMILES IDX 86 102 87 103 90 104 88 105 67 106 68 107 76 108 69 109
REMARK SMILES IDX 70 110 74 111 77 112 71 113 72 114 75 115 73 116
REMARK H PARENT 104 20 104 21 97 69 65 80
REMARK Flexibility Score: inf
ROOT
ATOM      1  O   UNL A   1      32.439  26.921  26.851  1.00  0.00    -0.377 OA
ENDROOT
BRANCH   1   2
ATOM      2  C   UNL A   1      33.258  25.922  26.274  1.00  0.00     0.188 C 
BRANCH   2   3
ATOM      3  C   UNL A   1      32.985  24.406  26.382  1.00  0.00     0.188 C 
BRANCH   3   4
ATOM      4  O   UNL A   1      31.978  24.028  27.302  1.00  0.00    -0.376 OA
BRANCH   4   5
ATOM      5  C   UNL A   1      30.662  23.837  26.816  1.00  0.00     0.202 C 
BRANCH   5   6
ATOM      6  C   UNL A   1      30.303  22.455  26.256  1.00  0.00     0.261 C 
BRANCH   6   7
ATOM      7  O   UNL A   1      31.338  21.832  25.472  1.00  0.00    -0.459 OA
BRANCH   7   8
ATOM      8  C   UNL A   1      31.429  22.162  24.174  1.00  0.00     0.369 C 
ATOM      9  O   UNL A   1      30.638  22.948  23.658  1.00  0.00    -0.245 OA
BRANCH   8  10
ATOM     10  C   UNL A   1      32.540  21.383  23.341  1.00  0.00     0.211 C 
ATOM     11  N   UNL A   1      36.159  21.642  24.500  1.00  0.00    -0.246 N 
ATOM     12  C   UNL A   1      35.901  22.770  23.734  1.00  0.00     0.244 C 
ATOM     13  C   UNL A   1      35.026  20.831  24.601  1.00  0.00     0.245 C 
ATOM     14  O   UNL A   1      36.674  23.603  23.294  1.00  0.00    -0.273 OA
ATOM     15  C   UNL A   1      34.416  22.824  23.594  1.00  0.00     0.162 C 
ATOM     16  C   UNL A   1      34.049  21.367  23.584  1.00  0.00     0.172 C 
ATOM     17  O   UNL A   1      34.864  19.850  25.299  1.00  0.00    -0.273 OA
ATOM     18  C   UNL A   1      33.758  23.310  22.329  1.00  0.00     0.228 C 
ATOM     19  N   UNL A   1      32.658  22.300  22.076  1.00  0.00    -0.324 N 
ATOM     20  H   UNL A   1      31.774  22.784  21.916  1.00  0.00     0.347 HD
ATOM     21  H   UNL A   1      32.874  21.740  21.251  1.00  0.00     0.347 HD
BRANCH  11  22
ATOM     22  C   UNL A   1      37.429  21.369  25.083  1.00  0.00     0.094 A 
ATOM     23  C   UNL A   1      38.142  22.295  25.868  1.00  0.00     0.143 A 
ATOM     24  C   UNL A   1      39.423  21.988  26.351  1.00  0.00     0.048 A 
ATOM     25  C   UNL A   1      40.004  20.749  26.091  1.00  0.00     0.004 A 
ATOM     26  C   UNL A   1      38.026  20.112  24.857  1.00  0.00     0.031 A 
ATOM     27  C   UNL A   1      39.303  19.809  25.345  1.00  0.00     0.002 A 
BRANCH  23  28
ATOM     28  O   UNL A   1      37.684  23.542  26.203  1.00  0.00    -0.495 OA
ATOM     29  C   UNL A   1      38.642  24.316  26.918  1.00  0.00     0.278 C 
ENDBRANCH  23  28
ENDBRANCH  11  22
BRANCH  18  30
ATOM     30  C   UNL A   1      33.292  24.758  22.377  1.00  0.00     0.010 A 
ATOM     31  C   UNL A   1      34.072  25.813  22.884  1.00  0.00     0.010 A 
ATOM     32  C   UNL A   1      32.022  25.083  21.883  1.00  0.00     0.010 A 
ATOM     33  C   UNL A   1      33.611  27.131  22.893  1.00  0.00     0.004 A 
ATOM     34  C   UNL A   1      31.557  26.406  21.884  1.00  0.00     0.004 A 
ATOM     35  C   UNL A   1      32.350  27.440  22.388  1.00  0.00    -0.051 A 
ATOM     36  C   UNL A   1      31.867  28.858  22.421  1.00  0.00     0.044 C 
ENDBRANCH  18  30
BRANCH  10  37
ATOM     37  C   UNL A   1      31.960  19.978  22.974  1.00  0.00     0.117 C 
BRANCH  37  38
ATOM     38  C   UNL A   1      32.510  18.769  23.726  1.00  0.00    -0.041 A 
ATOM     39  C   UNL A   1      33.334  17.843  23.066  1.00  0.00     0.004 A 
ATOM     40  C   UNL A   1      32.227  18.528  25.081  1.00  0.00     0.004 A 
ATOM     41  C   UNL A   1      33.899  16.757  23.749  1.00  0.00     0.000 A 
ATOM     42  C   UNL A   1      32.816  17.461  25.773  1.00  0.00     0.000 A 
ATOM     43  C   UNL A   1      33.656  16.578  25.108  1.00  0.00     0.000 A 
ENDBRANCH  37  38
ENDBRANCH  10  37
ENDBRANCH   8  10
ENDBRANCH   7   8
ENDBRANCH   6   7
ENDBRANCH   5   6
ENDBRANCH   4   5
ENDBRANCH   3   4
ENDBRANCH   2   3
ENDBRANCH   1   2
BRANCH   1  44
ATOM     44  C   UNL A   1      31.378  27.445  26.092  1.00  0.00     0.188 C 
BRANCH  44  45
ATOM     45  C   UNL A   1      31.471  28.954  25.819  1.00  0.00     0.188 C 
BRANCH  45  46
ATOM     46  O   UNL A   1      31.560  29.768  26.972  1.00  0.00    -0.376 OA
BRANCH  46  47
ATOM     47  C   UNL A   1      32.095  31.080  26.923  1.00  0.00     0.202 C 
BRANCH  47  48
ATOM     48  C   UNL A   1      33.509  31.514  27.363  1.00  0.00     0.261 C 
BRANCH  48  49
ATOM     49  O   UNL A   1      34.278  30.648  28.196  1.00  0.00    -0.460 OA
BRANCH  49  50
ATOM     50  C   UNL A   1      35.044  29.712  27.598  1.00  0.00     0.338 C 
ATOM     51  O   UNL A   1      34.823  29.117  26.569  1.00  0.00    -0.246 OA
BRANCH  50  52
ATOM     52  C   UNL A   1      36.320  29.686  28.347  1.00  0.00     0.060 A 
ATOM     53  C   UNL A   1      37.495  30.093  27.699  1.00  0.00     0.016 A 
ATOM     54  C   UNL A   1      36.343  29.306  29.690  1.00  0.00     0.016 A 
ATOM     55  C   UNL A   1      38.702  30.111  28.392  1.00  0.00     0.010 A 
ATOM     56  C   UNL A   1      37.561  29.279  30.371  1.00  0.00     0.010 A 
ATOM     57  C   UNL A   1      38.746  29.656  29.715  1.00  0.00    -0.014 A 
BRANCH  57  58
ATOM     58  C   UNL A   1      40.059  29.354  30.327  1.00  0.00     0.031 A 
ATOM     59  C   UNL A   1      40.842  28.203  29.767  1.00  0.00     0.074 A 
ATOM     60  C   UNL A   1      40.555  30.101  31.327  1.00  0.00     0.049 A 
ATOM     61  N   UNL A   1      41.986  27.705  30.156  1.00  0.00    -0.248 NA
ATOM     62  C   UNL A   1      40.250  27.518  28.605  1.00  0.00     0.031 C 
ATOM     63  C   UNL A   1      39.908  31.274  31.908  1.00  0.00     0.029 A 
ATOM     64  N   UNL A   1      41.723  29.970  32.035  1.00  0.00    -0.354 N 
ATOM     65  C   UNL A   1      42.245  26.646  29.296  1.00  0.00     0.074 A 
ATOM     66  C   UNL A   1      41.128  26.553  28.382  1.00  0.00     0.031 C 
ATOM     67  C   UNL A   1      40.680  31.748  32.902  1.00  0.00     0.029 A 
ATOM     68  C   UNL A   1      41.855  30.888  33.047  1.00  0.00     0.049 A 
ATOM     69  H   UNL A   1      42.400  29.285  31.837  1.00  0.00     0.167 HD
ATOM     70  C   UNL A   1      43.323  25.829  29.268  1.00  0.00     0.037 A 
ATOM     71  C   UNL A   1      42.805  30.995  33.997  1.00  0.00     0.037 A 
ATOM     72  C   UNL A   1      44.424  25.923  30.188  1.00  0.00     0.049 A 
ATOM     73  C   UNL A   1      43.950  30.013  34.003  1.00  0.00     0.074 A 
ATOM     74  C   UNL A   1      45.570  25.152  30.244  1.00  0.00     0.029 A 
ATOM     75  N   UNL A   1      44.506  26.841  31.226  1.00  0.00    -0.354 N 
ATOM     76  N   UNL A   1      44.205  29.028  33.175  1.00  0.00    -0.248 NA
ATOM     77  C   UNL A   1      44.944  30.161  35.076  1.00  0.00     0.031 C 
ATOM     78  C   UNL A   1      46.315  25.559  31.355  1.00  0.00     0.029 A 
ATOM     79  C   UNL A   1      45.669  26.633  31.949  1.00  0.00     0.049 A 
ATOM     80  H   UNL A   1      43.837  27.536  31.420  1.00  0.00     0.167 HD
ATOM     81  C   UNL A   1      45.399  28.463  33.605  1.00  0.00     0.074 A 
ATOM     82  C   UNL A   1      45.826  29.224  34.761  1.00  0.00     0.031 C 
ATOM     83  C   UNL A   1      46.082  27.410  33.091  1.00  0.00     0.037 A 
BRANCH  70  84
ATOM     84  C   UNL A   1      43.340  24.738  28.237  1.00  0.00     0.064 A 
ATOM     85  C   UNL A   1      43.770  24.967  26.921  1.00  0.00     0.173 A 
ATOM     86  C   UNL A   1      42.938  23.437  28.578  1.00  0.00     0.173 A 
ATOM     87  F   UNL A   1      44.148  26.196  26.538  1.00  0.00    -0.203 F 
ATOM     88  C   UNL A   1      43.772  23.941  25.979  1.00  0.00     0.198 A 
ATOM     89  C   UNL A   1      42.974  22.407  27.643  1.00  0.00     0.198 A 
ATOM     90  F   UNL A   1      42.517  23.164  29.822  1.00  0.00    -0.203 F 
ATOM     91  F   UNL A   1      44.136  24.195  24.715  1.00  0.00    -0.200 F 
ATOM     92  C   UNL A   1      43.382  22.660  26.343  1.00  0.00     0.200 A 
ATOM     93  F   UNL A   1      42.610  21.168  28.002  1.00  0.00    -0.200 F 
ATOM     94  F   UNL A   1      43.393  21.673  25.439  1.00  0.00    -0.200 F 
ENDBRANCH  70  84
BRANCH  71  95
ATOM     95  C   UNL A   1      42.704  32.054  35.038  1.00  0.00     0.064 A 
ATOM     96  C   UNL A   1      42.045  31.817  36.252  1.00  0.00     0.173 A 
ATOM     97  C   UNL A   1      43.241  33.334  34.828  1.00  0.00     0.173 A 
ATOM     98  F   UNL A   1      41.492  30.619  36.492  1.00  0.00    -0.203 F 
ATOM     99  C   UNL A   1      41.907  32.825  37.205  1.00  0.00     0.198 A 
ATOM    100  C   UNL A   1      43.131  34.330  35.795  1.00  0.00     0.198 A 
ATOM    101  F   UNL A   1      43.878  33.615  33.682  1.00  0.00    -0.203 F 
ATOM    102  F   UNL A   1      41.224  32.587  38.334  1.00  0.00    -0.200 F 
ATOM    103  C   UNL A   1      42.456  34.078  36.979  1.00  0.00     0.200 A 
ATOM    104  F   UNL A   1      43.674  35.535  35.578  1.00  0.00    -0.200 F 
ATOM    105  F   UNL A   1      42.325  35.045  37.896  1.00  0.00    -0.200 F 
ENDBRANCH  71  95
BRANCH  83 106
ATOM    106  C   UNL A   1      47.388  27.044  33.742  1.00  0.00     0.064 A 
ATOM    107  C   UNL A   1      48.605  27.606  33.330  1.00  0.00     0.173 A 
ATOM    108  C   UNL A   1      47.411  26.154  34.829  1.00  0.00     0.173 A 
ATOM    109  F   UNL A   1      48.641  28.451  32.290  1.00  0.00    -0.203 F 
ATOM    110  C   UNL A   1      49.799  27.270  33.963  1.00  0.00     0.198 A 
ATOM    111  C   UNL A   1      48.601  25.850  35.482  1.00  0.00     0.198 A 
ATOM    112  F   UNL A   1      46.274  25.596  35.270  1.00  0.00    -0.203 F 
ATOM    113  F   UNL A   1      50.957  27.779  33.519  1.00  0.00    -0.200 F 
ATOM    114  C   UNL A   1      49.795  26.401  35.044  1.00  0.00     0.200 A 
ATOM    115  F   UNL A   1      48.591  25.026  36.538  1.00  0.00    -0.200 F 
ATOM    116  F   UNL A   1      50.944  26.088  35.660  1.00  0.00    -0.200 F 
ENDBRANCH  83 106
ENDBRANCH  57  58
ENDBRANCH  50  52
ENDBRANCH  49  50
ENDBRANCH  48  49
ENDBRANCH  47  48
ENDBRANCH  46  47
ENDBRANCH  45  46
ENDBRANCH  44  45
ENDBRANCH   1  44
TORSDOF 25
ENDMDL
