MODEL 1
REMARK VINA RESULT:     -10.8      0.000      0.000
REMARK SMILES COc1ccc2c(c1)c(CC(=O)OCCOCCOCCOCCOC(=O)c1ccc(-c3c4nc(c(-c5c(F)c(F)c(F)c(F)c5F)c5ccc([nH]5)c(-c5c(F)c(F)c(F)c(F)c5F)c5nc(c(-c6c(F)c(F)c(F)c(F)c6F)c6ccc3[nH]6)C=C5)C=C4)cc1)c(C)n2C(=O)c1ccc(Cl)cc1
REMARK SMILES IDX 18 1 17 2 16 3 15 4 14 5 13 6 11 7 12 8 10 9 9 10 3 11 4 12
REMARK SMILES IDX 8 13 5 14 7 15 6 16 93 17 91 18 92 19 2 20 1 21 94 22 95 23
REMARK SMILES IDX 96 24 97 25 102 26 98 27 101 28 99 29 100 30 19 31 20 32
REMARK SMILES IDX 21 33 22 34 23 35 24 36 25 37 26 38 27 39 28 40 29 41 90 42
REMARK SMILES IDX 30 43 89 44 31 45 32 46 33 47 83 48 34 49 88 50 82 51 84 52
REMARK SMILES IDX 35 53 87 54 81 55 80 56 36 58 68 59 48 60 67 61 49 62 52 63
REMARK SMILES IDX 66 64 85 65 50 66 51 67 65 69 86 70 53 71 37 72 38 73 46 74
REMARK SMILES IDX 39 75 40 76 44 77 47 78 41 79 42 80 45 81 43 82 69 83 70 84
REMARK SMILES IDX 78 85 71 86 72 87 76 88 79 89 73 90 74 91 77 92 75 93 54 94
REMARK SMILES IDX 55 95 63 96 56 97 57 98 61 99 64 100 58 101 59 102 62 103
REMARK SMILES IDX 60 104
REMARK H PARENT 84 57 52 68
REMARK Flexibility Score: inf
ROOT
ATOM      1  C   UNL A   1      37.749  22.413  25.400  1.00  0.00     0.188 C 
ENDROOT
BRANCH   1   2
ATOM      2  C   UNL A   1      36.733  21.286  25.547  1.00  0.00     0.188 C 
BRANCH   2   3
ATOM      3  O   UNL A   1      35.394  21.724  25.432  1.00  0.00    -0.376 OA
BRANCH   3   4
ATOM      4  C   UNL A   1      34.432  21.229  26.347  1.00  0.00     0.202 C 
BRANCH   4   5
ATOM      5  C   UNL A   1      33.807  22.145  27.420  1.00  0.00     0.261 C 
BRANCH   5   6
ATOM      6  O   UNL A   1      32.372  22.305  27.456  1.00  0.00    -0.463 OA
BRANCH   6   7
ATOM      7  C   UNL A   1      31.850  23.514  27.152  1.00  0.00     0.310 C 
ATOM      8  O   UNL A   1      30.639  23.726  27.130  1.00  0.00    -0.252 OA
BRANCH   7   9
ATOM      9  C   UNL A   1      32.859  24.631  26.867  1.00  0.00     0.160 C 
BRANCH   9  10
ATOM     10  C   UNL A   1      32.799  25.455  25.586  1.00  0.00    -0.008 A 
ATOM     11  C   UNL A   1      32.846  23.414  22.329  1.00  0.00     0.119 A 
ATOM     12  C   UNL A   1      32.736  24.488  21.468  1.00  0.00     0.048 A 
ATOM     13  C   UNL A   1      33.026  23.645  23.701  1.00  0.00     0.057 A 
ATOM     14  C   UNL A   1      32.727  25.792  21.966  1.00  0.00     0.031 A 
ATOM     15  C   UNL A   1      32.900  24.952  24.244  1.00  0.00     0.008 A 
ATOM     16  C   UNL A   1      32.770  26.029  23.360  1.00  0.00     0.057 A 
ATOM     17  N   UNL A   1      32.710  27.212  24.118  1.00  0.00    -0.280 N 
ATOM     18  C   UNL A   1      32.753  26.842  25.478  1.00  0.00     0.028 A 
ATOM     19  C   UNL A   1      32.743  27.816  26.616  1.00  0.00     0.065 C 
BRANCH  11  20
ATOM     20  O   UNL A   1      32.746  22.099  21.956  1.00  0.00    -0.497 OA
ATOM     21  C   UNL A   1      32.250  21.197  22.947  1.00  0.00     0.278 C 
ENDBRANCH  11  20
BRANCH  17  22
ATOM     22  C   UNL A   1      32.627  28.539  23.589  1.00  0.00     0.262 C 
ATOM     23  O   UNL A   1      33.642  29.089  23.168  1.00  0.00    -0.268 OA
BRANCH  22  24
ATOM     24  C   UNL A   1      31.395  29.346  23.498  1.00  0.00     0.040 A 
ATOM     25  C   UNL A   1      31.040  30.186  24.560  1.00  0.00     0.015 A 
ATOM     26  C   UNL A   1      30.578  29.244  22.364  1.00  0.00     0.015 A 
ATOM     27  C   UNL A   1      29.827  30.879  24.514  1.00  0.00     0.021 A 
ATOM     28  C   UNL A   1      29.370  29.946  22.321  1.00  0.00     0.021 A 
ATOM     29  C   UNL A   1      28.993  30.749  23.401  1.00  0.00     0.041 A 
ATOM     30  Cl  UNL A   1      27.481  31.568  23.368  1.00  0.00    -0.084 Cl
ENDBRANCH  22  24
ENDBRANCH  17  22
ENDBRANCH   9  10
ENDBRANCH   7   9
ENDBRANCH   6   7
ENDBRANCH   5   6
ENDBRANCH   4   5
ENDBRANCH   3   4
ENDBRANCH   2   3
ENDBRANCH   1   2
BRANCH   1  31
ATOM     31  O   UNL A   1      39.089  22.297  25.808  1.00  0.00    -0.377 OA
BRANCH  31  32
ATOM     32  C   UNL A   1      39.590  21.024  26.097  1.00  0.00     0.188 C 
BRANCH  32  33
ATOM     33  C   UNL A   1      40.798  21.012  27.040  1.00  0.00     0.188 C 
BRANCH  33  34
ATOM     34  O   UNL A   1      41.578  19.840  27.279  1.00  0.00    -0.376 OA
BRANCH  34  35
ATOM     35  C   UNL A   1      41.950  18.973  26.219  1.00  0.00     0.202 C 
BRANCH  35  36
ATOM     36  C   UNL A   1      43.341  19.170  25.586  1.00  0.00     0.261 C 
BRANCH  36  37
ATOM     37  O   UNL A   1      43.470  20.392  24.856  1.00  0.00    -0.460 OA
BRANCH  37  38
ATOM     38  C   UNL A   1      44.725  20.894  24.689  1.00  0.00     0.338 C 
ATOM     39  O   UNL A   1      45.630  20.443  24.034  1.00  0.00    -0.246 OA
BRANCH  38  40
ATOM     40  C   UNL A   1      44.652  22.279  25.209  1.00  0.00     0.060 A 
ATOM     41  C   UNL A   1      45.451  22.686  26.282  1.00  0.00     0.016 A 
ATOM     42  C   UNL A   1      43.525  23.018  24.826  1.00  0.00     0.016 A 
ATOM     43  C   UNL A   1      45.020  23.752  27.067  1.00  0.00     0.010 A 
ATOM     44  C   UNL A   1      43.091  24.076  25.622  1.00  0.00     0.010 A 
ATOM     45  C   UNL A   1      43.809  24.409  26.773  1.00  0.00    -0.014 A 
BRANCH  45  46
ATOM     46  C   UNL A   1      43.489  25.612  27.549  1.00  0.00     0.031 A 
ATOM     47  C   UNL A   1      44.488  26.697  27.333  1.00  0.00     0.074 A 
ATOM     48  C   UNL A   1      42.364  25.884  28.242  1.00  0.00     0.049 A 
ATOM     49  N   UNL A   1      45.184  27.350  28.205  1.00  0.00    -0.248 NA
ATOM     50  C   UNL A   1      44.815  27.008  25.931  1.00  0.00     0.031 C 
ATOM     51  C   UNL A   1      41.127  25.108  28.311  1.00  0.00     0.029 A 
ATOM     52  N   UNL A   1      42.064  27.013  28.960  1.00  0.00    -0.354 N 
ATOM     53  C   UNL A   1      45.947  28.248  27.466  1.00  0.00     0.074 A 
ATOM     54  C   UNL A   1      45.784  27.905  26.078  1.00  0.00     0.031 C 
ATOM     55  C   UNL A   1      40.153  25.878  28.854  1.00  0.00     0.029 A 
ATOM     56  C   UNL A   1      40.715  27.161  29.252  1.00  0.00     0.049 A 
ATOM     57  H   UNL A   1      42.747  27.663  29.245  1.00  0.00     0.167 HD
ATOM     58  C   UNL A   1      46.520  29.349  28.015  1.00  0.00     0.037 A 
ATOM     59  C   UNL A   1      40.097  28.283  29.703  1.00  0.00     0.037 A 
ATOM     60  C   UNL A   1      46.691  29.229  29.433  1.00  0.00     0.049 A 
ATOM     61  C   UNL A   1      41.132  29.187  30.267  1.00  0.00     0.074 A 
ATOM     62  C   UNL A   1      47.368  28.345  30.251  1.00  0.00     0.029 A 
ATOM     63  N   UNL A   1      45.863  29.939  30.265  1.00  0.00    -0.354 N 
ATOM     64  N   UNL A   1      41.778  28.982  31.380  1.00  0.00    -0.248 NA
ATOM     65  C   UNL A   1      41.710  30.193  29.387  1.00  0.00     0.031 C 
ATOM     66  C   UNL A   1      46.573  28.239  31.427  1.00  0.00     0.029 A 
ATOM     67  C   UNL A   1      45.470  29.074  31.253  1.00  0.00     0.049 A 
ATOM     68  H   UNL A   1      45.602  30.883  30.170  1.00  0.00     0.167 HD
ATOM     69  C   UNL A   1      43.037  29.520  31.162  1.00  0.00     0.074 A 
ATOM     70  C   UNL A   1      42.901  30.346  29.969  1.00  0.00     0.031 C 
ATOM     71  C   UNL A   1      44.136  29.031  31.803  1.00  0.00     0.037 A 
BRANCH  58  72
ATOM     72  C   UNL A   1      46.653  30.647  27.269  1.00  0.00     0.064 A 
ATOM     73  C   UNL A   1      47.898  31.294  27.202  1.00  0.00     0.173 A 
ATOM     74  C   UNL A   1      45.542  31.405  26.836  1.00  0.00     0.173 A 
ATOM     75  F   UNL A   1      49.010  30.681  27.638  1.00  0.00    -0.203 F 
ATOM     76  C   UNL A   1      48.015  32.615  26.763  1.00  0.00     0.198 A 
ATOM     77  C   UNL A   1      45.670  32.699  26.340  1.00  0.00     0.198 A 
ATOM     78  F   UNL A   1      44.284  30.965  26.978  1.00  0.00    -0.203 F 
ATOM     79  F   UNL A   1      49.204  33.231  26.821  1.00  0.00    -0.200 F 
ATOM     80  C   UNL A   1      46.903  33.314  26.328  1.00  0.00     0.200 A 
ATOM     81  F   UNL A   1      44.576  33.365  25.945  1.00  0.00    -0.200 F 
ATOM     82  F   UNL A   1      47.008  34.593  25.948  1.00  0.00    -0.200 F 
ENDBRANCH  58  72
BRANCH  59  83
ATOM     83  C   UNL A   1      38.701  28.743  29.469  1.00  0.00     0.064 A 
ATOM     84  C   UNL A   1      37.835  29.037  30.538  1.00  0.00     0.173 A 
ATOM     85  C   UNL A   1      38.261  29.145  28.193  1.00  0.00     0.173 A 
ATOM     86  F   UNL A   1      38.192  28.747  31.799  1.00  0.00    -0.203 F 
ATOM     87  C   UNL A   1      36.615  29.696  30.343  1.00  0.00     0.198 A 
ATOM     88  C   UNL A   1      37.036  29.785  27.995  1.00  0.00     0.198 A 
ATOM     89  F   UNL A   1      39.049  29.012  27.118  1.00  0.00    -0.203 F 
ATOM     90  F   UNL A   1      35.848  30.013  31.395  1.00  0.00    -0.200 F 
ATOM     91  C   UNL A   1      36.218  30.071  29.071  1.00  0.00     0.200 A 
ATOM     92  F   UNL A   1      36.683  30.174  26.762  1.00  0.00    -0.200 F 
ATOM     93  F   UNL A   1      35.073  30.743  28.885  1.00  0.00    -0.200 F 
ENDBRANCH  59  83
BRANCH  71  94
ATOM     94  C   UNL A   1      43.931  28.121  32.978  1.00  0.00     0.064 A 
ATOM     95  C   UNL A   1      43.765  26.732  32.861  1.00  0.00     0.173 A 
ATOM     96  C   UNL A   1      44.096  28.650  34.267  1.00  0.00     0.173 A 
ATOM     97  F   UNL A   1      43.705  26.138  31.661  1.00  0.00    -0.203 F 
ATOM     98  C   UNL A   1      43.737  25.916  33.990  1.00  0.00     0.198 A 
ATOM     99  C   UNL A   1      44.107  27.826  35.388  1.00  0.00     0.198 A 
ATOM    100  F   UNL A   1      44.313  29.965  34.432  1.00  0.00    -0.203 F 
ATOM    101  F   UNL A   1      43.574  24.593  33.853  1.00  0.00    -0.200 F 
ATOM    102  C   UNL A   1      43.921  26.460  35.251  1.00  0.00     0.200 A 
ATOM    103  F   UNL A   1      44.337  28.351  36.600  1.00  0.00    -0.200 F 
ATOM    104  F   UNL A   1      43.956  25.664  36.327  1.00  0.00    -0.200 F 
ENDBRANCH  71  94
ENDBRANCH  45  46
ENDBRANCH  38  40
ENDBRANCH  37  38
ENDBRANCH  36  37
ENDBRANCH  35  36
ENDBRANCH  34  35
ENDBRANCH  33  34
ENDBRANCH  32  33
ENDBRANCH  31  32
ENDBRANCH   1  31
TORSDOF 24
ENDMDL
MODEL 2
REMARK VINA RESULT:      -9.8      1.995      3.185
REMARK SMILES COc1ccc2c(c1)c(CC(=O)OCCOCCOCCOCCOC(=O)c1ccc(-c3c4nc(c(-c5c(F)c(F)c(F)c(F)c5F)c5ccc([nH]5)c(-c5c(F)c(F)c(F)c(F)c5F)c5nc(c(-c6c(F)c(F)c(F)c(F)c6F)c6ccc3[nH]6)C=C5)C=C4)cc1)c(C)n2C(=O)c1ccc(Cl)cc1
REMARK SMILES IDX 18 1 17 2 16 3 15 4 14 5 13 6 11 7 12 8 10 9 9 10 3 11 4 12
REMARK SMILES IDX 8 13 5 14 7 15 6 16 93 17 91 18 92 19 2 20 1 21 94 22 95 23
REMARK SMILES IDX 96 24 97 25 102 26 98 27 101 28 99 29 100 30 19 31 20 32
REMARK SMILES IDX 21 33 22 34 23 35 24 36 25 37 26 38 27 39 28 40 29 41 90 42
REMARK SMILES IDX 30 43 89 44 31 45 32 46 33 47 83 48 34 49 88 50 82 51 84 52
REMARK SMILES IDX 35 53 87 54 81 55 80 56 36 58 68 59 48 60 67 61 49 62 52 63
REMARK SMILES IDX 66 64 85 65 50 66 51 67 65 69 86 70 53 71 37 72 38 73 46 74
REMARK SMILES IDX 39 75 40 76 44 77 47 78 41 79 42 80 45 81 43 82 69 83 70 84
REMARK SMILES IDX 78 85 71 86 72 87 76 88 79 89 73 90 74 91 77 92 75 93 54 94
REMARK SMILES IDX 55 95 63 96 56 97 57 98 61 99 64 100 58 101 59 102 62 103
REMARK SMILES IDX 60 104
REMARK H PARENT 84 57 52 68
REMARK Flexibility Score: inf
ROOT
ATOM      1  C   UNL A   1      35.817  19.876  24.860  1.00  0.00     0.188 C 
ENDROOT
BRANCH   1   2
ATOM      2  C   UNL A   1      36.246  18.433  24.624  1.00  0.00     0.188 C 
BRANCH   2   3
ATOM      3  O   UNL A   1      35.163  17.564  24.360  1.00  0.00    -0.376 OA
BRANCH   3   4
ATOM      4  C   UNL A   1      33.899  17.856  24.929  1.00  0.00     0.202 C 
BRANCH   4   5
ATOM      5  C   UNL A   1      32.659  18.088  24.040  1.00  0.00     0.261 C 
BRANCH   5   6
ATOM      6  O   UNL A   1      31.921  19.322  24.173  1.00  0.00    -0.463 OA
BRANCH   6   7
ATOM      7  C   UNL A   1      32.330  20.397  23.463  1.00  0.00     0.310 C 
ATOM      8  O   UNL A   1      32.052  20.552  22.276  1.00  0.00    -0.252 OA
BRANCH   7   9
ATOM      9  C   UNL A   1      33.139  21.445  24.234  1.00  0.00     0.160 C 
BRANCH   9  10
ATOM     10  C   UNL A   1      32.671  22.891  24.348  1.00  0.00    -0.008 A 
ATOM     11  C   UNL A   1      29.852  23.499  26.891  1.00  0.00     0.119 A 
ATOM     12  C   UNL A   1      29.773  24.866  26.715  1.00  0.00     0.048 A 
ATOM     13  C   UNL A   1      30.676  22.741  26.045  1.00  0.00     0.057 A 
ATOM     14  C   UNL A   1      30.562  25.500  25.753  1.00  0.00     0.031 A 
ATOM     15  C   UNL A   1      31.575  23.372  25.144  1.00  0.00     0.008 A 
ATOM     16  C   UNL A   1      31.496  24.761  24.989  1.00  0.00     0.057 A 
ATOM     17  N   UNL A   1      32.440  25.148  24.022  1.00  0.00    -0.280 N 
ATOM     18  C   UNL A   1      33.134  23.987  23.624  1.00  0.00     0.028 A 
ATOM     19  C   UNL A   1      34.208  23.963  22.579  1.00  0.00     0.065 C 
BRANCH  11  20
ATOM     20  O   UNL A   1      29.213  22.799  27.880  1.00  0.00    -0.497 OA
ATOM     21  C   UNL A   1      28.121  21.976  27.468  1.00  0.00     0.278 C 
ENDBRANCH  11  20
BRANCH  17  22
ATOM     22  C   UNL A   1      32.643  26.479  23.538  1.00  0.00     0.262 C 
ATOM     23  O   UNL A   1      33.108  26.652  22.413  1.00  0.00    -0.268 OA
BRANCH  22  24
ATOM     24  C   UNL A   1      32.337  27.715  24.285  1.00  0.00     0.040 A 
ATOM     25  C   UNL A   1      31.120  28.370  24.067  1.00  0.00     0.015 A 
ATOM     26  C   UNL A   1      33.278  28.234  25.185  1.00  0.00     0.015 A 
ATOM     27  C   UNL A   1      30.870  29.588  24.705  1.00  0.00     0.021 A 
ATOM     28  C   UNL A   1      33.018  29.450  25.826  1.00  0.00     0.021 A 
ATOM     29  C   UNL A   1      31.823  30.128  25.572  1.00  0.00     0.041 A 
ATOM     30  Cl  UNL A   1      31.531  31.649  26.320  1.00  0.00    -0.084 Cl
ENDBRANCH  22  24
ENDBRANCH  17  22
ENDBRANCH   9  10
ENDBRANCH   7   9
ENDBRANCH   6   7
ENDBRANCH   5   6
ENDBRANCH   4   5
ENDBRANCH   3   4
ENDBRANCH   2   3
ENDBRANCH   1   2
BRANCH   1  31
ATOM     31  O   UNL A   1      36.685  20.867  25.349  1.00  0.00    -0.377 OA
BRANCH  31  32
ATOM     32  C   UNL A   1      38.063  20.678  25.198  1.00  0.00     0.188 C 
BRANCH  32  33
ATOM     33  C   UNL A   1      38.925  21.440  26.210  1.00  0.00     0.188 C 
BRANCH  33  34
ATOM     34  O   UNL A   1      40.050  20.850  26.863  1.00  0.00    -0.376 OA
BRANCH  34  35
ATOM     35  C   UNL A   1      40.772  19.783  26.269  1.00  0.00     0.202 C 
BRANCH  35  36
ATOM     36  C   UNL A   1      42.239  20.038  25.879  1.00  0.00     0.261 C 
BRANCH  36  37
ATOM     37  O   UNL A   1      42.812  21.182  26.518  1.00  0.00    -0.460 OA
BRANCH  37  38
ATOM     38  C   UNL A   1      42.908  22.327  25.788  1.00  0.00     0.338 C 
ATOM     39  O   UNL A   1      43.105  22.448  24.607  1.00  0.00    -0.246 OA
BRANCH  38  40
ATOM     40  C   UNL A   1      42.393  23.391  26.682  1.00  0.00     0.060 A 
ATOM     41  C   UNL A   1      41.472  24.335  26.218  1.00  0.00     0.016 A 
ATOM     42  C   UNL A   1      43.128  23.614  27.854  1.00  0.00     0.016 A 
ATOM     43  C   UNL A   1      41.408  25.572  26.853  1.00  0.00     0.010 A 
ATOM     44  C   UNL A   1      43.071  24.858  28.478  1.00  0.00     0.010 A 
ATOM     45  C   UNL A   1      42.251  25.856  27.946  1.00  0.00    -0.014 A 
BRANCH  45  46
ATOM     46  C   UNL A   1      42.030  27.120  28.657  1.00  0.00     0.031 A 
ATOM     47  C   UNL A   1      43.104  28.113  28.377  1.00  0.00     0.074 A 
ATOM     48  C   UNL A   1      40.934  27.513  29.339  1.00  0.00     0.049 A 
ATOM     49  N   UNL A   1      43.855  28.758  29.209  1.00  0.00    -0.248 NA
ATOM     50  C   UNL A   1      43.441  28.323  26.958  1.00  0.00     0.031 C 
ATOM     51  C   UNL A   1      39.643  26.838  29.456  1.00  0.00     0.029 A 
ATOM     52  N   UNL A   1      40.726  28.699  29.996  1.00  0.00    -0.354 N 
ATOM     53  C   UNL A   1      44.677  29.555  28.418  1.00  0.00     0.074 A 
ATOM     54  C   UNL A   1      44.476  29.151  27.052  1.00  0.00     0.031 C 
ATOM     55  C   UNL A   1      38.734  27.706  29.961  1.00  0.00     0.029 A 
ATOM     56  C   UNL A   1      39.394  28.963  30.287  1.00  0.00     0.049 A 
ATOM     57  H   UNL A   1      41.458  29.310  30.242  1.00  0.00     0.167 HD
ATOM     58  C   UNL A   1      45.336  30.638  28.904  1.00  0.00     0.037 A 
ATOM     59  C   UNL A   1      38.866  30.151  30.679  1.00  0.00     0.037 A 
ATOM     60  C   UNL A   1      45.510  30.582  30.326  1.00  0.00     0.049 A 
ATOM     61  C   UNL A   1      39.971  31.004  31.187  1.00  0.00     0.074 A 
ATOM     62  C   UNL A   1      46.126  29.694  31.187  1.00  0.00     0.029 A 
ATOM     63  N   UNL A   1      44.745  31.396  31.122  1.00  0.00    -0.354 N 
ATOM     64  N   UNL A   1      40.610  30.811  32.307  1.00  0.00    -0.248 NA
ATOM     65  C   UNL A   1      40.615  31.914  30.251  1.00  0.00     0.031 C 
ATOM     66  C   UNL A   1      45.336  29.713  32.371  1.00  0.00     0.029 A 
ATOM     67  C   UNL A   1      44.297  30.618  32.158  1.00  0.00     0.049 A 
ATOM     68  H   UNL A   1      44.555  32.351  30.977  1.00  0.00     0.167 HD
ATOM     69  C   UNL A   1      41.903  31.240  32.054  1.00  0.00     0.074 A 
ATOM     70  C   UNL A   1      41.819  32.008  30.818  1.00  0.00     0.031 C 
ATOM     71  C   UNL A   1      42.969  30.705  32.716  1.00  0.00     0.037 A 
BRANCH  58  72
ATOM     72  C   UNL A   1      45.559  31.880  28.088  1.00  0.00     0.064 A 
ATOM     73  C   UNL A   1      44.468  32.683  27.717  1.00  0.00     0.173 A 
ATOM     74  C   UNL A   1      46.783  32.166  27.440  1.00  0.00     0.173 A 
ATOM     75  F   UNL A   1      43.250  32.460  28.235  1.00  0.00    -0.203 F 
ATOM     76  C   UNL A   1      44.589  33.680  26.746  1.00  0.00     0.198 A 
ATOM     77  C   UNL A   1      46.914  33.201  26.519  1.00  0.00     0.198 A 
ATOM     78  F   UNL A   1      47.865  31.390  27.591  1.00  0.00    -0.203 F 
ATOM     79  F   UNL A   1      43.499  34.347  26.341  1.00  0.00    -0.200 F 
ATOM     80  C   UNL A   1      45.811  33.941  26.152  1.00  0.00     0.200 A 
ATOM     81  F   UNL A   1      48.102  33.421  25.939  1.00  0.00    -0.200 F 
ATOM     82  F   UNL A   1      45.917  34.866  25.190  1.00  0.00    -0.200 F 
ENDBRANCH  58  72
BRANCH  59  83
ATOM     83  C   UNL A   1      37.507  30.702  30.427  1.00  0.00     0.064 A 
ATOM     84  C   UNL A   1      36.687  31.146  31.480  1.00  0.00     0.173 A 
ATOM     85  C   UNL A   1      37.076  31.038  29.128  1.00  0.00     0.173 A 
ATOM     86  F   UNL A   1      37.043  30.926  32.755  1.00  0.00    -0.203 F 
ATOM     87  C   UNL A   1      35.519  31.883  31.249  1.00  0.00     0.198 A 
ATOM     88  C   UNL A   1      35.901  31.756  28.897  1.00  0.00     0.198 A 
ATOM     89  F   UNL A   1      37.830  30.759  28.058  1.00  0.00    -0.203 F 
ATOM     90  F   UNL A   1      34.799  32.341  32.283  1.00  0.00    -0.200 F 
ATOM     91  C   UNL A   1      35.129  32.189  29.957  1.00  0.00     0.200 A 
ATOM     92  F   UNL A   1      35.557  32.076  27.641  1.00  0.00    -0.200 F 
ATOM     93  F   UNL A   1      34.037  32.934  29.733  1.00  0.00    -0.200 F 
ENDBRANCH  59  83
BRANCH  71  94
ATOM     94  C   UNL A   1      42.706  29.878  33.939  1.00  0.00     0.064 A 
ATOM     95  C   UNL A   1      42.282  28.540  33.893  1.00  0.00     0.173 A 
ATOM     96  C   UNL A   1      43.077  30.399  35.188  1.00  0.00     0.173 A 
ATOM     97  F   UNL A   1      42.011  27.938  32.726  1.00  0.00    -0.203 F 
ATOM     98  C   UNL A   1      42.206  27.771  35.052  1.00  0.00     0.198 A 
ATOM     99  C   UNL A   1      43.037  29.616  36.337  1.00  0.00     0.198 A 
ATOM    100  F   UNL A   1      43.541  31.656  35.280  1.00  0.00    -0.203 F 
ATOM    101  F   UNL A   1      41.796  26.498  34.983  1.00  0.00    -0.200 F 
ATOM    102  C   UNL A   1      42.596  28.304  36.270  1.00  0.00     0.200 A 
ATOM    103  F   UNL A   1      43.464  30.119  37.503  1.00  0.00    -0.200 F 
ATOM    104  F   UNL A   1      42.581  27.542  37.372  1.00  0.00    -0.200 F 
ENDBRANCH  71  94
ENDBRANCH  45  46
ENDBRANCH  38  40
ENDBRANCH  37  38
ENDBRANCH  36  37
ENDBRANCH  35  36
ENDBRANCH  34  35
ENDBRANCH  33  34
ENDBRANCH  32  33
ENDBRANCH  31  32
ENDBRANCH   1  31
TORSDOF 24
ENDMDL
MODEL 3
REMARK VINA RESULT:      -9.6      1.781      6.501
REMARK SMILES COc1ccc2c(c1)c(CC(=O)OCCOCCOCCOCCOC(=O)c1ccc(-c3c4nc(c(-c5c(F)c(F)c(F)c(F)c5F)c5ccc([nH]5)c(-c5c(F)c(F)c(F)c(F)c5F)c5nc(c(-c6c(F)c(F)c(F)c(F)c6F)c6ccc3[nH]6)C=C5)C=C4)cc1)c(C)n2C(=O)c1ccc(Cl)cc1
REMARK SMILES IDX 18 1 17 2 16 3 15 4 14 5 13 6 11 7 12 8 10 9 9 10 3 11 4 12
REMARK SMILES IDX 8 13 5 14 7 15 6 16 93 17 91 18 92 19 2 20 1 21 94 22 95 23
REMARK SMILES IDX 96 24 97 25 102 26 98 27 101 28 99 29 100 30 19 31 20 32
REMARK SMILES IDX 21 33 22 34 23 35 24 36 25 37 26 38 27 39 28 40 29 41 90 42
REMARK SMILES IDX 30 43 89 44 31 45 32 46 33 47 83 48 34 49 88 50 82 51 84 52
REMARK SMILES IDX 35 53 87 54 81 55 80 56 36 58 68 59 48 60 67 61 49 62 52 63
REMARK SMILES IDX 66 64 85 65 50 66 51 67 65 69 86 70 53 71 37 72 38 73 46 74
REMARK SMILES IDX 39 75 40 76 44 77 47 78 41 79 42 80 45 81 43 82 69 83 70 84
REMARK SMILES IDX 78 85 71 86 72 87 76 88 79 89 73 90 74 91 77 92 75 93 54 94
REMARK SMILES IDX 55 95 63 96 56 97 57 98 61 99 64 100 58 101 59 102 62 103
REMARK SMILES IDX 60 104
REMARK H PARENT 84 57 52 68
REMARK Flexibility Score: inf
ROOT
ATOM      1  C   UNL A   1      34.744  21.638  26.045  1.00  0.00     0.188 C 
ENDROOT
BRANCH   1   2
ATOM      2  C   UNL A   1      34.938  20.600  24.947  1.00  0.00     0.188 C 
BRANCH   2   3
ATOM      3  O   UNL A   1      34.044  19.510  25.044  1.00  0.00    -0.376 OA
BRANCH   3   4
ATOM      4  C   UNL A   1      32.687  19.705  24.687  1.00  0.00     0.202 C 
BRANCH   4   5
ATOM      5  C   UNL A   1      32.174  19.343  23.277  1.00  0.00     0.261 C 
BRANCH   5   6
ATOM      6  O   UNL A   1      32.294  20.315  22.216  1.00  0.00    -0.463 OA
BRANCH   6   7
ATOM      7  C   UNL A   1      31.783  21.552  22.414  1.00  0.00     0.310 C 
ATOM      8  O   UNL A   1      30.580  21.790  22.336  1.00  0.00    -0.252 OA
BRANCH   7   9
ATOM      9  C   UNL A   1      32.791  22.646  22.778  1.00  0.00     0.160 C 
BRANCH   9  10
ATOM     10  C   UNL A   1      32.338  24.020  23.261  1.00  0.00    -0.008 A 
ATOM     11  C   UNL A   1      30.373  24.024  26.564  1.00  0.00     0.119 A 
ATOM     12  C   UNL A   1      30.209  25.393  26.649  1.00  0.00     0.048 A 
ATOM     13  C   UNL A   1      30.932  23.467  25.405  1.00  0.00     0.057 A 
ATOM     14  C   UNL A   1      30.666  26.222  25.623  1.00  0.00     0.031 A 
ATOM     15  C   UNL A   1      31.511  24.292  24.404  1.00  0.00     0.008 A 
ATOM     16  C   UNL A   1      31.354  25.678  24.513  1.00  0.00     0.057 A 
ATOM     17  N   UNL A   1      31.963  26.276  23.395  1.00  0.00    -0.280 N 
ATOM     18  C   UNL A   1      32.540  25.244  22.628  1.00  0.00     0.028 A 
ATOM     19  C   UNL A   1      33.262  25.459  21.333  1.00  0.00     0.065 C 
BRANCH  11  20
ATOM     20  O   UNL A   1      30.070  23.137  27.563  1.00  0.00    -0.497 OA
ATOM     21  C   UNL A   1      28.988  22.240  27.306  1.00  0.00     0.278 C 
ENDBRANCH  11  20
BRANCH  17  22
ATOM     22  C   UNL A   1      31.980  27.677  23.103  1.00  0.00     0.262 C 
ATOM     23  O   UNL A   1      33.018  28.202  22.705  1.00  0.00    -0.268 OA
BRANCH  22  24
ATOM     24  C   UNL A   1      30.830  28.592  23.240  1.00  0.00     0.040 A 
ATOM     25  C   UNL A   1      29.637  28.305  22.565  1.00  0.00     0.015 A 
ATOM     26  C   UNL A   1      30.950  29.750  24.019  1.00  0.00     0.015 A 
ATOM     27  C   UNL A   1      28.579  29.217  22.620  1.00  0.00     0.021 A 
ATOM     28  C   UNL A   1      29.885  30.654  24.076  1.00  0.00     0.021 A 
ATOM     29  C   UNL A   1      28.711  30.391  23.365  1.00  0.00     0.041 A 
ATOM     30  Cl  UNL A   1      27.424  31.532  23.393  1.00  0.00    -0.084 Cl
ENDBRANCH  22  24
ENDBRANCH  17  22
ENDBRANCH   9  10
ENDBRANCH   7   9
ENDBRANCH   6   7
ENDBRANCH   5   6
ENDBRANCH   4   5
ENDBRANCH   3   4
ENDBRANCH   2   3
ENDBRANCH   1   2
BRANCH   1  31
ATOM     31  O   UNL A   1      35.713  22.602  26.372  1.00  0.00    -0.377 OA
BRANCH  31  32
ATOM     32  C   UNL A   1      36.778  22.802  25.488  1.00  0.00     0.188 C 
BRANCH  32  33
ATOM     33  C   UNL A   1      38.164  22.770  26.142  1.00  0.00     0.188 C 
BRANCH  33  34
ATOM     34  O   UNL A   1      39.014  21.624  26.090  1.00  0.00    -0.376 OA
BRANCH  34  35
ATOM     35  C   UNL A   1      38.767  20.562  25.183  1.00  0.00     0.202 C 
BRANCH  35  36
ATOM     36  C   UNL A   1      39.460  19.213  25.451  1.00  0.00     0.261 C 
BRANCH  36  37
ATOM     37  O   UNL A   1      40.519  19.293  26.408  1.00  0.00    -0.460 OA
BRANCH  37  38
ATOM     38  C   UNL A   1      41.772  19.546  25.938  1.00  0.00     0.338 C 
ATOM     39  O   UNL A   1      42.277  19.169  24.913  1.00  0.00    -0.246 OA
BRANCH  38  40
ATOM     40  C   UNL A   1      42.279  20.651  26.785  1.00  0.00     0.060 A 
ATOM     41  C   UNL A   1      41.836  20.806  28.103  1.00  0.00     0.016 A 
ATOM     42  C   UNL A   1      42.913  21.701  26.108  1.00  0.00     0.016 A 
ATOM     43  C   UNL A   1      41.893  22.072  28.680  1.00  0.00     0.010 A 
ATOM     44  C   UNL A   1      42.955  22.968  26.685  1.00  0.00     0.010 A 
ATOM     45  C   UNL A   1      42.397  23.167  27.950  1.00  0.00    -0.014 A 
BRANCH  45  46
ATOM     46  C   UNL A   1      42.564  24.436  28.666  1.00  0.00     0.031 A 
ATOM     47  C   UNL A   1      41.460  25.392  28.371  1.00  0.00     0.074 A 
ATOM     48  C   UNL A   1      43.449  24.734  29.640  1.00  0.00     0.049 A 
ATOM     49  N   UNL A   1      41.530  26.607  27.934  1.00  0.00    -0.248 NA
ATOM     50  C   UNL A   1      40.092  24.861  28.489  1.00  0.00     0.031 C 
ATOM     51  C   UNL A   1      44.394  23.847  30.315  1.00  0.00     0.029 A 
ATOM     52  N   UNL A   1      43.597  25.919  30.315  1.00  0.00    -0.354 N 
ATOM     53  C   UNL A   1      40.210  27.039  27.843  1.00  0.00     0.074 A 
ATOM     54  C   UNL A   1      39.370  25.892  28.063  1.00  0.00     0.031 C 
ATOM     55  C   UNL A   1      44.863  24.464  31.426  1.00  0.00     0.029 A 
ATOM     56  C   UNL A   1      44.326  25.817  31.492  1.00  0.00     0.049 A 
ATOM     57  H   UNL A   1      43.220  26.769  29.992  1.00  0.00     0.167 HD
ATOM     58  C   UNL A   1      39.871  28.352  27.785  1.00  0.00     0.037 A 
ATOM     59  C   UNL A   1      44.407  26.741  32.482  1.00  0.00     0.037 A 
ATOM     60  C   UNL A   1      40.950  29.178  27.329  1.00  0.00     0.049 A 
ATOM     61  C   UNL A   1      43.976  28.051  31.931  1.00  0.00     0.074 A 
ATOM     62  C   UNL A   1      41.712  29.219  26.177  1.00  0.00     0.029 A 
ATOM     63  N   UNL A   1      41.609  29.970  28.234  1.00  0.00    -0.354 N 
ATOM     64  N   UNL A   1      44.658  28.765  31.080  1.00  0.00    -0.248 NA
ATOM     65  C   UNL A   1      42.576  28.424  32.075  1.00  0.00     0.031 C 
ATOM     66  C   UNL A   1      43.008  29.630  26.599  1.00  0.00     0.029 A 
ATOM     67  C   UNL A   1      42.948  29.822  27.979  1.00  0.00     0.049 A 
ATOM     68  H   UNL A   1      41.201  30.534  28.930  1.00  0.00     0.167 HD
ATOM     69  C   UNL A   1      43.701  29.392  30.298  1.00  0.00     0.074 A 
ATOM     70  C   UNL A   1      42.447  29.235  31.024  1.00  0.00     0.031 C 
ATOM     71  C   UNL A   1      43.960  29.740  29.005  1.00  0.00     0.037 A 
BRANCH  58  72
ATOM     72  C   UNL A   1      38.625  28.893  28.428  1.00  0.00     0.064 A 
ATOM     73  C   UNL A   1      37.800  29.784  27.722  1.00  0.00     0.173 A 
ATOM     74  C   UNL A   1      38.353  28.765  29.809  1.00  0.00     0.173 A 
ATOM     75  F   UNL A   1      38.008  30.017  26.417  1.00  0.00    -0.203 F 
ATOM     76  C   UNL A   1      36.796  30.516  28.361  1.00  0.00     0.198 A 
ATOM     77  C   UNL A   1      37.312  29.448  30.430  1.00  0.00     0.198 A 
ATOM     78  F   UNL A   1      39.148  28.062  30.627  1.00  0.00    -0.203 F 
ATOM     79  F   UNL A   1      36.107  31.437  27.673  1.00  0.00    -0.200 F 
ATOM     80  C   UNL A   1      36.550  30.344  29.711  1.00  0.00     0.200 A 
ATOM     81  F   UNL A   1      37.105  29.283  31.744  1.00  0.00    -0.200 F 
ATOM     82  F   UNL A   1      35.617  31.076  30.332  1.00  0.00    -0.200 F 
ENDBRANCH  58  72
BRANCH  59  83
ATOM     83  C   UNL A   1      44.602  26.536  33.944  1.00  0.00     0.064 A 
ATOM     84  C   UNL A   1      43.540  26.145  34.779  1.00  0.00     0.173 A 
ATOM     85  C   UNL A   1      45.889  26.476  34.515  1.00  0.00     0.173 A 
ATOM     86  F   UNL A   1      42.284  26.111  34.308  1.00  0.00    -0.203 F 
ATOM     87  C   UNL A   1      43.753  25.715  36.095  1.00  0.00     0.198 A 
ATOM     88  C   UNL A   1      46.099  26.066  35.833  1.00  0.00     0.198 A 
ATOM     89  F   UNL A   1      46.981  26.723  33.781  1.00  0.00    -0.203 F 
ATOM     90  F   UNL A   1      42.721  25.292  36.838  1.00  0.00    -0.200 F 
ATOM     91  C   UNL A   1      45.034  25.674  36.620  1.00  0.00     0.200 A 
ATOM     92  F   UNL A   1      47.348  25.997  36.313  1.00  0.00    -0.200 F 
ATOM     93  F   UNL A   1      45.247  25.220  37.863  1.00  0.00    -0.200 F 
ENDBRANCH  59  83
BRANCH  71  94
ATOM     94  C   UNL A   1      45.384  29.726  28.535  1.00  0.00     0.064 A 
ATOM     95  C   UNL A   1      46.035  28.572  28.071  1.00  0.00     0.173 A 
ATOM     96  C   UNL A   1      46.044  30.954  28.374  1.00  0.00     0.173 A 
ATOM     97  F   UNL A   1      45.428  27.377  28.093  1.00  0.00    -0.203 F 
ATOM     98  C   UNL A   1      47.302  28.644  27.498  1.00  0.00     0.198 A 
ATOM     99  C   UNL A   1      47.293  31.026  27.765  1.00  0.00     0.198 A 
ATOM    100  F   UNL A   1      45.444  32.095  28.750  1.00  0.00    -0.203 F 
ATOM    101  F   UNL A   1      47.904  27.528  27.066  1.00  0.00    -0.200 F 
ATOM    102  C   UNL A   1      47.925  29.871  27.333  1.00  0.00     0.200 A 
ATOM    103  F   UNL A   1      47.869  32.219  27.562  1.00  0.00    -0.200 F 
ATOM    104  F   UNL A   1      49.117  29.942  26.725  1.00  0.00    -0.200 F 
ENDBRANCH  71  94
ENDBRANCH  45  46
ENDBRANCH  38  40
ENDBRANCH  37  38
ENDBRANCH  36  37
ENDBRANCH  35  36
ENDBRANCH  34  35
ENDBRANCH  33  34
ENDBRANCH  32  33
ENDBRANCH  31  32
ENDBRANCH   1  31
TORSDOF 24
ENDMDL
