MODEL 1
REMARK VINA RESULT:     -12.3      0.000      0.000
REMARK SMILES Cc1ccc(C(=O)OCCOCCOCCOCCOC(=O)c2ccc(-c3c4nc(c(-c5c(F)c(F)c(F)c(F)c5F)c5ccc([nH]5)c(-c5c(F)c(F)c(F)c(F)c5F)c5nc(c(-c6c(F)c(F)c(F)c(F)c6F)c6ccc3[nH]6)C=C5)C=C4)cc2)cc1N1CC(C)C1
REMARK SMILES IDX 15 1 14 2 13 3 12 4 11 5 10 6 9 7 8 8 6 9 7 10 5 11 1 12
REMARK SMILES IDX 2 13 3 14 87 15 4 16 86 17 88 18 89 19 92 20 90 21 91 22
REMARK SMILES IDX 16 23 17 24 18 25 19 26 20 27 21 28 22 29 23 30 24 31 85 32
REMARK SMILES IDX 25 33 84 34 26 35 27 36 28 37 78 38 29 39 83 40 77 41 79 42
REMARK SMILES IDX 30 43 82 44 76 45 75 46 31 48 63 49 43 50 62 51 44 52 47 53
REMARK SMILES IDX 61 54 80 55 45 56 46 57 60 59 81 60 48 61 32 62 33 63 41 64
REMARK SMILES IDX 34 65 35 66 39 67 42 68 36 69 37 70 40 71 38 72 64 73 65 74
REMARK SMILES IDX 73 75 66 76 67 77 71 78 74 79 68 80 69 81 72 82 70 83 49 84
REMARK SMILES IDX 50 85 58 86 51 87 52 88 56 89 59 90 53 91 54 92 57 93 55 94
REMARK H PARENT 79 47 47 58
REMARK Flexibility Score: inf
ROOT
ATOM      1  C   UNL A   1      34.164  35.309  28.373  1.00  0.00     0.188 C 
ENDROOT
BRANCH   1   2
ATOM      2  O   UNL A   1      33.661  34.130  28.970  1.00  0.00    -0.377 OA
BRANCH   2   3
ATOM      3  C   UNL A   1      33.722  33.009  28.095  1.00  0.00     0.188 C 
BRANCH   3   4
ATOM      4  C   UNL A   1      34.739  31.850  28.430  1.00  0.00     0.188 C 
BRANCH   4   5
ATOM      5  O   UNL A   1      34.583  30.411  27.914  1.00  0.00    -0.376 OA
BRANCH   5   6
ATOM      6  C   UNL A   1      33.691  29.807  26.696  1.00  0.00     0.202 C 
BRANCH   6   7
ATOM      7  C   UNL A   1      31.980  29.165  26.343  1.00  0.00     0.261 C 
BRANCH   7   8
ATOM      8  O   UNL A   1      31.230  27.486  26.299  1.00  0.00    -0.460 OA
BRANCH   8   9
ATOM      9  C   UNL A   1      31.475  25.890  26.283  1.00  0.00     0.338 C 
ATOM     10  O   UNL A   1      30.607  25.192  26.834  1.00  0.00    -0.246 OA
BRANCH   9  11
ATOM     11  C   UNL A   1      32.756  24.899  25.759  1.00  0.00     0.062 A 
ATOM     12  C   UNL A   1      36.101  22.810  23.728  1.00  0.00     0.046 C 
ATOM     13  C   UNL A   1      34.957  23.478  24.425  1.00  0.00    -0.028 A 
ATOM     14  C   UNL A   1      35.002  24.858  24.734  1.00  0.00     0.006 A 
ATOM     15  C   UNL A   1      33.845  22.769  24.823  1.00  0.00     0.040 A 
ATOM     16  C   UNL A   1      33.915  25.556  25.338  1.00  0.00     0.016 A 
ATOM     17  C   UNL A   1      32.887  23.483  25.583  1.00  0.00     0.041 A 
BRANCH  15  18
ATOM     18  N   UNL A   1      33.537  21.428  24.502  1.00  0.00    -0.371 N 
ATOM     19  C   UNL A   1      33.881  20.239  25.239  1.00  0.00     0.121 C 
ATOM     20  C   UNL A   1      32.495  20.770  23.777  1.00  0.00     0.121 C 
ATOM     21  C   UNL A   1      33.203  19.433  24.120  1.00  0.00     0.025 C 
ATOM     22  C   UNL A   1      32.383  18.219  24.518  1.00  0.00     0.011 C 
ENDBRANCH  15  18
ENDBRANCH   9  11
ENDBRANCH   8   9
ENDBRANCH   7   8
ENDBRANCH   6   7
ENDBRANCH   5   6
ENDBRANCH   4   5
ENDBRANCH   3   4
ENDBRANCH   2   3
ENDBRANCH   1   2
BRANCH   1  23
ATOM     23  C   UNL A   1      33.327  36.526  28.777  1.00  0.00     0.188 C 
BRANCH  23  24
ATOM     24  O   UNL A   1      32.581  36.279  29.961  1.00  0.00    -0.376 OA
BRANCH  24  25
ATOM     25  C   UNL A   1      33.003  36.934  31.146  1.00  0.00     0.202 C 
BRANCH  25  26
ATOM     26  C   UNL A   1      32.381  36.210  32.343  1.00  0.00     0.261 C 
BRANCH  26  27
ATOM     27  O   UNL A   1      33.068  34.960  32.577  1.00  0.00    -0.460 OA
BRANCH  27  28
ATOM     28  C   UNL A   1      34.233  35.057  33.261  1.00  0.00     0.338 C 
ATOM     29  O   UNL A   1      34.531  35.988  34.030  1.00  0.00    -0.246 OA
BRANCH  28  30
ATOM     30  C   UNL A   1      35.197  34.027  32.772  1.00  0.00     0.060 A 
ATOM     31  C   UNL A   1      35.643  33.033  33.623  1.00  0.00     0.016 A 
ATOM     32  C   UNL A   1      35.869  34.207  31.559  1.00  0.00     0.016 A 
ATOM     33  C   UNL A   1      36.850  32.382  33.322  1.00  0.00     0.010 A 
ATOM     34  C   UNL A   1      37.167  33.707  31.385  1.00  0.00     0.010 A 
ATOM     35  C   UNL A   1      37.755  32.901  32.363  1.00  0.00    -0.014 A 
BRANCH  35  36
ATOM     36  C   UNL A   1      39.322  32.477  32.233  1.00  0.00     0.031 A 
ATOM     37  C   UNL A   1      38.851  30.933  31.449  1.00  0.00     0.074 A 
ATOM     38  C   UNL A   1      40.746  32.963  32.960  1.00  0.00     0.049 A 
ATOM     39  N   UNL A   1      39.130  29.709  31.867  1.00  0.00    -0.248 NA
ATOM     40  C   UNL A   1      37.883  30.817  30.334  1.00  0.00     0.031 C 
ATOM     41  C   UNL A   1      42.341  32.366  32.979  1.00  0.00     0.029 A 
ATOM     42  N   UNL A   1      41.168  33.816  34.143  1.00  0.00    -0.354 N 
ATOM     43  C   UNL A   1      39.025  28.883  30.792  1.00  0.00     0.074 A 
ATOM     44  C   UNL A   1      37.947  29.505  30.053  1.00  0.00     0.031 C 
ATOM     45  C   UNL A   1      43.144  32.800  33.943  1.00  0.00     0.029 A 
ATOM     46  C   UNL A   1      42.273  33.331  34.902  1.00  0.00     0.049 A 
ATOM     47  H   UNL A   1      40.706  34.655  34.372  1.00  0.00     0.167 HD
ATOM     48  C   UNL A   1      40.059  28.048  30.411  1.00  0.00     0.037 A 
ATOM     49  C   UNL A   1      42.338  32.849  36.189  1.00  0.00     0.037 A 
ATOM     50  C   UNL A   1      41.317  28.181  31.229  1.00  0.00     0.049 A 
ATOM     51  C   UNL A   1      42.850  31.369  36.177  1.00  0.00     0.074 A 
ATOM     52  C   UNL A   1      42.558  28.721  30.891  1.00  0.00     0.029 A 
ATOM     53  N   UNL A   1      41.388  28.018  32.629  1.00  0.00    -0.354 N 
ATOM     54  N   UNL A   1      42.667  30.549  35.166  1.00  0.00    -0.248 NA
ATOM     55  C   UNL A   1      43.629  30.723  37.226  1.00  0.00     0.031 C 
ATOM     56  C   UNL A   1      43.332  28.939  32.056  1.00  0.00     0.029 A 
ATOM     57  C   UNL A   1      42.616  28.478  33.147  1.00  0.00     0.049 A 
ATOM     58  H   UNL A   1      40.668  27.630  33.177  1.00  0.00     0.167 HD
ATOM     59  C   UNL A   1      43.206  29.315  35.395  1.00  0.00     0.074 A 
ATOM     60  C   UNL A   1      43.848  29.500  36.694  1.00  0.00     0.031 C 
ATOM     61  C   UNL A   1      43.088  28.248  34.526  1.00  0.00     0.037 A 
BRANCH  48  62
ATOM     62  C   UNL A   1      40.050  27.531  28.958  1.00  0.00     0.064 A 
ATOM     63  C   UNL A   1      39.607  26.244  28.590  1.00  0.00     0.173 A 
ATOM     64  C   UNL A   1      40.583  28.274  27.884  1.00  0.00     0.173 A 
ATOM     65  F   UNL A   1      38.820  25.512  29.384  1.00  0.00    -0.203 F 
ATOM     66  C   UNL A   1      39.906  25.669  27.347  1.00  0.00     0.198 A 
ATOM     67  C   UNL A   1      40.924  27.693  26.655  1.00  0.00     0.198 A 
ATOM     68  F   UNL A   1      40.757  29.601  27.991  1.00  0.00    -0.203 F 
ATOM     69  F   UNL A   1      39.494  24.422  27.074  1.00  0.00    -0.200 F 
ATOM     70  C   UNL A   1      40.617  26.374  26.401  1.00  0.00     0.200 A 
ATOM     71  F   UNL A   1      41.557  28.422  25.725  1.00  0.00    -0.200 F 
ATOM     72  F   UNL A   1      40.948  25.808  25.232  1.00  0.00    -0.200 F 
ENDBRANCH  48  62
BRANCH  49  73
ATOM     73  C   UNL A   1      41.407  33.435  37.203  1.00  0.00     0.064 A 
ATOM     74  C   UNL A   1      41.839  34.542  37.964  1.00  0.00     0.173 A 
ATOM     75  C   UNL A   1      40.038  33.134  37.259  1.00  0.00     0.173 A 
ATOM     76  F   UNL A   1      43.145  34.849  38.019  1.00  0.00    -0.203 F 
ATOM     77  C   UNL A   1      40.935  35.401  38.590  1.00  0.00     0.198 A 
ATOM     78  C   UNL A   1      39.129  34.014  37.861  1.00  0.00     0.198 A 
ATOM     79  F   UNL A   1      39.549  32.092  36.571  1.00  0.00    -0.203 F 
ATOM     80  F   UNL A   1      41.379  36.503  39.211  1.00  0.00    -0.200 F 
ATOM     81  C   UNL A   1      39.576  35.163  38.495  1.00  0.00     0.200 A 
ATOM     82  F   UNL A   1      37.811  33.794  37.742  1.00  0.00    -0.200 F 
ATOM     83  F   UNL A   1      38.702  36.055  38.983  1.00  0.00    -0.200 F 
ENDBRANCH  49  73
BRANCH  61  84
ATOM     84  C   UNL A   1      43.603  26.853  34.820  1.00  0.00     0.064 A 
ATOM     85  C   UNL A   1      42.761  25.748  35.011  1.00  0.00     0.173 A 
ATOM     86  C   UNL A   1      44.992  26.560  34.782  1.00  0.00     0.173 A 
ATOM     87  F   UNL A   1      41.429  25.879  34.968  1.00  0.00    -0.203 F 
ATOM     88  C   UNL A   1      43.270  24.461  35.201  1.00  0.00     0.198 A 
ATOM     89  C   UNL A   1      45.491  25.267  34.908  1.00  0.00     0.198 A 
ATOM     90  F   UNL A   1      45.916  27.516  34.613  1.00  0.00    -0.203 F 
ATOM     91  F   UNL A   1      42.426  23.446  35.429  1.00  0.00    -0.200 F 
ATOM     92  C   UNL A   1      44.629  24.218  35.134  1.00  0.00     0.200 A 
ATOM     93  F   UNL A   1      46.810  25.047  34.797  1.00  0.00    -0.200 F 
ATOM     94  F   UNL A   1      45.106  22.973  35.268  1.00  0.00    -0.200 F 
ENDBRANCH  61  84
ENDBRANCH  35  36
ENDBRANCH  28  30
ENDBRANCH  27  28
ENDBRANCH  26  27
ENDBRANCH  25  26
ENDBRANCH  24  25
ENDBRANCH  23  24
ENDBRANCH   1  23
TORSDOF 21
ENDMDL
MODEL 2
REMARK VINA RESULT:     -11.2      4.277      9.788
REMARK SMILES Cc1ccc(C(=O)OCCOCCOCCOCCOC(=O)c2ccc(-c3c4nc(c(-c5c(F)c(F)c(F)c(F)c5F)c5ccc([nH]5)c(-c5c(F)c(F)c(F)c(F)c5F)c5nc(c(-c6c(F)c(F)c(F)c(F)c6F)c6ccc3[nH]6)C=C5)C=C4)cc2)cc1N1CC(C)C1
REMARK SMILES IDX 15 1 14 2 13 3 12 4 11 5 10 6 9 7 8 8 6 9 7 10 5 11 1 12
REMARK SMILES IDX 2 13 3 14 87 15 4 16 86 17 88 18 89 19 92 20 90 21 91 22
REMARK SMILES IDX 16 23 17 24 18 25 19 26 20 27 21 28 22 29 23 30 24 31 85 32
REMARK SMILES IDX 25 33 84 34 26 35 27 36 28 37 78 38 29 39 83 40 77 41 79 42
REMARK SMILES IDX 30 43 82 44 76 45 75 46 31 48 63 49 43 50 62 51 44 52 47 53
REMARK SMILES IDX 61 54 80 55 45 56 46 57 60 59 81 60 48 61 32 62 33 63 41 64
REMARK SMILES IDX 34 65 35 66 39 67 42 68 36 69 37 70 40 71 38 72 64 73 65 74
REMARK SMILES IDX 73 75 66 76 67 77 71 78 74 79 68 80 69 81 72 82 70 83 49 84
REMARK SMILES IDX 50 85 58 86 51 87 52 88 56 89 59 90 53 91 54 92 57 93 55 94
REMARK H PARENT 79 47 47 58
REMARK Flexibility Score: inf
ROOT
ATOM      1  C   UNL A   1      45.532  22.536  25.190  1.00  0.00     0.188 C 
ENDROOT
BRANCH   1   2
ATOM      2  O   UNL A   1      45.767  21.205  24.772  1.00  0.00    -0.377 OA
BRANCH   2   3
ATOM      3  C   UNL A   1      44.559  20.488  24.537  1.00  0.00     0.188 C 
BRANCH   3   4
ATOM      4  C   UNL A   1      44.396  19.060  25.189  1.00  0.00     0.188 C 
BRANCH   4   5
ATOM      5  O   UNL A   1      43.202  18.664  26.072  1.00  0.00    -0.376 OA
BRANCH   5   6
ATOM      6  C   UNL A   1      41.683  19.240  26.131  1.00  0.00     0.202 C 
BRANCH   6   7
ATOM      7  C   UNL A   1      40.754  20.831  26.395  1.00  0.00     0.261 C 
BRANCH   7   8
ATOM      8  O   UNL A   1      39.360  21.656  25.523  1.00  0.00    -0.460 OA
BRANCH   8   9
ATOM      9  C   UNL A   1      37.888  22.310  25.631  1.00  0.00     0.338 C 
ATOM     10  O   UNL A   1      37.734  23.184  26.501  1.00  0.00    -0.246 OA
BRANCH   9  11
ATOM     11  C   UNL A   1      36.398  21.992  24.872  1.00  0.00     0.062 A 
ATOM     12  C   UNL A   1      32.237  21.803  23.344  1.00  0.00     0.046 C 
ATOM     13  C   UNL A   1      33.642  21.826  23.861  1.00  0.00    -0.028 A 
ATOM     14  C   UNL A   1      34.438  22.990  23.750  1.00  0.00     0.006 A 
ATOM     15  C   UNL A   1      34.218  20.708  24.424  1.00  0.00     0.040 A 
ATOM     16  C   UNL A   1      35.758  23.084  24.283  1.00  0.00     0.016 A 
ATOM     17  C   UNL A   1      35.589  20.813  24.762  1.00  0.00     0.041 A 
BRANCH  15  18
ATOM     18  N   UNL A   1      33.569  19.496  24.753  1.00  0.00    -0.371 N 
ATOM     19  C   UNL A   1      33.820  18.184  24.214  1.00  0.00     0.121 C 
ATOM     20  C   UNL A   1      32.905  18.980  25.908  1.00  0.00     0.121 C 
ATOM     21  C   UNL A   1      32.669  17.678  25.099  1.00  0.00     0.025 C 
ATOM     22  C   UNL A   1      32.833  16.325  25.768  1.00  0.00     0.011 C 
ENDBRANCH  15  18
ENDBRANCH   9  11
ENDBRANCH   8   9
ENDBRANCH   7   8
ENDBRANCH   6   7
ENDBRANCH   5   6
ENDBRANCH   4   5
ENDBRANCH   3   4
ENDBRANCH   2   3
ENDBRANCH   1   2
BRANCH   1  23
ATOM     23  C   UNL A   1      44.798  22.565  26.534  1.00  0.00     0.188 C 
BRANCH  23  24
ATOM     24  O   UNL A   1      43.530  23.200  26.424  1.00  0.00    -0.376 OA
BRANCH  24  25
ATOM     25  C   UNL A   1      43.269  24.289  27.294  1.00  0.00     0.202 C 
BRANCH  25  26
ATOM     26  C   UNL A   1      42.652  25.423  26.470  1.00  0.00     0.261 C 
BRANCH  26  27
ATOM     27  O   UNL A   1      41.219  25.255  26.392  1.00  0.00    -0.460 OA
BRANCH  27  28
ATOM     28  C   UNL A   1      40.561  25.322  27.575  1.00  0.00     0.338 C 
ATOM     29  O   UNL A   1      40.191  24.339  28.240  1.00  0.00    -0.246 OA
BRANCH  28  30
ATOM     30  C   UNL A   1      40.130  26.727  27.839  1.00  0.00     0.060 A 
ATOM     31  C   UNL A   1      40.816  27.783  27.267  1.00  0.00     0.016 A 
ATOM     32  C   UNL A   1      39.224  27.008  28.866  1.00  0.00     0.016 A 
ATOM     33  C   UNL A   1      40.714  29.050  27.862  1.00  0.00     0.010 A 
ATOM     34  C   UNL A   1      39.302  28.218  29.571  1.00  0.00     0.010 A 
ATOM     35  C   UNL A   1      40.189  29.219  29.166  1.00  0.00    -0.014 A 
BRANCH  35  36
ATOM     36  C   UNL A   1      40.400  30.541  30.094  1.00  0.00     0.031 A 
ATOM     37  C   UNL A   1      41.235  29.550  31.336  1.00  0.00     0.074 A 
ATOM     38  C   UNL A   1      39.710  32.061  30.169  1.00  0.00     0.049 A 
ATOM     39  N   UNL A   1      40.885  29.398  32.603  1.00  0.00    -0.248 NA
ATOM     40  C   UNL A   1      42.315  28.577  31.049  1.00  0.00     0.031 C 
ATOM     41  C   UNL A   1      39.781  33.352  31.277  1.00  0.00     0.029 A 
ATOM     42  N   UNL A   1      38.507  32.776  29.581  1.00  0.00    -0.354 N 
ATOM     43  C   UNL A   1      41.991  28.992  33.280  1.00  0.00     0.074 A 
ATOM     44  C   UNL A   1      42.657  28.178  32.286  1.00  0.00     0.031 C 
ATOM     45  C   UNL A   1      38.832  34.276  31.201  1.00  0.00     0.029 A 
ATOM     46  C   UNL A   1      37.816  33.663  30.458  1.00  0.00     0.049 A 
ATOM     47  H   UNL A   1      38.222  32.638  28.649  1.00  0.00     0.167 HD
ATOM     48  C   UNL A   1      42.451  29.665  34.397  1.00  0.00     0.037 A 
ATOM     49  C   UNL A   1      36.555  33.586  31.005  1.00  0.00     0.037 A 
ATOM     50  C   UNL A   1      41.678  30.909  34.750  1.00  0.00     0.049 A 
ATOM     51  C   UNL A   1      36.656  33.555  32.568  1.00  0.00     0.074 A 
ATOM     52  C   UNL A   1      42.041  32.253  34.651  1.00  0.00     0.029 A 
ATOM     53  N   UNL A   1      40.291  30.951  35.006  1.00  0.00    -0.354 N 
ATOM     54  N   UNL A   1      37.695  33.079  33.216  1.00  0.00    -0.248 NA
ATOM     55  C   UNL A   1      35.669  34.086  33.499  1.00  0.00     0.031 C 
ATOM     56  C   UNL A   1      40.899  33.080  34.778  1.00  0.00     0.029 A 
ATOM     57  C   UNL A   1      39.802  32.272  35.026  1.00  0.00     0.049 A 
ATOM     58  H   UNL A   1      39.733  30.153  35.154  1.00  0.00     0.167 HD
ATOM     59  C   UNL A   1      37.543  33.164  34.571  1.00  0.00     0.074 A 
ATOM     60  C   UNL A   1      36.264  33.858  34.691  1.00  0.00     0.031 C 
ATOM     61  C   UNL A   1      38.455  32.666  35.481  1.00  0.00     0.037 A 
BRANCH  48  62
ATOM     62  C   UNL A   1      43.925  29.447  34.796  1.00  0.00     0.064 A 
ATOM     63  C   UNL A   1      45.007  30.095  34.166  1.00  0.00     0.173 A 
ATOM     64  C   UNL A   1      44.317  28.500  35.764  1.00  0.00     0.173 A 
ATOM     65  F   UNL A   1      44.846  31.210  33.447  1.00  0.00    -0.203 F 
ATOM     66  C   UNL A   1      46.332  29.654  34.300  1.00  0.00     0.198 A 
ATOM     67  C   UNL A   1      45.631  28.025  35.870  1.00  0.00     0.198 A 
ATOM     68  F   UNL A   1      43.434  28.031  36.659  1.00  0.00    -0.203 F 
ATOM     69  F   UNL A   1      47.313  30.286  33.639  1.00  0.00    -0.200 F 
ATOM     70  C   UNL A   1      46.636  28.580  35.107  1.00  0.00     0.200 A 
ATOM     71  F   UNL A   1      45.912  27.022  36.715  1.00  0.00    -0.200 F 
ATOM     72  F   UNL A   1      47.893  28.126  35.197  1.00  0.00    -0.200 F 
ENDBRANCH  48  62
BRANCH  49  73
ATOM     73  C   UNL A   1      35.479  32.936  30.193  1.00  0.00     0.064 A 
ATOM     74  C   UNL A   1      34.551  33.754  29.516  1.00  0.00     0.173 A 
ATOM     75  C   UNL A   1      35.494  31.579  29.837  1.00  0.00     0.173 A 
ATOM     76  F   UNL A   1      34.427  35.048  29.852  1.00  0.00    -0.203 F 
ATOM     77  C   UNL A   1      33.815  33.285  28.427  1.00  0.00     0.198 A 
ATOM     78  C   UNL A   1      34.779  31.117  28.724  1.00  0.00     0.198 A 
ATOM     79  F   UNL A   1      36.342  30.734  30.440  1.00  0.00    -0.203 F 
ATOM     80  F   UNL A   1      33.025  34.124  27.741  1.00  0.00    -0.200 F 
ATOM     81  C   UNL A   1      33.968  31.979  28.000  1.00  0.00     0.200 A 
ATOM     82  F   UNL A   1      34.953  29.858  28.297  1.00  0.00    -0.200 F 
ATOM     83  F   UNL A   1      33.364  31.563  26.878  1.00  0.00    -0.200 F 
ENDBRANCH  49  73
BRANCH  61  84
ATOM     84  C   UNL A   1      38.246  32.675  36.983  1.00  0.00     0.064 A 
ATOM     85  C   UNL A   1      38.463  33.806  37.782  1.00  0.00     0.173 A 
ATOM     86  C   UNL A   1      37.678  31.558  37.651  1.00  0.00     0.173 A 
ATOM     87  F   UNL A   1      38.903  34.954  37.250  1.00  0.00    -0.203 F 
ATOM     88  C   UNL A   1      38.185  33.803  39.151  1.00  0.00     0.198 A 
ATOM     89  C   UNL A   1      37.342  31.581  39.001  1.00  0.00     0.198 A 
ATOM     90  F   UNL A   1      37.420  30.406  37.017  1.00  0.00    -0.203 F 
ATOM     91  F   UNL A   1      38.457  34.893  39.881  1.00  0.00    -0.200 F 
ATOM     92  C   UNL A   1      37.611  32.700  39.756  1.00  0.00     0.200 A 
ATOM     93  F   UNL A   1      36.748  30.516  39.559  1.00  0.00    -0.200 F 
ATOM     94  F   UNL A   1      37.301  32.723  41.060  1.00  0.00    -0.200 F 
ENDBRANCH  61  84
ENDBRANCH  35  36
ENDBRANCH  28  30
ENDBRANCH  27  28
ENDBRANCH  26  27
ENDBRANCH  25  26
ENDBRANCH  24  25
ENDBRANCH  23  24
ENDBRANCH   1  23
TORSDOF 21
ENDMDL
MODEL 3
REMARK VINA RESULT:     -10.5      5.101     11.864
REMARK SMILES Cc1ccc(C(=O)OCCOCCOCCOCCOC(=O)c2ccc(-c3c4nc(c(-c5c(F)c(F)c(F)c(F)c5F)c5ccc([nH]5)c(-c5c(F)c(F)c(F)c(F)c5F)c5nc(c(-c6c(F)c(F)c(F)c(F)c6F)c6ccc3[nH]6)C=C5)C=C4)cc2)cc1N1CC(C)C1
REMARK SMILES IDX 15 1 14 2 13 3 12 4 11 5 10 6 9 7 8 8 6 9 7 10 5 11 1 12
REMARK SMILES IDX 2 13 3 14 87 15 4 16 86 17 88 18 89 19 92 20 90 21 91 22
REMARK SMILES IDX 16 23 17 24 18 25 19 26 20 27 21 28 22 29 23 30 24 31 85 32
REMARK SMILES IDX 25 33 84 34 26 35 27 36 28 37 78 38 29 39 83 40 77 41 79 42
REMARK SMILES IDX 30 43 82 44 76 45 75 46 31 48 63 49 43 50 62 51 44 52 47 53
REMARK SMILES IDX 61 54 80 55 45 56 46 57 60 59 81 60 48 61 32 62 33 63 41 64
REMARK SMILES IDX 34 65 35 66 39 67 42 68 36 69 37 70 40 71 38 72 64 73 65 74
REMARK SMILES IDX 73 75 66 76 67 77 71 78 74 79 68 80 69 81 72 82 70 83 49 84
REMARK SMILES IDX 50 85 58 86 51 87 52 88 56 89 59 90 53 91 54 92 57 93 55 94
REMARK H PARENT 79 47 47 58
REMARK Flexibility Score: inf
ROOT
ATOM      1  C   UNL A   1      45.468  23.995  25.310  1.00  0.00     0.188 C 
ENDROOT
BRANCH   1   2
ATOM      2  O   UNL A   1      46.615  23.834  26.122  1.00  0.00    -0.377 OA
BRANCH   2   3
ATOM      3  C   UNL A   1      46.450  24.405  27.415  1.00  0.00     0.188 C 
BRANCH   3   4
ATOM      4  C   UNL A   1      45.356  25.527  27.606  1.00  0.00     0.188 C 
BRANCH   4   5
ATOM      5  O   UNL A   1      45.535  26.974  27.122  1.00  0.00    -0.376 OA
BRANCH   5   6
ATOM      6  C   UNL A   1      44.472  28.200  27.013  1.00  0.00     0.202 C 
BRANCH   6   7
ATOM      7  C   UNL A   1      44.372  30.044  27.238  1.00  0.00     0.261 C 
BRANCH   7   8
ATOM      8  O   UNL A   1      43.855  31.437  26.153  1.00  0.00    -0.460 OA
BRANCH   8   9
ATOM      9  C   UNL A   1      44.150  32.938  25.639  1.00  0.00     0.338 C 
ATOM     10  O   UNL A   1      44.159  33.110  24.407  1.00  0.00    -0.246 OA
BRANCH   9  11
ATOM     11  C   UNL A   1      44.580  34.390  26.419  1.00  0.00     0.062 A 
ATOM     12  C   UNL A   1      45.617  37.729  29.149  1.00  0.00     0.046 C 
ATOM     13  C   UNL A   1      45.245  36.628  28.204  1.00  0.00    -0.028 A 
ATOM     14  C   UNL A   1      45.956  35.405  28.199  1.00  0.00     0.006 A 
ATOM     15  C   UNL A   1      44.230  36.782  27.286  1.00  0.00     0.040 A 
ATOM     16  C   UNL A   1      45.603  34.303  27.366  1.00  0.00     0.016 A 
ATOM     17  C   UNL A   1      44.054  35.722  26.364  1.00  0.00     0.041 A 
BRANCH  15  18
ATOM     18  N   UNL A   1      43.314  37.856  27.209  1.00  0.00    -0.371 N 
ATOM     19  C   UNL A   1      43.545  39.181  26.693  1.00  0.00     0.121 C 
ATOM     20  C   UNL A   1      41.894  37.973  27.092  1.00  0.00     0.121 C 
ATOM     21  C   UNL A   1      42.097  39.511  27.090  1.00  0.00     0.025 C 
ATOM     22  C   UNL A   1      41.286  40.385  26.150  1.00  0.00     0.011 C 
ENDBRANCH  15  18
ENDBRANCH   9  11
ENDBRANCH   8   9
ENDBRANCH   7   8
ENDBRANCH   6   7
ENDBRANCH   5   6
ENDBRANCH   4   5
ENDBRANCH   3   4
ENDBRANCH   2   3
ENDBRANCH   1   2
BRANCH   1  23
ATOM     23  C   UNL A   1      44.657  22.698  25.246  1.00  0.00     0.188 C 
BRANCH  23  24
ATOM     24  O   UNL A   1      43.264  22.956  25.126  1.00  0.00    -0.376 OA
BRANCH  24  25
ATOM     25  C   UNL A   1      42.557  23.279  26.312  1.00  0.00     0.202 C 
BRANCH  25  26
ATOM     26  C   UNL A   1      41.739  24.548  26.052  1.00  0.00     0.261 C 
BRANCH  26  27
ATOM     27  O   UNL A   1      41.499  25.245  27.295  1.00  0.00    -0.460 OA
BRANCH  27  28
ATOM     28  C   UNL A   1      40.200  25.334  27.669  1.00  0.00     0.338 C 
ATOM     29  O   UNL A   1      39.388  24.394  27.651  1.00  0.00    -0.246 OA
BRANCH  28  30
ATOM     30  C   UNL A   1      39.825  26.767  27.867  1.00  0.00     0.060 A 
ATOM     31  C   UNL A   1      40.571  27.768  27.273  1.00  0.00     0.016 A 
ATOM     32  C   UNL A   1      38.907  27.127  28.857  1.00  0.00     0.016 A 
ATOM     33  C   UNL A   1      40.511  29.061  27.815  1.00  0.00     0.010 A 
ATOM     34  C   UNL A   1      39.020  28.360  29.516  1.00  0.00     0.010 A 
ATOM     35  C   UNL A   1      39.961  29.305  29.098  1.00  0.00    -0.014 A 
BRANCH  35  36
ATOM     36  C   UNL A   1      40.206  30.652  29.979  1.00  0.00     0.031 A 
ATOM     37  C   UNL A   1      41.041  29.688  31.241  1.00  0.00     0.074 A 
ATOM     38  C   UNL A   1      39.543  32.186  30.013  1.00  0.00     0.049 A 
ATOM     39  N   UNL A   1      40.706  29.583  32.517  1.00  0.00    -0.248 NA
ATOM     40  C   UNL A   1      42.100  28.688  30.973  1.00  0.00     0.031 C 
ATOM     41  C   UNL A   1      39.651  33.510  31.077  1.00  0.00     0.029 A 
ATOM     42  N   UNL A   1      38.345  32.902  29.417  1.00  0.00    -0.354 N 
ATOM     43  C   UNL A   1      41.814  29.180  33.193  1.00  0.00     0.074 A 
ATOM     44  C   UNL A   1      42.453  28.324  32.217  1.00  0.00     0.031 C 
ATOM     45  C   UNL A   1      38.716  34.448  30.982  1.00  0.00     0.029 A 
ATOM     46  C   UNL A   1      37.680  33.829  30.274  1.00  0.00     0.049 A 
ATOM     47  H   UNL A   1      38.044  32.738  28.494  1.00  0.00     0.167 HD
ATOM     48  C   UNL A   1      42.300  29.882  34.281  1.00  0.00     0.037 A 
ATOM     49  C   UNL A   1      36.426  33.791  30.839  1.00  0.00     0.037 A 
ATOM     50  C   UNL A   1      41.554  31.150  34.603  1.00  0.00     0.049 A 
ATOM     51  C   UNL A   1      36.547  33.810  32.401  1.00  0.00     0.074 A 
ATOM     52  C   UNL A   1      41.937  32.484  34.455  1.00  0.00     0.029 A 
ATOM     53  N   UNL A   1      40.170  31.223  34.876  1.00  0.00    -0.354 N 
ATOM     54  N   UNL A   1      37.586  33.337  33.051  1.00  0.00    -0.248 NA
ATOM     55  C   UNL A   1      35.582  34.387  33.327  1.00  0.00     0.031 C 
ATOM     56  C   UNL A   1      40.811  33.333  34.570  1.00  0.00     0.029 A 
ATOM     57  C   UNL A   1      39.704  32.553  34.858  1.00  0.00     0.049 A 
ATOM     58  H   UNL A   1      39.602  30.440  35.057  1.00  0.00     0.167 HD
ATOM     59  C   UNL A   1      37.455  33.469  34.404  1.00  0.00     0.074 A 
ATOM     60  C   UNL A   1      36.189  34.188  34.517  1.00  0.00     0.031 C 
ATOM     61  C   UNL A   1      38.371  32.985  35.318  1.00  0.00     0.037 A 
BRANCH  48  62
ATOM     62  C   UNL A   1      43.775  29.652  34.668  1.00  0.00     0.064 A 
ATOM     63  C   UNL A   1      44.182  28.817  35.729  1.00  0.00     0.173 A 
ATOM     64  C   UNL A   1      44.839  30.341  34.050  1.00  0.00     0.173 A 
ATOM     65  F   UNL A   1      43.381  27.877  36.239  1.00  0.00    -0.203 F 
ATOM     66  C   UNL A   1      45.470  28.870  36.280  1.00  0.00     0.198 A 
ATOM     67  C   UNL A   1      46.116  30.434  34.621  1.00  0.00     0.198 A 
ATOM     68  F   UNL A   1      44.674  30.921  32.851  1.00  0.00    -0.203 F 
ATOM     69  F   UNL A   1      45.782  28.081  37.319  1.00  0.00    -0.200 F 
ATOM     70  C   UNL A   1      46.420  29.723  35.762  1.00  0.00     0.200 A 
ATOM     71  F   UNL A   1      47.044  31.220  34.058  1.00  0.00    -0.200 F 
ATOM     72  F   UNL A   1      47.636  29.812  36.320  1.00  0.00    -0.200 F 
ENDBRANCH  48  62
BRANCH  49  73
ATOM     73  C   UNL A   1      35.328  33.134  30.063  1.00  0.00     0.064 A 
ATOM     74  C   UNL A   1      34.392  33.945  29.388  1.00  0.00     0.173 A 
ATOM     75  C   UNL A   1      35.325  31.770  29.734  1.00  0.00     0.173 A 
ATOM     76  F   UNL A   1      34.286  35.247  29.700  1.00  0.00    -0.203 F 
ATOM     77  C   UNL A   1      33.631  33.460  28.324  1.00  0.00     0.198 A 
ATOM     78  C   UNL A   1      34.583  31.291  28.646  1.00  0.00     0.198 A 
ATOM     79  F   UNL A   1      36.178  30.930  30.338  1.00  0.00    -0.203 F 
ATOM     80  F   UNL A   1      32.833  34.292  27.638  1.00  0.00    -0.200 F 
ATOM     81  C   UNL A   1      33.765  32.144  27.922  1.00  0.00     0.200 A 
ATOM     82  F   UNL A   1      34.738  30.022  28.242  1.00  0.00    -0.200 F 
ATOM     83  F   UNL A   1      33.134  31.711  26.821  1.00  0.00    -0.200 F 
ENDBRANCH  49  73
BRANCH  61  84
ATOM     84  C   UNL A   1      38.182  33.046  36.821  1.00  0.00     0.064 A 
ATOM     85  C   UNL A   1      37.762  31.950  37.587  1.00  0.00     0.173 A 
ATOM     86  C   UNL A   1      38.557  34.198  37.562  1.00  0.00     0.173 A 
ATOM     87  F   UNL A   1      37.475  30.774  37.013  1.00  0.00    -0.203 F 
ATOM     88  C   UNL A   1      37.674  32.017  38.980  1.00  0.00     0.198 A 
ATOM     89  C   UNL A   1      38.529  34.239  38.953  1.00  0.00     0.198 A 
ATOM     90  F   UNL A   1      38.972  35.323  36.964  1.00  0.00    -0.203 F 
ATOM     91  F   UNL A   1      37.221  30.958  39.664  1.00  0.00    -0.200 F 
ATOM     92  C   UNL A   1      38.072  33.152  39.662  1.00  0.00     0.200 A 
ATOM     93  F   UNL A   1      38.959  35.334  39.596  1.00  0.00    -0.200 F 
ATOM     94  F   UNL A   1      38.032  33.191  41.001  1.00  0.00    -0.200 F 
ENDBRANCH  61  84
ENDBRANCH  35  36
ENDBRANCH  28  30
ENDBRANCH  27  28
ENDBRANCH  26  27
ENDBRANCH  25  26
ENDBRANCH  24  25
ENDBRANCH  23  24
ENDBRANCH   1  23
TORSDOF 21
ENDMDL
