MODEL 1
REMARK VINA RESULT:      -9.1      0.000      0.000
REMARK SMILES CC(C)[C@H](Sc1ccncc1)C(=O)OCCOCCOCCOCCOC(=O)c1ccc(-c2c3nc(c(-c4c(F)c(F)c(F)c(F)c4F)c4ccc([nH]4)c(-c4c(F)c(F)c(F)c(F)c4F)c4nc(c(-c5c(F)c(F)c(F)c(F)c5F)c5ccc2[nH]5)C=C4)C=C3)cc1
REMARK SMILES IDX 20 1 19 2 18 3 17 4 16 5 15 6 14 7 12 8 13 9 4 10 2 11 1 12
REMARK SMILES IDX 3 13 5 14 6 15 7 16 11 17 8 18 10 19 9 20 21 21 22 22 23 23
REMARK SMILES IDX 24 24 25 25 26 26 27 27 28 28 29 29 30 30 91 31 31 32 90 33
REMARK SMILES IDX 32 34 33 35 34 36 84 37 35 38 89 39 83 40 85 41 36 42 88 43
REMARK SMILES IDX 82 44 81 45 37 47 69 48 49 49 68 50 50 51 53 52 67 53 86 54
REMARK SMILES IDX 51 55 52 56 66 58 87 59 54 60 38 61 39 62 47 63 40 64 41 65
REMARK SMILES IDX 45 66 48 67 42 68 43 69 46 70 44 71 70 72 71 73 79 74 72 75
REMARK SMILES IDX 73 76 77 77 80 78 74 79 75 80 78 81 76 82 55 83 56 84 64 85
REMARK SMILES IDX 57 86 58 87 62 88 65 89 59 90 60 91 63 92 61 93
REMARK H PARENT 85 46 53 57
REMARK Flexibility Score: inf
ROOT
ATOM      1  O   UNL A   1      37.516  21.371  25.768  1.00  0.00    -0.377 OA
ENDROOT
BRANCH   1   2
ATOM      2  C   UNL A   1      36.204  21.890  25.643  1.00  0.00     0.188 C 
BRANCH   2   3
ATOM      3  C   UNL A   1      35.809  22.444  24.270  1.00  0.00     0.188 C 
BRANCH   3   4
ATOM      4  O   UNL A   1      34.534  23.068  24.314  1.00  0.00    -0.376 OA
BRANCH   4   5
ATOM      5  C   UNL A   1      34.409  24.451  24.572  1.00  0.00     0.202 C 
BRANCH   5   6
ATOM      6  C   UNL A   1      33.737  25.407  23.559  1.00  0.00     0.261 C 
BRANCH   6   7
ATOM      7  O   UNL A   1      32.467  25.058  22.979  1.00  0.00    -0.462 OA
BRANCH   7   8
ATOM      8  C   UNL A   1      31.383  25.648  23.523  1.00  0.00     0.319 C 
ATOM      9  O   UNL A   1      30.282  25.100  23.542  1.00  0.00    -0.251 OA
BRANCH   8  10
ATOM     10  C   UNL A   1      31.601  27.049  24.095  1.00  0.00     0.164 C 
BRANCH  10  11
ATOM     11  C   UNL A   1      31.305  27.213  25.600  1.00  0.00     0.007 C 
ATOM     12  C   UNL A   1      31.613  26.004  26.471  1.00  0.00     0.009 C 
ATOM     13  C   UNL A   1      32.031  28.436  26.178  1.00  0.00     0.009 C 
ENDBRANCH  10  11
BRANCH  10  14
ATOM     14  S   UNL A   1      31.338  28.520  23.009  1.00  0.00    -0.110 SA
BRANCH  14  15
ATOM     15  C   UNL A   1      29.744  29.290  23.222  1.00  0.00     0.011 A 
ATOM     16  C   UNL A   1      29.476  30.590  23.622  1.00  0.00     0.035 A 
ATOM     17  C   UNL A   1      28.644  28.465  22.935  1.00  0.00     0.035 A 
ATOM     18  C   UNL A   1      28.158  31.036  23.616  1.00  0.00     0.112 A 
ATOM     19  C   UNL A   1      27.360  28.986  22.987  1.00  0.00     0.112 A 
ATOM     20  N   UNL A   1      27.096  30.266  23.303  1.00  0.00    -0.265 NA
ENDBRANCH  14  15
ENDBRANCH  10  14
ENDBRANCH   8  10
ENDBRANCH   7   8
ENDBRANCH   6   7
ENDBRANCH   5   6
ENDBRANCH   4   5
ENDBRANCH   3   4
ENDBRANCH   2   3
ENDBRANCH   1   2
BRANCH   1  21
ATOM     21  C   UNL A   1      38.545  22.325  25.558  1.00  0.00     0.188 C 
BRANCH  21  22
ATOM     22  C   UNL A   1      39.724  22.134  26.525  1.00  0.00     0.188 C 
BRANCH  22  23
ATOM     23  O   UNL A   1      40.800  21.279  26.184  1.00  0.00    -0.376 OA
BRANCH  23  24
ATOM     24  C   UNL A   1      42.142  21.730  26.128  1.00  0.00     0.202 C 
BRANCH  24  25
ATOM     25  C   UNL A   1      42.758  22.563  24.981  1.00  0.00     0.261 C 
BRANCH  25  26
ATOM     26  O   UNL A   1      43.861  23.427  25.258  1.00  0.00    -0.460 OA
BRANCH  26  27
ATOM     27  C   UNL A   1      44.453  23.312  26.463  1.00  0.00     0.338 C 
ATOM     28  O   UNL A   1      45.404  22.612  26.763  1.00  0.00    -0.246 OA
BRANCH  27  29
ATOM     29  C   UNL A   1      43.848  24.340  27.341  1.00  0.00     0.060 A 
ATOM     30  C   UNL A   1      44.283  25.668  27.229  1.00  0.00     0.016 A 
ATOM     31  C   UNL A   1      42.818  24.009  28.226  1.00  0.00     0.016 A 
ATOM     32  C   UNL A   1      43.689  26.668  27.998  1.00  0.00     0.010 A 
ATOM     33  C   UNL A   1      42.252  25.005  29.027  1.00  0.00     0.010 A 
ATOM     34  C   UNL A   1      42.699  26.335  28.929  1.00  0.00    -0.014 A 
BRANCH  34  35
ATOM     35  C   UNL A   1      42.268  27.336  29.931  1.00  0.00     0.031 A 
ATOM     36  C   UNL A   1      43.000  27.385  31.242  1.00  0.00     0.074 A 
ATOM     37  C   UNL A   1      41.259  28.187  29.684  1.00  0.00     0.049 A 
ATOM     38  N   UNL A   1      42.765  28.115  32.301  1.00  0.00    -0.248 NA
ATOM     39  C   UNL A   1      44.156  26.484  31.373  1.00  0.00     0.031 C 
ATOM     40  C   UNL A   1      40.511  28.273  28.434  1.00  0.00     0.029 A 
ATOM     41  N   UNL A   1      40.681  29.138  30.491  1.00  0.00    -0.354 N 
ATOM     42  C   UNL A   1      43.739  27.760  33.223  1.00  0.00     0.074 A 
ATOM     43  C   UNL A   1      44.553  26.733  32.612  1.00  0.00     0.031 C 
ATOM     44  C   UNL A   1      39.556  29.211  28.561  1.00  0.00     0.029 A 
ATOM     45  C   UNL A   1      39.602  29.762  29.916  1.00  0.00     0.049 A 
ATOM     46  H   UNL A   1      41.010  29.351  31.393  1.00  0.00     0.167 HD
ATOM     47  C   UNL A   1      43.938  28.251  34.469  1.00  0.00     0.037 A 
ATOM     48  C   UNL A   1      38.732  30.648  30.441  1.00  0.00     0.037 A 
ATOM     49  C   UNL A   1      43.117  29.262  35.078  1.00  0.00     0.049 A 
ATOM     50  C   UNL A   1      38.906  31.095  31.872  1.00  0.00     0.074 A 
ATOM     51  C   UNL A   1      43.249  29.844  36.326  1.00  0.00     0.029 A 
ATOM     52  N   UNL A   1      41.997  29.828  34.488  1.00  0.00    -0.354 N 
ATOM     53  N   UNL A   1      39.847  30.784  32.730  1.00  0.00    -0.248 NA
ATOM     54  C   UNL A   1      37.889  32.011  32.410  1.00  0.00     0.031 C 
ATOM     55  C   UNL A   1      42.172  30.717  36.515  1.00  0.00     0.029 A 
ATOM     56  C   UNL A   1      41.401  30.721  35.364  1.00  0.00     0.049 A 
ATOM     57  H   UNL A   1      41.672  29.625  33.581  1.00  0.00     0.167 HD
ATOM     58  C   UNL A   1      39.546  31.474  33.898  1.00  0.00     0.074 A 
ATOM     59  C   UNL A   1      38.347  32.240  33.632  1.00  0.00     0.031 C 
ATOM     60  C   UNL A   1      40.202  31.471  35.086  1.00  0.00     0.037 A 
BRANCH  47  61
ATOM     61  C   UNL A   1      45.066  27.669  35.268  1.00  0.00     0.064 A 
ATOM     62  C   UNL A   1      46.360  28.208  35.221  1.00  0.00     0.173 A 
ATOM     63  C   UNL A   1      44.843  26.567  36.107  1.00  0.00     0.173 A 
ATOM     64  F   UNL A   1      46.630  29.250  34.422  1.00  0.00    -0.203 F 
ATOM     65  C   UNL A   1      47.396  27.647  35.965  1.00  0.00     0.198 A 
ATOM     66  C   UNL A   1      45.873  26.029  36.872  1.00  0.00     0.198 A 
ATOM     67  F   UNL A   1      43.623  26.015  36.189  1.00  0.00    -0.203 F 
ATOM     68  F   UNL A   1      48.636  28.147  35.867  1.00  0.00    -0.200 F 
ATOM     69  C   UNL A   1      47.150  26.563  36.795  1.00  0.00     0.200 A 
ATOM     70  F   UNL A   1      45.631  24.989  37.682  1.00  0.00    -0.200 F 
ATOM     71  F   UNL A   1      48.146  26.029  37.515  1.00  0.00    -0.200 F 
ENDBRANCH  47  61
BRANCH  48  72
ATOM     72  C   UNL A   1      37.594  31.147  29.625  1.00  0.00     0.064 A 
ATOM     73  C   UNL A   1      37.566  32.467  29.152  1.00  0.00     0.173 A 
ATOM     74  C   UNL A   1      36.499  30.324  29.320  1.00  0.00     0.173 A 
ATOM     75  F   UNL A   1      38.575  33.302  29.440  1.00  0.00    -0.203 F 
ATOM     76  C   UNL A   1      36.484  32.946  28.417  1.00  0.00     0.198 A 
ATOM     77  C   UNL A   1      35.432  30.795  28.559  1.00  0.00     0.198 A 
ATOM     78  F   UNL A   1      36.471  29.056  29.755  1.00  0.00    -0.203 F 
ATOM     79  F   UNL A   1      36.463  34.223  28.012  1.00  0.00    -0.200 F 
ATOM     80  C   UNL A   1      35.421  32.107  28.114  1.00  0.00     0.200 A 
ATOM     81  F   UNL A   1      34.414  29.978  28.257  1.00  0.00    -0.200 F 
ATOM     82  F   UNL A   1      34.384  32.566  27.400  1.00  0.00    -0.200 F 
ENDBRANCH  48  72
BRANCH  60  83
ATOM     83  C   UNL A   1      39.646  32.328  36.188  1.00  0.00     0.064 A 
ATOM     84  C   UNL A   1      40.172  33.598  36.463  1.00  0.00     0.173 A 
ATOM     85  C   UNL A   1      38.539  31.900  36.935  1.00  0.00     0.173 A 
ATOM     86  F   UNL A   1      41.241  34.048  35.788  1.00  0.00    -0.203 F 
ATOM     87  C   UNL A   1      39.622  34.401  37.460  1.00  0.00     0.198 A 
ATOM     88  C   UNL A   1      37.970  32.717  37.908  1.00  0.00     0.198 A 
ATOM     89  F   UNL A   1      37.992  30.695  36.707  1.00  0.00    -0.203 F 
ATOM     90  F   UNL A   1      40.167  35.594  37.733  1.00  0.00    -0.200 F 
ATOM     91  C   UNL A   1      38.515  33.964  38.173  1.00  0.00     0.200 A 
ATOM     92  F   UNL A   1      36.892  32.300  38.587  1.00  0.00    -0.200 F 
ATOM     93  F   UNL A   1      37.979  34.744  39.123  1.00  0.00    -0.200 F 
ENDBRANCH  60  83
ENDBRANCH  34  35
ENDBRANCH  27  29
ENDBRANCH  26  27
ENDBRANCH  25  26
ENDBRANCH  24  25
ENDBRANCH  23  24
ENDBRANCH  22  23
ENDBRANCH  21  22
ENDBRANCH   1  21
TORSDOF 23
ENDMDL
MODEL 2
REMARK VINA RESULT:      -9.0      5.932      9.155
REMARK SMILES CC(C)[C@H](Sc1ccncc1)C(=O)OCCOCCOCCOCCOC(=O)c1ccc(-c2c3nc(c(-c4c(F)c(F)c(F)c(F)c4F)c4ccc([nH]4)c(-c4c(F)c(F)c(F)c(F)c4F)c4nc(c(-c5c(F)c(F)c(F)c(F)c5F)c5ccc2[nH]5)C=C4)C=C3)cc1
REMARK SMILES IDX 20 1 19 2 18 3 17 4 16 5 15 6 14 7 12 8 13 9 4 10 2 11 1 12
REMARK SMILES IDX 3 13 5 14 6 15 7 16 11 17 8 18 10 19 9 20 21 21 22 22 23 23
REMARK SMILES IDX 24 24 25 25 26 26 27 27 28 28 29 29 30 30 91 31 31 32 90 33
REMARK SMILES IDX 32 34 33 35 34 36 84 37 35 38 89 39 83 40 85 41 36 42 88 43
REMARK SMILES IDX 82 44 81 45 37 47 69 48 49 49 68 50 50 51 53 52 67 53 86 54
REMARK SMILES IDX 51 55 52 56 66 58 87 59 54 60 38 61 39 62 47 63 40 64 41 65
REMARK SMILES IDX 45 66 48 67 42 68 43 69 46 70 44 71 70 72 71 73 79 74 72 75
REMARK SMILES IDX 73 76 77 77 80 78 74 79 75 80 78 81 76 82 55 83 56 84 64 85
REMARK SMILES IDX 57 86 58 87 62 88 65 89 59 90 60 91 63 92 61 93
REMARK H PARENT 85 46 53 57
REMARK Flexibility Score: inf
ROOT
ATOM      1  O   UNL A   1      41.326  21.694  27.672  1.00  0.00    -0.377 OA
ENDROOT
BRANCH   1   2
ATOM      2  C   UNL A   1      40.770  22.232  26.485  1.00  0.00     0.188 C 
BRANCH   2   3
ATOM      3  C   UNL A   1      39.241  22.276  26.399  1.00  0.00     0.188 C 
BRANCH   3   4
ATOM      4  O   UNL A   1      38.732  21.145  25.706  1.00  0.00    -0.376 OA
BRANCH   4   5
ATOM      5  C   UNL A   1      37.604  21.256  24.863  1.00  0.00     0.202 C 
BRANCH   5   6
ATOM      6  C   UNL A   1      36.222  20.701  25.280  1.00  0.00     0.261 C 
BRANCH   6   7
ATOM      7  O   UNL A   1      35.439  21.395  26.268  1.00  0.00    -0.462 OA
BRANCH   7   8
ATOM      8  C   UNL A   1      34.108  21.432  26.053  1.00  0.00     0.319 C 
ATOM      9  O   UNL A   1      33.298  21.473  26.977  1.00  0.00    -0.251 OA
BRANCH   8  10
ATOM     10  C   UNL A   1      33.667  21.397  24.589  1.00  0.00     0.164 C 
BRANCH  10  11
ATOM     11  C   UNL A   1      33.595  22.764  23.877  1.00  0.00     0.007 C 
ATOM     12  C   UNL A   1      34.849  23.188  23.127  1.00  0.00     0.009 C 
ATOM     13  C   UNL A   1      32.399  22.826  22.915  1.00  0.00     0.009 C 
ENDBRANCH  10  11
BRANCH  10  14
ATOM     14  S   UNL A   1      32.500  20.081  24.027  1.00  0.00    -0.110 SA
BRANCH  14  15
ATOM     15  C   UNL A   1      33.030  18.430  24.446  1.00  0.00     0.011 A 
ATOM     16  C   UNL A   1      32.887  17.775  25.659  1.00  0.00     0.035 A 
ATOM     17  C   UNL A   1      33.654  17.726  23.403  1.00  0.00     0.035 A 
ATOM     18  C   UNL A   1      33.266  16.440  25.750  1.00  0.00     0.112 A 
ATOM     19  C   UNL A   1      34.031  16.405  23.594  1.00  0.00     0.112 A 
ATOM     20  N   UNL A   1      33.829  15.739  24.744  1.00  0.00    -0.265 NA
ENDBRANCH  14  15
ENDBRANCH  10  14
ENDBRANCH   8  10
ENDBRANCH   7   8
ENDBRANCH   6   7
ENDBRANCH   5   6
ENDBRANCH   4   5
ENDBRANCH   3   4
ENDBRANCH   2   3
ENDBRANCH   1   2
BRANCH   1  21
ATOM     21  C   UNL A   1      41.816  20.368  27.539  1.00  0.00     0.188 C 
BRANCH  21  22
ATOM     22  C   UNL A   1      42.188  20.027  26.087  1.00  0.00     0.188 C 
BRANCH  22  23
ATOM     23  O   UNL A   1      43.538  19.794  25.728  1.00  0.00    -0.376 OA
BRANCH  23  24
ATOM     24  C   UNL A   1      44.342  20.784  25.110  1.00  0.00     0.202 C 
BRANCH  24  25
ATOM     25  C   UNL A   1      43.901  22.234  24.811  1.00  0.00     0.261 C 
BRANCH  25  26
ATOM     26  O   UNL A   1      44.346  23.291  25.663  1.00  0.00    -0.460 OA
BRANCH  26  27
ATOM     27  C   UNL A   1      45.278  24.134  25.173  1.00  0.00     0.338 C 
ATOM     28  O   UNL A   1      46.049  23.938  24.251  1.00  0.00    -0.246 OA
BRANCH  27  29
ATOM     29  C   UNL A   1      45.079  25.436  25.851  1.00  0.00     0.060 A 
ATOM     30  C   UNL A   1      44.489  26.487  25.137  1.00  0.00     0.016 A 
ATOM     31  C   UNL A   1      45.419  25.601  27.197  1.00  0.00     0.016 A 
ATOM     32  C   UNL A   1      44.234  27.706  25.766  1.00  0.00     0.010 A 
ATOM     33  C   UNL A   1      45.202  26.836  27.815  1.00  0.00     0.010 A 
ATOM     34  C   UNL A   1      44.625  27.898  27.095  1.00  0.00    -0.014 A 
BRANCH  34  35
ATOM     35  C   UNL A   1      44.609  29.261  27.674  1.00  0.00     0.031 A 
ATOM     36  C   UNL A   1      43.378  29.700  28.415  1.00  0.00     0.074 A 
ATOM     37  C   UNL A   1      45.662  30.086  27.556  1.00  0.00     0.049 A 
ATOM     38  N   UNL A   1      43.094  30.862  28.944  1.00  0.00    -0.248 NA
ATOM     39  C   UNL A   1      42.324  28.687  28.580  1.00  0.00     0.031 C 
ATOM     40  C   UNL A   1      46.928  29.755  26.910  1.00  0.00     0.029 A 
ATOM     41  N   UNL A   1      45.822  31.387  27.969  1.00  0.00    -0.354 N 
ATOM     42  C   UNL A   1      41.830  30.720  29.500  1.00  0.00     0.074 A 
ATOM     43  C   UNL A   1      41.391  29.371  29.224  1.00  0.00     0.031 C 
ATOM     44  C   UNL A   1      47.732  30.833  26.950  1.00  0.00     0.029 A 
ATOM     45  C   UNL A   1      47.019  31.939  27.589  1.00  0.00     0.049 A 
ATOM     46  H   UNL A   1      45.143  31.875  28.488  1.00  0.00     0.167 HD
ATOM     47  C   UNL A   1      41.104  31.636  30.183  1.00  0.00     0.037 A 
ATOM     48  C   UNL A   1      47.468  33.205  27.713  1.00  0.00     0.037 A 
ATOM     49  C   UNL A   1      41.540  32.982  30.442  1.00  0.00     0.049 A 
ATOM     50  C   UNL A   1      46.592  34.238  28.376  1.00  0.00     0.074 A 
ATOM     51  C   UNL A   1      40.888  33.979  31.145  1.00  0.00     0.029 A 
ATOM     52  N   UNL A   1      42.734  33.524  29.990  1.00  0.00    -0.354 N 
ATOM     53  N   UNL A   1      45.413  34.094  28.930  1.00  0.00    -0.248 NA
ATOM     54  C   UNL A   1      47.107  35.615  28.422  1.00  0.00     0.031 C 
ATOM     55  C   UNL A   1      41.659  35.143  31.064  1.00  0.00     0.029 A 
ATOM     56  C   UNL A   1      42.818  34.856  30.360  1.00  0.00     0.049 A 
ATOM     57  H   UNL A   1      43.420  33.034  29.480  1.00  0.00     0.167 HD
ATOM     58  C   UNL A   1      45.053  35.350  29.403  1.00  0.00     0.074 A 
ATOM     59  C   UNL A   1      46.149  36.242  29.091  1.00  0.00     0.031 C 
ATOM     60  C   UNL A   1      43.915  35.732  30.035  1.00  0.00     0.037 A 
BRANCH  47  61
ATOM     61  C   UNL A   1      39.745  31.219  30.661  1.00  0.00     0.064 A 
ATOM     62  C   UNL A   1      38.583  31.518  29.935  1.00  0.00     0.173 A 
ATOM     63  C   UNL A   1      39.606  30.493  31.853  1.00  0.00     0.173 A 
ATOM     64  F   UNL A   1      38.659  32.224  28.797  1.00  0.00    -0.203 F 
ATOM     65  C   UNL A   1      37.328  31.128  30.400  1.00  0.00     0.198 A 
ATOM     66  C   UNL A   1      38.354  30.079  32.299  1.00  0.00     0.198 A 
ATOM     67  F   UNL A   1      40.687  30.181  32.585  1.00  0.00    -0.203 F 
ATOM     68  F   UNL A   1      36.226  31.468  29.716  1.00  0.00    -0.200 F 
ATOM     69  C   UNL A   1      37.216  30.404  31.577  1.00  0.00     0.200 A 
ATOM     70  F   UNL A   1      38.249  29.369  33.430  1.00  0.00    -0.200 F 
ATOM     71  F   UNL A   1      36.009  30.024  32.020  1.00  0.00    -0.200 F 
ENDBRANCH  47  61
BRANCH  48  72
ATOM     72  C   UNL A   1      48.799  33.580  27.165  1.00  0.00     0.064 A 
ATOM     73  C   UNL A   1      49.978  33.285  27.863  1.00  0.00     0.173 A 
ATOM     74  C   UNL A   1      48.919  34.260  25.943  1.00  0.00     0.173 A 
ATOM     75  F   UNL A   1      49.916  32.661  29.049  1.00  0.00    -0.203 F 
ATOM     76  C   UNL A   1      51.223  33.666  27.368  1.00  0.00     0.198 A 
ATOM     77  C   UNL A   1      50.166  34.614  25.434  1.00  0.00     0.198 A 
ATOM     78  F   UNL A   1      47.823  34.574  25.238  1.00  0.00    -0.203 F 
ATOM     79  F   UNL A   1      52.332  33.410  28.075  1.00  0.00    -0.200 F 
ATOM     80  C   UNL A   1      51.317  34.324  26.150  1.00  0.00     0.200 A 
ATOM     81  F   UNL A   1      50.253  35.235  24.250  1.00  0.00    -0.200 F 
ATOM     82  F   UNL A   1      52.515  34.683  25.670  1.00  0.00    -0.200 F 
ENDBRANCH  48  72
BRANCH  60  83
ATOM     83  C   UNL A   1      43.798  37.174  30.442  1.00  0.00     0.064 A 
ATOM     84  C   UNL A   1      44.142  37.600  31.733  1.00  0.00     0.173 A 
ATOM     85  C   UNL A   1      43.395  38.147  29.515  1.00  0.00     0.173 A 
ATOM     86  F   UNL A   1      44.517  36.707  32.661  1.00  0.00    -0.203 F 
ATOM     87  C   UNL A   1      44.069  38.945  32.086  1.00  0.00     0.198 A 
ATOM     88  C   UNL A   1      43.355  39.495  29.862  1.00  0.00     0.198 A 
ATOM     89  F   UNL A   1      43.062  37.794  28.264  1.00  0.00    -0.203 F 
ATOM     90  F   UNL A   1      44.363  39.324  33.338  1.00  0.00    -0.200 F 
ATOM     91  C   UNL A   1      43.685  39.892  31.148  1.00  0.00     0.200 A 
ATOM     92  F   UNL A   1      42.999  40.410  28.950  1.00  0.00    -0.200 F 
ATOM     93  F   UNL A   1      43.629  41.188  31.486  1.00  0.00    -0.200 F 
ENDBRANCH  60  83
ENDBRANCH  34  35
ENDBRANCH  27  29
ENDBRANCH  26  27
ENDBRANCH  25  26
ENDBRANCH  24  25
ENDBRANCH  23  24
ENDBRANCH  22  23
ENDBRANCH  21  22
ENDBRANCH   1  21
TORSDOF 23
ENDMDL
MODEL 3
REMARK VINA RESULT:      -8.9      5.825      7.828
REMARK SMILES CC(C)[C@H](Sc1ccncc1)C(=O)OCCOCCOCCOCCOC(=O)c1ccc(-c2c3nc(c(-c4c(F)c(F)c(F)c(F)c4F)c4ccc([nH]4)c(-c4c(F)c(F)c(F)c(F)c4F)c4nc(c(-c5c(F)c(F)c(F)c(F)c5F)c5ccc2[nH]5)C=C4)C=C3)cc1
REMARK SMILES IDX 20 1 19 2 18 3 17 4 16 5 15 6 14 7 12 8 13 9 4 10 2 11 1 12
REMARK SMILES IDX 3 13 5 14 6 15 7 16 11 17 8 18 10 19 9 20 21 21 22 22 23 23
REMARK SMILES IDX 24 24 25 25 26 26 27 27 28 28 29 29 30 30 91 31 31 32 90 33
REMARK SMILES IDX 32 34 33 35 34 36 84 37 35 38 89 39 83 40 85 41 36 42 88 43
REMARK SMILES IDX 82 44 81 45 37 47 69 48 49 49 68 50 50 51 53 52 67 53 86 54
REMARK SMILES IDX 51 55 52 56 66 58 87 59 54 60 38 61 39 62 47 63 40 64 41 65
REMARK SMILES IDX 45 66 48 67 42 68 43 69 46 70 44 71 70 72 71 73 79 74 72 75
REMARK SMILES IDX 73 76 77 77 80 78 74 79 75 80 78 81 76 82 55 83 56 84 64 85
REMARK SMILES IDX 57 86 58 87 62 88 65 89 59 90 60 91 63 92 61 93
REMARK H PARENT 85 46 53 57
REMARK Flexibility Score: inf
ROOT
ATOM      1  O   UNL A   1      41.261  21.817  27.683  1.00  0.00    -0.377 OA
ENDROOT
BRANCH   1   2
ATOM      2  C   UNL A   1      40.730  22.432  26.522  1.00  0.00     0.188 C 
BRANCH   2   3
ATOM      3  C   UNL A   1      39.205  22.418  26.371  1.00  0.00     0.188 C 
BRANCH   3   4
ATOM      4  O   UNL A   1      38.765  21.243  25.705  1.00  0.00    -0.376 OA
BRANCH   4   5
ATOM      5  C   UNL A   1      37.684  21.284  24.797  1.00  0.00     0.202 C 
BRANCH   5   6
ATOM      6  C   UNL A   1      36.311  20.662  25.143  1.00  0.00     0.261 C 
BRANCH   6   7
ATOM      7  O   UNL A   1      35.465  21.292  26.122  1.00  0.00    -0.462 OA
BRANCH   7   8
ATOM      8  C   UNL A   1      34.137  21.122  25.956  1.00  0.00     0.319 C 
ATOM      9  O   UNL A   1      33.392  20.846  26.895  1.00  0.00    -0.251 OA
BRANCH   8  10
ATOM     10  C   UNL A   1      33.617  21.272  24.526  1.00  0.00     0.164 C 
BRANCH  10  11
ATOM     11  C   UNL A   1      33.519  22.717  23.996  1.00  0.00     0.007 C 
ATOM     12  C   UNL A   1      34.706  23.206  23.179  1.00  0.00     0.009 C 
ATOM     13  C   UNL A   1      32.237  22.921  23.175  1.00  0.00     0.009 C 
ENDBRANCH  10  11
BRANCH  10  14
ATOM     14  S   UNL A   1      32.409  20.039  23.869  1.00  0.00    -0.110 SA
BRANCH  14  15
ATOM     15  C   UNL A   1      32.922  18.346  24.095  1.00  0.00     0.011 A 
ATOM     16  C   UNL A   1      33.566  17.525  23.182  1.00  0.00     0.035 A 
ATOM     17  C   UNL A   1      32.639  17.805  25.360  1.00  0.00     0.035 A 
ATOM     18  C   UNL A   1      33.987  16.265  23.593  1.00  0.00     0.112 A 
ATOM     19  C   UNL A   1      33.068  16.523  25.672  1.00  0.00     0.112 A 
ATOM     20  N   UNL A   1      33.758  15.748  24.817  1.00  0.00    -0.265 NA
ENDBRANCH  14  15
ENDBRANCH  10  14
ENDBRANCH   8  10
ENDBRANCH   7   8
ENDBRANCH   6   7
ENDBRANCH   5   6
ENDBRANCH   4   5
ENDBRANCH   3   4
ENDBRANCH   2   3
ENDBRANCH   1   2
BRANCH   1  21
ATOM     21  C   UNL A   1      41.827  20.536  27.458  1.00  0.00     0.188 C 
BRANCH  21  22
ATOM     22  C   UNL A   1      42.290  20.349  26.005  1.00  0.00     0.188 C 
BRANCH  22  23
ATOM     23  O   UNL A   1      43.652  20.087  25.714  1.00  0.00    -0.376 OA
BRANCH  23  24
ATOM     24  C   UNL A   1      44.488  21.033  25.071  1.00  0.00     0.202 C 
BRANCH  24  25
ATOM     25  C   UNL A   1      44.086  22.481  24.710  1.00  0.00     0.261 C 
BRANCH  25  26
ATOM     26  O   UNL A   1      44.408  23.542  25.612  1.00  0.00    -0.460 OA
BRANCH  26  27
ATOM     27  C   UNL A   1      45.354  24.420  25.225  1.00  0.00     0.338 C 
ATOM     28  O   UNL A   1      46.196  24.275  24.357  1.00  0.00    -0.246 OA
BRANCH  27  29
ATOM     29  C   UNL A   1      45.077  25.691  25.933  1.00  0.00     0.060 A 
ATOM     30  C   UNL A   1      44.362  26.695  25.266  1.00  0.00     0.016 A 
ATOM     31  C   UNL A   1      45.468  25.869  27.263  1.00  0.00     0.016 A 
ATOM     32  C   UNL A   1      44.032  27.878  25.927  1.00  0.00     0.010 A 
ATOM     33  C   UNL A   1      45.175  27.073  27.911  1.00  0.00     0.010 A 
ATOM     34  C   UNL A   1      44.471  28.088  27.239  1.00  0.00    -0.014 A 
BRANCH  34  35
ATOM     35  C   UNL A   1      44.366  29.437  27.841  1.00  0.00     0.031 A 
ATOM     36  C   UNL A   1      45.534  30.370  27.694  1.00  0.00     0.074 A 
ATOM     37  C   UNL A   1      43.259  29.830  28.494  1.00  0.00     0.049 A 
ATOM     38  N   UNL A   1      45.712  31.567  28.192  1.00  0.00    -0.248 NA
ATOM     39  C   UNL A   1      46.654  29.884  26.873  1.00  0.00     0.031 C 
ATOM     40  C   UNL A   1      42.045  29.037  28.653  1.00  0.00     0.029 A 
ATOM     41  N   UNL A   1      42.989  31.002  29.158  1.00  0.00    -0.354 N 
ATOM     42  C   UNL A   1      46.963  31.973  27.748  1.00  0.00     0.074 A 
ATOM     43  C   UNL A   1      47.510  30.890  26.963  1.00  0.00     0.031 C 
ATOM     44  C   UNL A   1      41.163  29.736  29.390  1.00  0.00     0.029 A 
ATOM     45  C   UNL A   1      41.769  31.007  29.785  1.00  0.00     0.049 A 
ATOM     46  H   UNL A   1      43.612  31.764  29.183  1.00  0.00     0.167 HD
ATOM     47  C   UNL A   1      47.595  33.149  27.974  1.00  0.00     0.037 A 
ATOM     48  C   UNL A   1      41.223  31.922  30.613  1.00  0.00     0.037 A 
ATOM     49  C   UNL A   1      47.051  34.217  28.769  1.00  0.00     0.049 A 
ATOM     50  C   UNL A   1      41.997  33.174  30.943  1.00  0.00     0.074 A 
ATOM     51  C   UNL A   1      47.602  35.457  29.039  1.00  0.00     0.029 A 
ATOM     52  N   UNL A   1      45.838  34.163  29.437  1.00  0.00    -0.354 N 
ATOM     53  N   UNL A   1      43.163  33.571  30.496  1.00  0.00    -0.248 NA
ATOM     54  C   UNL A   1      41.380  34.102  31.903  1.00  0.00     0.031 C 
ATOM     55  C   UNL A   1      46.750  36.129  29.922  1.00  0.00     0.029 A 
ATOM     56  C   UNL A   1      45.642  35.331  30.157  1.00  0.00     0.049 A 
ATOM     57  H   UNL A   1      45.208  33.407  29.406  1.00  0.00     0.167 HD
ATOM     58  C   UNL A   1      43.412  34.796  31.103  1.00  0.00     0.074 A 
ATOM     59  C   UNL A   1      42.264  35.089  31.935  1.00  0.00     0.031 C 
ATOM     60  C   UNL A   1      44.495  35.604  30.986  1.00  0.00     0.037 A 
BRANCH  47  61
ATOM     61  C   UNL A   1      48.963  33.320  27.385  1.00  0.00     0.064 A 
ATOM     62  C   UNL A   1      50.112  32.842  28.033  1.00  0.00     0.173 A 
ATOM     63  C   UNL A   1      49.125  33.952  26.143  1.00  0.00     0.173 A 
ATOM     64  F   UNL A   1      50.013  32.245  29.230  1.00  0.00    -0.203 F 
ATOM     65  C   UNL A   1      51.375  33.017  27.472  1.00  0.00     0.198 A 
ATOM     66  C   UNL A   1      50.385  34.098  25.572  1.00  0.00     0.198 A 
ATOM     67  F   UNL A   1      48.058  34.425  25.481  1.00  0.00    -0.203 F 
ATOM     68  F   UNL A   1      52.464  32.598  28.133  1.00  0.00    -0.200 F 
ATOM     69  C   UNL A   1      51.510  33.638  26.240  1.00  0.00     0.200 A 
ATOM     70  F   UNL A   1      50.513  34.688  24.375  1.00  0.00    -0.200 F 
ATOM     71  F   UNL A   1      52.725  33.800  25.698  1.00  0.00    -0.200 F 
ENDBRANCH  47  61
BRANCH  48  72
ATOM     72  C   UNL A   1      39.888  31.674  31.221  1.00  0.00     0.064 A 
ATOM     73  C   UNL A   1      39.762  30.973  32.429  1.00  0.00     0.173 A 
ATOM     74  C   UNL A   1      38.711  32.112  30.596  1.00  0.00     0.173 A 
ATOM     75  F   UNL A   1      40.856  30.509  33.050  1.00  0.00    -0.203 F 
ATOM     76  C   UNL A   1      38.510  30.710  32.980  1.00  0.00     0.198 A 
ATOM     77  C   UNL A   1      37.461  31.874  31.165  1.00  0.00     0.198 A 
ATOM     78  F   UNL A   1      38.774  32.780  29.436  1.00  0.00    -0.203 F 
ATOM     79  F   UNL A   1      38.415  30.001  34.114  1.00  0.00    -0.200 F 
ATOM     80  C   UNL A   1      37.361  31.168  32.353  1.00  0.00     0.200 A 
ATOM     81  F   UNL A   1      36.355  32.331  30.563  1.00  0.00    -0.200 F 
ATOM     82  F   UNL A   1      36.158  30.921  32.889  1.00  0.00    -0.200 F 
ENDBRANCH  48  72
BRANCH  60  83
ATOM     83  C   UNL A   1      44.491  36.888  31.766  1.00  0.00     0.064 A 
ATOM     84  C   UNL A   1      45.000  36.952  33.072  1.00  0.00     0.173 A 
ATOM     85  C   UNL A   1      44.030  38.077  31.182  1.00  0.00     0.173 A 
ATOM     86  F   UNL A   1      45.438  35.840  33.682  1.00  0.00    -0.203 F 
ATOM     87  C   UNL A   1      45.029  38.157  33.771  1.00  0.00     0.198 A 
ATOM     88  C   UNL A   1      44.091  39.286  31.871  1.00  0.00     0.198 A 
ATOM     89  F   UNL A   1      43.540  38.073  29.933  1.00  0.00    -0.203 F 
ATOM     90  F   UNL A   1      45.481  38.187  35.032  1.00  0.00    -0.200 F 
ATOM     91  C   UNL A   1      44.584  39.323  33.166  1.00  0.00     0.200 A 
ATOM     92  F   UNL A   1      43.675  40.414  31.281  1.00  0.00    -0.200 F 
ATOM     93  F   UNL A   1      44.626  40.484  33.835  1.00  0.00    -0.200 F 
ENDBRANCH  60  83
ENDBRANCH  34  35
ENDBRANCH  27  29
ENDBRANCH  26  27
ENDBRANCH  25  26
ENDBRANCH  24  25
ENDBRANCH  23  24
ENDBRANCH  22  23
ENDBRANCH  21  22
ENDBRANCH   1  21
TORSDOF 23
ENDMDL
