MODEL 1
REMARK VINA RESULT:     -10.7      0.000      0.000
REMARK SMILES CC(C)[C@H](NC(=O)Cn1ccc2c(Br)cccc21)C(=O)OCCOCCOCCOCCOC(=O)c1ccc(-c2c3nc(c(-c4c(F)c(F)c(F)c(F)c4F)c4ccc([nH]4)c(-c4c(F)c(F)c(F)c(F)c4F)c4nc(c(-c5c(F)c(F)c(F)c(F)c5F)c5ccc2[nH]5)C=C4)C=C3)cc1
REMARK SMILES IDX 26 1 25 2 24 3 23 4 22 5 21 6 19 7 20 8 4 9 2 10 1 11 3 12
REMARK SMILES IDX 5 13 6 14 7 16 8 17 9 18 10 19 18 20 11 21 12 22 17 23 13 24
REMARK SMILES IDX 16 25 14 26 15 27 27 28 28 29 29 30 30 31 31 32 32 33 33 34
REMARK SMILES IDX 34 35 35 36 36 37 37 38 98 39 38 40 97 41 39 42 40 43 41 44
REMARK SMILES IDX 91 45 42 46 96 47 90 48 92 49 43 50 95 51 89 52 88 53 44 55
REMARK SMILES IDX 76 56 56 57 75 58 57 59 60 60 74 61 93 62 58 63 59 64 73 66
REMARK SMILES IDX 94 67 61 68 45 69 46 70 54 71 47 72 48 73 52 74 55 75 49 76
REMARK SMILES IDX 50 77 53 78 51 79 77 80 78 81 86 82 79 83 80 84 84 85 87 86
REMARK SMILES IDX 81 87 82 88 85 89 83 90 62 91 63 92 71 93 64 94 65 95 69 96
REMARK SMILES IDX 72 97 66 98 67 99 70 100 68 101
REMARK H PARENT 5 15 92 54 60 65
REMARK Flexibility Score: inf
ROOT
ATOM      1  C   UNL A   1      35.177  34.174  28.600  1.00  0.00     0.188 C 
ENDROOT
BRANCH   1   2
ATOM      2  C   UNL A   1      35.193  32.834  27.841  1.00  0.00     0.188 C 
BRANCH   2   3
ATOM      3  O   UNL A   1      34.377  31.736  28.225  1.00  0.00    -0.376 OA
BRANCH   3   4
ATOM      4  C   UNL A   1      33.856  30.799  27.299  1.00  0.00     0.202 C 
BRANCH   4   5
ATOM      5  C   UNL A   1      34.085  29.292  27.440  1.00  0.00     0.261 C 
BRANCH   5   6
ATOM      6  O   UNL A   1      32.927  28.464  27.330  1.00  0.00    -0.462 OA
BRANCH   6   7
ATOM      7  C   UNL A   1      32.387  28.378  26.087  1.00  0.00     0.328 C 
ATOM      8  O   UNL A   1      31.569  29.167  25.626  1.00  0.00    -0.250 OA
BRANCH   7   9
ATOM      9  C   UNL A   1      32.837  27.101  25.347  1.00  0.00     0.194 C 
BRANCH   9  10
ATOM     10  C   UNL A   1      33.004  27.436  23.851  1.00  0.00     0.017 C 
ATOM     11  C   UNL A   1      34.097  28.465  23.526  1.00  0.00     0.010 C 
ATOM     12  C   UNL A   1      33.223  26.154  23.050  1.00  0.00     0.010 C 
ENDBRANCH   9  10
BRANCH   9  13
ATOM     13  N   UNL A   1      31.999  25.927  25.681  1.00  0.00    -0.341 N 
ATOM     14  C   UNL A   1      32.230  24.779  26.384  1.00  0.00     0.240 C 
ATOM     15  H   UNL A   1      31.084  25.984  25.321  1.00  0.00     0.164 HD
ATOM     16  O   UNL A   1      31.390  24.428  27.219  1.00  0.00    -0.273 OA
BRANCH  14  17
ATOM     17  C   UNL A   1      33.387  23.866  26.036  1.00  0.00     0.222 C 
BRANCH  17  18
ATOM     18  N   UNL A   1      33.001  22.458  25.877  1.00  0.00    -0.338 N 
ATOM     19  C   UNL A   1      33.370  21.487  26.781  1.00  0.00     0.087 A 
ATOM     20  C   UNL A   1      32.509  21.857  24.727  1.00  0.00     0.050 A 
ATOM     21  C   UNL A   1      33.353  20.279  26.120  1.00  0.00     0.029 A 
ATOM     22  C   UNL A   1      32.872  20.506  24.799  1.00  0.00     0.014 A 
ATOM     23  C   UNL A   1      31.893  22.394  23.580  1.00  0.00     0.027 A 
ATOM     24  C   UNL A   1      32.727  19.712  23.638  1.00  0.00     0.027 A 
ATOM     25  C   UNL A   1      31.786  21.593  22.442  1.00  0.00     0.003 A 
ATOM     26  Br  UNL A   1      33.307  17.910  23.619  1.00  0.00    -0.050 Br
ATOM     27  C   UNL A   1      32.215  20.271  22.461  1.00  0.00     0.016 A 
ENDBRANCH  17  18
ENDBRANCH  14  17
ENDBRANCH   9  13
ENDBRANCH   7   9
ENDBRANCH   6   7
ENDBRANCH   5   6
ENDBRANCH   4   5
ENDBRANCH   3   4
ENDBRANCH   2   3
ENDBRANCH   1   2
BRANCH   1  28
ATOM     28  O   UNL A   1      34.075  35.016  28.320  1.00  0.00    -0.377 OA
BRANCH  28  29
ATOM     29  C   UNL A   1      32.991  34.950  29.250  1.00  0.00     0.188 C 
BRANCH  29  30
ATOM     30  C   UNL A   1      33.086  35.755  30.577  1.00  0.00     0.188 C 
BRANCH  30  31
ATOM     31  O   UNL A   1      33.175  34.976  31.763  1.00  0.00    -0.376 OA
BRANCH  31  32
ATOM     32  C   UNL A   1      34.400  34.489  32.292  1.00  0.00     0.202 C 
BRANCH  32  33
ATOM     33  C   UNL A   1      34.489  33.017  32.708  1.00  0.00     0.261 C 
BRANCH  33  34
ATOM     34  O   UNL A   1      34.897  32.164  31.656  1.00  0.00    -0.460 OA
BRANCH  34  35
ATOM     35  C   UNL A   1      36.009  31.472  31.915  1.00  0.00     0.338 C 
ATOM     36  O   UNL A   1      36.514  31.240  33.019  1.00  0.00    -0.246 OA
BRANCH  35  37
ATOM     37  C   UNL A   1      36.606  31.043  30.658  1.00  0.00     0.060 A 
ATOM     38  C   UNL A   1      36.487  29.676  30.405  1.00  0.00     0.016 A 
ATOM     39  C   UNL A   1      37.689  31.819  30.233  1.00  0.00     0.016 A 
ATOM     40  C   UNL A   1      37.641  29.013  30.100  1.00  0.00     0.010 A 
ATOM     41  C   UNL A   1      38.849  31.152  29.973  1.00  0.00     0.010 A 
ATOM     42  C   UNL A   1      38.819  29.761  30.029  1.00  0.00    -0.014 A 
BRANCH  42  43
ATOM     43  C   UNL A   1      40.056  29.035  29.989  1.00  0.00     0.031 A 
ATOM     44  C   UNL A   1      40.647  28.884  31.325  1.00  0.00     0.074 A 
ATOM     45  C   UNL A   1      40.540  28.518  28.848  1.00  0.00     0.049 A 
ATOM     46  N   UNL A   1      41.691  29.482  31.787  1.00  0.00    -0.248 NA
ATOM     47  C   UNL A   1      39.863  28.151  32.332  1.00  0.00     0.031 C 
ATOM     48  C   UNL A   1      39.886  28.371  27.546  1.00  0.00     0.029 A 
ATOM     49  N   UNL A   1      41.735  27.910  28.662  1.00  0.00    -0.354 N 
ATOM     50  C   UNL A   1      41.807  29.039  33.096  1.00  0.00     0.074 A 
ATOM     51  C   UNL A   1      40.555  28.418  33.438  1.00  0.00     0.031 C 
ATOM     52  C   UNL A   1      40.605  27.506  26.789  1.00  0.00     0.029 A 
ATOM     53  C   UNL A   1      41.816  27.149  27.507  1.00  0.00     0.049 A 
ATOM     54  H   UNL A   1      42.485  28.001  29.294  1.00  0.00     0.167 HD
ATOM     55  C   UNL A   1      43.021  28.962  33.697  1.00  0.00     0.037 A 
ATOM     56  C   UNL A   1      42.765  26.205  27.285  1.00  0.00     0.037 A 
ATOM     57  C   UNL A   1      43.998  29.774  33.019  1.00  0.00     0.049 A 
ATOM     58  C   UNL A   1      43.900  26.497  28.212  1.00  0.00     0.074 A 
ATOM     59  C   UNL A   1      44.082  31.122  32.723  1.00  0.00     0.029 A 
ATOM     60  N   UNL A   1      44.890  29.154  32.178  1.00  0.00    -0.354 N 
ATOM     61  N   UNL A   1      44.669  27.548  28.109  1.00  0.00    -0.248 NA
ATOM     62  C   UNL A   1      43.860  25.884  29.535  1.00  0.00     0.031 C 
ATOM     63  C   UNL A   1      44.633  31.180  31.409  1.00  0.00     0.029 A 
ATOM     64  C   UNL A   1      44.913  29.873  31.009  1.00  0.00     0.049 A 
ATOM     65  H   UNL A   1      45.414  28.343  32.376  1.00  0.00     0.167 HD
ATOM     66  C   UNL A   1      44.875  27.970  29.415  1.00  0.00     0.074 A 
ATOM     67  C   UNL A   1      44.401  26.872  30.254  1.00  0.00     0.031 C 
ATOM     68  C   UNL A   1      45.127  29.280  29.710  1.00  0.00     0.037 A 
BRANCH  55  69
ATOM     69  C   UNL A   1      43.380  27.866  34.659  1.00  0.00     0.064 A 
ATOM     70  C   UNL A   1      43.745  28.203  35.972  1.00  0.00     0.173 A 
ATOM     71  C   UNL A   1      43.641  26.531  34.272  1.00  0.00     0.173 A 
ATOM     72  F   UNL A   1      43.579  29.455  36.426  1.00  0.00    -0.203 F 
ATOM     73  C   UNL A   1      44.369  27.284  36.817  1.00  0.00     0.198 A 
ATOM     74  C   UNL A   1      44.201  25.599  35.140  1.00  0.00     0.198 A 
ATOM     75  F   UNL A   1      43.475  26.102  33.016  1.00  0.00    -0.203 F 
ATOM     76  F   UNL A   1      44.810  27.682  38.018  1.00  0.00    -0.200 F 
ATOM     77  C   UNL A   1      44.594  25.984  36.402  1.00  0.00     0.200 A 
ATOM     78  F   UNL A   1      44.431  24.352  34.706  1.00  0.00    -0.200 F 
ATOM     79  F   UNL A   1      45.236  25.116  37.194  1.00  0.00    -0.200 F 
ENDBRANCH  55  69
BRANCH  56  80
ATOM     80  C   UNL A   1      42.569  24.869  26.667  1.00  0.00     0.064 A 
ATOM     81  C   UNL A   1      43.235  24.526  25.479  1.00  0.00     0.173 A 
ATOM     82  C   UNL A   1      41.957  23.808  27.366  1.00  0.00     0.173 A 
ATOM     83  F   UNL A   1      43.885  25.466  24.777  1.00  0.00    -0.203 F 
ATOM     84  C   UNL A   1      43.309  23.201  25.034  1.00  0.00     0.198 A 
ATOM     85  C   UNL A   1      42.023  22.490  26.916  1.00  0.00     0.198 A 
ATOM     86  F   UNL A   1      41.365  24.010  28.551  1.00  0.00    -0.203 F 
ATOM     87  F   UNL A   1      44.010  22.904  23.931  1.00  0.00    -0.200 F 
ATOM     88  C   UNL A   1      42.711  22.183  25.759  1.00  0.00     0.200 A 
ATOM     89  F   UNL A   1      41.470  21.511  27.647  1.00  0.00    -0.200 F 
ATOM     90  F   UNL A   1      42.834  20.908  25.367  1.00  0.00    -0.200 F 
ENDBRANCH  56  80
BRANCH  68  91
ATOM     91  C   UNL A   1      45.410  30.224  28.575  1.00  0.00     0.064 A 
ATOM     92  C   UNL A   1      44.413  30.885  27.834  1.00  0.00     0.173 A 
ATOM     93  C   UNL A   1      46.740  30.601  28.341  1.00  0.00     0.173 A 
ATOM     94  F   UNL A   1      43.115  30.661  28.074  1.00  0.00    -0.203 F 
ATOM     95  C   UNL A   1      44.740  31.845  26.877  1.00  0.00     0.198 A 
ATOM     96  C   UNL A   1      47.061  31.589  27.414  1.00  0.00     0.198 A 
ATOM     97  F   UNL A   1      47.730  30.047  29.058  1.00  0.00    -0.203 F 
ATOM     98  F   UNL A   1      43.771  32.456  26.180  1.00  0.00    -0.200 F 
ATOM     99  C   UNL A   1      46.063  32.203  26.675  1.00  0.00     0.200 A 
ATOM    100  F   UNL A   1      48.337  31.968  27.261  1.00  0.00    -0.200 F 
ATOM    101  F   UNL A   1      46.375  33.161  25.791  1.00  0.00    -0.200 F 
ENDBRANCH  68  91
ENDBRANCH  42  43
ENDBRANCH  35  37
ENDBRANCH  34  35
ENDBRANCH  33  34
ENDBRANCH  32  33
ENDBRANCH  31  32
ENDBRANCH  30  31
ENDBRANCH  29  30
ENDBRANCH  28  29
ENDBRANCH   1  28
TORSDOF 24
ENDMDL
MODEL 2
REMARK VINA RESULT:     -10.5      2.479      3.777
REMARK SMILES CC(C)[C@H](NC(=O)Cn1ccc2c(Br)cccc21)C(=O)OCCOCCOCCOCCOC(=O)c1ccc(-c2c3nc(c(-c4c(F)c(F)c(F)c(F)c4F)c4ccc([nH]4)c(-c4c(F)c(F)c(F)c(F)c4F)c4nc(c(-c5c(F)c(F)c(F)c(F)c5F)c5ccc2[nH]5)C=C4)C=C3)cc1
REMARK SMILES IDX 26 1 25 2 24 3 23 4 22 5 21 6 19 7 20 8 4 9 2 10 1 11 3 12
REMARK SMILES IDX 5 13 6 14 7 16 8 17 9 18 10 19 18 20 11 21 12 22 17 23 13 24
REMARK SMILES IDX 16 25 14 26 15 27 27 28 28 29 29 30 30 31 31 32 32 33 33 34
REMARK SMILES IDX 34 35 35 36 36 37 37 38 98 39 38 40 97 41 39 42 40 43 41 44
REMARK SMILES IDX 91 45 42 46 96 47 90 48 92 49 43 50 95 51 89 52 88 53 44 55
REMARK SMILES IDX 76 56 56 57 75 58 57 59 60 60 74 61 93 62 58 63 59 64 73 66
REMARK SMILES IDX 94 67 61 68 45 69 46 70 54 71 47 72 48 73 52 74 55 75 49 76
REMARK SMILES IDX 50 77 53 78 51 79 77 80 78 81 86 82 79 83 80 84 84 85 87 86
REMARK SMILES IDX 81 87 82 88 85 89 83 90 62 91 63 92 71 93 64 94 65 95 69 96
REMARK SMILES IDX 72 97 66 98 67 99 70 100 68 101
REMARK H PARENT 5 15 92 54 60 65
REMARK Flexibility Score: inf
ROOT
ATOM      1  C   UNL A   1      34.848  33.038  29.303  1.00  0.00     0.188 C 
ENDROOT
BRANCH   1   2
ATOM      2  C   UNL A   1      34.510  32.359  27.962  1.00  0.00     0.188 C 
BRANCH   2   3
ATOM      3  O   UNL A   1      33.628  31.248  27.877  1.00  0.00    -0.376 OA
BRANCH   3   4
ATOM      4  C   UNL A   1      33.717  30.268  26.858  1.00  0.00     0.202 C 
BRANCH   4   5
ATOM      5  C   UNL A   1      32.560  29.971  25.901  1.00  0.00     0.261 C 
BRANCH   5   6
ATOM      6  O   UNL A   1      31.726  28.863  26.242  1.00  0.00    -0.462 OA
BRANCH   6   7
ATOM      7  C   UNL A   1      32.109  27.665  25.731  1.00  0.00     0.328 C 
ATOM      8  O   UNL A   1      32.830  26.859  26.310  1.00  0.00    -0.250 OA
BRANCH   7   9
ATOM      9  C   UNL A   1      31.623  27.471  24.279  1.00  0.00     0.194 C 
BRANCH   9  10
ATOM     10  C   UNL A   1      30.507  26.407  24.275  1.00  0.00     0.017 C 
ATOM     11  C   UNL A   1      30.183  25.789  25.643  1.00  0.00     0.010 C 
ATOM     12  C   UNL A   1      29.244  26.978  23.634  1.00  0.00     0.010 C 
ENDBRANCH   9  10
BRANCH   9  13
ATOM     13  N   UNL A   1      32.741  27.275  23.329  1.00  0.00    -0.341 N 
ATOM     14  C   UNL A   1      33.410  26.172  22.881  1.00  0.00     0.240 C 
ATOM     15  H   UNL A   1      33.072  28.116  22.936  1.00  0.00     0.164 HD
ATOM     16  O   UNL A   1      33.605  26.060  21.667  1.00  0.00    -0.273 OA
BRANCH  14  17
ATOM     17  C   UNL A   1      34.050  25.199  23.849  1.00  0.00     0.222 C 
BRANCH  17  18
ATOM     18  N   UNL A   1      33.687  23.796  23.603  1.00  0.00    -0.338 N 
ATOM     19  C   UNL A   1      32.396  23.408  23.322  1.00  0.00     0.087 A 
ATOM     20  C   UNL A   1      34.453  22.677  23.894  1.00  0.00     0.050 A 
ATOM     21  C   UNL A   1      32.276  22.084  23.678  1.00  0.00     0.029 A 
ATOM     22  C   UNL A   1      33.555  21.624  24.104  1.00  0.00     0.014 A 
ATOM     23  C   UNL A   1      35.836  22.521  24.115  1.00  0.00     0.027 A 
ATOM     24  C   UNL A   1      34.048  20.427  24.672  1.00  0.00     0.027 A 
ATOM     25  C   UNL A   1      36.289  21.338  24.700  1.00  0.00     0.003 A 
ATOM     26  Br  UNL A   1      32.875  19.004  25.099  1.00  0.00    -0.050 Br
ATOM     27  C   UNL A   1      35.405  20.307  24.994  1.00  0.00     0.016 A 
ENDBRANCH  17  18
ENDBRANCH  14  17
ENDBRANCH   9  13
ENDBRANCH   7   9
ENDBRANCH   6   7
ENDBRANCH   5   6
ENDBRANCH   4   5
ENDBRANCH   3   4
ENDBRANCH   2   3
ENDBRANCH   1   2
BRANCH   1  28
ATOM     28  O   UNL A   1      34.702  34.444  29.323  1.00  0.00    -0.377 OA
BRANCH  28  29
ATOM     29  C   UNL A   1      33.366  34.933  29.175  1.00  0.00     0.188 C 
BRANCH  29  30
ATOM     30  C   UNL A   1      33.098  36.456  29.339  1.00  0.00     0.188 C 
BRANCH  30  31
ATOM     31  O   UNL A   1      32.587  36.856  30.605  1.00  0.00    -0.376 OA
BRANCH  31  32
ATOM     32  C   UNL A   1      33.373  37.484  31.606  1.00  0.00     0.202 C 
BRANCH  32  33
ATOM     33  C   UNL A   1      33.817  36.659  32.819  1.00  0.00     0.261 C 
BRANCH  33  34
ATOM     34  O   UNL A   1      34.909  35.804  32.542  1.00  0.00    -0.460 OA
BRANCH  34  35
ATOM     35  C   UNL A   1      34.676  34.517  32.810  1.00  0.00     0.338 C 
ATOM     36  O   UNL A   1      33.706  33.836  32.458  1.00  0.00    -0.246 OA
BRANCH  35  37
ATOM     37  C   UNL A   1      35.745  34.005  33.655  1.00  0.00     0.060 A 
ATOM     38  C   UNL A   1      36.922  34.753  33.605  1.00  0.00     0.016 A 
ATOM     39  C   UNL A   1      35.714  32.622  33.861  1.00  0.00     0.016 A 
ATOM     40  C   UNL A   1      38.070  34.062  33.340  1.00  0.00     0.010 A 
ATOM     41  C   UNL A   1      36.850  31.935  33.552  1.00  0.00     0.010 A 
ATOM     42  C   UNL A   1      37.970  32.676  33.184  1.00  0.00    -0.014 A 
BRANCH  42  43
ATOM     43  C   UNL A   1      39.107  31.995  32.636  1.00  0.00     0.031 A 
ATOM     44  C   UNL A   1      40.127  31.719  33.656  1.00  0.00     0.074 A 
ATOM     45  C   UNL A   1      39.156  31.617  31.347  1.00  0.00     0.049 A 
ATOM     46  N   UNL A   1      41.272  32.294  33.788  1.00  0.00    -0.248 NA
ATOM     47  C   UNL A   1      39.737  30.860  34.786  1.00  0.00     0.031 C 
ATOM     48  C   UNL A   1      38.087  31.592  30.348  1.00  0.00     0.029 A 
ATOM     49  N   UNL A   1      40.204  31.067  30.691  1.00  0.00    -0.354 N 
ATOM     50  C   UNL A   1      41.834  31.718  34.917  1.00  0.00     0.074 A 
ATOM     51  C   UNL A   1      40.775  31.027  35.603  1.00  0.00     0.031 C 
ATOM     52  C   UNL A   1      38.486  30.834  29.297  1.00  0.00     0.029 A 
ATOM     53  C   UNL A   1      39.869  30.437  29.504  1.00  0.00     0.049 A 
ATOM     54  H   UNL A   1      41.129  31.112  31.028  1.00  0.00     0.167 HD
ATOM     55  C   UNL A   1      43.181  31.612  35.045  1.00  0.00     0.037 A 
ATOM     56  C   UNL A   1      40.670  29.550  28.862  1.00  0.00     0.037 A 
ATOM     57  C   UNL A   1      43.867  32.520  34.163  1.00  0.00     0.049 A 
ATOM     58  C   UNL A   1      42.061  29.774  29.361  1.00  0.00     0.074 A 
ATOM     59  C   UNL A   1      43.856  33.894  34.006  1.00  0.00     0.029 A 
ATOM     60  N   UNL A   1      44.402  32.019  33.000  1.00  0.00    -0.354 N 
ATOM     61  N   UNL A   1      42.756  30.852  29.113  1.00  0.00    -0.248 NA
ATOM     62  C   UNL A   1      42.480  29.022  30.539  1.00  0.00     0.031 C 
ATOM     63  C   UNL A   1      43.913  34.108  32.598  1.00  0.00     0.029 A 
ATOM     64  C   UNL A   1      44.023  32.860  31.984  1.00  0.00     0.049 A 
ATOM     65  H   UNL A   1      44.954  31.207  32.913  1.00  0.00     0.167 HD
ATOM     66  C   UNL A   1      43.410  31.138  30.304  1.00  0.00     0.074 A 
ATOM     67  C   UNL A   1      43.248  29.943  31.128  1.00  0.00     0.031 C 
ATOM     68  C   UNL A   1      43.763  32.415  30.635  1.00  0.00     0.037 A 
BRANCH  55  69
ATOM     69  C   UNL A   1      43.843  30.431  35.694  1.00  0.00     0.064 A 
ATOM     70  C   UNL A   1      43.619  29.149  35.168  1.00  0.00     0.173 A 
ATOM     71  C   UNL A   1      44.465  30.475  36.963  1.00  0.00     0.173 A 
ATOM     72  F   UNL A   1      42.998  28.995  33.989  1.00  0.00    -0.203 F 
ATOM     73  C   UNL A   1      43.950  27.996  35.884  1.00  0.00     0.198 A 
ATOM     74  C   UNL A   1      44.855  29.326  37.643  1.00  0.00     0.198 A 
ATOM     75  F   UNL A   1      44.619  31.614  37.649  1.00  0.00    -0.203 F 
ATOM     76  F   UNL A   1      43.609  26.796  35.399  1.00  0.00    -0.200 F 
ATOM     77  C   UNL A   1      44.570  28.085  37.117  1.00  0.00     0.200 A 
ATOM     78  F   UNL A   1      45.432  29.438  38.848  1.00  0.00    -0.200 F 
ATOM     79  F   UNL A   1      44.842  26.982  37.825  1.00  0.00    -0.200 F 
ENDBRANCH  55  69
BRANCH  56  80
ATOM     80  C   UNL A   1      40.257  28.282  28.208  1.00  0.00     0.064 A 
ATOM     81  C   UNL A   1      40.760  27.933  26.944  1.00  0.00     0.173 A 
ATOM     82  C   UNL A   1      39.592  27.262  28.917  1.00  0.00     0.173 A 
ATOM     83  F   UNL A   1      41.448  28.830  26.222  1.00  0.00    -0.203 F 
ATOM     84  C   UNL A   1      40.631  26.636  26.434  1.00  0.00     0.198 A 
ATOM     85  C   UNL A   1      39.455  25.972  28.404  1.00  0.00     0.198 A 
ATOM     86  F   UNL A   1      39.144  27.463  30.164  1.00  0.00    -0.203 F 
ATOM     87  F   UNL A   1      41.183  26.323  25.254  1.00  0.00    -0.200 F 
ATOM     88  C   UNL A   1      39.988  25.654  27.170  1.00  0.00     0.200 A 
ATOM     89  F   UNL A   1      38.861  25.023  29.143  1.00  0.00    -0.200 F 
ATOM     90  F   UNL A   1      39.918  24.397  26.711  1.00  0.00    -0.200 F 
ENDBRANCH  56  80
BRANCH  68  91
ATOM     91  C   UNL A   1      43.640  33.483  29.583  1.00  0.00     0.064 A 
ATOM     92  C   UNL A   1      42.471  34.231  29.354  1.00  0.00     0.173 A 
ATOM     93  C   UNL A   1      44.800  33.878  28.901  1.00  0.00     0.173 A 
ATOM     94  F   UNL A   1      41.351  33.988  30.046  1.00  0.00    -0.203 F 
ATOM     95  C   UNL A   1      42.458  35.294  28.452  1.00  0.00     0.198 A 
ATOM     96  C   UNL A   1      44.793  34.965  28.031  1.00  0.00     0.198 A 
ATOM     97  F   UNL A   1      45.959  33.239  29.122  1.00  0.00    -0.203 F 
ATOM     98  F   UNL A   1      41.328  35.987  28.245  1.00  0.00    -0.200 F 
ATOM     99  C   UNL A   1      43.622  35.666  27.798  1.00  0.00     0.200 A 
ATOM    100  F   UNL A   1      45.933  35.352  27.443  1.00  0.00    -0.200 F 
ATOM    101  F   UNL A   1      43.621  36.718  26.968  1.00  0.00    -0.200 F 
ENDBRANCH  68  91
ENDBRANCH  42  43
ENDBRANCH  35  37
ENDBRANCH  34  35
ENDBRANCH  33  34
ENDBRANCH  32  33
ENDBRANCH  31  32
ENDBRANCH  30  31
ENDBRANCH  29  30
ENDBRANCH  28  29
ENDBRANCH   1  28
TORSDOF 24
ENDMDL
MODEL 3
REMARK VINA RESULT:     -10.3      2.491      3.633
REMARK SMILES CC(C)[C@H](NC(=O)Cn1ccc2c(Br)cccc21)C(=O)OCCOCCOCCOCCOC(=O)c1ccc(-c2c3nc(c(-c4c(F)c(F)c(F)c(F)c4F)c4ccc([nH]4)c(-c4c(F)c(F)c(F)c(F)c4F)c4nc(c(-c5c(F)c(F)c(F)c(F)c5F)c5ccc2[nH]5)C=C4)C=C3)cc1
REMARK SMILES IDX 26 1 25 2 24 3 23 4 22 5 21 6 19 7 20 8 4 9 2 10 1 11 3 12
REMARK SMILES IDX 5 13 6 14 7 16 8 17 9 18 10 19 18 20 11 21 12 22 17 23 13 24
REMARK SMILES IDX 16 25 14 26 15 27 27 28 28 29 29 30 30 31 31 32 32 33 33 34
REMARK SMILES IDX 34 35 35 36 36 37 37 38 98 39 38 40 97 41 39 42 40 43 41 44
REMARK SMILES IDX 91 45 42 46 96 47 90 48 92 49 43 50 95 51 89 52 88 53 44 55
REMARK SMILES IDX 76 56 56 57 75 58 57 59 60 60 74 61 93 62 58 63 59 64 73 66
REMARK SMILES IDX 94 67 61 68 45 69 46 70 54 71 47 72 48 73 52 74 55 75 49 76
REMARK SMILES IDX 50 77 53 78 51 79 77 80 78 81 86 82 79 83 80 84 84 85 87 86
REMARK SMILES IDX 81 87 82 88 85 89 83 90 62 91 63 92 71 93 64 94 65 95 69 96
REMARK SMILES IDX 72 97 66 98 67 99 70 100 68 101
REMARK H PARENT 5 15 92 54 60 65
REMARK Flexibility Score: inf
ROOT
ATOM      1  C   UNL A   1      35.096  32.302  28.059  1.00  0.00     0.188 C 
ENDROOT
BRANCH   1   2
ATOM      2  C   UNL A   1      34.644  30.871  27.715  1.00  0.00     0.188 C 
BRANCH   2   3
ATOM      3  O   UNL A   1      33.351  30.589  27.197  1.00  0.00    -0.376 OA
BRANCH   3   4
ATOM      4  C   UNL A   1      32.914  29.278  26.884  1.00  0.00     0.202 C 
BRANCH   4   5
ATOM      5  C   UNL A   1      32.748  28.790  25.442  1.00  0.00     0.261 C 
BRANCH   5   6
ATOM      6  O   UNL A   1      33.001  27.404  25.211  1.00  0.00    -0.462 OA
BRANCH   6   7
ATOM      7  C   UNL A   1      31.902  26.645  24.962  1.00  0.00     0.328 C 
ATOM      8  O   UNL A   1      30.746  27.046  25.044  1.00  0.00    -0.250 OA
BRANCH   7   9
ATOM      9  C   UNL A   1      32.267  25.175  24.669  1.00  0.00     0.194 C 
BRANCH   9  10
ATOM     10  C   UNL A   1      32.435  25.008  23.145  1.00  0.00     0.017 C 
ATOM     11  C   UNL A   1      33.564  25.836  22.513  1.00  0.00     0.010 C 
ATOM     12  C   UNL A   1      32.600  23.529  22.797  1.00  0.00     0.010 C 
ENDBRANCH   9  10
BRANCH   9  13
ATOM     13  N   UNL A   1      31.367  24.220  25.353  1.00  0.00    -0.341 N 
ATOM     14  C   UNL A   1      31.329  23.706  26.617  1.00  0.00     0.240 C 
ATOM     15  H   UNL A   1      30.643  23.883  24.775  1.00  0.00     0.164 HD
ATOM     16  O   UNL A   1      30.245  23.691  27.209  1.00  0.00    -0.273 OA
BRANCH  14  17
ATOM     17  C   UNL A   1      32.534  23.013  27.217  1.00  0.00     0.222 C 
BRANCH  17  18
ATOM     18  N   UNL A   1      33.366  22.314  26.229  1.00  0.00    -0.338 N 
ATOM     19  C   UNL A   1      33.059  21.053  25.768  1.00  0.00     0.087 A 
ATOM     20  C   UNL A   1      34.662  22.640  25.855  1.00  0.00     0.050 A 
ATOM     21  C   UNL A   1      34.229  20.478  25.325  1.00  0.00     0.029 A 
ATOM     22  C   UNL A   1      35.266  21.448  25.434  1.00  0.00     0.014 A 
ATOM     23  C   UNL A   1      35.394  23.838  25.964  1.00  0.00     0.027 A 
ATOM     24  C   UNL A   1      36.667  21.439  25.245  1.00  0.00     0.027 A 
ATOM     25  C   UNL A   1      36.779  23.792  25.795  1.00  0.00     0.003 A 
ATOM     26  Br  UNL A   1      37.572  19.839  24.796  1.00  0.00    -0.050 Br
ATOM     27  C   UNL A   1      37.414  22.603  25.458  1.00  0.00     0.016 A 
ENDBRANCH  17  18
ENDBRANCH  14  17
ENDBRANCH   9  13
ENDBRANCH   7   9
ENDBRANCH   6   7
ENDBRANCH   5   6
ENDBRANCH   4   5
ENDBRANCH   3   4
ENDBRANCH   2   3
ENDBRANCH   1   2
BRANCH   1  28
ATOM     28  O   UNL A   1      34.432  33.333  27.353  1.00  0.00    -0.377 OA
BRANCH  28  29
ATOM     29  C   UNL A   1      33.379  33.993  28.060  1.00  0.00     0.188 C 
BRANCH  29  30
ATOM     30  C   UNL A   1      33.717  34.763  29.368  1.00  0.00     0.188 C 
BRANCH  30  31
ATOM     31  O   UNL A   1      32.598  35.234  30.109  1.00  0.00    -0.376 OA
BRANCH  31  32
ATOM     32  C   UNL A   1      32.679  36.264  31.083  1.00  0.00     0.202 C 
BRANCH  32  33
ATOM     33  C   UNL A   1      33.072  35.893  32.516  1.00  0.00     0.261 C 
BRANCH  33  34
ATOM     34  O   UNL A   1      34.419  35.478  32.635  1.00  0.00    -0.460 OA
BRANCH  34  35
ATOM     35  C   UNL A   1      34.567  34.173  32.871  1.00  0.00     0.338 C 
ATOM     36  O   UNL A   1      33.799  33.256  32.559  1.00  0.00    -0.246 OA
BRANCH  35  37
ATOM     37  C   UNL A   1      35.795  33.962  33.626  1.00  0.00     0.060 A 
ATOM     38  C   UNL A   1      36.854  34.783  33.237  1.00  0.00     0.016 A 
ATOM     39  C   UNL A   1      35.961  32.664  34.120  1.00  0.00     0.016 A 
ATOM     40  C   UNL A   1      38.032  34.155  32.945  1.00  0.00     0.010 A 
ATOM     41  C   UNL A   1      37.121  32.030  33.787  1.00  0.00     0.010 A 
ATOM     42  C   UNL A   1      38.083  32.767  33.101  1.00  0.00    -0.014 A 
BRANCH  42  43
ATOM     43  C   UNL A   1      39.211  32.085  32.535  1.00  0.00     0.031 A 
ATOM     44  C   UNL A   1      40.259  31.837  33.534  1.00  0.00     0.074 A 
ATOM     45  C   UNL A   1      39.229  31.683  31.254  1.00  0.00     0.049 A 
ATOM     46  N   UNL A   1      41.402  32.425  33.624  1.00  0.00    -0.248 NA
ATOM     47  C   UNL A   1      39.907  30.998  34.690  1.00  0.00     0.031 C 
ATOM     48  C   UNL A   1      38.134  31.629  30.284  1.00  0.00     0.029 A 
ATOM     49  N   UNL A   1      40.265  31.129  30.580  1.00  0.00    -0.354 N 
ATOM     50  C   UNL A   1      41.999  31.875  34.748  1.00  0.00     0.074 A 
ATOM     51  C   UNL A   1      40.965  31.190  35.476  1.00  0.00     0.031 C 
ATOM     52  C   UNL A   1      38.513  30.854  29.238  1.00  0.00     0.029 A 
ATOM     53  C   UNL A   1      39.904  30.472  29.415  1.00  0.00     0.049 A 
ATOM     54  H   UNL A   1      41.198  31.188  30.892  1.00  0.00     0.167 HD
ATOM     55  C   UNL A   1      43.350  31.784  34.842  1.00  0.00     0.037 A 
ATOM     56  C   UNL A   1      40.696  29.580  28.769  1.00  0.00     0.037 A 
ATOM     57  C   UNL A   1      44.005  32.680  33.925  1.00  0.00     0.049 A 
ATOM     58  C   UNL A   1      42.097  29.826  29.227  1.00  0.00     0.074 A 
ATOM     59  C   UNL A   1      43.977  34.051  33.743  1.00  0.00     0.029 A 
ATOM     60  N   UNL A   1      44.513  32.161  32.758  1.00  0.00    -0.354 N 
ATOM     61  N   UNL A   1      42.776  30.905  28.940  1.00  0.00    -0.248 NA
ATOM     62  C   UNL A   1      42.554  29.101  30.408  1.00  0.00     0.031 C 
ATOM     63  C   UNL A   1      43.995  34.238  32.329  1.00  0.00     0.029 A 
ATOM     64  C   UNL A   1      44.099  32.979  31.736  1.00  0.00     0.049 A 
ATOM     65  H   UNL A   1      45.070  31.353  32.672  1.00  0.00     0.167 HD
ATOM     66  C   UNL A   1      43.458  31.219  30.107  1.00  0.00     0.074 A 
ATOM     67  C   UNL A   1      43.329  30.039  30.958  1.00  0.00     0.031 C 
ATOM     68  C   UNL A   1      43.808  32.506  30.403  1.00  0.00     0.037 A 
BRANCH  55  69
ATOM     69  C   UNL A   1      44.040  30.621  35.497  1.00  0.00     0.064 A 
ATOM     70  C   UNL A   1      44.942  30.864  36.544  1.00  0.00     0.173 A 
ATOM     71  C   UNL A   1      44.055  29.312  34.963  1.00  0.00     0.173 A 
ATOM     72  F   UNL A   1      45.036  32.085  37.093  1.00  0.00    -0.203 F 
ATOM     73  C   UNL A   1      45.829  29.882  36.989  1.00  0.00     0.198 A 
ATOM     74  C   UNL A   1      44.893  28.316  35.454  1.00  0.00     0.198 A 
ATOM     75  F   UNL A   1      43.353  28.970  33.876  1.00  0.00    -0.203 F 
ATOM     76  F   UNL A   1      46.754  30.191  37.906  1.00  0.00    -0.200 F 
ATOM     77  C   UNL A   1      45.802  28.609  36.447  1.00  0.00     0.200 A 
ATOM     78  F   UNL A   1      44.864  27.097  34.896  1.00  0.00    -0.200 F 
ATOM     79  F   UNL A   1      46.683  27.682  36.838  1.00  0.00    -0.200 F 
ENDBRANCH  55  69
BRANCH  56  80
ATOM     80  C   UNL A   1      40.277  28.297  28.151  1.00  0.00     0.064 A 
ATOM     81  C   UNL A   1      40.786  27.905  26.902  1.00  0.00     0.173 A 
ATOM     82  C   UNL A   1      39.598  27.303  28.886  1.00  0.00     0.173 A 
ATOM     83  F   UNL A   1      41.487  28.774  26.158  1.00  0.00    -0.203 F 
ATOM     84  C   UNL A   1      40.650  26.594  26.431  1.00  0.00     0.198 A 
ATOM     85  C   UNL A   1      39.454  26.000  28.411  1.00  0.00     0.198 A 
ATOM     86  F   UNL A   1      39.143  27.546  30.123  1.00  0.00    -0.203 F 
ATOM     87  F   UNL A   1      41.208  26.241  25.265  1.00  0.00    -0.200 F 
ATOM     88  C   UNL A   1      39.993  25.640  27.191  1.00  0.00     0.200 A 
ATOM     89  F   UNL A   1      38.847  25.079  29.174  1.00  0.00    -0.200 F 
ATOM     90  F   UNL A   1      39.916  24.371  26.770  1.00  0.00    -0.200 F 
ENDBRANCH  56  80
BRANCH  68  91
ATOM     91  C   UNL A   1      43.648  33.552  29.336  1.00  0.00     0.064 A 
ATOM     92  C   UNL A   1      42.486  34.324  29.158  1.00  0.00     0.173 A 
ATOM     93  C   UNL A   1      44.774  33.901  28.576  1.00  0.00     0.173 A 
ATOM     94  F   UNL A   1      41.404  34.125  29.921  1.00  0.00    -0.203 F 
ATOM     95  C   UNL A   1      42.443  35.366  28.232  1.00  0.00     0.198 A 
ATOM     96  C   UNL A   1      44.741  34.968  27.681  1.00  0.00     0.198 A 
ATOM     97  F   UNL A   1      45.929  33.239  28.743  1.00  0.00    -0.203 F 
ATOM     98  F   UNL A   1      41.320  36.082  28.076  1.00  0.00    -0.200 F 
ATOM     99  C   UNL A   1      43.574  35.693  27.502  1.00  0.00     0.200 A 
ATOM    100  F   UNL A   1      45.852  35.313  27.018  1.00  0.00    -0.200 F 
ATOM    101  F   UNL A   1      43.549  36.725  26.647  1.00  0.00    -0.200 F 
ENDBRANCH  68  91
ENDBRANCH  42  43
ENDBRANCH  35  37
ENDBRANCH  34  35
ENDBRANCH  33  34
ENDBRANCH  32  33
ENDBRANCH  31  32
ENDBRANCH  30  31
ENDBRANCH  29  30
ENDBRANCH  28  29
ENDBRANCH   1  28
TORSDOF 24
ENDMDL
