MODEL 1
REMARK VINA RESULT:     -10.2      0.000      0.000
REMARK SMILES Cc1ccc(C)c(NC(=O)/C=C/C(=O)OCCOCCOCCOCCOC(=O)c2ccc(-c3c4nc(c(-c5c(F)c(F)c(F)c(F)c5F)c5ccc([nH]5)c(-c5c(F)c(F)c(F)c(F)c5F)c5nc(c(-c6c(F)c(F)c(F)c(F)c6F)c6ccc3[nH]6)C=C5)C=C4)cc2)c1
REMARK SMILES IDX 21 1 20 2 19 3 18 4 17 5 16 6 15 7 13 8 14 9 12 10 11 11
REMARK SMILES IDX 9 12 8 13 10 15 7 16 1 17 2 18 3 19 93 20 4 21 5 22 6 23
REMARK SMILES IDX 22 24 23 25 24 26 25 27 26 28 27 29 28 30 29 31 30 32 31 33
REMARK SMILES IDX 92 34 32 35 91 36 33 37 34 38 35 39 85 40 36 41 90 42 84 43
REMARK SMILES IDX 86 44 37 45 89 46 83 47 82 48 38 50 70 51 50 52 69 53 51 54
REMARK SMILES IDX 54 55 68 56 87 57 52 58 53 59 67 61 88 62 55 63 39 64 40 65
REMARK SMILES IDX 48 66 41 67 42 68 46 69 49 70 43 71 44 72 47 73 45 74 71 75
REMARK SMILES IDX 72 76 80 77 73 78 74 79 78 80 81 81 75 82 76 83 79 84 77 85
REMARK SMILES IDX 56 86 57 87 65 88 58 89 59 90 63 91 66 92 60 93 61 94 64 95
REMARK SMILES IDX 62 96
REMARK H PARENT 8 14 86 49 54 60
REMARK Flexibility Score: inf
ROOT
ATOM      1  O   UNL A   1      42.171  19.121  27.345  1.00  0.00    -0.377 OA
ENDROOT
BRANCH   1   2
ATOM      2  C   UNL A   1      42.295  20.452  26.884  1.00  0.00     0.188 C 
BRANCH   2   3
ATOM      3  C   UNL A   1      41.440  21.597  27.459  1.00  0.00     0.188 C 
BRANCH   3   4
ATOM      4  O   UNL A   1      41.630  22.919  27.003  1.00  0.00    -0.376 OA
BRANCH   4   5
ATOM      5  C   UNL A   1      40.527  23.809  27.019  1.00  0.00     0.202 C 
BRANCH   5   6
ATOM      6  C   UNL A   1      39.156  23.188  26.736  1.00  0.00     0.261 C 
BRANCH   6   7
ATOM      7  O   UNL A   1      38.292  24.114  26.027  1.00  0.00    -0.460 OA
BRANCH   7   8
ATOM      8  C   UNL A   1      37.154  23.528  25.583  1.00  0.00     0.331 C 
ATOM      9  O   UNL A   1      36.243  24.149  25.052  1.00  0.00    -0.247 OA
BRANCH   8  10
ATOM     10  C   UNL A   1      37.156  22.035  25.650  1.00  0.00     0.099 C 
ATOM     11  C   UNL A   1      37.326  21.138  24.661  1.00  0.00     0.079 C 
BRANCH  11  12
ATOM     12  C   UNL A   1      37.269  19.668  24.902  1.00  0.00     0.248 C 
ATOM     13  N   UNL A   1      36.170  18.843  24.843  1.00  0.00    -0.322 N 
ATOM     14  H   UNL A   1      36.446  17.924  25.064  1.00  0.00     0.170 HD
ATOM     15  O   UNL A   1      38.334  19.142  25.246  1.00  0.00    -0.270 OA
BRANCH  13  16
ATOM     16  C   UNL A   1      34.764  18.856  24.573  1.00  0.00     0.044 A 
ATOM     17  C   UNL A   1      32.156  21.733  24.511  1.00  0.00     0.044 C 
ATOM     18  C   UNL A   1      32.805  20.389  24.359  1.00  0.00    -0.049 A 
ATOM     19  C   UNL A   1      32.150  19.456  23.583  1.00  0.00     0.004 A 
ATOM     20  C   UNL A   1      34.082  20.065  24.886  1.00  0.00     0.029 A 
ATOM     21  C   UNL A   1      32.695  18.195  23.483  1.00  0.00     0.006 A 
ATOM     22  C   UNL A   1      33.985  17.877  23.970  1.00  0.00    -0.027 A 
ATOM     23  C   UNL A   1      34.357  16.457  23.817  1.00  0.00     0.046 C 
ENDBRANCH  13  16
ENDBRANCH  11  12
ENDBRANCH   8  10
ENDBRANCH   7   8
ENDBRANCH   6   7
ENDBRANCH   5   6
ENDBRANCH   4   5
ENDBRANCH   3   4
ENDBRANCH   2   3
ENDBRANCH   1   2
BRANCH   1  24
ATOM     24  C   UNL A   1      43.087  18.160  26.848  1.00  0.00     0.188 C 
BRANCH  24  25
ATOM     25  C   UNL A   1      43.837  18.489  25.551  1.00  0.00     0.188 C 
BRANCH  25  26
ATOM     26  O   UNL A   1      45.068  17.792  25.421  1.00  0.00    -0.376 OA
BRANCH  26  27
ATOM     27  C   UNL A   1      46.230  18.501  25.820  1.00  0.00     0.202 C 
BRANCH  27  28
ATOM     28  C   UNL A   1      46.627  19.608  24.842  1.00  0.00     0.261 C 
BRANCH  28  29
ATOM     29  O   UNL A   1      46.274  20.956  25.232  1.00  0.00    -0.460 OA
BRANCH  29  30
ATOM     30  C   UNL A   1      45.236  21.553  24.590  1.00  0.00     0.338 C 
ATOM     31  O   UNL A   1      44.630  21.062  23.647  1.00  0.00    -0.246 OA
BRANCH  30  32
ATOM     32  C   UNL A   1      44.927  22.865  25.221  1.00  0.00     0.060 A 
ATOM     33  C   UNL A   1      43.993  23.726  24.643  1.00  0.00     0.016 A 
ATOM     34  C   UNL A   1      45.658  23.297  26.330  1.00  0.00     0.016 A 
ATOM     35  C   UNL A   1      43.892  25.053  25.097  1.00  0.00     0.010 A 
ATOM     36  C   UNL A   1      45.568  24.619  26.760  1.00  0.00     0.010 A 
ATOM     37  C   UNL A   1      44.735  25.542  26.112  1.00  0.00    -0.014 A 
BRANCH  37  38
ATOM     38  C   UNL A   1      44.376  26.772  26.868  1.00  0.00     0.031 A 
ATOM     39  C   UNL A   1      45.409  27.763  26.559  1.00  0.00     0.074 A 
ATOM     40  C   UNL A   1      43.426  27.085  27.797  1.00  0.00     0.049 A 
ATOM     41  N   UNL A   1      46.290  28.096  27.441  1.00  0.00    -0.248 NA
ATOM     42  C   UNL A   1      45.725  28.193  25.188  1.00  0.00     0.031 C 
ATOM     43  C   UNL A   1      42.639  26.132  28.548  1.00  0.00     0.029 A 
ATOM     44  N   UNL A   1      42.926  28.290  28.303  1.00  0.00    -0.354 N 
ATOM     45  C   UNL A   1      46.992  29.109  26.841  1.00  0.00     0.074 A 
ATOM     46  C   UNL A   1      46.794  28.962  25.418  1.00  0.00     0.031 C 
ATOM     47  C   UNL A   1      41.611  26.739  29.184  1.00  0.00     0.029 A 
ATOM     48  C   UNL A   1      41.684  28.166  28.979  1.00  0.00     0.049 A 
ATOM     49  H   UNL A   1      43.395  29.150  28.198  1.00  0.00     0.167 HD
ATOM     50  C   UNL A   1      47.115  30.229  27.593  1.00  0.00     0.037 A 
ATOM     51  C   UNL A   1      40.847  29.102  29.533  1.00  0.00     0.037 A 
ATOM     52  C   UNL A   1      47.108  29.939  29.011  1.00  0.00     0.049 A 
ATOM     53  C   UNL A   1      41.771  29.991  30.257  1.00  0.00     0.074 A 
ATOM     54  C   UNL A   1      47.912  29.231  29.883  1.00  0.00     0.029 A 
ATOM     55  N   UNL A   1      45.892  30.057  29.627  1.00  0.00    -0.354 N 
ATOM     56  N   UNL A   1      42.304  29.667  31.400  1.00  0.00    -0.248 NA
ATOM     57  C   UNL A   1      42.340  31.152  29.586  1.00  0.00     0.031 C 
ATOM     58  C   UNL A   1      47.138  28.958  31.051  1.00  0.00     0.029 A 
ATOM     59  C   UNL A   1      45.887  29.538  30.898  1.00  0.00     0.049 A 
ATOM     60  H   UNL A   1      45.106  30.470  29.204  1.00  0.00     0.167 HD
ATOM     61  C   UNL A   1      43.562  30.212  31.294  1.00  0.00     0.074 A 
ATOM     62  C   UNL A   1      43.447  31.282  30.314  1.00  0.00     0.031 C 
ATOM     63  C   UNL A   1      44.654  29.482  31.651  1.00  0.00     0.037 A 
BRANCH  50  64
ATOM     64  C   UNL A   1      46.615  31.532  27.041  1.00  0.00     0.064 A 
ATOM     65  C   UNL A   1      47.452  32.649  27.064  1.00  0.00     0.173 A 
ATOM     66  C   UNL A   1      45.255  31.778  26.729  1.00  0.00     0.173 A 
ATOM     67  F   UNL A   1      48.727  32.527  27.460  1.00  0.00    -0.203 F 
ATOM     68  C   UNL A   1      46.966  33.921  26.755  1.00  0.00     0.198 A 
ATOM     69  C   UNL A   1      44.791  33.027  26.344  1.00  0.00     0.198 A 
ATOM     70  F   UNL A   1      44.303  30.856  26.921  1.00  0.00    -0.203 F 
ATOM     71  F   UNL A   1      47.770  34.984  26.882  1.00  0.00    -0.200 F 
ATOM     72  C   UNL A   1      45.646  34.105  26.372  1.00  0.00     0.200 A 
ATOM     73  F   UNL A   1      43.498  33.184  26.031  1.00  0.00    -0.200 F 
ATOM     74  F   UNL A   1      45.179  35.328  26.095  1.00  0.00    -0.200 F 
ENDBRANCH  50  64
BRANCH  51  75
ATOM     75  C   UNL A   1      39.378  29.239  29.848  1.00  0.00     0.064 A 
ATOM     76  C   UNL A   1      38.903  28.769  31.098  1.00  0.00     0.173 A 
ATOM     77  C   UNL A   1      38.446  29.990  29.131  1.00  0.00     0.173 A 
ATOM     78  F   UNL A   1      39.642  27.929  31.835  1.00  0.00    -0.203 F 
ATOM     79  C   UNL A   1      37.689  29.186  31.660  1.00  0.00     0.198 A 
ATOM     80  C   UNL A   1      37.251  30.464  29.713  1.00  0.00     0.198 A 
ATOM     81  F   UNL A   1      38.656  30.259  27.843  1.00  0.00    -0.203 F 
ATOM     82  F   UNL A   1      37.329  28.744  32.874  1.00  0.00    -0.200 F 
ATOM     83  C   UNL A   1      36.897  30.096  30.997  1.00  0.00     0.200 A 
ATOM     84  F   UNL A   1      36.479  31.334  29.044  1.00  0.00    -0.200 F 
ATOM     85  F   UNL A   1      35.810  30.614  31.588  1.00  0.00    -0.200 F 
ENDBRANCH  51  75
BRANCH  63  86
ATOM     86  C   UNL A   1      44.521  28.553  32.818  1.00  0.00     0.064 A 
ATOM     87  C   UNL A   1      44.199  27.190  32.753  1.00  0.00     0.173 A 
ATOM     88  C   UNL A   1      44.751  29.097  34.091  1.00  0.00     0.173 A 
ATOM     89  F   UNL A   1      43.977  26.586  31.578  1.00  0.00    -0.203 F 
ATOM     90  C   UNL A   1      44.124  26.410  33.913  1.00  0.00     0.198 A 
ATOM     91  C   UNL A   1      44.703  28.313  35.240  1.00  0.00     0.198 A 
ATOM     92  F   UNL A   1      45.030  30.403  34.221  1.00  0.00    -0.203 F 
ATOM     93  F   UNL A   1      43.808  25.108  33.830  1.00  0.00    -0.200 F 
ATOM     94  C   UNL A   1      44.395  26.968  35.151  1.00  0.00     0.200 A 
ATOM     95  F   UNL A   1      44.954  28.869  36.433  1.00  0.00    -0.200 F 
ATOM     96  F   UNL A   1      44.353  26.213  36.258  1.00  0.00    -0.200 F 
ENDBRANCH  63  86
ENDBRANCH  37  38
ENDBRANCH  30  32
ENDBRANCH  29  30
ENDBRANCH  28  29
ENDBRANCH  27  28
ENDBRANCH  26  27
ENDBRANCH  25  26
ENDBRANCH  24  25
ENDBRANCH   1  24
TORSDOF 22
ENDMDL
MODEL 2
REMARK VINA RESULT:     -10.1      2.480      3.825
REMARK SMILES Cc1ccc(C)c(NC(=O)/C=C/C(=O)OCCOCCOCCOCCOC(=O)c2ccc(-c3c4nc(c(-c5c(F)c(F)c(F)c(F)c5F)c5ccc([nH]5)c(-c5c(F)c(F)c(F)c(F)c5F)c5nc(c(-c6c(F)c(F)c(F)c(F)c6F)c6ccc3[nH]6)C=C5)C=C4)cc2)c1
REMARK SMILES IDX 21 1 20 2 19 3 18 4 17 5 16 6 15 7 13 8 14 9 12 10 11 11
REMARK SMILES IDX 9 12 8 13 10 15 7 16 1 17 2 18 3 19 93 20 4 21 5 22 6 23
REMARK SMILES IDX 22 24 23 25 24 26 25 27 26 28 27 29 28 30 29 31 30 32 31 33
REMARK SMILES IDX 92 34 32 35 91 36 33 37 34 38 35 39 85 40 36 41 90 42 84 43
REMARK SMILES IDX 86 44 37 45 89 46 83 47 82 48 38 50 70 51 50 52 69 53 51 54
REMARK SMILES IDX 54 55 68 56 87 57 52 58 53 59 67 61 88 62 55 63 39 64 40 65
REMARK SMILES IDX 48 66 41 67 42 68 46 69 49 70 43 71 44 72 47 73 45 74 71 75
REMARK SMILES IDX 72 76 80 77 73 78 74 79 78 80 81 81 75 82 76 83 79 84 77 85
REMARK SMILES IDX 56 86 57 87 65 88 58 89 59 90 63 91 66 92 60 93 61 94 64 95
REMARK SMILES IDX 62 96
REMARK H PARENT 8 14 86 49 54 60
REMARK Flexibility Score: inf
ROOT
ATOM      1  O   UNL A   1      38.535  20.175  25.496  1.00  0.00    -0.377 OA
ENDROOT
BRANCH   1   2
ATOM      2  C   UNL A   1      38.451  21.586  25.446  1.00  0.00     0.188 C 
BRANCH   2   3
ATOM      3  C   UNL A   1      37.196  22.310  24.922  1.00  0.00     0.188 C 
BRANCH   3   4
ATOM      4  O   UNL A   1      36.627  23.366  25.666  1.00  0.00    -0.376 OA
BRANCH   4   5
ATOM      5  C   UNL A   1      35.630  24.167  25.055  1.00  0.00     0.202 C 
BRANCH   5   6
ATOM      6  C   UNL A   1      34.269  24.199  25.756  1.00  0.00     0.261 C 
BRANCH   6   7
ATOM      7  O   UNL A   1      34.260  23.354  26.935  1.00  0.00    -0.460 OA
BRANCH   7   8
ATOM      8  C   UNL A   1      33.009  23.117  27.397  1.00  0.00     0.331 C 
ATOM      9  O   UNL A   1      32.736  22.190  28.149  1.00  0.00    -0.247 OA
BRANCH   8  10
ATOM     10  C   UNL A   1      32.006  24.167  27.044  1.00  0.00     0.099 C 
ATOM     11  C   UNL A   1      30.815  24.035  26.430  1.00  0.00     0.079 C 
BRANCH  11  12
ATOM     12  C   UNL A   1      29.944  25.207  26.126  1.00  0.00     0.248 C 
ATOM     13  N   UNL A   1      30.299  26.391  25.523  1.00  0.00    -0.322 N 
ATOM     14  H   UNL A   1      29.508  26.975  25.471  1.00  0.00     0.170 HD
ATOM     15  O   UNL A   1      28.772  25.115  26.512  1.00  0.00    -0.270 OA
BRANCH  13  16
ATOM     16  C   UNL A   1      31.419  27.069  24.945  1.00  0.00     0.044 A 
ATOM     17  C   UNL A   1      34.421  28.952  26.533  1.00  0.00     0.044 C 
ATOM     18  C   UNL A   1      33.513  28.292  25.538  1.00  0.00    -0.049 A 
ATOM     19  C   UNL A   1      34.039  28.012  24.294  1.00  0.00     0.004 A 
ATOM     20  C   UNL A   1      32.195  27.861  25.836  1.00  0.00     0.029 A 
ATOM     21  C   UNL A   1      33.205  27.466  23.344  1.00  0.00     0.006 A 
ATOM     22  C   UNL A   1      31.904  26.997  23.645  1.00  0.00    -0.027 A 
ATOM     23  C   UNL A   1      31.152  26.502  22.474  1.00  0.00     0.046 C 
ENDBRANCH  13  16
ENDBRANCH  11  12
ENDBRANCH   8  10
ENDBRANCH   7   8
ENDBRANCH   6   7
ENDBRANCH   5   6
ENDBRANCH   4   5
ENDBRANCH   3   4
ENDBRANCH   2   3
ENDBRANCH   1   2
BRANCH   1  24
ATOM     24  C   UNL A   1      39.804  19.596  25.750  1.00  0.00     0.188 C 
BRANCH  24  25
ATOM     25  C   UNL A   1      40.839  20.440  26.504  1.00  0.00     0.188 C 
BRANCH  25  26
ATOM     26  O   UNL A   1      42.146  20.351  25.955  1.00  0.00    -0.376 OA
BRANCH  26  27
ATOM     27  C   UNL A   1      42.770  19.079  26.037  1.00  0.00     0.202 C 
BRANCH  27  28
ATOM     28  C   UNL A   1      43.937  18.917  25.059  1.00  0.00     0.261 C 
BRANCH  28  29
ATOM     29  O   UNL A   1      44.235  20.065  24.232  1.00  0.00    -0.460 OA
BRANCH  29  30
ATOM     30  C   UNL A   1      45.380  20.751  24.484  1.00  0.00     0.338 C 
ATOM     31  O   UNL A   1      46.504  20.337  24.236  1.00  0.00    -0.246 OA
BRANCH  30  32
ATOM     32  C   UNL A   1      45.065  22.084  25.068  1.00  0.00     0.060 A 
ATOM     33  C   UNL A   1      44.150  22.932  24.443  1.00  0.00     0.016 A 
ATOM     34  C   UNL A   1      45.772  22.544  26.181  1.00  0.00     0.016 A 
ATOM     35  C   UNL A   1      44.048  24.273  24.854  1.00  0.00     0.010 A 
ATOM     36  C   UNL A   1      45.681  23.879  26.569  1.00  0.00     0.010 A 
ATOM     37  C   UNL A   1      44.870  24.787  25.874  1.00  0.00    -0.014 A 
BRANCH  37  38
ATOM     38  C   UNL A   1      44.502  26.041  26.584  1.00  0.00     0.031 A 
ATOM     39  C   UNL A   1      45.606  26.978  26.367  1.00  0.00     0.074 A 
ATOM     40  C   UNL A   1      43.484  26.410  27.416  1.00  0.00     0.049 A 
ATOM     41  N   UNL A   1      46.415  27.279  27.326  1.00  0.00    -0.248 NA
ATOM     42  C   UNL A   1      46.071  27.377  25.030  1.00  0.00     0.031 C 
ATOM     43  C   UNL A   1      42.584  25.505  28.096  1.00  0.00     0.029 A 
ATOM     44  N   UNL A   1      42.998  27.644  27.863  1.00  0.00    -0.354 N 
ATOM     45  C   UNL A   1      47.218  28.250  26.789  1.00  0.00     0.074 A 
ATOM     46  C   UNL A   1      47.150  28.096  25.355  1.00  0.00     0.031 C 
ATOM     47  C   UNL A   1      41.531  26.167  28.626  1.00  0.00     0.029 A 
ATOM     48  C   UNL A   1      41.693  27.587  28.419  1.00  0.00     0.049 A 
ATOM     49  H   UNL A   1      43.516  28.478  27.798  1.00  0.00     0.167 HD
ATOM     50  C   UNL A   1      47.325  29.371  27.542  1.00  0.00     0.037 A 
ATOM     51  C   UNL A   1      40.854  28.568  28.885  1.00  0.00     0.037 A 
ATOM     52  C   UNL A   1      47.169  29.098  28.955  1.00  0.00     0.049 A 
ATOM     53  C   UNL A   1      41.748  29.420  29.687  1.00  0.00     0.074 A 
ATOM     54  C   UNL A   1      47.852  28.362  29.904  1.00  0.00     0.029 A 
ATOM     55  N   UNL A   1      45.908  29.281  29.452  1.00  0.00    -0.354 N 
ATOM     56  N   UNL A   1      42.154  29.084  30.878  1.00  0.00    -0.248 NA
ATOM     57  C   UNL A   1      42.433  30.545  29.065  1.00  0.00     0.031 C 
ATOM     58  C   UNL A   1      46.959  28.141  30.995  1.00  0.00     0.029 A 
ATOM     59  C   UNL A   1      45.757  28.778  30.719  1.00  0.00     0.049 A 
ATOM     60  H   UNL A   1      45.187  29.727  28.953  1.00  0.00     0.167 HD
ATOM     61  C   UNL A   1      43.441  29.567  30.888  1.00  0.00     0.074 A 
ATOM     62  C   UNL A   1      43.472  30.630  29.894  1.00  0.00     0.031 C 
ATOM     63  C   UNL A   1      44.457  28.790  31.353  1.00  0.00     0.037 A 
BRANCH  50  64
ATOM     64  C   UNL A   1      46.943  30.691  26.936  1.00  0.00     0.064 A 
ATOM     65  C   UNL A   1      47.852  31.749  26.978  1.00  0.00     0.173 A 
ATOM     66  C   UNL A   1      45.621  31.018  26.548  1.00  0.00     0.173 A 
ATOM     67  F   UNL A   1      49.094  31.553  27.443  1.00  0.00    -0.203 F 
ATOM     68  C   UNL A   1      47.470  33.043  26.616  1.00  0.00     0.198 A 
ATOM     69  C   UNL A   1      45.263  32.286  26.111  1.00  0.00     0.198 A 
ATOM     70  F   UNL A   1      44.600  30.167  26.710  1.00  0.00    -0.203 F 
ATOM     71  F   UNL A   1      48.337  34.052  26.761  1.00  0.00    -0.200 F 
ATOM     72  C   UNL A   1      46.187  33.305  26.160  1.00  0.00     0.200 A 
ATOM     73  F   UNL A   1      44.001  32.521  25.727  1.00  0.00    -0.200 F 
ATOM     74  F   UNL A   1      45.819  34.549  25.833  1.00  0.00    -0.200 F 
ENDBRANCH  50  64
BRANCH  51  75
ATOM     75  C   UNL A   1      39.370  28.779  29.058  1.00  0.00     0.064 A 
ATOM     76  C   UNL A   1      38.773  28.431  30.295  1.00  0.00     0.173 A 
ATOM     77  C   UNL A   1      38.532  29.496  28.204  1.00  0.00     0.173 A 
ATOM     78  F   UNL A   1      39.413  27.634  31.160  1.00  0.00    -0.203 F 
ATOM     79  C   UNL A   1      37.533  28.934  30.714  1.00  0.00     0.198 A 
ATOM     80  C   UNL A   1      37.313  30.056  28.638  1.00  0.00     0.198 A 
ATOM     81  F   UNL A   1      38.861  29.649  26.921  1.00  0.00    -0.203 F 
ATOM     82  F   UNL A   1      37.054  28.608  31.923  1.00  0.00    -0.200 F 
ATOM     83  C   UNL A   1      36.836  29.810  29.912  1.00  0.00     0.200 A 
ATOM     84  F   UNL A   1      36.635  30.892  27.836  1.00  0.00    -0.200 F 
ATOM     85  F   UNL A   1      35.725  30.411  30.362  1.00  0.00    -0.200 F 
ENDBRANCH  51  75
BRANCH  63  86
ATOM     86  C   UNL A   1      44.170  27.882  32.508  1.00  0.00     0.064 A 
ATOM     87  C   UNL A   1      44.007  26.490  32.442  1.00  0.00     0.173 A 
ATOM     88  C   UNL A   1      44.064  28.479  33.773  1.00  0.00     0.173 A 
ATOM     89  F   UNL A   1      44.105  25.836  31.276  1.00  0.00    -0.203 F 
ATOM     90  C   UNL A   1      43.763  25.737  33.595  1.00  0.00     0.198 A 
ATOM     91  C   UNL A   1      43.848  27.724  34.922  1.00  0.00     0.198 A 
ATOM     92  F   UNL A   1      44.176  29.811  33.897  1.00  0.00    -0.203 F 
ATOM     93  F   UNL A   1      43.603  24.407  33.510  1.00  0.00    -0.200 F 
ATOM     94  C   UNL A   1      43.702  26.352  34.834  1.00  0.00     0.200 A 
ATOM     95  F   UNL A   1      43.779  28.334  36.113  1.00  0.00    -0.200 F 
ATOM     96  F   UNL A   1      43.499  25.625  35.942  1.00  0.00    -0.200 F 
ENDBRANCH  63  86
ENDBRANCH  37  38
ENDBRANCH  30  32
ENDBRANCH  29  30
ENDBRANCH  28  29
ENDBRANCH  27  28
ENDBRANCH  26  27
ENDBRANCH  25  26
ENDBRANCH  24  25
ENDBRANCH   1  24
TORSDOF 22
ENDMDL
MODEL 3
REMARK VINA RESULT:      -9.9      3.704      9.804
REMARK SMILES Cc1ccc(C)c(NC(=O)/C=C/C(=O)OCCOCCOCCOCCOC(=O)c2ccc(-c3c4nc(c(-c5c(F)c(F)c(F)c(F)c5F)c5ccc([nH]5)c(-c5c(F)c(F)c(F)c(F)c5F)c5nc(c(-c6c(F)c(F)c(F)c(F)c6F)c6ccc3[nH]6)C=C5)C=C4)cc2)c1
REMARK SMILES IDX 21 1 20 2 19 3 18 4 17 5 16 6 15 7 13 8 14 9 12 10 11 11
REMARK SMILES IDX 9 12 8 13 10 15 7 16 1 17 2 18 3 19 93 20 4 21 5 22 6 23
REMARK SMILES IDX 22 24 23 25 24 26 25 27 26 28 27 29 28 30 29 31 30 32 31 33
REMARK SMILES IDX 92 34 32 35 91 36 33 37 34 38 35 39 85 40 36 41 90 42 84 43
REMARK SMILES IDX 86 44 37 45 89 46 83 47 82 48 38 50 70 51 50 52 69 53 51 54
REMARK SMILES IDX 54 55 68 56 87 57 52 58 53 59 67 61 88 62 55 63 39 64 40 65
REMARK SMILES IDX 48 66 41 67 42 68 46 69 49 70 43 71 44 72 47 73 45 74 71 75
REMARK SMILES IDX 72 76 80 77 73 78 74 79 78 80 81 81 75 82 76 83 79 84 77 85
REMARK SMILES IDX 56 86 57 87 65 88 58 89 59 90 63 91 66 92 60 93 61 94 64 95
REMARK SMILES IDX 62 96
REMARK H PARENT 8 14 86 49 54 60
REMARK Flexibility Score: inf
ROOT
ATOM      1  O   UNL A   1      46.460  23.528  26.687  1.00  0.00    -0.377 OA
ENDROOT
BRANCH   1   2
ATOM      2  C   UNL A   1      47.000  24.675  27.314  1.00  0.00     0.188 C 
BRANCH   2   3
ATOM      3  C   UNL A   1      47.082  26.034  26.594  1.00  0.00     0.188 C 
BRANCH   3   4
ATOM      4  O   UNL A   1      45.906  26.660  26.129  1.00  0.00    -0.376 OA
BRANCH   4   5
ATOM      5  C   UNL A   1      45.905  27.224  24.828  1.00  0.00     0.202 C 
BRANCH   5   6
ATOM      6  C   UNL A   1      47.244  27.777  24.332  1.00  0.00     0.261 C 
BRANCH   6   7
ATOM      7  O   UNL A   1      47.865  26.879  23.376  1.00  0.00    -0.460 OA
BRANCH   7   8
ATOM      8  C   UNL A   1      48.658  27.530  22.489  1.00  0.00     0.331 C 
ATOM      9  O   UNL A   1      48.264  28.455  21.791  1.00  0.00    -0.247 OA
BRANCH   8  10
ATOM     10  C   UNL A   1      50.098  27.135  22.537  1.00  0.00     0.099 C 
ATOM     11  C   UNL A   1      50.981  27.011  21.529  1.00  0.00     0.079 C 
BRANCH  11  12
ATOM     12  C   UNL A   1      52.388  26.574  21.754  1.00  0.00     0.248 C 
ATOM     13  N   UNL A   1      53.035  26.388  22.955  1.00  0.00    -0.322 N 
ATOM     14  H   UNL A   1      53.962  26.108  22.780  1.00  0.00     0.170 HD
ATOM     15  O   UNL A   1      53.067  26.409  20.733  1.00  0.00    -0.270 OA
BRANCH  13  16
ATOM     16  C   UNL A   1      52.827  26.460  24.368  1.00  0.00     0.044 A 
ATOM     17  C   UNL A   1      51.370  29.250  26.643  1.00  0.00     0.044 C 
ATOM     18  C   UNL A   1      51.908  27.936  26.160  1.00  0.00    -0.049 A 
ATOM     19  C   UNL A   1      51.728  26.842  26.981  1.00  0.00     0.004 A 
ATOM     20  C   UNL A   1      52.497  27.744  24.884  1.00  0.00     0.029 A 
ATOM     21  C   UNL A   1      52.270  25.638  26.588  1.00  0.00     0.006 A 
ATOM     22  C   UNL A   1      52.822  25.431  25.301  1.00  0.00    -0.027 A 
ATOM     23  C   UNL A   1      53.404  24.088  25.101  1.00  0.00     0.046 C 
ENDBRANCH  13  16
ENDBRANCH  11  12
ENDBRANCH   8  10
ENDBRANCH   7   8
ENDBRANCH   6   7
ENDBRANCH   5   6
ENDBRANCH   4   5
ENDBRANCH   3   4
ENDBRANCH   2   3
ENDBRANCH   1   2
BRANCH   1  24
ATOM     24  C   UNL A   1      46.404  23.511  25.270  1.00  0.00     0.188 C 
BRANCH  24  25
ATOM     25  C   UNL A   1      46.195  22.159  24.577  1.00  0.00     0.188 C 
BRANCH  25  26
ATOM     26  O   UNL A   1      46.129  21.067  25.484  1.00  0.00    -0.376 OA
BRANCH  26  27
ATOM     27  C   UNL A   1      46.090  19.775  24.901  1.00  0.00     0.202 C 
BRANCH  27  28
ATOM     28  C   UNL A   1      44.756  19.056  25.116  1.00  0.00     0.261 C 
BRANCH  28  29
ATOM     29  O   UNL A   1      43.570  19.799  24.749  1.00  0.00    -0.460 OA
BRANCH  29  30
ATOM     30  C   UNL A   1      42.522  19.792  25.614  1.00  0.00     0.338 C 
ATOM     31  O   UNL A   1      41.756  18.851  25.766  1.00  0.00    -0.246 OA
BRANCH  30  32
ATOM     32  C   UNL A   1      42.469  21.075  26.368  1.00  0.00     0.060 A 
ATOM     33  C   UNL A   1      42.688  22.289  25.716  1.00  0.00     0.016 A 
ATOM     34  C   UNL A   1      42.319  21.063  27.757  1.00  0.00     0.016 A 
ATOM     35  C   UNL A   1      42.886  23.460  26.469  1.00  0.00     0.010 A 
ATOM     36  C   UNL A   1      42.537  22.223  28.497  1.00  0.00     0.010 A 
ATOM     37  C   UNL A   1      42.890  23.430  27.877  1.00  0.00    -0.014 A 
BRANCH  37  38
ATOM     38  C   UNL A   1      42.687  24.676  28.662  1.00  0.00     0.031 A 
ATOM     39  C   UNL A   1      41.509  25.335  28.093  1.00  0.00     0.074 A 
ATOM     40  C   UNL A   1      43.388  25.319  29.641  1.00  0.00     0.049 A 
ATOM     41  N   UNL A   1      41.630  26.410  27.388  1.00  0.00    -0.248 NA
ATOM     42  C   UNL A   1      40.193  24.685  27.993  1.00  0.00     0.031 C 
ATOM     43  C   UNL A   1      44.769  25.068  29.989  1.00  0.00     0.029 A 
ATOM     44  N   UNL A   1      43.071  26.332  30.553  1.00  0.00    -0.354 N 
ATOM     45  C   UNL A   1      40.337  26.789  27.139  1.00  0.00     0.074 A 
ATOM     46  C   UNL A   1      39.523  25.607  27.294  1.00  0.00     0.031 C 
ATOM     47  C   UNL A   1      45.096  25.665  31.158  1.00  0.00     0.029 A 
ATOM     48  C   UNL A   1      43.978  26.441  31.639  1.00  0.00     0.049 A 
ATOM     49  H   UNL A   1      42.286  26.918  30.450  1.00  0.00     0.167 HD
ATOM     50  C   UNL A   1      40.064  28.081  27.437  1.00  0.00     0.037 A 
ATOM     51  C   UNL A   1      43.974  27.235  32.759  1.00  0.00     0.037 A 
ATOM     52  C   UNL A   1      41.228  28.932  27.304  1.00  0.00     0.049 A 
ATOM     53  C   UNL A   1      43.601  28.558  32.229  1.00  0.00     0.074 A 
ATOM     54  C   UNL A   1      42.062  29.317  26.273  1.00  0.00     0.029 A 
ATOM     55  N   UNL A   1      41.924  29.157  28.460  1.00  0.00    -0.354 N 
ATOM     56  N   UNL A   1      44.443  29.319  31.590  1.00  0.00    -0.248 NA
ATOM     57  C   UNL A   1      42.199  28.947  32.161  1.00  0.00     0.031 C 
ATOM     58  C   UNL A   1      43.268  29.806  26.860  1.00  0.00     0.029 A 
ATOM     59  C   UNL A   1      43.140  29.754  28.241  1.00  0.00     0.049 A 
ATOM     60  H   UNL A   1      41.588  28.916  29.352  1.00  0.00     0.167 HD
ATOM     61  C   UNL A   1      43.638  29.898  30.638  1.00  0.00     0.074 A 
ATOM     62  C   UNL A   1      42.286  29.835  31.173  1.00  0.00     0.031 C 
ATOM     63  C   UNL A   1      44.052  29.965  29.343  1.00  0.00     0.037 A 
BRANCH  50  64
ATOM     64  C   UNL A   1      38.960  28.384  28.408  1.00  0.00     0.064 A 
ATOM     65  C   UNL A   1      37.980  29.315  28.060  1.00  0.00     0.173 A 
ATOM     66  C   UNL A   1      38.982  27.980  29.766  1.00  0.00     0.173 A 
ATOM     67  F   UNL A   1      37.957  29.838  26.825  1.00  0.00    -0.203 F 
ATOM     68  C   UNL A   1      37.058  29.779  29.000  1.00  0.00     0.198 A 
ATOM     69  C   UNL A   1      38.016  28.379  30.679  1.00  0.00     0.198 A 
ATOM     70  F   UNL A   1      40.010  27.302  30.290  1.00  0.00    -0.203 F 
ATOM     71  F   UNL A   1      36.195  30.744  28.658  1.00  0.00    -0.200 F 
ATOM     72  C   UNL A   1      37.061  29.293  30.299  1.00  0.00     0.200 A 
ATOM     73  F   UNL A   1      38.077  27.934  31.942  1.00  0.00    -0.200 F 
ATOM     74  F   UNL A   1      36.189  29.755  31.202  1.00  0.00    -0.200 F 
ENDBRANCH  50  64
BRANCH  51  75
ATOM     75  C   UNL A   1      44.526  27.190  34.162  1.00  0.00     0.064 A 
ATOM     76  C   UNL A   1      43.702  26.691  35.201  1.00  0.00     0.173 A 
ATOM     77  C   UNL A   1      45.857  27.380  34.533  1.00  0.00     0.173 A 
ATOM     78  F   UNL A   1      42.378  26.581  35.027  1.00  0.00    -0.203 F 
ATOM     79  C   UNL A   1      44.208  26.233  36.425  1.00  0.00     0.198 A 
ATOM     80  C   UNL A   1      46.385  26.867  35.736  1.00  0.00     0.198 A 
ATOM     81  F   UNL A   1      46.672  28.091  33.754  1.00  0.00    -0.203 F 
ATOM     82  F   UNL A   1      43.376  25.719  37.342  1.00  0.00    -0.200 F 
ATOM     83  C   UNL A   1      45.565  26.251  36.662  1.00  0.00     0.200 A 
ATOM     84  F   UNL A   1      47.708  26.912  35.961  1.00  0.00    -0.200 F 
ATOM     85  F   UNL A   1      46.073  25.682  37.765  1.00  0.00    -0.200 F 
ENDBRANCH  51  75
BRANCH  63  86
ATOM     86  C   UNL A   1      45.509  30.193  29.087  1.00  0.00     0.064 A 
ATOM     87  C   UNL A   1      46.487  29.198  28.945  1.00  0.00     0.173 A 
ATOM     88  C   UNL A   1      45.931  31.527  28.968  1.00  0.00     0.173 A 
ATOM     89  F   UNL A   1      46.170  27.899  29.030  1.00  0.00    -0.203 F 
ATOM     90  C   UNL A   1      47.821  29.530  28.684  1.00  0.00     0.198 A 
ATOM     91  C   UNL A   1      47.253  31.853  28.682  1.00  0.00     0.198 A 
ATOM     92  F   UNL A   1      45.047  32.525  29.128  1.00  0.00    -0.203 F 
ATOM     93  F   UNL A   1      48.744  28.563  28.558  1.00  0.00    -0.200 F 
ATOM     94  C   UNL A   1      48.198  30.854  28.534  1.00  0.00     0.200 A 
ATOM     95  F   UNL A   1      47.606  33.139  28.553  1.00  0.00    -0.200 F 
ATOM     96  F   UNL A   1      49.470  31.169  28.254  1.00  0.00    -0.200 F 
ENDBRANCH  63  86
ENDBRANCH  37  38
ENDBRANCH  30  32
ENDBRANCH  29  30
ENDBRANCH  28  29
ENDBRANCH  27  28
ENDBRANCH  26  27
ENDBRANCH  25  26
ENDBRANCH  24  25
ENDBRANCH   1  24
TORSDOF 22
ENDMDL
