MODEL 1
REMARK VINA RESULT:     -10.9      0.000      0.000
REMARK SMILES CC(C)[C@@H](NC(=O)[C@@H]1CC[C@H]2CCCC[C@@H]2[NH2+]1)C(=O)OCCOCCOCCOCCOC(=O)c1ccc(-c2c3nc(c(-c4c(F)c(F)c(F)c(F)c4F)c4ccc([nH]4)c(-c4c(F)c(F)c(F)c(F)c4F)c4nc(c(-c5c(F)c(F)c(F)c(F)c5F)c5ccc2[nH]5)C=C4)C=C3)cc1
REMARK SMILES IDX 26 1 25 2 24 3 23 4 22 5 21 6 20 7 18 8 19 9 4 10 2 11 1 12
REMARK SMILES IDX 3 13 5 14 6 15 7 17 8 18 9 19 17 20 10 21 16 22 11 25 15 26
REMARK SMILES IDX 12 27 14 28 13 29 27 30 28 31 29 32 30 33 31 34 32 35 33 36
REMARK SMILES IDX 34 37 35 38 36 39 97 40 37 41 96 42 38 43 39 44 40 45 90 46
REMARK SMILES IDX 41 47 95 48 89 49 91 50 42 51 94 52 88 53 87 54 43 56 75 57
REMARK SMILES IDX 55 58 74 59 56 60 59 61 73 62 92 63 57 64 58 65 72 67 93 68
REMARK SMILES IDX 60 69 44 70 45 71 53 72 46 73 47 74 51 75 54 76 48 77 49 78
REMARK SMILES IDX 52 79 50 80 76 81 77 82 85 83 78 84 79 85 83 86 86 87 80 88
REMARK SMILES IDX 81 89 84 90 82 91 61 92 62 93 70 94 63 95 64 96 68 97 71 98
REMARK SMILES IDX 65 99 66 100 69 101 67 102
REMARK H PARENT 5 16 17 23 17 24 91 55 59 66
REMARK Flexibility Score: inf
ROOT
ATOM      1  O   UNL A   1      41.079  19.989  26.759  1.00  0.00    -0.377 OA
ENDROOT
BRANCH   1   2
ATOM      2  C   UNL A   1      40.833  21.243  26.140  1.00  0.00     0.188 C 
BRANCH   2   3
ATOM      3  C   UNL A   1      39.403  21.765  26.254  1.00  0.00     0.188 C 
BRANCH   3   4
ATOM      4  O   UNL A   1      39.271  23.119  26.649  1.00  0.00    -0.376 OA
BRANCH   4   5
ATOM      5  C   UNL A   1      38.103  23.792  26.186  1.00  0.00     0.202 C 
BRANCH   5   6
ATOM      6  C   UNL A   1      36.793  22.990  26.100  1.00  0.00     0.261 C 
BRANCH   6   7
ATOM      7  O   UNL A   1      36.355  22.679  24.734  1.00  0.00    -0.462 OA
BRANCH   7   8
ATOM      8  C   UNL A   1      35.360  21.769  24.561  1.00  0.00     0.328 C 
ATOM      9  O   UNL A   1      35.471  20.610  24.962  1.00  0.00    -0.250 OA
BRANCH   8  10
ATOM     10  C   UNL A   1      34.140  22.189  23.644  1.00  0.00     0.195 C 
BRANCH  10  11
ATOM     11  C   UNL A   1      32.608  21.890  23.831  1.00  0.00     0.017 C 
ATOM     12  C   UNL A   1      31.965  21.446  22.490  1.00  0.00     0.010 C 
ATOM     13  C   UNL A   1      32.203  20.844  24.861  1.00  0.00     0.010 C 
ENDBRANCH  10  11
BRANCH  10  14
ATOM     14  N   UNL A   1      34.320  23.502  22.928  1.00  0.00    -0.337 N 
ATOM     15  C   UNL A   1      34.015  24.820  23.109  1.00  0.00     0.278 C 
ATOM     16  H   UNL A   1      34.797  23.370  22.077  1.00  0.00     0.164 HD
ATOM     17  O   UNL A   1      33.795  25.425  22.048  1.00  0.00    -0.268 OA
BRANCH  15  18
ATOM     18  C   UNL A   1      34.101  25.628  24.445  1.00  0.00     0.272 C 
ATOM     19  C   UNL A   1      33.401  25.067  25.649  1.00  0.00     0.076 C 
ATOM     20  N   UNL A   1      33.729  27.062  24.290  1.00  0.00    -0.333 N 
ATOM     21  C   UNL A   1      31.875  25.150  25.558  1.00  0.00     0.016 C 
ATOM     22  C   UNL A   1      32.324  27.383  24.617  1.00  0.00     0.186 C 
ATOM     23  H   UNL A   1      33.897  27.329  23.320  1.00  0.00     0.347 HD
ATOM     24  H   UNL A   1      34.301  27.578  24.958  1.00  0.00     0.347 HD
ATOM     25  C   UNL A   1      31.447  26.143  24.483  1.00  0.00     0.048 C 
ATOM     26  C   UNL A   1      31.853  28.534  23.730  1.00  0.00     0.065 C 
ATOM     27  C   UNL A   1      29.943  26.389  24.522  1.00  0.00     0.010 C 
ATOM     28  C   UNL A   1      30.339  28.742  23.792  1.00  0.00     0.006 C 
ATOM     29  C   UNL A   1      29.576  27.453  23.500  1.00  0.00     0.001 C 
ENDBRANCH  15  18
ENDBRANCH  10  14
ENDBRANCH   8  10
ENDBRANCH   7   8
ENDBRANCH   6   7
ENDBRANCH   5   6
ENDBRANCH   4   5
ENDBRANCH   3   4
ENDBRANCH   2   3
ENDBRANCH   1   2
BRANCH   1  30
ATOM     30  C   UNL A   1      42.370  19.397  26.736  1.00  0.00     0.188 C 
BRANCH  30  31
ATOM     31  C   UNL A   1      43.133  19.391  25.416  1.00  0.00     0.188 C 
BRANCH  31  32
ATOM     32  O   UNL A   1      43.776  20.601  25.005  1.00  0.00    -0.376 OA
BRANCH  32  33
ATOM     33  C   UNL A   1      45.063  20.928  25.524  1.00  0.00     0.202 C 
BRANCH  33  34
ATOM     34  C   UNL A   1      45.154  22.271  26.231  1.00  0.00     0.261 C 
BRANCH  34  35
ATOM     35  O   UNL A   1      43.892  22.943  26.236  1.00  0.00    -0.460 OA
BRANCH  35  36
ATOM     36  C   UNL A   1      43.842  24.067  25.496  1.00  0.00     0.338 C 
ATOM     37  O   UNL A   1      44.336  24.273  24.391  1.00  0.00    -0.246 OA
BRANCH  36  38
ATOM     38  C   UNL A   1      43.017  25.050  26.196  1.00  0.00     0.060 A 
ATOM     39  C   UNL A   1      43.142  26.408  25.880  1.00  0.00     0.016 A 
ATOM     40  C   UNL A   1      42.216  24.621  27.256  1.00  0.00     0.016 A 
ATOM     41  C   UNL A   1      42.521  27.360  26.682  1.00  0.00     0.010 A 
ATOM     42  C   UNL A   1      41.604  25.570  28.061  1.00  0.00     0.010 A 
ATOM     43  C   UNL A   1      41.806  26.938  27.809  1.00  0.00    -0.014 A 
BRANCH  43  44
ATOM     44  C   UNL A   1      41.463  27.887  28.884  1.00  0.00     0.031 A 
ATOM     45  C   UNL A   1      42.268  27.821  30.151  1.00  0.00     0.074 A 
ATOM     46  C   UNL A   1      40.419  28.718  28.758  1.00  0.00     0.049 A 
ATOM     47  N   UNL A   1      42.031  28.361  31.317  1.00  0.00    -0.248 NA
ATOM     48  C   UNL A   1      43.499  27.013  30.099  1.00  0.00     0.031 C 
ATOM     49  C   UNL A   1      39.613  28.887  27.553  1.00  0.00     0.029 A 
ATOM     50  N   UNL A   1      39.839  29.551  29.679  1.00  0.00    -0.354 N 
ATOM     51  C   UNL A   1      43.070  27.943  32.139  1.00  0.00     0.074 A 
ATOM     52  C   UNL A   1      43.922  27.081  31.352  1.00  0.00     0.031 C 
ATOM     53  C   UNL A   1      38.617  29.751  27.816  1.00  0.00     0.029 A 
ATOM     54  C   UNL A   1      38.693  30.149  29.221  1.00  0.00     0.049 A 
ATOM     55  H   UNL A   1      40.208  29.704  30.578  1.00  0.00     0.167 HD
ATOM     56  C   UNL A   1      43.288  28.259  33.436  1.00  0.00     0.037 A 
ATOM     57  C   UNL A   1      37.792  30.894  29.887  1.00  0.00     0.037 A 
ATOM     58  C   UNL A   1      42.420  29.112  34.202  1.00  0.00     0.049 A 
ATOM     59  C   UNL A   1      38.011  31.159  31.357  1.00  0.00     0.074 A 
ATOM     60  C   UNL A   1      42.533  29.497  35.525  1.00  0.00     0.029 A 
ATOM     61  N   UNL A   1      41.271  29.710  33.703  1.00  0.00    -0.354 N 
ATOM     62  N   UNL A   1      38.991  30.767  32.135  1.00  0.00    -0.248 NA
ATOM     63  C   UNL A   1      36.993  31.969  32.041  1.00  0.00     0.031 C 
ATOM     64  C   UNL A   1      41.424  30.289  35.840  1.00  0.00     0.029 A 
ATOM     65  C   UNL A   1      40.659  30.453  34.697  1.00  0.00     0.049 A 
ATOM     66  H   UNL A   1      40.941  29.618  32.780  1.00  0.00     0.167 HD
ATOM     67  C   UNL A   1      38.738  31.327  33.382  1.00  0.00     0.074 A 
ATOM     68  C   UNL A   1      37.509  32.081  33.257  1.00  0.00     0.031 C 
ATOM     69  C   UNL A   1      39.458  31.231  34.528  1.00  0.00     0.037 A 
BRANCH  56  70
ATOM     70  C   UNL A   1      44.493  27.668  34.107  1.00  0.00     0.064 A 
ATOM     71  C   UNL A   1      44.431  26.441  34.787  1.00  0.00     0.173 A 
ATOM     72  C   UNL A   1      45.736  28.316  34.041  1.00  0.00     0.173 A 
ATOM     73  F   UNL A   1      43.264  25.788  34.896  1.00  0.00    -0.203 F 
ATOM     74  C   UNL A   1      45.561  25.899  35.394  1.00  0.00     0.198 A 
ATOM     75  C   UNL A   1      46.871  27.755  34.620  1.00  0.00     0.198 A 
ATOM     76  F   UNL A   1      45.852  29.491  33.404  1.00  0.00    -0.203 F 
ATOM     77  F   UNL A   1      45.466  24.751  36.078  1.00  0.00    -0.200 F 
ATOM     78  C   UNL A   1      46.781  26.551  35.302  1.00  0.00     0.200 A 
ATOM     79  F   UNL A   1      48.052  28.380  34.518  1.00  0.00    -0.200 F 
ATOM     80  F   UNL A   1      47.870  26.021  35.875  1.00  0.00    -0.200 F 
ENDBRANCH  56  70
BRANCH  57  81
ATOM     81  C   UNL A   1      36.599  31.435  29.184  1.00  0.00     0.064 A 
ATOM     82  C   UNL A   1      35.538  30.591  28.825  1.00  0.00     0.173 A 
ATOM     83  C   UNL A   1      36.504  32.788  28.827  1.00  0.00     0.173 A 
ATOM     84  F   UNL A   1      35.589  29.286  29.129  1.00  0.00    -0.203 F 
ATOM     85  C   UNL A   1      34.448  31.071  28.103  1.00  0.00     0.198 A 
ATOM     86  C   UNL A   1      35.397  33.274  28.136  1.00  0.00     0.198 A 
ATOM     87  F   UNL A   1      37.487  33.641  29.153  1.00  0.00    -0.203 F 
ATOM     88  F   UNL A   1      33.480  30.229  27.718  1.00  0.00    -0.200 F 
ATOM     89  C   UNL A   1      34.376  32.413  27.762  1.00  0.00     0.200 A 
ATOM     90  F   UNL A   1      35.324  34.576  27.823  1.00  0.00    -0.200 F 
ATOM     91  F   UNL A   1      33.329  32.874  27.064  1.00  0.00    -0.200 F 
ENDBRANCH  57  81
BRANCH  69  92
ATOM     92  C   UNL A   1      38.993  32.030  35.711  1.00  0.00     0.064 A 
ATOM     93  C   UNL A   1      38.245  31.459  36.749  1.00  0.00     0.173 A 
ATOM     94  C   UNL A   1      39.370  33.378  35.833  1.00  0.00     0.173 A 
ATOM     95  F   UNL A   1      37.850  30.179  36.673  1.00  0.00    -0.203 F 
ATOM     96  C   UNL A   1      37.874  32.214  37.859  1.00  0.00     0.198 A 
ATOM     97  C   UNL A   1      39.027  34.117  36.960  1.00  0.00     0.198 A 
ATOM     98  F   UNL A   1      40.094  33.968  34.871  1.00  0.00    -0.203 F 
ATOM     99  F   UNL A   1      37.124  31.661  38.822  1.00  0.00    -0.200 F 
ATOM    100  C   UNL A   1      38.275  33.538  37.969  1.00  0.00     0.200 A 
ATOM    101  F   UNL A   1      39.433  35.390  37.072  1.00  0.00    -0.200 F 
ATOM    102  F   UNL A   1      37.932  34.256  39.047  1.00  0.00    -0.200 F 
ENDBRANCH  69  92
ENDBRANCH  43  44
ENDBRANCH  36  38
ENDBRANCH  35  36
ENDBRANCH  34  35
ENDBRANCH  33  34
ENDBRANCH  32  33
ENDBRANCH  31  32
ENDBRANCH  30  31
ENDBRANCH   1  30
TORSDOF 23
ENDMDL
MODEL 2
REMARK VINA RESULT:     -10.2      2.917      8.054
REMARK SMILES CC(C)[C@@H](NC(=O)[C@@H]1CC[C@H]2CCCC[C@@H]2[NH2+]1)C(=O)OCCOCCOCCOCCOC(=O)c1ccc(-c2c3nc(c(-c4c(F)c(F)c(F)c(F)c4F)c4ccc([nH]4)c(-c4c(F)c(F)c(F)c(F)c4F)c4nc(c(-c5c(F)c(F)c(F)c(F)c5F)c5ccc2[nH]5)C=C4)C=C3)cc1
REMARK SMILES IDX 26 1 25 2 24 3 23 4 22 5 21 6 20 7 18 8 19 9 4 10 2 11 1 12
REMARK SMILES IDX 3 13 5 14 6 15 7 17 8 18 9 19 17 20 10 21 16 22 11 25 15 26
REMARK SMILES IDX 12 27 14 28 13 29 27 30 28 31 29 32 30 33 31 34 32 35 33 36
REMARK SMILES IDX 34 37 35 38 36 39 97 40 37 41 96 42 38 43 39 44 40 45 90 46
REMARK SMILES IDX 41 47 95 48 89 49 91 50 42 51 94 52 88 53 87 54 43 56 75 57
REMARK SMILES IDX 55 58 74 59 56 60 59 61 73 62 92 63 57 64 58 65 72 67 93 68
REMARK SMILES IDX 60 69 44 70 45 71 53 72 46 73 47 74 51 75 54 76 48 77 49 78
REMARK SMILES IDX 52 79 50 80 76 81 77 82 85 83 78 84 79 85 83 86 86 87 80 88
REMARK SMILES IDX 81 89 84 90 82 91 61 92 62 93 70 94 63 95 64 96 68 97 71 98
REMARK SMILES IDX 65 99 66 100 69 101 67 102
REMARK H PARENT 5 16 17 23 17 24 91 55 59 66
REMARK Flexibility Score: inf
ROOT
ATOM      1  O   UNL A   1      33.807  26.247  26.091  1.00  0.00    -0.377 OA
ENDROOT
BRANCH   1   2
ATOM      2  C   UNL A   1      34.090  24.857  26.048  1.00  0.00     0.188 C 
BRANCH   2   3
ATOM      3  C   UNL A   1      35.450  24.477  25.471  1.00  0.00     0.188 C 
BRANCH   3   4
ATOM      4  O   UNL A   1      36.195  23.532  26.218  1.00  0.00    -0.376 OA
BRANCH   4   5
ATOM      5  C   UNL A   1      37.498  23.232  25.722  1.00  0.00     0.202 C 
BRANCH   5   6
ATOM      6  C   UNL A   1      37.746  21.827  25.146  1.00  0.00     0.261 C 
BRANCH   6   7
ATOM      7  O   UNL A   1      36.570  21.204  24.528  1.00  0.00    -0.462 OA
BRANCH   7   8
ATOM      8  C   UNL A   1      36.275  19.915  24.846  1.00  0.00     0.328 C 
ATOM      9  O   UNL A   1      37.155  19.063  24.962  1.00  0.00    -0.250 OA
BRANCH   8  10
ATOM     10  C   UNL A   1      34.748  19.500  24.858  1.00  0.00     0.195 C 
BRANCH  10  11
ATOM     11  C   UNL A   1      34.107  18.067  24.761  1.00  0.00     0.017 C 
ATOM     12  C   UNL A   1      32.853  17.962  25.670  1.00  0.00     0.010 C 
ATOM     13  C   UNL A   1      33.678  17.567  23.388  1.00  0.00     0.010 C 
ENDBRANCH  10  11
BRANCH  10  14
ATOM     14  N   UNL A   1      33.862  20.400  25.680  1.00  0.00    -0.337 N 
ATOM     15  C   UNL A   1      32.873  21.320  25.487  1.00  0.00     0.278 C 
ATOM     16  H   UNL A   1      34.053  20.293  26.640  1.00  0.00     0.164 HD
ATOM     17  O   UNL A   1      32.869  22.226  26.336  1.00  0.00    -0.268 OA
BRANCH  15  18
ATOM     18  C   UNL A   1      31.697  21.233  24.460  1.00  0.00     0.272 C 
ATOM     19  C   UNL A   1      32.030  20.866  23.043  1.00  0.00     0.076 C 
ATOM     20  N   UNL A   1      30.827  22.443  24.457  1.00  0.00    -0.333 N 
ATOM     21  C   UNL A   1      32.767  21.974  22.285  1.00  0.00     0.016 C 
ATOM     22  C   UNL A   1      31.160  23.451  23.429  1.00  0.00     0.186 C 
ATOM     23  H   UNL A   1      30.900  22.887  25.372  1.00  0.00     0.347 HD
ATOM     24  H   UNL A   1      29.885  22.115  24.239  1.00  0.00     0.347 HD
ATOM     25  C   UNL A   1      32.616  23.314  22.998  1.00  0.00     0.048 C 
ATOM     26  C   UNL A   1      30.837  24.843  23.970  1.00  0.00     0.065 C 
ATOM     27  C   UNL A   1      33.165  24.457  22.152  1.00  0.00     0.010 C 
ATOM     28  C   UNL A   1      31.413  25.960  23.097  1.00  0.00     0.006 C 
ATOM     29  C   UNL A   1      32.908  25.779  22.857  1.00  0.00     0.001 C 
ENDBRANCH  15  18
ENDBRANCH  10  14
ENDBRANCH   8  10
ENDBRANCH   7   8
ENDBRANCH   6   7
ENDBRANCH   5   6
ENDBRANCH   4   5
ENDBRANCH   3   4
ENDBRANCH   2   3
ENDBRANCH   1   2
BRANCH   1  30
ATOM     30  C   UNL A   1      32.542  26.730  26.520  1.00  0.00     0.188 C 
BRANCH  30  31
ATOM     31  C   UNL A   1      32.432  28.198  26.917  1.00  0.00     0.188 C 
BRANCH  31  32
ATOM     32  O   UNL A   1      32.661  29.187  25.909  1.00  0.00    -0.376 OA
BRANCH  32  33
ATOM     33  C   UNL A   1      31.674  30.185  25.661  1.00  0.00     0.202 C 
BRANCH  33  34
ATOM     34  C   UNL A   1      31.817  31.456  26.484  1.00  0.00     0.261 C 
BRANCH  34  35
ATOM     35  O   UNL A   1      32.786  31.296  27.524  1.00  0.00    -0.460 OA
BRANCH  35  36
ATOM     36  C   UNL A   1      33.602  32.350  27.710  1.00  0.00     0.338 C 
ATOM     37  O   UNL A   1      33.312  33.543  27.731  1.00  0.00    -0.246 OA
BRANCH  36  38
ATOM     38  C   UNL A   1      34.954  31.854  27.962  1.00  0.00     0.060 A 
ATOM     39  C   UNL A   1      35.155  30.488  28.197  1.00  0.00     0.016 A 
ATOM     40  C   UNL A   1      35.994  32.775  28.092  1.00  0.00     0.016 A 
ATOM     41  C   UNL A   1      36.395  30.044  28.644  1.00  0.00     0.010 A 
ATOM     42  C   UNL A   1      37.228  32.334  28.546  1.00  0.00     0.010 A 
ATOM     43  C   UNL A   1      37.410  30.980  28.878  1.00  0.00    -0.014 A 
BRANCH  43  44
ATOM     44  C   UNL A   1      38.585  30.632  29.698  1.00  0.00     0.031 A 
ATOM     45  C   UNL A   1      39.546  29.621  29.139  1.00  0.00     0.074 A 
ATOM     46  C   UNL A   1      38.738  31.141  30.928  1.00  0.00     0.049 A 
ATOM     47  N   UNL A   1      40.509  28.970  29.735  1.00  0.00    -0.248 NA
ATOM     48  C   UNL A   1      39.381  29.283  27.714  1.00  0.00     0.031 C 
ATOM     49  C   UNL A   1      37.886  32.161  31.533  1.00  0.00     0.029 A 
ATOM     50  N   UNL A   1      39.652  30.834  31.901  1.00  0.00    -0.354 N 
ATOM     51  C   UNL A   1      41.049  28.134  28.766  1.00  0.00     0.074 A 
ATOM     52  C   UNL A   1      40.290  28.334  27.553  1.00  0.00     0.031 C 
ATOM     53  C   UNL A   1      38.300  32.377  32.795  1.00  0.00     0.029 A 
ATOM     54  C   UNL A   1      39.408  31.471  33.092  1.00  0.00     0.049 A 
ATOM     55  H   UNL A   1      40.406  30.219  31.761  1.00  0.00     0.167 HD
ATOM     56  C   UNL A   1      42.090  27.278  28.886  1.00  0.00     0.037 A 
ATOM     57  C   UNL A   1      39.995  31.298  34.290  1.00  0.00     0.037 A 
ATOM     58  C   UNL A   1      42.824  27.089  30.107  1.00  0.00     0.049 A 
ATOM     59  C   UNL A   1      41.095  30.272  34.421  1.00  0.00     0.074 A 
ATOM     60  C   UNL A   1      43.891  26.245  30.353  1.00  0.00     0.029 A 
ATOM     61  N   UNL A   1      42.557  27.758  31.294  1.00  0.00    -0.354 N 
ATOM     62  N   UNL A   1      41.608  29.483  33.507  1.00  0.00    -0.248 NA
ATOM     63  C   UNL A   1      41.696  30.113  35.752  1.00  0.00     0.031 C 
ATOM     64  C   UNL A   1      44.238  26.369  31.702  1.00  0.00     0.029 A 
ATOM     65  C   UNL A   1      43.433  27.338  32.278  1.00  0.00     0.049 A 
ATOM     66  H   UNL A   1      41.849  28.432  31.415  1.00  0.00     0.167 HD
ATOM     67  C   UNL A   1      42.625  28.776  34.138  1.00  0.00     0.074 A 
ATOM     68  C   UNL A   1      42.652  29.227  35.513  1.00  0.00     0.031 C 
ATOM     69  C   UNL A   1      43.464  27.841  33.628  1.00  0.00     0.037 A 
BRANCH  56  70
ATOM     70  C   UNL A   1      42.479  26.477  27.679  1.00  0.00     0.064 A 
ATOM     71  C   UNL A   1      43.501  26.898  26.813  1.00  0.00     0.173 A 
ATOM     72  C   UNL A   1      41.849  25.254  27.401  1.00  0.00     0.173 A 
ATOM     73  F   UNL A   1      44.124  28.068  27.021  1.00  0.00    -0.203 F 
ATOM     74  C   UNL A   1      43.859  26.138  25.702  1.00  0.00     0.198 A 
ATOM     75  C   UNL A   1      42.233  24.480  26.309  1.00  0.00     0.198 A 
ATOM     76  F   UNL A   1      40.866  24.804  28.195  1.00  0.00    -0.203 F 
ATOM     77  F   UNL A   1      44.804  26.584  24.864  1.00  0.00    -0.200 F 
ATOM     78  C   UNL A   1      43.232  24.925  25.458  1.00  0.00     0.200 A 
ATOM     79  F   UNL A   1      41.636  23.302  26.082  1.00  0.00    -0.200 F 
ATOM     80  F   UNL A   1      43.588  24.188  24.396  1.00  0.00    -0.200 F 
ENDBRANCH  56  70
BRANCH  57  81
ATOM     81  C   UNL A   1      39.555  32.097  35.464  1.00  0.00     0.064 A 
ATOM     82  C   UNL A   1      38.612  31.583  36.365  1.00  0.00     0.173 A 
ATOM     83  C   UNL A   1      40.034  33.395  35.693  1.00  0.00     0.173 A 
ATOM     84  F   UNL A   1      38.111  30.353  36.180  1.00  0.00    -0.203 F 
ATOM     85  C   UNL A   1      38.138  32.348  37.428  1.00  0.00     0.198 A 
ATOM     86  C   UNL A   1      39.585  34.147  36.776  1.00  0.00     0.198 A 
ATOM     87  F   UNL A   1      40.943  33.933  34.866  1.00  0.00    -0.203 F 
ATOM     88  F   UNL A   1      37.190  31.854  38.236  1.00  0.00    -0.200 F 
ATOM     89  C   UNL A   1      38.628  33.629  37.634  1.00  0.00     0.200 A 
ATOM     90  F   UNL A   1      40.074  35.378  36.982  1.00  0.00    -0.200 F 
ATOM     91  F   UNL A   1      38.168  34.367  38.654  1.00  0.00    -0.200 F 
ENDBRANCH  57  81
BRANCH  69  92
ATOM     92  C   UNL A   1      44.543  27.309  34.527  1.00  0.00     0.064 A 
ATOM     93  C   UNL A   1      44.382  26.132  35.271  1.00  0.00     0.173 A 
ATOM     94  C   UNL A   1      45.787  27.959  34.584  1.00  0.00     0.173 A 
ATOM     95  F   UNL A   1      43.209  25.481  35.261  1.00  0.00    -0.203 F 
ATOM     96  C   UNL A   1      45.421  25.636  36.055  1.00  0.00     0.198 A 
ATOM     97  C   UNL A   1      46.832  27.441  35.340  1.00  0.00     0.198 A 
ATOM     98  F   UNL A   1      45.994  29.084  33.883  1.00  0.00    -0.203 F 
ATOM     99  F   UNL A   1      45.232  24.532  36.791  1.00  0.00    -0.200 F 
ATOM    100  C   UNL A   1      46.648  26.284  36.080  1.00  0.00     0.200 A 
ATOM    101  F   UNL A   1      48.022  28.058  35.345  1.00  0.00    -0.200 F 
ATOM    102  F   UNL A   1      47.651  25.794  36.820  1.00  0.00    -0.200 F 
ENDBRANCH  69  92
ENDBRANCH  43  44
ENDBRANCH  36  38
ENDBRANCH  35  36
ENDBRANCH  34  35
ENDBRANCH  33  34
ENDBRANCH  32  33
ENDBRANCH  31  32
ENDBRANCH  30  31
ENDBRANCH   1  30
TORSDOF 23
ENDMDL
MODEL 3
REMARK VINA RESULT:     -10.0      1.307      7.149
REMARK SMILES CC(C)[C@@H](NC(=O)[C@@H]1CC[C@H]2CCCC[C@@H]2[NH2+]1)C(=O)OCCOCCOCCOCCOC(=O)c1ccc(-c2c3nc(c(-c4c(F)c(F)c(F)c(F)c4F)c4ccc([nH]4)c(-c4c(F)c(F)c(F)c(F)c4F)c4nc(c(-c5c(F)c(F)c(F)c(F)c5F)c5ccc2[nH]5)C=C4)C=C3)cc1
REMARK SMILES IDX 26 1 25 2 24 3 23 4 22 5 21 6 20 7 18 8 19 9 4 10 2 11 1 12
REMARK SMILES IDX 3 13 5 14 6 15 7 17 8 18 9 19 17 20 10 21 16 22 11 25 15 26
REMARK SMILES IDX 12 27 14 28 13 29 27 30 28 31 29 32 30 33 31 34 32 35 33 36
REMARK SMILES IDX 34 37 35 38 36 39 97 40 37 41 96 42 38 43 39 44 40 45 90 46
REMARK SMILES IDX 41 47 95 48 89 49 91 50 42 51 94 52 88 53 87 54 43 56 75 57
REMARK SMILES IDX 55 58 74 59 56 60 59 61 73 62 92 63 57 64 58 65 72 67 93 68
REMARK SMILES IDX 60 69 44 70 45 71 53 72 46 73 47 74 51 75 54 76 48 77 49 78
REMARK SMILES IDX 52 79 50 80 76 81 77 82 85 83 78 84 79 85 83 86 86 87 80 88
REMARK SMILES IDX 81 89 84 90 82 91 61 92 62 93 70 94 63 95 64 96 68 97 71 98
REMARK SMILES IDX 65 99 66 100 69 101 67 102
REMARK H PARENT 5 16 17 23 17 24 91 55 59 66
REMARK Flexibility Score: inf
ROOT
ATOM      1  O   UNL A   1      41.214  19.448  26.339  1.00  0.00    -0.377 OA
ENDROOT
BRANCH   1   2
ATOM      2  C   UNL A   1      41.196  20.397  27.395  1.00  0.00     0.188 C 
BRANCH   2   3
ATOM      3  C   UNL A   1      40.455  21.698  27.100  1.00  0.00     0.188 C 
BRANCH   3   4
ATOM      4  O   UNL A   1      39.640  21.694  25.942  1.00  0.00    -0.376 OA
BRANCH   4   5
ATOM      5  C   UNL A   1      38.371  22.331  26.071  1.00  0.00     0.202 C 
BRANCH   5   6
ATOM      6  C   UNL A   1      37.393  22.241  24.886  1.00  0.00     0.261 C 
BRANCH   6   7
ATOM      7  O   UNL A   1      35.982  22.430  25.243  1.00  0.00    -0.462 OA
BRANCH   7   8
ATOM      8  C   UNL A   1      35.065  21.552  24.756  1.00  0.00     0.328 C 
ATOM      9  O   UNL A   1      35.180  20.339  24.931  1.00  0.00    -0.250 OA
BRANCH   8  10
ATOM     10  C   UNL A   1      33.958  22.122  23.779  1.00  0.00     0.195 C 
BRANCH  10  11
ATOM     11  C   UNL A   1      32.396  21.949  23.837  1.00  0.00     0.017 C 
ATOM     12  C   UNL A   1      31.876  21.210  22.576  1.00  0.00     0.010 C 
ATOM     13  C   UNL A   1      31.802  21.216  25.032  1.00  0.00     0.010 C 
ENDBRANCH  10  11
BRANCH  10  14
ATOM     14  N   UNL A   1      34.301  23.449  23.153  1.00  0.00    -0.337 N 
ATOM     15  C   UNL A   1      34.057  24.775  23.361  1.00  0.00     0.278 C 
ATOM     16  H   UNL A   1      34.868  23.322  22.358  1.00  0.00     0.164 HD
ATOM     17  O   UNL A   1      34.001  25.437  22.312  1.00  0.00    -0.268 OA
BRANCH  15  18
ATOM     18  C   UNL A   1      34.031  25.521  24.735  1.00  0.00     0.272 C 
ATOM     19  C   UNL A   1      33.123  24.987  25.804  1.00  0.00     0.076 C 
ATOM     20  N   UNL A   1      33.818  26.989  24.604  1.00  0.00    -0.333 N 
ATOM     21  C   UNL A   1      31.638  25.222  25.515  1.00  0.00     0.016 C 
ATOM     22  C   UNL A   1      32.417  27.434  24.757  1.00  0.00     0.186 C 
ATOM     23  H   UNL A   1      34.143  27.275  23.681  1.00  0.00     0.347 HD
ATOM     24  H   UNL A   1      34.338  27.421  25.369  1.00  0.00     0.347 HD
ATOM     25  C   UNL A   1      31.456  26.292  24.443  1.00  0.00     0.048 C 
ATOM     26  C   UNL A   1      32.181  28.658  23.873  1.00  0.00     0.065 C 
ATOM     27  C   UNL A   1      29.990  26.683  24.294  1.00  0.00     0.010 C 
ATOM     28  C   UNL A   1      30.698  29.011  23.742  1.00  0.00     0.006 C 
ATOM     29  C   UNL A   1      29.867  27.815  23.286  1.00  0.00     0.001 C 
ENDBRANCH  15  18
ENDBRANCH  10  14
ENDBRANCH   8  10
ENDBRANCH   7   8
ENDBRANCH   6   7
ENDBRANCH   5   6
ENDBRANCH   4   5
ENDBRANCH   3   4
ENDBRANCH   2   3
ENDBRANCH   1   2
BRANCH   1  30
ATOM     30  C   UNL A   1      42.434  19.022  25.751  1.00  0.00     0.188 C 
BRANCH  30  31
ATOM     31  C   UNL A   1      43.632  19.964  25.824  1.00  0.00     0.188 C 
BRANCH  31  32
ATOM     32  O   UNL A   1      43.597  21.161  25.042  1.00  0.00    -0.376 OA
BRANCH  32  33
ATOM     33  C   UNL A   1      44.107  22.376  25.586  1.00  0.00     0.202 C 
BRANCH  33  34
ATOM     34  C   UNL A   1      43.990  23.591  24.679  1.00  0.00     0.261 C 
BRANCH  34  35
ATOM     35  O   UNL A   1      44.483  24.770  25.322  1.00  0.00    -0.460 OA
BRANCH  35  36
ATOM     36  C   UNL A   1      43.594  25.775  25.430  1.00  0.00     0.338 C 
ATOM     37  O   UNL A   1      42.918  26.289  24.544  1.00  0.00    -0.246 OA
BRANCH  36  38
ATOM     38  C   UNL A   1      43.487  26.154  26.837  1.00  0.00     0.060 A 
ATOM     39  C   UNL A   1      42.737  25.358  27.711  1.00  0.00     0.016 A 
ATOM     40  C   UNL A   1      44.029  27.373  27.248  1.00  0.00     0.016 A 
ATOM     41  C   UNL A   1      42.457  25.821  28.992  1.00  0.00     0.010 A 
ATOM     42  C   UNL A   1      43.743  27.839  28.522  1.00  0.00     0.010 A 
ATOM     43  C   UNL A   1      42.909  27.092  29.371  1.00  0.00    -0.014 A 
BRANCH  43  44
ATOM     44  C   UNL A   1      42.332  27.781  30.539  1.00  0.00     0.031 A 
ATOM     45  C   UNL A   1      41.077  28.579  30.325  1.00  0.00     0.074 A 
ATOM     46  C   UNL A   1      42.956  27.758  31.725  1.00  0.00     0.049 A 
ATOM     47  N   UNL A   1      40.506  29.458  31.105  1.00  0.00    -0.248 NA
ATOM     48  C   UNL A   1      40.385  28.371  29.041  1.00  0.00     0.031 C 
ATOM     49  C   UNL A   1      44.147  26.975  32.040  1.00  0.00     0.029 A 
ATOM     50  N   UNL A   1      42.684  28.449  32.877  1.00  0.00    -0.354 N 
ATOM     51  C   UNL A   1      39.402  29.919  30.399  1.00  0.00     0.074 A 
ATOM     52  C   UNL A   1      39.398  29.251  29.118  1.00  0.00     0.031 C 
ATOM     53  C   UNL A   1      44.527  27.253  33.300  1.00  0.00     0.029 A 
ATOM     54  C   UNL A   1      43.633  28.270  33.852  1.00  0.00     0.049 A 
ATOM     55  H   UNL A   1      41.889  29.017  32.993  1.00  0.00     0.167 HD
ATOM     56  C   UNL A   1      38.475  30.821  30.796  1.00  0.00     0.037 A 
ATOM     57  C   UNL A   1      43.774  28.897  35.034  1.00  0.00     0.037 A 
ATOM     58  C   UNL A   1      38.504  31.481  32.073  1.00  0.00     0.049 A 
ATOM     59  C   UNL A   1      42.777  29.965  35.415  1.00  0.00     0.074 A 
ATOM     60  C   UNL A   1      37.626  32.419  32.582  1.00  0.00     0.029 A 
ATOM     61  N   UNL A   1      39.475  31.268  33.042  1.00  0.00    -0.354 N 
ATOM     62  N   UNL A   1      41.734  30.401  34.752  1.00  0.00    -0.248 NA
ATOM     63  C   UNL A   1      42.982  30.628  36.710  1.00  0.00     0.031 C 
ATOM     64  C   UNL A   1      38.094  32.810  33.841  1.00  0.00     0.029 A 
ATOM     65  C   UNL A   1      39.223  32.066  34.143  1.00  0.00     0.049 A 
ATOM     66  H   UNL A   1      40.231  30.643  32.957  1.00  0.00     0.167 HD
ATOM     67  C   UNL A   1      41.128  31.348  35.570  1.00  0.00     0.074 A 
ATOM     68  C   UNL A   1      41.925  31.424  36.776  1.00  0.00     0.031 C 
ATOM     69  C   UNL A   1      40.011  32.086  35.349  1.00  0.00     0.037 A 
BRANCH  56  70
ATOM     70  C   UNL A   1      37.371  31.157  29.836  1.00  0.00     0.064 A 
ATOM     71  C   UNL A   1      37.328  32.388  29.164  1.00  0.00     0.173 A 
ATOM     72  C   UNL A   1      36.361  30.223  29.557  1.00  0.00     0.173 A 
ATOM     73  F   UNL A   1      38.257  33.324  29.407  1.00  0.00    -0.203 F 
ATOM     74  C   UNL A   1      36.303  32.681  28.267  1.00  0.00     0.198 A 
ATOM     75  C   UNL A   1      35.357  30.506  28.634  1.00  0.00     0.198 A 
ATOM     76  F   UNL A   1      36.354  29.031  30.171  1.00  0.00    -0.203 F 
ATOM     77  F   UNL A   1      36.256  33.881  27.674  1.00  0.00    -0.200 F 
ATOM     78  C   UNL A   1      35.325  31.736  27.996  1.00  0.00     0.200 A 
ATOM     79  F   UNL A   1      34.421  29.586  28.364  1.00  0.00    -0.200 F 
ATOM     80  F   UNL A   1      34.347  32.014  27.122  1.00  0.00    -0.200 F 
ENDBRANCH  56  70
BRANCH  57  81
ATOM     81  C   UNL A   1      44.901  28.549  35.938  1.00  0.00     0.064 A 
ATOM     82  C   UNL A   1      44.742  27.580  36.939  1.00  0.00     0.173 A 
ATOM     83  C   UNL A   1      46.144  29.194  35.849  1.00  0.00     0.173 A 
ATOM     84  F   UNL A   1      43.567  26.947  37.075  1.00  0.00    -0.203 F 
ATOM     85  C   UNL A   1      45.766  27.296  37.838  1.00  0.00     0.198 A 
ATOM     86  C   UNL A   1      47.180  28.884  36.727  1.00  0.00     0.198 A 
ATOM     87  F   UNL A   1      46.354  30.124  34.905  1.00  0.00    -0.203 F 
ATOM     88  F   UNL A   1      45.564  26.411  38.823  1.00  0.00    -0.200 F 
ATOM     89  C   UNL A   1      46.986  27.946  37.729  1.00  0.00     0.200 A 
ATOM     90  F   UNL A   1      48.363  29.503  36.608  1.00  0.00    -0.200 F 
ATOM     91  F   UNL A   1      47.971  27.676  38.598  1.00  0.00    -0.200 F 
ENDBRANCH  57  81
BRANCH  69  92
ATOM     92  C   UNL A   1      39.528  32.969  36.464  1.00  0.00     0.064 A 
ATOM     93  C   UNL A   1      38.580  32.535  37.400  1.00  0.00     0.173 A 
ATOM     94  C   UNL A   1      40.084  34.247  36.631  1.00  0.00     0.173 A 
ATOM     95  F   UNL A   1      38.010  31.328  37.277  1.00  0.00    -0.203 F 
ATOM     96  C   UNL A   1      38.191  33.360  38.454  1.00  0.00     0.198 A 
ATOM     97  C   UNL A   1      39.718  35.052  37.705  1.00  0.00     0.198 A 
ATOM     98  F   UNL A   1      41.002  34.704  35.766  1.00  0.00    -0.203 F 
ATOM     99  F   UNL A   1      37.252  32.943  39.314  1.00  0.00    -0.200 F 
ATOM    100  C   UNL A   1      38.768  34.611  38.611  1.00  0.00     0.200 A 
ATOM    101  F   UNL A   1      40.293  36.252  37.865  1.00  0.00    -0.200 F 
ATOM    102  F   UNL A   1      38.406  35.394  39.637  1.00  0.00    -0.200 F 
ENDBRANCH  69  92
ENDBRANCH  43  44
ENDBRANCH  36  38
ENDBRANCH  35  36
ENDBRANCH  34  35
ENDBRANCH  33  34
ENDBRANCH  32  33
ENDBRANCH  31  32
ENDBRANCH  30  31
ENDBRANCH   1  30
TORSDOF 23
ENDMDL
