MODEL 1
REMARK VINA RESULT:      -9.5      0.000      0.000
REMARK SMILES O=C(Cc1ccn(C(F)F)c(=O)c1)OCCOCCOCCOCCOC(=O)c1ccc(-c2c3nc(c(-c4c(F)c(F)c(F)c(F)c4F)c4ccc([nH]4)c(-c4c(F)c(F)c(F)c(F)c4F)c4nc(c(-c5c(F)c(F)c(F)c(F)c5F)c5ccc2[nH]5)C=C4)C=C3)cc1
REMARK SMILES IDX 20 1 19 2 18 3 17 4 16 5 15 6 14 7 2 8 1 9 3 10 4 11 5 12
REMARK SMILES IDX 13 13 6 14 11 15 7 16 12 17 8 18 9 19 10 20 21 21 22 22
REMARK SMILES IDX 23 23 24 24 25 25 26 26 27 27 28 28 29 29 30 30 91 31 31 32
REMARK SMILES IDX 90 33 32 34 33 35 34 36 84 37 35 38 89 39 83 40 85 41 36 42
REMARK SMILES IDX 88 43 82 44 81 45 37 47 69 48 49 49 68 50 50 51 53 52 67 53
REMARK SMILES IDX 86 54 51 55 52 56 66 58 87 59 54 60 38 61 39 62 47 63 40 64
REMARK SMILES IDX 41 65 45 66 48 67 42 68 43 69 46 70 44 71 70 72 71 73 79 74
REMARK SMILES IDX 72 75 73 76 77 77 80 78 74 79 75 80 78 81 76 82 55 83 56 84
REMARK SMILES IDX 64 85 57 86 58 87 62 88 65 89 59 90 60 91 63 92 61 93
REMARK H PARENT 85 46 53 57
REMARK Flexibility Score: inf
ROOT
ATOM      1  O   UNL A   1      32.599  30.001  25.534  1.00  0.00    -0.377 OA
ENDROOT
BRANCH   1   2
ATOM      2  C   UNL A   1      32.324  28.898  24.674  1.00  0.00     0.188 C 
BRANCH   2   3
ATOM      3  C   UNL A   1      33.542  28.021  24.363  1.00  0.00     0.188 C 
BRANCH   3   4
ATOM      4  O   UNL A   1      33.389  26.663  24.753  1.00  0.00    -0.376 OA
BRANCH   4   5
ATOM      5  C   UNL A   1      32.209  26.171  25.352  1.00  0.00     0.202 C 
BRANCH   5   6
ATOM      6  C   UNL A   1      31.348  25.187  24.571  1.00  0.00     0.261 C 
BRANCH   6   7
ATOM      7  O   UNL A   1      30.675  24.141  25.305  1.00  0.00    -0.463 OA
BRANCH   7   8
ATOM      8  C   UNL A   1      31.132  23.328  26.277  1.00  0.00     0.310 C 
ATOM      9  O   UNL A   1      30.489  23.221  27.320  1.00  0.00    -0.252 OA
BRANCH   8  10
ATOM     10  C   UNL A   1      32.461  22.623  26.114  1.00  0.00     0.158 C 
BRANCH  10  11
ATOM     11  C   UNL A   1      32.532  21.390  25.266  1.00  0.00    -0.030 A 
ATOM     12  C   UNL A   1      32.376  21.430  23.830  1.00  0.00     0.023 A 
ATOM     13  C   UNL A   1      32.747  20.207  25.866  1.00  0.00     0.076 A 
ATOM     14  C   UNL A   1      32.473  20.305  23.110  1.00  0.00     0.095 A 
ATOM     15  C   UNL A   1      32.787  18.940  25.091  1.00  0.00     0.255 A 
ATOM     16  N   UNL A   1      32.680  19.080  23.717  1.00  0.00    -0.258 N 
ATOM     17  O   UNL A   1      32.905  17.888  25.707  1.00  0.00    -0.269 OA
BRANCH  16  18
ATOM     18  C   UNL A   1      32.582  17.874  22.937  1.00  0.00     0.451 C 
ATOM     19  F   UNL A   1      31.983  18.080  21.741  1.00  0.00    -0.185 F 
ATOM     20  F   UNL A   1      33.819  17.372  22.708  1.00  0.00    -0.185 F 
ENDBRANCH  16  18
ENDBRANCH  10  11
ENDBRANCH   8  10
ENDBRANCH   7   8
ENDBRANCH   6   7
ENDBRANCH   5   6
ENDBRANCH   4   5
ENDBRANCH   3   4
ENDBRANCH   2   3
ENDBRANCH   1   2
BRANCH   1  21
ATOM     21  C   UNL A   1      33.289  29.660  26.724  1.00  0.00     0.188 C 
BRANCH  21  22
ATOM     22  C   UNL A   1      34.225  30.741  27.315  1.00  0.00     0.188 C 
BRANCH  22  23
ATOM     23  O   UNL A   1      33.729  31.898  27.971  1.00  0.00    -0.376 OA
BRANCH  23  24
ATOM     24  C   UNL A   1      33.006  32.883  27.249  1.00  0.00     0.202 C 
BRANCH  24  25
ATOM     25  C   UNL A   1      32.169  33.920  28.009  1.00  0.00     0.261 C 
BRANCH  25  26
ATOM     26  O   UNL A   1      32.789  35.207  28.145  1.00  0.00    -0.460 OA
BRANCH  26  27
ATOM     27  C   UNL A   1      33.116  35.578  29.409  1.00  0.00     0.338 C 
ATOM     28  O   UNL A   1      32.526  36.347  30.132  1.00  0.00    -0.246 OA
BRANCH  27  29
ATOM     29  C   UNL A   1      34.220  34.702  29.870  1.00  0.00     0.060 A 
ATOM     30  C   UNL A   1      35.454  34.685  29.219  1.00  0.00     0.016 A 
ATOM     31  C   UNL A   1      33.968  33.828  30.939  1.00  0.00     0.016 A 
ATOM     32  C   UNL A   1      36.451  33.810  29.659  1.00  0.00     0.010 A 
ATOM     33  C   UNL A   1      34.951  32.930  31.355  1.00  0.00     0.010 A 
ATOM     34  C   UNL A   1      36.208  32.939  30.736  1.00  0.00    -0.014 A 
BRANCH  34  35
ATOM     35  C   UNL A   1      37.338  32.221  31.369  1.00  0.00     0.031 A 
ATOM     36  C   UNL A   1      38.051  31.088  30.708  1.00  0.00     0.074 A 
ATOM     37  C   UNL A   1      37.704  32.633  32.595  1.00  0.00     0.049 A 
ATOM     38  N   UNL A   1      39.112  30.437  31.116  1.00  0.00    -0.248 NA
ATOM     39  C   UNL A   1      37.504  30.616  29.431  1.00  0.00     0.031 C 
ATOM     40  C   UNL A   1      37.056  33.716  33.336  1.00  0.00     0.029 A 
ATOM     41  N   UNL A   1      38.706  32.205  33.425  1.00  0.00    -0.354 N 
ATOM     42  C   UNL A   1      39.387  29.501  30.132  1.00  0.00     0.074 A 
ATOM     43  C   UNL A   1      38.343  29.629  29.133  1.00  0.00     0.031 C 
ATOM     44  C   UNL A   1      37.696  33.891  34.500  1.00  0.00     0.029 A 
ATOM     45  C   UNL A   1      38.784  32.923  34.591  1.00  0.00     0.049 A 
ATOM     46  H   UNL A   1      39.309  31.459  33.207  1.00  0.00     0.167 HD
ATOM     47  C   UNL A   1      40.427  28.632  30.068  1.00  0.00     0.037 A 
ATOM     48  C   UNL A   1      39.649  32.825  35.617  1.00  0.00     0.037 A 
ATOM     49  C   UNL A   1      41.435  28.489  31.093  1.00  0.00     0.049 A 
ATOM     50  C   UNL A   1      40.754  31.815  35.547  1.00  0.00     0.074 A 
ATOM     51  C   UNL A   1      42.538  27.651  31.111  1.00  0.00     0.029 A 
ATOM     52  N   UNL A   1      41.453  29.189  32.294  1.00  0.00    -0.354 N 
ATOM     53  N   UNL A   1      41.047  30.976  34.585  1.00  0.00    -0.248 NA
ATOM     54  C   UNL A   1      41.654  31.747  36.705  1.00  0.00     0.031 C 
ATOM     55  C   UNL A   1      43.190  27.804  32.341  1.00  0.00     0.029 A 
ATOM     56  C   UNL A   1      42.528  28.779  33.071  1.00  0.00     0.049 A 
ATOM     57  H   UNL A   1      40.798  29.876  32.556  1.00  0.00     0.167 HD
ATOM     58  C   UNL A   1      42.173  30.287  35.010  1.00  0.00     0.074 A 
ATOM     59  C   UNL A   1      42.522  30.825  36.311  1.00  0.00     0.031 C 
ATOM     60  C   UNL A   1      42.853  29.299  34.377  1.00  0.00     0.037 A 
BRANCH  47  61
ATOM     61  C   UNL A   1      40.531  27.765  28.844  1.00  0.00     0.064 A 
ATOM     62  C   UNL A   1      39.818  26.560  28.740  1.00  0.00     0.173 A 
ATOM     63  C   UNL A   1      41.309  28.159  27.745  1.00  0.00     0.173 A 
ATOM     64  F   UNL A   1      39.064  26.132  29.764  1.00  0.00    -0.203 F 
ATOM     65  C   UNL A   1      39.905  25.769  27.597  1.00  0.00     0.198 A 
ATOM     66  C   UNL A   1      41.370  27.381  26.591  1.00  0.00     0.198 A 
ATOM     67  F   UNL A   1      42.004  29.306  27.784  1.00  0.00    -0.203 F 
ATOM     68  F   UNL A   1      39.254  24.599  27.542  1.00  0.00    -0.200 F 
ATOM     69  C   UNL A   1      40.675  26.183  26.522  1.00  0.00     0.200 A 
ATOM     70  F   UNL A   1      42.105  27.788  25.547  1.00  0.00    -0.200 F 
ATOM     71  F   UNL A   1      40.756  25.422  25.421  1.00  0.00    -0.200 F 
ENDBRANCH  47  61
BRANCH  48  72
ATOM     72  C   UNL A   1      39.523  33.772  36.749  1.00  0.00     0.064 A 
ATOM     73  C   UNL A   1      38.797  33.419  37.893  1.00  0.00     0.173 A 
ATOM     74  C   UNL A   1      40.196  35.003  36.750  1.00  0.00     0.173 A 
ATOM     75  F   UNL A   1      38.131  32.255  37.931  1.00  0.00    -0.203 F 
ATOM     76  C   UNL A   1      38.752  34.261  39.001  1.00  0.00     0.198 A 
ATOM     77  C   UNL A   1      40.169  35.832  37.868  1.00  0.00     0.198 A 
ATOM     78  F   UNL A   1      40.915  35.375  35.681  1.00  0.00    -0.203 F 
ATOM     79  F   UNL A   1      38.040  33.906  40.080  1.00  0.00    -0.200 F 
ATOM     80  C   UNL A   1      39.447  35.461  38.992  1.00  0.00     0.200 A 
ATOM     81  F   UNL A   1      40.859  36.981  37.863  1.00  0.00    -0.200 F 
ATOM     82  F   UNL A   1      39.424  36.258  40.068  1.00  0.00    -0.200 F 
ENDBRANCH  48  72
BRANCH  60  83
ATOM     83  C   UNL A   1      44.046  28.727  35.093  1.00  0.00     0.064 A 
ATOM     84  C   UNL A   1      43.930  27.608  35.932  1.00  0.00     0.173 A 
ATOM     85  C   UNL A   1      45.320  29.290  34.924  1.00  0.00     0.173 A 
ATOM     86  F   UNL A   1      42.732  27.043  36.141  1.00  0.00    -0.203 F 
ATOM     87  C   UNL A   1      45.040  27.092  36.597  1.00  0.00     0.198 A 
ATOM     88  C   UNL A   1      46.433  28.751  35.565  1.00  0.00     0.198 A 
ATOM     89  F   UNL A   1      45.488  30.358  34.130  1.00  0.00    -0.203 F 
ATOM     90  F   UNL A   1      44.895  26.056  37.435  1.00  0.00    -0.200 F 
ATOM     91  C   UNL A   1      46.291  27.660  36.407  1.00  0.00     0.200 A 
ATOM     92  F   UNL A   1      47.644  29.293  35.371  1.00  0.00    -0.200 F 
ATOM     93  F   UNL A   1      47.359  27.159  37.044  1.00  0.00    -0.200 F 
ENDBRANCH  60  83
ENDBRANCH  34  35
ENDBRANCH  27  29
ENDBRANCH  26  27
ENDBRANCH  25  26
ENDBRANCH  24  25
ENDBRANCH  23  24
ENDBRANCH  22  23
ENDBRANCH  21  22
ENDBRANCH   1  21
TORSDOF 22
ENDMDL
MODEL 2
REMARK VINA RESULT:      -9.5      1.640      7.623
REMARK SMILES O=C(Cc1ccn(C(F)F)c(=O)c1)OCCOCCOCCOCCOC(=O)c1ccc(-c2c3nc(c(-c4c(F)c(F)c(F)c(F)c4F)c4ccc([nH]4)c(-c4c(F)c(F)c(F)c(F)c4F)c4nc(c(-c5c(F)c(F)c(F)c(F)c5F)c5ccc2[nH]5)C=C4)C=C3)cc1
REMARK SMILES IDX 20 1 19 2 18 3 17 4 16 5 15 6 14 7 2 8 1 9 3 10 4 11 5 12
REMARK SMILES IDX 13 13 6 14 11 15 7 16 12 17 8 18 9 19 10 20 21 21 22 22
REMARK SMILES IDX 23 23 24 24 25 25 26 26 27 27 28 28 29 29 30 30 91 31 31 32
REMARK SMILES IDX 90 33 32 34 33 35 34 36 84 37 35 38 89 39 83 40 85 41 36 42
REMARK SMILES IDX 88 43 82 44 81 45 37 47 69 48 49 49 68 50 50 51 53 52 67 53
REMARK SMILES IDX 86 54 51 55 52 56 66 58 87 59 54 60 38 61 39 62 47 63 40 64
REMARK SMILES IDX 41 65 45 66 48 67 42 68 43 69 46 70 44 71 70 72 71 73 79 74
REMARK SMILES IDX 72 75 73 76 77 77 80 78 74 79 75 80 78 81 76 82 55 83 56 84
REMARK SMILES IDX 64 85 57 86 58 87 62 88 65 89 59 90 60 91 63 92 61 93
REMARK H PARENT 85 46 53 57
REMARK Flexibility Score: inf
ROOT
ATOM      1  O   UNL A   1      31.769  29.841  25.961  1.00  0.00    -0.377 OA
ENDROOT
BRANCH   1   2
ATOM      2  C   UNL A   1      31.528  28.700  25.142  1.00  0.00     0.188 C 
BRANCH   2   3
ATOM      3  C   UNL A   1      32.798  27.969  24.690  1.00  0.00     0.188 C 
BRANCH   3   4
ATOM      4  O   UNL A   1      32.762  26.565  24.906  1.00  0.00    -0.376 OA
BRANCH   4   5
ATOM      5  C   UNL A   1      31.876  25.958  25.823  1.00  0.00     0.202 C 
BRANCH   5   6
ATOM      6  C   UNL A   1      30.637  25.253  25.287  1.00  0.00     0.261 C 
BRANCH   6   7
ATOM      7  O   UNL A   1      30.273  23.982  25.867  1.00  0.00    -0.463 OA
BRANCH   7   8
ATOM      8  C   UNL A   1      31.046  23.014  26.396  1.00  0.00     0.310 C 
ATOM      9  O   UNL A   1      31.262  23.014  27.607  1.00  0.00    -0.252 OA
BRANCH   8  10
ATOM     10  C   UNL A   1      31.703  21.991  25.495  1.00  0.00     0.158 C 
BRANCH  10  11
ATOM     11  C   UNL A   1      33.179  22.077  25.251  1.00  0.00    -0.030 A 
ATOM     12  C   UNL A   1      34.151  21.613  26.215  1.00  0.00     0.023 A 
ATOM     13  C   UNL A   1      33.610  22.607  24.094  1.00  0.00     0.076 A 
ATOM     14  C   UNL A   1      35.459  21.688  25.942  1.00  0.00     0.095 A 
ATOM     15  C   UNL A   1      35.059  22.762  23.804  1.00  0.00     0.255 A 
ATOM     16  N   UNL A   1      35.915  22.244  24.761  1.00  0.00    -0.258 N 
ATOM     17  O   UNL A   1      35.385  23.327  22.767  1.00  0.00    -0.269 OA
BRANCH  16  18
ATOM     18  C   UNL A   1      37.324  22.486  24.587  1.00  0.00     0.451 C 
ATOM     19  F   UNL A   1      37.742  23.594  25.242  1.00  0.00    -0.185 F 
ATOM     20  F   UNL A   1      38.034  21.429  25.051  1.00  0.00    -0.185 F 
ENDBRANCH  16  18
ENDBRANCH  10  11
ENDBRANCH   8  10
ENDBRANCH   7   8
ENDBRANCH   6   7
ENDBRANCH   5   6
ENDBRANCH   4   5
ENDBRANCH   3   4
ENDBRANCH   2   3
ENDBRANCH   1   2
BRANCH   1  21
ATOM     21  C   UNL A   1      32.547  29.580  27.117  1.00  0.00     0.188 C 
BRANCH  21  22
ATOM     22  C   UNL A   1      33.819  30.441  27.304  1.00  0.00     0.188 C 
BRANCH  22  23
ATOM     23  O   UNL A   1      33.772  31.762  27.821  1.00  0.00    -0.376 OA
BRANCH  23  24
ATOM     24  C   UNL A   1      33.031  32.772  27.155  1.00  0.00     0.202 C 
BRANCH  24  25
ATOM     25  C   UNL A   1      32.151  33.730  27.968  1.00  0.00     0.261 C 
BRANCH  25  26
ATOM     26  O   UNL A   1      32.725  35.024  28.196  1.00  0.00    -0.460 OA
BRANCH  26  27
ATOM     27  C   UNL A   1      33.009  35.330  29.488  1.00  0.00     0.338 C 
ATOM     28  O   UNL A   1      32.344  35.983  30.259  1.00  0.00    -0.246 OA
BRANCH  27  29
ATOM     29  C   UNL A   1      34.190  34.532  29.897  1.00  0.00     0.060 A 
ATOM     30  C   UNL A   1      35.409  34.642  29.227  1.00  0.00     0.016 A 
ATOM     31  C   UNL A   1      34.031  33.598  30.934  1.00  0.00     0.016 A 
ATOM     32  C   UNL A   1      36.482  33.836  29.616  1.00  0.00     0.010 A 
ATOM     33  C   UNL A   1      35.091  32.770  31.298  1.00  0.00     0.010 A 
ATOM     34  C   UNL A   1      36.332  32.907  30.661  1.00  0.00    -0.014 A 
BRANCH  34  35
ATOM     35  C   UNL A   1      37.529  32.262  31.247  1.00  0.00     0.031 A 
ATOM     36  C   UNL A   1      38.049  32.598  32.605  1.00  0.00     0.074 A 
ATOM     37  C   UNL A   1      38.152  31.343  30.488  1.00  0.00     0.049 A 
ATOM     38  N   UNL A   1      39.032  32.041  33.268  1.00  0.00    -0.248 NA
ATOM     39  C   UNL A   1      37.392  33.704  33.312  1.00  0.00     0.031 C 
ATOM     40  C   UNL A   1      37.736  30.960  29.138  1.00  0.00     0.029 A 
ATOM     41  N   UNL A   1      39.247  30.562  30.741  1.00  0.00    -0.354 N 
ATOM     42  C   UNL A   1      39.093  32.700  34.485  1.00  0.00     0.074 A 
ATOM     43  C   UNL A   1      38.084  33.741  34.445  1.00  0.00     0.031 C 
ATOM     44  C   UNL A   1      38.547  29.992  28.690  1.00  0.00     0.029 A 
ATOM     45  C   UNL A   1      39.546  29.703  29.714  1.00  0.00     0.049 A 
ATOM     46  H   UNL A   1      39.768  30.611  31.575  1.00  0.00     0.167 HD
ATOM     47  C   UNL A   1      39.907  32.441  35.539  1.00  0.00     0.037 A 
ATOM     48  C   UNL A   1      40.510  28.770  29.612  1.00  0.00     0.037 A 
ATOM     49  C   UNL A   1      40.936  31.427  35.546  1.00  0.00     0.049 A 
ATOM     50  C   UNL A   1      41.434  28.545  30.770  1.00  0.00     0.074 A 
ATOM     51  C   UNL A   1      41.798  31.075  36.572  1.00  0.00     0.029 A 
ATOM     52  N   UNL A   1      41.256  30.612  34.467  1.00  0.00    -0.354 N 
ATOM     53  N   UNL A   1      41.446  29.128  31.943  1.00  0.00    -0.248 NA
ATOM     54  C   UNL A   1      42.474  27.525  30.591  1.00  0.00     0.031 C 
ATOM     55  C   UNL A   1      42.672  30.091  36.098  1.00  0.00     0.029 A 
ATOM     56  C   UNL A   1      42.322  29.783  34.792  1.00  0.00     0.049 A 
ATOM     57  H   UNL A   1      40.794  30.621  33.598  1.00  0.00     0.167 HD
ATOM     58  C   UNL A   1      42.482  28.538  32.651  1.00  0.00     0.074 A 
ATOM     59  C   UNL A   1      43.062  27.534  31.779  1.00  0.00     0.031 C 
ATOM     60  C   UNL A   1      42.912  28.806  33.909  1.00  0.00     0.037 A 
BRANCH  47  61
ATOM     61  C   UNL A   1      39.717  33.268  36.781  1.00  0.00     0.064 A 
ATOM     62  C   UNL A   1      40.504  34.405  37.028  1.00  0.00     0.173 A 
ATOM     63  C   UNL A   1      38.713  32.955  37.709  1.00  0.00     0.173 A 
ATOM     64  F   UNL A   1      41.483  34.746  36.175  1.00  0.00    -0.203 F 
ATOM     65  C   UNL A   1      40.313  35.177  38.171  1.00  0.00     0.198 A 
ATOM     66  C   UNL A   1      38.505  33.748  38.836  1.00  0.00     0.198 A 
ATOM     67  F   UNL A   1      37.925  31.887  37.520  1.00  0.00    -0.203 F 
ATOM     68  F   UNL A   1      41.109  36.229  38.408  1.00  0.00    -0.200 F 
ATOM     69  C   UNL A   1      39.310  34.852  39.071  1.00  0.00     0.200 A 
ATOM     70  F   UNL A   1      37.526  33.439  39.699  1.00  0.00    -0.200 F 
ATOM     71  F   UNL A   1      39.125  35.597  40.169  1.00  0.00    -0.200 F 
ENDBRANCH  47  61
BRANCH  48  72
ATOM     72  C   UNL A   1      40.577  27.944  28.384  1.00  0.00     0.064 A 
ATOM     73  C   UNL A   1      41.325  28.370  27.281  1.00  0.00     0.173 A 
ATOM     74  C   UNL A   1      39.974  26.679  28.322  1.00  0.00     0.173 A 
ATOM     75  F   UNL A   1      41.911  29.577  27.295  1.00  0.00    -0.203 F 
ATOM     76  C   UNL A   1      41.474  27.560  26.159  1.00  0.00     0.198 A 
ATOM     77  C   UNL A   1      40.143  25.859  27.209  1.00  0.00     0.198 A 
ATOM     78  F   UNL A   1      39.259  26.224  29.362  1.00  0.00    -0.203 F 
ATOM     79  F   UNL A   1      42.185  27.995  25.110  1.00  0.00    -0.200 F 
ATOM     80  C   UNL A   1      40.892  26.301  26.128  1.00  0.00     0.200 A 
ATOM     81  F   UNL A   1      39.598  24.635  27.192  1.00  0.00    -0.200 F 
ATOM     82  F   UNL A   1      41.058  25.511  25.059  1.00  0.00    -0.200 F 
ENDBRANCH  48  72
BRANCH  60  83
ATOM     83  C   UNL A   1      44.078  28.003  34.416  1.00  0.00     0.064 A 
ATOM     84  C   UNL A   1      45.397  28.468  34.296  1.00  0.00     0.173 A 
ATOM     85  C   UNL A   1      43.875  26.766  35.046  1.00  0.00     0.173 A 
ATOM     86  F   UNL A   1      45.647  29.636  33.686  1.00  0.00    -0.203 F 
ATOM     87  C   UNL A   1      46.470  27.712  34.762  1.00  0.00     0.198 A 
ATOM     88  C   UNL A   1      44.948  26.027  35.540  1.00  0.00     0.198 A 
ATOM     89  F   UNL A   1      42.635  26.276  35.192  1.00  0.00    -0.203 F 
ATOM     90  F   UNL A   1      47.723  28.152  34.586  1.00  0.00    -0.200 F 
ATOM     91  C   UNL A   1      46.244  26.496  35.389  1.00  0.00     0.200 A 
ATOM     92  F   UNL A   1      44.727  24.859  36.158  1.00  0.00    -0.200 F 
ATOM     93  F   UNL A   1      47.277  25.771  35.840  1.00  0.00    -0.200 F 
ENDBRANCH  60  83
ENDBRANCH  34  35
ENDBRANCH  27  29
ENDBRANCH  26  27
ENDBRANCH  25  26
ENDBRANCH  24  25
ENDBRANCH  23  24
ENDBRANCH  22  23
ENDBRANCH  21  22
ENDBRANCH   1  21
TORSDOF 22
ENDMDL
MODEL 3
REMARK VINA RESULT:      -9.4      1.420      7.468
REMARK SMILES O=C(Cc1ccn(C(F)F)c(=O)c1)OCCOCCOCCOCCOC(=O)c1ccc(-c2c3nc(c(-c4c(F)c(F)c(F)c(F)c4F)c4ccc([nH]4)c(-c4c(F)c(F)c(F)c(F)c4F)c4nc(c(-c5c(F)c(F)c(F)c(F)c5F)c5ccc2[nH]5)C=C4)C=C3)cc1
REMARK SMILES IDX 20 1 19 2 18 3 17 4 16 5 15 6 14 7 2 8 1 9 3 10 4 11 5 12
REMARK SMILES IDX 13 13 6 14 11 15 7 16 12 17 8 18 9 19 10 20 21 21 22 22
REMARK SMILES IDX 23 23 24 24 25 25 26 26 27 27 28 28 29 29 30 30 91 31 31 32
REMARK SMILES IDX 90 33 32 34 33 35 34 36 84 37 35 38 89 39 83 40 85 41 36 42
REMARK SMILES IDX 88 43 82 44 81 45 37 47 69 48 49 49 68 50 50 51 53 52 67 53
REMARK SMILES IDX 86 54 51 55 52 56 66 58 87 59 54 60 38 61 39 62 47 63 40 64
REMARK SMILES IDX 41 65 45 66 48 67 42 68 43 69 46 70 44 71 70 72 71 73 79 74
REMARK SMILES IDX 72 75 73 76 77 77 80 78 74 79 75 80 78 81 76 82 55 83 56 84
REMARK SMILES IDX 64 85 57 86 58 87 62 88 65 89 59 90 60 91 63 92 61 93
REMARK H PARENT 85 46 53 57
REMARK Flexibility Score: inf
ROOT
ATOM      1  O   UNL A   1      31.547  29.719  25.122  1.00  0.00    -0.377 OA
ENDROOT
BRANCH   1   2
ATOM      2  C   UNL A   1      31.221  28.905  23.998  1.00  0.00     0.188 C 
BRANCH   2   3
ATOM      3  C   UNL A   1      32.370  28.714  23.002  1.00  0.00     0.188 C 
BRANCH   3   4
ATOM      4  O   UNL A   1      32.457  27.400  22.469  1.00  0.00    -0.376 OA
BRANCH   4   5
ATOM      5  C   UNL A   1      32.285  26.243  23.261  1.00  0.00     0.202 C 
BRANCH   5   6
ATOM      6  C   UNL A   1      31.249  25.212  22.834  1.00  0.00     0.261 C 
BRANCH   6   7
ATOM      7  O   UNL A   1      31.641  23.822  22.811  1.00  0.00    -0.463 OA
BRANCH   7   8
ATOM      8  C   UNL A   1      32.766  23.229  23.253  1.00  0.00     0.310 C 
ATOM      9  O   UNL A   1      33.811  23.382  22.622  1.00  0.00    -0.252 OA
BRANCH   8  10
ATOM     10  C   UNL A   1      32.721  22.321  24.463  1.00  0.00     0.158 C 
BRANCH  10  11
ATOM     11  C   UNL A   1      33.109  20.882  24.308  1.00  0.00    -0.030 A 
ATOM     12  C   UNL A   1      34.294  20.330  24.923  1.00  0.00     0.023 A 
ATOM     13  C   UNL A   1      32.324  20.080  23.568  1.00  0.00     0.076 A 
ATOM     14  C   UNL A   1      34.587  19.032  24.778  1.00  0.00     0.095 A 
ATOM     15  C   UNL A   1      32.672  18.654  23.337  1.00  0.00     0.255 A 
ATOM     16  N   UNL A   1      33.795  18.200  24.007  1.00  0.00    -0.258 N 
ATOM     17  O   UNL A   1      31.959  17.998  22.587  1.00  0.00    -0.269 OA
BRANCH  16  18
ATOM     18  C   UNL A   1      34.245  16.864  23.713  1.00  0.00     0.451 C 
ATOM     19  F   UNL A   1      33.380  15.920  24.150  1.00  0.00    -0.185 F 
ATOM     20  F   UNL A   1      34.394  16.713  22.375  1.00  0.00    -0.185 F 
ENDBRANCH  16  18
ENDBRANCH  10  11
ENDBRANCH   8  10
ENDBRANCH   7   8
ENDBRANCH   6   7
ENDBRANCH   5   6
ENDBRANCH   4   5
ENDBRANCH   3   4
ENDBRANCH   2   3
ENDBRANCH   1   2
BRANCH   1  21
ATOM     21  C   UNL A   1      31.691  29.008  26.340  1.00  0.00     0.188 C 
BRANCH  21  22
ATOM     22  C   UNL A   1      33.005  29.240  27.124  1.00  0.00     0.188 C 
BRANCH  22  23
ATOM     23  O   UNL A   1      33.388  30.521  27.601  1.00  0.00    -0.376 OA
BRANCH  23  24
ATOM     24  C   UNL A   1      33.043  31.692  26.879  1.00  0.00     0.202 C 
BRANCH  24  25
ATOM     25  C   UNL A   1      32.356  32.857  27.604  1.00  0.00     0.261 C 
BRANCH  25  26
ATOM     26  O   UNL A   1      33.157  34.040  27.731  1.00  0.00    -0.460 OA
BRANCH  26  27
ATOM     27  C   UNL A   1      33.423  34.445  28.999  1.00  0.00     0.338 C 
ATOM     28  O   UNL A   1      32.724  35.111  29.727  1.00  0.00    -0.246 OA
BRANCH  27  29
ATOM     29  C   UNL A   1      34.645  33.739  29.456  1.00  0.00     0.060 A 
ATOM     30  C   UNL A   1      35.916  34.147  29.048  1.00  0.00     0.016 A 
ATOM     31  C   UNL A   1      34.488  32.594  30.254  1.00  0.00     0.016 A 
ATOM     32  C   UNL A   1      37.036  33.423  29.465  1.00  0.00     0.010 A 
ATOM     33  C   UNL A   1      35.603  31.853  30.640  1.00  0.00     0.010 A 
ATOM     34  C   UNL A   1      36.885  32.282  30.273  1.00  0.00    -0.014 A 
BRANCH  34  35
ATOM     35  C   UNL A   1      38.071  31.689  30.933  1.00  0.00     0.031 A 
ATOM     36  C   UNL A   1      38.500  32.058  32.314  1.00  0.00     0.074 A 
ATOM     37  C   UNL A   1      38.770  30.788  30.221  1.00  0.00     0.049 A 
ATOM     38  N   UNL A   1      39.465  31.545  33.037  1.00  0.00    -0.248 NA
ATOM     39  C   UNL A   1      37.763  33.144  32.970  1.00  0.00     0.031 C 
ATOM     40  C   UNL A   1      38.446  30.377  28.854  1.00  0.00     0.029 A 
ATOM     41  N   UNL A   1      39.878  30.052  30.543  1.00  0.00    -0.354 N 
ATOM     42  C   UNL A   1      39.432  32.217  34.249  1.00  0.00     0.074 A 
ATOM     43  C   UNL A   1      38.387  33.218  34.140  1.00  0.00     0.031 C 
ATOM     44  C   UNL A   1      39.318  29.437  28.463  1.00  0.00     0.029 A 
ATOM     45  C   UNL A   1      40.268  29.196  29.544  1.00  0.00     0.049 A 
ATOM     46  H   UNL A   1      40.349  30.129  31.404  1.00  0.00     0.167 HD
ATOM     47  C   UNL A   1      40.194  32.000  35.349  1.00  0.00     0.037 A 
ATOM     48  C   UNL A   1      41.270  28.300  29.508  1.00  0.00     0.037 A 
ATOM     49  C   UNL A   1      41.259  31.026  35.426  1.00  0.00     0.049 A 
ATOM     50  C   UNL A   1      42.136  28.122  30.718  1.00  0.00     0.074 A 
ATOM     51  C   UNL A   1      42.074  30.717  36.503  1.00  0.00     0.029 A 
ATOM     52  N   UNL A   1      41.670  30.214  34.376  1.00  0.00    -0.354 N 
ATOM     53  N   UNL A   1      42.059  28.715  31.884  1.00  0.00    -0.248 NA
ATOM     54  C   UNL A   1      43.222  27.141  30.609  1.00  0.00     0.031 C 
ATOM     55  C   UNL A   1      43.010  29.763  36.089  1.00  0.00     0.029 A 
ATOM     56  C   UNL A   1      42.747  29.430  34.770  1.00  0.00     0.049 A 
ATOM     57  H   UNL A   1      41.258  30.197  33.482  1.00  0.00     0.167 HD
ATOM     58  C   UNL A   1      43.075  28.173  32.655  1.00  0.00     0.074 A 
ATOM     59  C   UNL A   1      43.741  27.184  31.829  1.00  0.00     0.031 C 
ATOM     60  C   UNL A   1      43.422  28.469  33.932  1.00  0.00     0.037 A 
BRANCH  47  61
ATOM     61  C   UNL A   1      39.903  32.830  36.569  1.00  0.00     0.064 A 
ATOM     62  C   UNL A   1      40.618  34.009  36.837  1.00  0.00     0.173 A 
ATOM     63  C   UNL A   1      38.873  32.477  37.453  1.00  0.00     0.173 A 
ATOM     64  F   UNL A   1      41.618  34.390  36.027  1.00  0.00    -0.203 F 
ATOM     65  C   UNL A   1      40.333  34.784  37.959  1.00  0.00     0.198 A 
ATOM     66  C   UNL A   1      38.570  33.270  38.558  1.00  0.00     0.198 A 
ATOM     67  F   UNL A   1      38.150  31.367  37.242  1.00  0.00    -0.203 F 
ATOM     68  F   UNL A   1      41.062  35.877  38.219  1.00  0.00    -0.200 F 
ATOM     69  C   UNL A   1      39.305  34.417  38.814  1.00  0.00     0.200 A 
ATOM     70  F   UNL A   1      37.568  32.922  39.378  1.00  0.00    -0.200 F 
ATOM     71  F   UNL A   1      39.030  35.165  39.892  1.00  0.00    -0.200 F 
ENDBRANCH  47  61
BRANCH  48  72
ATOM     72  C   UNL A   1      41.438  27.466  28.295  1.00  0.00     0.064 A 
ATOM     73  C   UNL A   1      42.390  27.805  27.326  1.00  0.00     0.173 A 
ATOM     74  C   UNL A   1      40.721  26.273  28.125  1.00  0.00     0.173 A 
ATOM     75  F   UNL A   1      43.092  28.942  27.445  1.00  0.00    -0.203 F 
ATOM     76  C   UNL A   1      42.623  26.977  26.231  1.00  0.00     0.198 A 
ATOM     77  C   UNL A   1      40.972  25.435  27.042  1.00  0.00     0.198 A 
ATOM     78  F   UNL A   1      39.809  25.902  29.036  1.00  0.00    -0.203 F 
ATOM     79  F   UNL A   1      43.530  27.329  25.310  1.00  0.00    -0.200 F 
ATOM     80  C   UNL A   1      41.922  25.788  26.095  1.00  0.00     0.200 A 
ATOM     81  F   UNL A   1      40.308  24.276  26.926  1.00  0.00    -0.200 F 
ATOM     82  F   UNL A   1      42.166  24.980  25.055  1.00  0.00    -0.200 F 
ENDBRANCH  48  72
BRANCH  60  83
ATOM     83  C   UNL A   1      44.588  27.716  34.513  1.00  0.00     0.064 A 
ATOM     84  C   UNL A   1      44.433  26.432  35.059  1.00  0.00     0.173 A 
ATOM     85  C   UNL A   1      45.875  28.273  34.506  1.00  0.00     0.173 A 
ATOM     86  F   UNL A   1      43.220  25.861  35.106  1.00  0.00    -0.203 F 
ATOM     87  C   UNL A   1      45.518  25.748  35.602  1.00  0.00     0.198 A 
ATOM     88  C   UNL A   1      46.964  27.572  35.020  1.00  0.00     0.198 A 
ATOM     89  F   UNL A   1      46.081  29.495  33.992  1.00  0.00    -0.203 F 
ATOM     90  F   UNL A   1      45.334  24.546  36.167  1.00  0.00    -0.200 F 
ATOM     91  C   UNL A   1      46.782  26.315  35.576  1.00  0.00     0.200 A 
ATOM     92  F   UNL A   1      48.188  28.116  34.982  1.00  0.00    -0.200 F 
ATOM     93  F   UNL A   1      47.826  25.653  36.094  1.00  0.00    -0.200 F 
ENDBRANCH  60  83
ENDBRANCH  34  35
ENDBRANCH  27  29
ENDBRANCH  26  27
ENDBRANCH  25  26
ENDBRANCH  24  25
ENDBRANCH  23  24
ENDBRANCH  22  23
ENDBRANCH  21  22
ENDBRANCH   1  21
TORSDOF 22
ENDMDL
