MODEL 1
REMARK VINA RESULT:      -9.8      0.000      0.000
REMARK SMILES CNC(=O)C[N@@H+](C)CCn1cc(C(=O)OCCOCCOCCOCCOC(=O)c2ccc(-c3c4nc(c(-c5c(F)c(F)c(F)c(F)c5F)c5ccc([nH]5)c(-c5c(F)c(F)c(F)c(F)c5F)c5nc(c(-c6c(F)c(F)c(F)c(F)c6F)c6ccc3[nH]6)C=C5)C=C4)cc2)nn1
REMARK SMILES IDX 19 1 18 2 17 3 16 4 15 5 13 6 14 7 12 8 10 9 11 10 94 11
REMARK SMILES IDX 93 12 9 13 8 14 6 15 7 16 5 18 3 19 1 20 2 21 4 23 20 24
REMARK SMILES IDX 21 25 22 26 23 27 24 28 25 29 26 30 27 31 28 32 29 33 30 34
REMARK SMILES IDX 31 35 92 36 32 37 91 38 33 39 34 40 35 41 85 42 36 43 90 44
REMARK SMILES IDX 84 45 86 46 37 47 89 48 83 49 82 50 38 52 70 53 50 54 69 55
REMARK SMILES IDX 51 56 54 57 68 58 87 59 52 60 53 61 67 63 88 64 55 65 39 66
REMARK SMILES IDX 40 67 48 68 41 69 42 70 46 71 49 72 43 73 44 74 47 75 45 76
REMARK SMILES IDX 71 77 72 78 80 79 73 80 74 81 78 82 81 83 75 84 76 85 79 86
REMARK SMILES IDX 77 87 56 88 57 89 65 90 58 91 59 92 63 93 66 94 60 95 61 96
REMARK SMILES IDX 64 97 62 98
REMARK H PARENT 6 17 2 22 86 51 54 62
REMARK Flexibility Score: inf
ROOT
ATOM      1  C   UNL A   1      40.310  21.816  26.375  1.00  0.00     0.188 C 
ENDROOT
BRANCH   1   2
ATOM      2  O   UNL A   1      39.288  22.782  26.534  1.00  0.00    -0.376 OA
BRANCH   2   3
ATOM      3  C   UNL A   1      38.004  22.699  25.943  1.00  0.00     0.202 C 
BRANCH   3   4
ATOM      4  C   UNL A   1      37.539  21.655  24.916  1.00  0.00     0.261 C 
BRANCH   4   5
ATOM      5  O   UNL A   1      36.578  22.083  23.965  1.00  0.00    -0.458 OA
BRANCH   5   6
ATOM      6  C   UNL A   1      35.285  22.026  24.377  1.00  0.00     0.360 C 
ATOM      7  O   UNL A   1      34.904  21.467  25.408  1.00  0.00    -0.244 OA
BRANCH   6   8
ATOM      8  C   UNL A   1      34.413  22.820  23.532  1.00  0.00     0.190 A 
ATOM      9  N   UNL A   1      32.744  23.954  22.813  1.00  0.00    -0.246 N 
ATOM     10  C   UNL A   1      33.028  22.813  23.493  1.00  0.00     0.147 A 
ATOM     11  N   UNL A   1      33.822  24.413  22.155  1.00  0.00    -0.066 NA
ATOM     12  N   UNL A   1      34.870  23.755  22.632  1.00  0.00    -0.123 NA
BRANCH   9  13
ATOM     13  C   UNL A   1      31.596  24.805  23.008  1.00  0.00     0.207 C 
BRANCH  13  14
ATOM     14  C   UNL A   1      31.919  26.108  23.781  1.00  0.00     0.286 C 
BRANCH  14  15
ATOM     15  N   UNL A   1      33.303  26.460  24.175  1.00  0.00    -0.328 N 
ATOM     16  C   UNL A   1      33.533  26.251  25.605  1.00  0.00     0.333 C 
ATOM     17  H   UNL A   1      33.870  25.815  23.627  1.00  0.00     0.348 HD
BRANCH  15  18
ATOM     18  C   UNL A   1      33.758  27.819  23.796  1.00  0.00     0.363 C 
BRANCH  18  19
ATOM     19  C   UNL A   1      32.654  28.879  23.925  1.00  0.00     0.274 C 
ATOM     20  C   UNL A   1      33.465  29.704  26.159  1.00  0.00     0.143 C 
ATOM     21  N   UNL A   1      32.581  29.668  25.028  1.00  0.00    -0.354 N 
ATOM     22  H   UNL A   1      31.824  30.296  25.057  1.00  0.00     0.163 HD
ATOM     23  O   UNL A   1      31.799  29.065  23.057  1.00  0.00    -0.269 OA
ENDBRANCH  18  19
ENDBRANCH  15  18
ENDBRANCH  14  15
ENDBRANCH  13  14
ENDBRANCH   9  13
ENDBRANCH   6   8
ENDBRANCH   5   6
ENDBRANCH   4   5
ENDBRANCH   3   4
ENDBRANCH   2   3
ENDBRANCH   1   2
BRANCH   1  24
ATOM     24  C   UNL A   1      41.182  21.410  27.583  1.00  0.00     0.188 C 
BRANCH  24  25
ATOM     25  O   UNL A   1      41.792  20.138  27.510  1.00  0.00    -0.377 OA
BRANCH  25  26
ATOM     26  C   UNL A   1      42.148  19.636  26.226  1.00  0.00     0.188 C 
BRANCH  26  27
ATOM     27  C   UNL A   1      42.953  18.320  26.035  1.00  0.00     0.188 C 
BRANCH  27  28
ATOM     28  O   UNL A   1      43.990  18.349  25.068  1.00  0.00    -0.376 OA
BRANCH  28  29
ATOM     29  C   UNL A   1      45.301  18.812  25.336  1.00  0.00     0.202 C 
BRANCH  29  30
ATOM     30  C   UNL A   1      45.921  19.807  24.360  1.00  0.00     0.261 C 
BRANCH  30  31
ATOM     31  O   UNL A   1      44.994  20.763  23.888  1.00  0.00    -0.460 OA
BRANCH  31  32
ATOM     32  C   UNL A   1      45.279  22.024  24.236  1.00  0.00     0.338 C 
ATOM     33  O   UNL A   1      46.269  22.685  23.915  1.00  0.00    -0.246 OA
BRANCH  32  34
ATOM     34  C   UNL A   1      44.279  22.472  25.195  1.00  0.00     0.060 A 
ATOM     35  C   UNL A   1      43.300  23.316  24.676  1.00  0.00     0.016 A 
ATOM     36  C   UNL A   1      44.637  22.455  26.552  1.00  0.00     0.016 A 
ATOM     37  C   UNL A   1      42.944  24.393  25.441  1.00  0.00     0.010 A 
ATOM     38  C   UNL A   1      44.307  23.547  27.301  1.00  0.00     0.010 A 
ATOM     39  C   UNL A   1      43.562  24.546  26.686  1.00  0.00    -0.014 A 
BRANCH  39  40
ATOM     40  C   UNL A   1      43.347  25.784  27.384  1.00  0.00     0.031 A 
ATOM     41  C   UNL A   1      44.383  26.775  27.056  1.00  0.00     0.074 A 
ATOM     42  C   UNL A   1      42.271  25.979  28.167  1.00  0.00     0.049 A 
ATOM     43  N   UNL A   1      45.311  27.223  27.830  1.00  0.00    -0.248 NA
ATOM     44  C   UNL A   1      44.542  27.142  25.638  1.00  0.00     0.031 C 
ATOM     45  C   UNL A   1      41.083  25.133  28.313  1.00  0.00     0.029 A 
ATOM     46  N   UNL A   1      41.976  27.057  28.935  1.00  0.00    -0.354 N 
ATOM     47  C   UNL A   1      46.044  28.100  27.042  1.00  0.00     0.074 A 
ATOM     48  C   UNL A   1      45.678  27.836  25.678  1.00  0.00     0.031 C 
ATOM     49  C   UNL A   1      40.111  25.841  28.936  1.00  0.00     0.029 A 
ATOM     50  C   UNL A   1      40.650  27.130  29.335  1.00  0.00     0.049 A 
ATOM     51  H   UNL A   1      42.648  27.730  29.190  1.00  0.00     0.167 HD
ATOM     52  C   UNL A   1      46.649  29.178  27.603  1.00  0.00     0.037 A 
ATOM     53  C   UNL A   1      40.051  28.228  29.861  1.00  0.00     0.037 A 
ATOM     54  C   UNL A   1      46.828  28.990  29.022  1.00  0.00     0.049 A 
ATOM     55  C   UNL A   1      41.131  29.133  30.340  1.00  0.00     0.074 A 
ATOM     56  C   UNL A   1      47.506  28.069  29.797  1.00  0.00     0.029 A 
ATOM     57  N   UNL A   1      45.935  29.606  29.864  1.00  0.00    -0.354 N 
ATOM     58  N   UNL A   1      41.897  28.871  31.362  1.00  0.00    -0.248 NA
ATOM     59  C   UNL A   1      41.664  30.109  29.399  1.00  0.00     0.031 C 
ATOM     60  C   UNL A   1      46.683  27.864  30.943  1.00  0.00     0.029 A 
ATOM     61  C   UNL A   1      45.577  28.709  30.836  1.00  0.00     0.049 A 
ATOM     62  H   UNL A   1      45.609  30.531  29.783  1.00  0.00     0.167 HD
ATOM     63  C   UNL A   1      43.160  29.299  30.978  1.00  0.00     0.074 A 
ATOM     64  C   UNL A   1      42.939  30.133  29.800  1.00  0.00     0.031 C 
ATOM     65  C   UNL A   1      44.281  28.695  31.473  1.00  0.00     0.037 A 
BRANCH  52  66
ATOM     66  C   UNL A   1      46.670  30.536  26.949  1.00  0.00     0.064 A 
ATOM     67  C   UNL A   1      47.884  31.246  26.916  1.00  0.00     0.173 A 
ATOM     68  C   UNL A   1      45.516  31.291  26.632  1.00  0.00     0.173 A 
ATOM     69  F   UNL A   1      49.039  30.634  27.215  1.00  0.00    -0.203 F 
ATOM     70  C   UNL A   1      47.925  32.621  26.676  1.00  0.00     0.198 A 
ATOM     71  C   UNL A   1      45.569  32.649  26.336  1.00  0.00     0.198 A 
ATOM     72  F   UNL A   1      44.278  30.789  26.708  1.00  0.00    -0.203 F 
ATOM     73  F   UNL A   1      49.087  33.278  26.792  1.00  0.00    -0.200 F 
ATOM     74  C   UNL A   1      46.768  33.323  26.393  1.00  0.00     0.200 A 
ATOM     75  F   UNL A   1      44.431  33.311  26.083  1.00  0.00    -0.200 F 
ATOM     76  F   UNL A   1      46.797  34.651  26.228  1.00  0.00    -0.200 F 
ENDBRANCH  52  66
BRANCH  53  77
ATOM     77  C   UNL A   1      38.660  28.699  29.662  1.00  0.00     0.064 A 
ATOM     78  C   UNL A   1      37.846  29.026  30.759  1.00  0.00     0.173 A 
ATOM     79  C   UNL A   1      38.196  29.108  28.396  1.00  0.00     0.173 A 
ATOM     80  F   UNL A   1      38.237  28.715  32.004  1.00  0.00    -0.203 F 
ATOM     81  C   UNL A   1      36.656  29.743  30.602  1.00  0.00     0.198 A 
ATOM     82  C   UNL A   1      37.005  29.816  28.240  1.00  0.00     0.198 A 
ATOM     83  F   UNL A   1      38.938  28.918  27.295  1.00  0.00    -0.203 F 
ATOM     84  F   UNL A   1      35.940  30.095  31.679  1.00  0.00    -0.200 F 
ATOM     85  C   UNL A   1      36.241  30.146  29.343  1.00  0.00     0.200 A 
ATOM     86  F   UNL A   1      36.636  30.233  27.020  1.00  0.00    -0.200 F 
ATOM     87  F   UNL A   1      35.134  30.888  29.197  1.00  0.00    -0.200 F 
ENDBRANCH  53  77
BRANCH  65  88
ATOM     88  C   UNL A   1      44.105  27.769  32.644  1.00  0.00     0.064 A 
ATOM     89  C   UNL A   1      43.900  28.199  33.967  1.00  0.00     0.173 A 
ATOM     90  C   UNL A   1      44.020  26.394  32.392  1.00  0.00     0.173 A 
ATOM     91  F   UNL A   1      43.862  29.502  34.271  1.00  0.00    -0.203 F 
ATOM     92  C   UNL A   1      43.675  27.285  34.996  1.00  0.00     0.198 A 
ATOM     93  C   UNL A   1      43.756  25.487  33.415  1.00  0.00     0.198 A 
ATOM     94  F   UNL A   1      44.151  25.932  31.139  1.00  0.00    -0.203 F 
ATOM     95  F   UNL A   1      43.504  27.718  36.254  1.00  0.00    -0.200 F 
ATOM     96  C   UNL A   1      43.597  25.930  34.717  1.00  0.00     0.200 A 
ATOM     97  F   UNL A   1      43.630  24.184  33.131  1.00  0.00    -0.200 F 
ATOM     98  F   UNL A   1      43.343  25.054  35.699  1.00  0.00    -0.200 F 
ENDBRANCH  65  88
ENDBRANCH  39  40
ENDBRANCH  32  34
ENDBRANCH  31  32
ENDBRANCH  30  31
ENDBRANCH  29  30
ENDBRANCH  28  29
ENDBRANCH  27  28
ENDBRANCH  26  27
ENDBRANCH  25  26
ENDBRANCH  24  25
ENDBRANCH   1  24
TORSDOF 25
ENDMDL
MODEL 2
REMARK VINA RESULT:      -9.7      1.266      2.216
REMARK SMILES CNC(=O)C[N@@H+](C)CCn1cc(C(=O)OCCOCCOCCOCCOC(=O)c2ccc(-c3c4nc(c(-c5c(F)c(F)c(F)c(F)c5F)c5ccc([nH]5)c(-c5c(F)c(F)c(F)c(F)c5F)c5nc(c(-c6c(F)c(F)c(F)c(F)c6F)c6ccc3[nH]6)C=C5)C=C4)cc2)nn1
REMARK SMILES IDX 19 1 18 2 17 3 16 4 15 5 13 6 14 7 12 8 10 9 11 10 94 11
REMARK SMILES IDX 93 12 9 13 8 14 6 15 7 16 5 18 3 19 1 20 2 21 4 23 20 24
REMARK SMILES IDX 21 25 22 26 23 27 24 28 25 29 26 30 27 31 28 32 29 33 30 34
REMARK SMILES IDX 31 35 92 36 32 37 91 38 33 39 34 40 35 41 85 42 36 43 90 44
REMARK SMILES IDX 84 45 86 46 37 47 89 48 83 49 82 50 38 52 70 53 50 54 69 55
REMARK SMILES IDX 51 56 54 57 68 58 87 59 52 60 53 61 67 63 88 64 55 65 39 66
REMARK SMILES IDX 40 67 48 68 41 69 42 70 46 71 49 72 43 73 44 74 47 75 45 76
REMARK SMILES IDX 71 77 72 78 80 79 73 80 74 81 78 82 81 83 75 84 76 85 79 86
REMARK SMILES IDX 77 87 56 88 57 89 65 90 58 91 59 92 63 93 66 94 60 95 61 96
REMARK SMILES IDX 64 97 62 98
REMARK H PARENT 6 17 2 22 86 51 54 62
REMARK Flexibility Score: inf
ROOT
ATOM      1  C   UNL A   1      39.850  21.873  26.665  1.00  0.00     0.188 C 
ENDROOT
BRANCH   1   2
ATOM      2  O   UNL A   1      38.977  22.986  26.723  1.00  0.00    -0.376 OA
BRANCH   2   3
ATOM      3  C   UNL A   1      37.859  23.175  25.877  1.00  0.00     0.202 C 
BRANCH   3   4
ATOM      4  C   UNL A   1      36.660  22.226  25.723  1.00  0.00     0.261 C 
BRANCH   4   5
ATOM      5  O   UNL A   1      35.376  22.826  25.679  1.00  0.00    -0.458 OA
BRANCH   5   6
ATOM      6  C   UNL A   1      34.508  22.416  26.641  1.00  0.00     0.360 C 
ATOM      7  O   UNL A   1      34.701  21.459  27.394  1.00  0.00    -0.244 OA
BRANCH   6   8
ATOM      8  C   UNL A   1      33.382  23.322  26.775  1.00  0.00     0.190 A 
ATOM      9  N   UNL A   1      31.931  24.848  26.385  1.00  0.00    -0.246 N 
ATOM     10  C   UNL A   1      33.265  24.612  26.286  1.00  0.00     0.147 A 
ATOM     11  N   UNL A   1      31.338  23.967  27.209  1.00  0.00    -0.066 NA
ATOM     12  N   UNL A   1      32.210  22.989  27.414  1.00  0.00    -0.123 NA
BRANCH   9  13
ATOM     13  C   UNL A   1      31.136  25.661  25.498  1.00  0.00     0.207 C 
BRANCH  13  14
ATOM     14  C   UNL A   1      30.798  24.962  24.157  1.00  0.00     0.286 C 
BRANCH  14  15
ATOM     15  N   UNL A   1      31.784  24.870  23.054  1.00  0.00    -0.328 N 
ATOM     16  C   UNL A   1      32.319  23.516  22.912  1.00  0.00     0.333 C 
ATOM     17  H   UNL A   1      31.234  25.122  22.233  1.00  0.00     0.348 HD
BRANCH  15  18
ATOM     18  C   UNL A   1      32.903  25.841  23.104  1.00  0.00     0.363 C 
BRANCH  18  19
ATOM     19  C   UNL A   1      33.188  26.499  21.746  1.00  0.00     0.274 C 
ATOM     20  C   UNL A   1      33.662  28.759  22.745  1.00  0.00     0.143 C 
ATOM     21  N   UNL A   1      33.499  27.818  21.671  1.00  0.00    -0.354 N 
ATOM     22  H   UNL A   1      33.630  28.177  20.764  1.00  0.00     0.163 HD
ATOM     23  O   UNL A   1      33.150  25.880  20.681  1.00  0.00    -0.269 OA
ENDBRANCH  18  19
ENDBRANCH  15  18
ENDBRANCH  14  15
ENDBRANCH  13  14
ENDBRANCH   9  13
ENDBRANCH   6   8
ENDBRANCH   5   6
ENDBRANCH   4   5
ENDBRANCH   3   4
ENDBRANCH   2   3
ENDBRANCH   1   2
BRANCH   1  24
ATOM     24  C   UNL A   1      40.993  21.735  27.694  1.00  0.00     0.188 C 
BRANCH  24  25
ATOM     25  O   UNL A   1      41.921  20.697  27.456  1.00  0.00    -0.377 OA
BRANCH  25  26
ATOM     26  C   UNL A   1      41.746  19.890  26.296  1.00  0.00     0.188 C 
BRANCH  26  27
ATOM     27  C   UNL A   1      42.453  18.518  26.115  1.00  0.00     0.188 C 
BRANCH  27  28
ATOM     28  O   UNL A   1      43.429  18.441  25.089  1.00  0.00    -0.376 OA
BRANCH  28  29
ATOM     29  C   UNL A   1      44.787  18.799  25.270  1.00  0.00     0.202 C 
BRANCH  29  30
ATOM     30  C   UNL A   1      45.421  19.733  24.243  1.00  0.00     0.261 C 
BRANCH  30  31
ATOM     31  O   UNL A   1      44.582  20.814  23.891  1.00  0.00    -0.460 OA
BRANCH  31  32
ATOM     32  C   UNL A   1      45.038  22.012  24.277  1.00  0.00     0.338 C 
ATOM     33  O   UNL A   1      46.059  22.585  23.892  1.00  0.00    -0.246 OA
BRANCH  32  34
ATOM     34  C   UNL A   1      44.191  22.498  25.359  1.00  0.00     0.060 A 
ATOM     35  C   UNL A   1      43.140  23.321  24.961  1.00  0.00     0.016 A 
ATOM     36  C   UNL A   1      44.750  22.534  26.646  1.00  0.00     0.016 A 
ATOM     37  C   UNL A   1      42.897  24.427  25.729  1.00  0.00     0.010 A 
ATOM     38  C   UNL A   1      44.532  23.654  27.393  1.00  0.00     0.010 A 
ATOM     39  C   UNL A   1      43.696  24.628  26.860  1.00  0.00    -0.014 A 
BRANCH  39  40
ATOM     40  C   UNL A   1      43.582  25.893  27.534  1.00  0.00     0.031 A 
ATOM     41  C   UNL A   1      44.731  26.764  27.244  1.00  0.00     0.074 A 
ATOM     42  C   UNL A   1      42.498  26.212  28.263  1.00  0.00     0.049 A 
ATOM     43  N   UNL A   1      45.664  27.124  28.057  1.00  0.00    -0.248 NA
ATOM     44  C   UNL A   1      44.992  27.090  25.832  1.00  0.00     0.031 C 
ATOM     45  C   UNL A   1      41.221  25.498  28.362  1.00  0.00     0.029 A 
ATOM     46  N   UNL A   1      42.284  27.327  29.005  1.00  0.00    -0.354 N 
ATOM     47  C   UNL A   1      46.521  27.906  27.294  1.00  0.00     0.074 A 
ATOM     48  C   UNL A   1      46.192  27.661  25.917  1.00  0.00     0.031 C 
ATOM     49  C   UNL A   1      40.303  26.314  28.931  1.00  0.00     0.029 A 
ATOM     50  C   UNL A   1      40.956  27.545  29.341  1.00  0.00     0.049 A 
ATOM     51  H   UNL A   1      43.011  27.929  29.284  1.00  0.00     0.167 HD
ATOM     52  C   UNL A   1      47.211  28.923  27.872  1.00  0.00     0.037 A 
ATOM     53  C   UNL A   1      40.454  28.708  29.827  1.00  0.00     0.037 A 
ATOM     54  C   UNL A   1      47.304  28.739  29.299  1.00  0.00     0.049 A 
ATOM     55  C   UNL A   1      41.600  29.502  30.346  1.00  0.00     0.074 A 
ATOM     56  C   UNL A   1      47.845  27.764  30.115  1.00  0.00     0.029 A 
ATOM     57  N   UNL A   1      46.444  29.459  30.091  1.00  0.00    -0.354 N 
ATOM     58  N   UNL A   1      42.287  29.177  31.406  1.00  0.00    -0.248 NA
ATOM     59  C   UNL A   1      42.276  30.401  29.421  1.00  0.00     0.031 C 
ATOM     60  C   UNL A   1      46.953  27.665  31.223  1.00  0.00     0.029 A 
ATOM     61  C   UNL A   1      45.949  28.619  31.056  1.00  0.00     0.049 A 
ATOM     62  H   UNL A   1      46.222  30.412  29.986  1.00  0.00     0.167 HD
ATOM     63  C   UNL A   1      43.604  29.463  31.077  1.00  0.00     0.074 A 
ATOM     64  C   UNL A   1      43.527  30.297  29.882  1.00  0.00     0.031 C 
ATOM     65  C   UNL A   1      44.631  28.753  31.630  1.00  0.00     0.037 A 
BRANCH  52  66
ATOM     66  C   UNL A   1      47.406  30.261  27.205  1.00  0.00     0.064 A 
ATOM     67  C   UNL A   1      48.687  30.842  27.227  1.00  0.00     0.173 A 
ATOM     68  C   UNL A   1      46.353  31.126  26.821  1.00  0.00     0.173 A 
ATOM     69  F   UNL A   1      49.756  30.119  27.592  1.00  0.00    -0.203 F 
ATOM     70  C   UNL A   1      48.882  32.201  26.974  1.00  0.00     0.198 A 
ATOM     71  C   UNL A   1      46.561  32.466  26.513  1.00  0.00     0.198 A 
ATOM     72  F   UNL A   1      45.068  30.755  26.837  1.00  0.00    -0.203 F 
ATOM     73  F   UNL A   1      50.098  32.737  27.143  1.00  0.00    -0.200 F 
ATOM     74  C   UNL A   1      47.820  33.013  26.625  1.00  0.00     0.200 A 
ATOM     75  F   UNL A   1      45.512  33.237  26.194  1.00  0.00    -0.200 F 
ATOM     76  F   UNL A   1      47.995  34.328  26.446  1.00  0.00    -0.200 F 
ENDBRANCH  52  66
BRANCH  53  77
ATOM     77  C   UNL A   1      39.131  29.320  29.557  1.00  0.00     0.064 A 
ATOM     78  C   UNL A   1      38.688  29.528  28.241  1.00  0.00     0.173 A 
ATOM     79  C   UNL A   1      38.160  29.448  30.571  1.00  0.00     0.173 A 
ATOM     80  F   UNL A   1      39.537  29.379  27.213  1.00  0.00    -0.203 F 
ATOM     81  C   UNL A   1      37.351  29.820  27.954  1.00  0.00     0.198 A 
ATOM     82  C   UNL A   1      36.828  29.747  30.283  1.00  0.00     0.198 A 
ATOM     83  F   UNL A   1      38.461  29.188  31.851  1.00  0.00    -0.203 F 
ATOM     84  F   UNL A   1      36.953  29.947  26.680  1.00  0.00    -0.200 F 
ATOM     85  C   UNL A   1      36.420  29.919  28.974  1.00  0.00     0.200 A 
ATOM     86  F   UNL A   1      35.930  29.801  31.278  1.00  0.00    -0.200 F 
ATOM     87  F   UNL A   1      35.127  30.135  28.696  1.00  0.00    -0.200 F 
ENDBRANCH  53  77
BRANCH  65  88
ATOM     88  C   UNL A   1      44.305  27.868  32.802  1.00  0.00     0.064 A 
ATOM     89  C   UNL A   1      43.986  26.503  32.697  1.00  0.00     0.173 A 
ATOM     90  C   UNL A   1      44.443  28.400  34.091  1.00  0.00     0.173 A 
ATOM     91  F   UNL A   1      43.939  25.896  31.504  1.00  0.00    -0.203 F 
ATOM     92  C   UNL A   1      43.762  25.724  33.831  1.00  0.00     0.198 A 
ATOM     93  C   UNL A   1      44.257  27.611  35.222  1.00  0.00     0.198 A 
ATOM     94  F   UNL A   1      44.802  29.683  34.252  1.00  0.00    -0.203 F 
ATOM     95  F   UNL A   1      43.437  24.429  33.705  1.00  0.00    -0.200 F 
ATOM     96  C   UNL A   1      43.904  26.278  35.093  1.00  0.00     0.200 A 
ATOM     97  F   UNL A   1      44.447  28.140  36.439  1.00  0.00    -0.200 F 
ATOM     98  F   UNL A   1      43.726  25.522  36.185  1.00  0.00    -0.200 F 
ENDBRANCH  65  88
ENDBRANCH  39  40
ENDBRANCH  32  34
ENDBRANCH  31  32
ENDBRANCH  30  31
ENDBRANCH  29  30
ENDBRANCH  28  29
ENDBRANCH  27  28
ENDBRANCH  26  27
ENDBRANCH  25  26
ENDBRANCH  24  25
ENDBRANCH   1  24
TORSDOF 25
ENDMDL
MODEL 3
REMARK VINA RESULT:      -9.1      1.925      3.639
REMARK SMILES CNC(=O)C[N@@H+](C)CCn1cc(C(=O)OCCOCCOCCOCCOC(=O)c2ccc(-c3c4nc(c(-c5c(F)c(F)c(F)c(F)c5F)c5ccc([nH]5)c(-c5c(F)c(F)c(F)c(F)c5F)c5nc(c(-c6c(F)c(F)c(F)c(F)c6F)c6ccc3[nH]6)C=C5)C=C4)cc2)nn1
REMARK SMILES IDX 19 1 18 2 17 3 16 4 15 5 13 6 14 7 12 8 10 9 11 10 94 11
REMARK SMILES IDX 93 12 9 13 8 14 6 15 7 16 5 18 3 19 1 20 2 21 4 23 20 24
REMARK SMILES IDX 21 25 22 26 23 27 24 28 25 29 26 30 27 31 28 32 29 33 30 34
REMARK SMILES IDX 31 35 92 36 32 37 91 38 33 39 34 40 35 41 85 42 36 43 90 44
REMARK SMILES IDX 84 45 86 46 37 47 89 48 83 49 82 50 38 52 70 53 50 54 69 55
REMARK SMILES IDX 51 56 54 57 68 58 87 59 52 60 53 61 67 63 88 64 55 65 39 66
REMARK SMILES IDX 40 67 48 68 41 69 42 70 46 71 49 72 43 73 44 74 47 75 45 76
REMARK SMILES IDX 71 77 72 78 80 79 73 80 74 81 78 82 81 83 75 84 76 85 79 86
REMARK SMILES IDX 77 87 56 88 57 89 65 90 58 91 59 92 63 93 66 94 60 95 61 96
REMARK SMILES IDX 64 97 62 98
REMARK H PARENT 6 17 2 22 86 51 54 62
REMARK Flexibility Score: inf
ROOT
ATOM      1  C   UNL A   1      40.015  21.412  26.612  1.00  0.00     0.188 C 
ENDROOT
BRANCH   1   2
ATOM      2  O   UNL A   1      39.261  22.582  26.352  1.00  0.00    -0.376 OA
BRANCH   2   3
ATOM      3  C   UNL A   1      37.976  22.594  25.761  1.00  0.00     0.202 C 
BRANCH   3   4
ATOM      4  C   UNL A   1      37.064  23.818  25.585  1.00  0.00     0.261 C 
BRANCH   4   5
ATOM      5  O   UNL A   1      36.057  23.724  24.591  1.00  0.00    -0.458 OA
BRANCH   5   6
ATOM      6  C   UNL A   1      34.829  24.174  24.960  1.00  0.00     0.360 C 
ATOM      7  O   UNL A   1      34.628  25.219  25.583  1.00  0.00    -0.244 OA
BRANCH   6   8
ATOM      8  C   UNL A   1      33.765  23.352  24.416  1.00  0.00     0.190 A 
ATOM      9  N   UNL A   1      32.671  21.691  23.623  1.00  0.00    -0.246 N 
ATOM     10  C   UNL A   1      33.873  22.312  23.508  1.00  0.00     0.147 A 
ATOM     11  N   UNL A   1      31.768  22.480  24.231  1.00  0.00    -0.066 NA
ATOM     12  N   UNL A   1      32.443  23.484  24.773  1.00  0.00    -0.123 NA
BRANCH   9  13
ATOM     13  C   UNL A   1      32.417  20.279  23.474  1.00  0.00     0.207 C 
BRANCH  13  14
ATOM     14  C   UNL A   1      32.504  19.493  24.806  1.00  0.00     0.286 C 
BRANCH  14  15
ATOM     15  N   UNL A   1      33.694  18.684  25.160  1.00  0.00    -0.328 N 
ATOM     16  C   UNL A   1      34.911  19.495  25.206  1.00  0.00     0.333 C 
ATOM     17  H   UNL A   1      33.466  18.333  26.090  1.00  0.00     0.348 HD
BRANCH  15  18
ATOM     18  C   UNL A   1      33.931  17.484  24.323  1.00  0.00     0.363 C 
BRANCH  18  19
ATOM     19  C   UNL A   1      34.484  16.295  25.123  1.00  0.00     0.274 C 
ATOM     20  C   UNL A   1      32.207  15.340  25.609  1.00  0.00     0.143 C 
ATOM     21  N   UNL A   1      33.641  15.392  25.686  1.00  0.00    -0.354 N 
ATOM     22  H   UNL A   1      34.066  14.680  26.216  1.00  0.00     0.163 HD
ATOM     23  O   UNL A   1      35.690  16.103  25.292  1.00  0.00    -0.269 OA
ENDBRANCH  18  19
ENDBRANCH  15  18
ENDBRANCH  14  15
ENDBRANCH  13  14
ENDBRANCH   9  13
ENDBRANCH   6   8
ENDBRANCH   5   6
ENDBRANCH   4   5
ENDBRANCH   3   4
ENDBRANCH   2   3
ENDBRANCH   1   2
BRANCH   1  24
ATOM     24  C   UNL A   1      41.225  21.472  27.569  1.00  0.00     0.188 C 
BRANCH  24  25
ATOM     25  O   UNL A   1      42.174  20.434  27.438  1.00  0.00    -0.377 OA
BRANCH  25  26
ATOM     26  C   UNL A   1      41.973  19.465  26.415  1.00  0.00     0.188 C 
BRANCH  26  27
ATOM     27  C   UNL A   1      42.932  18.260  26.200  1.00  0.00     0.188 C 
BRANCH  27  28
ATOM     28  O   UNL A   1      43.867  18.379  25.141  1.00  0.00    -0.376 OA
BRANCH  28  29
ATOM     29  C   UNL A   1      45.179  18.887  25.304  1.00  0.00     0.202 C 
BRANCH  29  30
ATOM     30  C   UNL A   1      45.706  19.855  24.250  1.00  0.00     0.261 C 
BRANCH  30  31
ATOM     31  O   UNL A   1      44.787  20.882  23.938  1.00  0.00    -0.460 OA
BRANCH  31  32
ATOM     32  C   UNL A   1      45.194  22.109  24.287  1.00  0.00     0.338 C 
ATOM     33  O   UNL A   1      46.185  22.714  23.876  1.00  0.00    -0.246 OA
BRANCH  32  34
ATOM     34  C   UNL A   1      44.337  22.586  25.364  1.00  0.00     0.060 A 
ATOM     35  C   UNL A   1      43.280  23.398  24.961  1.00  0.00     0.016 A 
ATOM     36  C   UNL A   1      44.890  22.629  26.654  1.00  0.00     0.016 A 
ATOM     37  C   UNL A   1      43.022  24.503  25.726  1.00  0.00     0.010 A 
ATOM     38  C   UNL A   1      44.656  23.748  27.399  1.00  0.00     0.010 A 
ATOM     39  C   UNL A   1      43.813  24.713  26.861  1.00  0.00    -0.014 A 
BRANCH  39  40
ATOM     40  C   UNL A   1      43.683  25.977  27.533  1.00  0.00     0.031 A 
ATOM     41  C   UNL A   1      44.810  26.870  27.225  1.00  0.00     0.074 A 
ATOM     42  C   UNL A   1      42.603  26.276  28.276  1.00  0.00     0.049 A 
ATOM     43  N   UNL A   1      45.747  27.251  28.023  1.00  0.00    -0.248 NA
ATOM     44  C   UNL A   1      45.044  27.198  25.808  1.00  0.00     0.031 C 
ATOM     45  C   UNL A   1      41.342  25.537  28.395  1.00  0.00     0.029 A 
ATOM     46  N   UNL A   1      42.377  27.388  29.019  1.00  0.00    -0.354 N 
ATOM     47  C   UNL A   1      46.577  28.048  27.247  1.00  0.00     0.074 A 
ATOM     48  C   UNL A   1      46.234  27.793  25.876  1.00  0.00     0.031 C 
ATOM     49  C   UNL A   1      40.416  26.336  28.975  1.00  0.00     0.029 A 
ATOM     50  C   UNL A   1      41.050  27.581  29.372  1.00  0.00     0.049 A 
ATOM     51  H   UNL A   1      43.095  28.006  29.285  1.00  0.00     0.167 HD
ATOM     52  C   UNL A   1      47.255  29.081  27.812  1.00  0.00     0.037 A 
ATOM     53  C   UNL A   1      40.531  28.735  29.862  1.00  0.00     0.037 A 
ATOM     54  C   UNL A   1      47.371  28.903  29.238  1.00  0.00     0.049 A 
ATOM     55  C   UNL A   1      41.668  29.554  30.363  1.00  0.00     0.074 A 
ATOM     56  C   UNL A   1      47.943  27.942  30.049  1.00  0.00     0.029 A 
ATOM     57  N   UNL A   1      46.508  29.607  30.041  1.00  0.00    -0.354 N 
ATOM     58  N   UNL A   1      42.376  29.245  31.415  1.00  0.00    -0.248 NA
ATOM     59  C   UNL A   1      42.313  30.464  29.426  1.00  0.00     0.031 C 
ATOM     60  C   UNL A   1      47.069  27.828  31.170  1.00  0.00     0.029 A 
ATOM     61  C   UNL A   1      46.044  28.761  31.014  1.00  0.00     0.049 A 
ATOM     62  H   UNL A   1      46.264  30.556  29.936  1.00  0.00     0.167 HD
ATOM     63  C   UNL A   1      43.682  29.557  31.066  1.00  0.00     0.074 A 
ATOM     64  C   UNL A   1      43.571  30.386  29.870  1.00  0.00     0.031 C 
ATOM     65  C   UNL A   1      44.731  28.869  31.607  1.00  0.00     0.037 A 
BRANCH  52  66
ATOM     66  C   UNL A   1      47.413  30.421  27.139  1.00  0.00     0.064 A 
ATOM     67  C   UNL A   1      48.687  31.017  27.123  1.00  0.00     0.173 A 
ATOM     68  C   UNL A   1      46.339  31.272  26.786  1.00  0.00     0.173 A 
ATOM     69  F   UNL A   1      49.775  30.308  27.456  1.00  0.00    -0.203 F 
ATOM     70  C   UNL A   1      48.858  32.378  26.864  1.00  0.00     0.198 A 
ATOM     71  C   UNL A   1      46.521  32.614  26.472  1.00  0.00     0.198 A 
ATOM     72  F   UNL A   1      45.059  30.886  26.841  1.00  0.00    -0.203 F 
ATOM     73  F   UNL A   1      50.071  32.930  26.996  1.00  0.00    -0.200 F 
ATOM     74  C   UNL A   1      47.775  33.177  26.546  1.00  0.00     0.200 A 
ATOM     75  F   UNL A   1      45.453  33.372  26.184  1.00  0.00    -0.200 F 
ATOM     76  F   UNL A   1      47.928  34.494  26.362  1.00  0.00    -0.200 F 
ENDBRANCH  52  66
BRANCH  53  77
ATOM     77  C   UNL A   1      39.192  29.319  29.610  1.00  0.00     0.064 A 
ATOM     78  C   UNL A   1      38.735  29.533  28.299  1.00  0.00     0.173 A 
ATOM     79  C   UNL A   1      38.226  29.412  30.632  1.00  0.00     0.173 A 
ATOM     80  F   UNL A   1      39.579  29.416  27.264  1.00  0.00    -0.203 F 
ATOM     81  C   UNL A   1      37.389  29.797  28.025  1.00  0.00     0.198 A 
ATOM     82  C   UNL A   1      36.885  29.684  30.358  1.00  0.00     0.198 A 
ATOM     83  F   UNL A   1      38.543  29.144  31.907  1.00  0.00    -0.203 F 
ATOM     84  F   UNL A   1      36.979  29.930  26.756  1.00  0.00    -0.200 F 
ATOM     85  C   UNL A   1      36.464  29.862  29.054  1.00  0.00     0.200 A 
ATOM     86  F   UNL A   1      35.994  29.705  31.359  1.00  0.00    -0.200 F 
ATOM     87  F   UNL A   1      35.164  30.051  28.787  1.00  0.00    -0.200 F 
ENDBRANCH  53  77
BRANCH  65  88
ATOM     88  C   UNL A   1      44.439  27.982  32.786  1.00  0.00     0.064 A 
ATOM     89  C   UNL A   1      44.281  28.445  34.104  1.00  0.00     0.173 A 
ATOM     90  C   UNL A   1      44.190  26.624  32.545  1.00  0.00     0.173 A 
ATOM     91  F   UNL A   1      44.399  29.747  34.395  1.00  0.00    -0.203 F 
ATOM     92  C   UNL A   1      43.943  27.575  35.139  1.00  0.00     0.198 A 
ATOM     93  C   UNL A   1      43.814  25.766  33.574  1.00  0.00     0.198 A 
ATOM     94  F   UNL A   1      44.270  26.138  31.297  1.00  0.00    -0.203 F 
ATOM     95  F   UNL A   1      43.819  28.037  36.392  1.00  0.00    -0.200 F 
ATOM     96  C   UNL A   1      43.703  26.237  34.871  1.00  0.00     0.200 A 
ATOM     97  F   UNL A   1      43.534  24.484  33.300  1.00  0.00    -0.200 F 
ATOM     98  F   UNL A   1      43.341  25.407  35.859  1.00  0.00    -0.200 F 
ENDBRANCH  65  88
ENDBRANCH  39  40
ENDBRANCH  32  34
ENDBRANCH  31  32
ENDBRANCH  30  31
ENDBRANCH  29  30
ENDBRANCH  28  29
ENDBRANCH  27  28
ENDBRANCH  26  27
ENDBRANCH  25  26
ENDBRANCH  24  25
ENDBRANCH   1  24
TORSDOF 25
ENDMDL
