MODEL 1
REMARK VINA RESULT:     -11.7      0.000      0.000
REMARK SMILES CC(=O)O[C@@H]1CC[C@@]23C(=O)O[C@]4(CC[C@]2(O)C1)[C@H]3CC[C@]1(C)[C@H](C(=O)OCCOCCOCCOCCOC(=O)c2ccc(-c3c5nc(c(-c6c(F)c(F)c(F)c(F)c6F)c6ccc([nH]6)c(-c6c(F)c(F)c(F)c(F)c6F)c6nc(c(-c7c(F)c(F)c(F)c(F)c7F)c7ccc3[nH]7)C=C6)C=C5)cc2)CC[C@@H]14
REMARK SMILES IDX 32 1 31 2 30 3 29 4 28 5 27 6 26 7 24 8 25 9 23 10 5 11 6 12
REMARK SMILES IDX 17 13 7 14 15 15 8 16 14 17 9 18 18 19 13 20 10 21 11 22
REMARK SMILES IDX 12 23 19 24 106 25 20 26 21 27 105 28 22 29 104 30 4 31 2 32
REMARK SMILES IDX 1 33 3 34 16 35 33 37 34 38 35 39 36 40 37 41 38 42 39 43
REMARK SMILES IDX 40 44 41 45 42 46 103 47 43 48 102 49 44 50 45 51 46 52
REMARK SMILES IDX 96 53 47 54 101 55 95 56 97 57 48 58 100 59 94 60 93 61
REMARK SMILES IDX 49 63 81 64 61 65 80 66 62 67 65 68 79 69 98 70 63 71 64 72
REMARK SMILES IDX 78 74 99 75 66 76 50 77 51 78 59 79 52 80 53 81 57 82 60 83
REMARK SMILES IDX 54 84 55 85 58 86 56 87 82 88 83 89 91 90 84 91 85 92 89 93
REMARK SMILES IDX 92 94 86 95 87 96 90 97 88 98 67 99 68 100 76 101 69 102
REMARK SMILES IDX 70 103 74 104 77 105 71 106 72 107 75 108 73 109
REMARK H PARENT 16 36 97 62 65 73
REMARK Flexibility Score: inf
ROOT
ATOM      1  O   UNL A   1      39.187  21.787  26.498  1.00  0.00    -0.377 OA
ENDROOT
BRANCH   1   2
ATOM      2  C   UNL A   1      38.352  21.985  25.380  1.00  0.00     0.188 C 
BRANCH   2   3
ATOM      3  C   UNL A   1      37.440  20.804  25.004  1.00  0.00     0.188 C 
BRANCH   3   4
ATOM      4  O   UNL A   1      36.056  20.804  25.343  1.00  0.00    -0.376 OA
BRANCH   4   5
ATOM      5  C   UNL A   1      35.205  19.770  24.876  1.00  0.00     0.202 C 
BRANCH   5   6
ATOM      6  C   UNL A   1      33.694  20.076  24.746  1.00  0.00     0.261 C 
BRANCH   6   7
ATOM      7  O   UNL A   1      33.038  20.638  25.907  1.00  0.00    -0.463 OA
BRANCH   7   8
ATOM      8  C   UNL A   1      32.511  21.868  25.728  1.00  0.00     0.309 C 
ATOM      9  O   UNL A   1      31.480  22.238  26.290  1.00  0.00    -0.252 OA
BRANCH   8  10
ATOM     10  C   UNL A   1      33.298  22.856  24.837  1.00  0.00     0.105 C 
ATOM     11  C   UNL A   1      32.299  30.036  27.164  1.00  0.00     0.179 C 
ATOM     12  C   UNL A   1      32.048  28.595  27.527  1.00  0.00     0.047 C 
ATOM     13  C   UNL A   1      31.673  30.286  25.770  1.00  0.00     0.081 C 
ATOM     14  C   UNL A   1      32.635  27.765  26.409  1.00  0.00     0.026 C 
ATOM     15  C   UNL A   1      31.716  29.158  24.677  1.00  0.00     0.085 C 
ATOM     16  C   UNL A   1      31.491  27.720  25.046  1.00  0.00     0.103 C 
ATOM     17  C   UNL A   1      33.151  29.097  23.999  1.00  0.00     0.041 C 
ATOM     18  C   UNL A   1      31.030  26.512  25.666  1.00  0.00     0.316 C 
ATOM     19  C   UNL A   1      31.700  26.811  23.597  1.00  0.00     0.054 C 
ATOM     20  C   UNL A   1      33.801  27.626  23.853  1.00  0.00     0.052 C 
ATOM     21  O   UNL A   1      30.053  26.206  26.318  1.00  0.00    -0.251 OA
ATOM     22  O   UNL A   1      32.177  25.760  25.365  1.00  0.00    -0.458 OA
ATOM     23  C   UNL A   1      32.930  26.296  24.171  1.00  0.00     0.120 C 
ATOM     24  C   UNL A   1      30.879  25.594  23.068  1.00  0.00     0.009 C 
ATOM     25  C   UNL A   1      33.732  25.088  23.796  1.00  0.00     0.040 C 
ATOM     26  C   UNL A   1      31.328  24.141  23.464  1.00  0.00     0.008 C 
ATOM     27  C   UNL A   1      32.863  23.808  23.612  1.00  0.00    -0.013 C 
ATOM     28  C   UNL A   1      34.701  24.783  24.968  1.00  0.00     0.009 C 
ATOM     29  C   UNL A   1      33.421  23.232  22.272  1.00  0.00     0.013 C 
ATOM     30  C   UNL A   1      33.994  23.773  25.842  1.00  0.00     0.016 C 
BRANCH  11  31
ATOM     31  O   UNL A   1      33.722  30.333  27.173  1.00  0.00    -0.462 OA
BRANCH  31  32
ATOM     32  C   UNL A   1      34.073  31.571  27.651  1.00  0.00     0.302 C 
ATOM     33  C   UNL A   1      35.546  31.686  27.896  1.00  0.00     0.139 C 
ATOM     34  O   UNL A   1      33.307  32.508  27.829  1.00  0.00    -0.253 OA
ENDBRANCH  31  32
ENDBRANCH  11  31
BRANCH  15  35
ATOM     35  O   UNL A   1      30.721  29.544  23.718  1.00  0.00    -0.389 OA
ATOM     36  H   UNL A   1      30.556  28.808  23.108  1.00  0.00     0.211 HD
ENDBRANCH  15  35
ENDBRANCH   8  10
ENDBRANCH   7   8
ENDBRANCH   6   7
ENDBRANCH   5   6
ENDBRANCH   4   5
ENDBRANCH   3   4
ENDBRANCH   2   3
ENDBRANCH   1   2
BRANCH   1  37
ATOM     37  C   UNL A   1      40.413  21.138  26.247  1.00  0.00     0.188 C 
BRANCH  37  38
ATOM     38  C   UNL A   1      41.274  20.803  27.475  1.00  0.00     0.188 C 
BRANCH  38  39
ATOM     39  O   UNL A   1      42.076  19.642  27.312  1.00  0.00    -0.376 OA
BRANCH  39  40
ATOM     40  C   UNL A   1      42.194  19.002  26.055  1.00  0.00     0.202 C 
BRANCH  40  41
ATOM     41  C   UNL A   1      43.470  18.219  25.696  1.00  0.00     0.261 C 
BRANCH  41  42
ATOM     42  O   UNL A   1      44.669  18.969  25.469  1.00  0.00    -0.460 OA
BRANCH  42  43
ATOM     43  C   UNL A   1      44.684  19.826  24.426  1.00  0.00     0.338 C 
ATOM     44  O   UNL A   1      44.525  19.553  23.252  1.00  0.00    -0.246 OA
BRANCH  43  45
ATOM     45  C   UNL A   1      44.728  21.200  24.977  1.00  0.00     0.060 A 
ATOM     46  C   UNL A   1      44.524  22.282  24.109  1.00  0.00     0.016 A 
ATOM     47  C   UNL A   1      44.931  21.420  26.342  1.00  0.00     0.016 A 
ATOM     48  C   UNL A   1      44.544  23.587  24.598  1.00  0.00     0.010 A 
ATOM     49  C   UNL A   1      44.991  22.731  26.825  1.00  0.00     0.010 A 
ATOM     50  C   UNL A   1      44.830  23.819  25.949  1.00  0.00    -0.014 A 
BRANCH  50  51
ATOM     51  C   UNL A   1      45.183  25.191  26.384  1.00  0.00     0.031 A 
ATOM     52  C   UNL A   1      44.094  26.048  26.968  1.00  0.00     0.074 A 
ATOM     53  C   UNL A   1      46.441  25.655  26.301  1.00  0.00     0.049 A 
ATOM     54  N   UNL A   1      44.141  27.283  27.396  1.00  0.00    -0.248 NA
ATOM     55  C   UNL A   1      42.766  25.422  27.079  1.00  0.00     0.031 C 
ATOM     56  C   UNL A   1      47.587  24.905  25.796  1.00  0.00     0.029 A 
ATOM     57  N   UNL A   1      46.959  26.881  26.638  1.00  0.00    -0.354 N 
ATOM     58  C   UNL A   1      42.851  27.583  27.818  1.00  0.00     0.074 A 
ATOM     59  C   UNL A   1      42.037  26.415  27.564  1.00  0.00     0.031 C 
ATOM     60  C   UNL A   1      48.674  25.694  25.838  1.00  0.00     0.029 A 
ATOM     61  C   UNL A   1      48.294  27.013  26.343  1.00  0.00     0.049 A 
ATOM     62  H   UNL A   1      46.425  27.597  27.052  1.00  0.00     0.167 HD
ATOM     63  C   UNL A   1      42.392  28.728  28.372  1.00  0.00     0.037 A 
ATOM     64  C   UNL A   1      49.103  28.085  26.447  1.00  0.00     0.037 A 
ATOM     65  C   UNL A   1      43.207  29.889  28.615  1.00  0.00     0.049 A 
ATOM     66  C   UNL A   1      48.549  29.375  27.001  1.00  0.00     0.074 A 
ATOM     67  C   UNL A   1      42.844  31.092  29.194  1.00  0.00     0.029 A 
ATOM     68  N   UNL A   1      44.548  29.997  28.275  1.00  0.00    -0.354 N 
ATOM     69  N   UNL A   1      47.340  29.644  27.431  1.00  0.00    -0.248 NA
ATOM     70  C   UNL A   1      49.479  30.510  27.089  1.00  0.00     0.031 C 
ATOM     71  C   UNL A   1      43.944  31.953  29.136  1.00  0.00     0.029 A 
ATOM     72  C   UNL A   1      45.017  31.261  28.597  1.00  0.00     0.049 A 
ATOM     73  H   UNL A   1      45.086  29.281  27.865  1.00  0.00     0.167 HD
ATOM     74  C   UNL A   1      47.370  30.963  27.868  1.00  0.00     0.074 A 
ATOM     75  C   UNL A   1      48.725  31.434  27.668  1.00  0.00     0.031 C 
ATOM     76  C   UNL A   1      46.370  31.716  28.392  1.00  0.00     0.037 A 
BRANCH  63  77
ATOM     77  C   UNL A   1      40.929  28.797  28.710  1.00  0.00     0.064 A 
ATOM     78  C   UNL A   1      40.449  28.530  30.003  1.00  0.00     0.173 A 
ATOM     79  C   UNL A   1      39.994  29.154  27.727  1.00  0.00     0.173 A 
ATOM     80  F   UNL A   1      41.297  28.167  30.977  1.00  0.00    -0.203 F 
ATOM     81  C   UNL A   1      39.087  28.586  30.287  1.00  0.00     0.198 A 
ATOM     82  C   UNL A   1      38.637  29.246  28.024  1.00  0.00     0.198 A 
ATOM     83  F   UNL A   1      40.397  29.421  26.476  1.00  0.00    -0.203 F 
ATOM     84  F   UNL A   1      38.647  28.269  31.513  1.00  0.00    -0.200 F 
ATOM     85  C   UNL A   1      38.183  28.952  29.301  1.00  0.00     0.200 A 
ATOM     86  F   UNL A   1      37.768  29.614  27.073  1.00  0.00    -0.200 F 
ATOM     87  F   UNL A   1      36.874  29.013  29.578  1.00  0.00    -0.200 F 
ENDBRANCH  63  77
BRANCH  64  88
ATOM     88  C   UNL A   1      50.518  27.994  25.999  1.00  0.00     0.064 A 
ATOM     89  C   UNL A   1      51.566  27.837  26.918  1.00  0.00     0.173 A 
ATOM     90  C   UNL A   1      50.856  28.087  24.640  1.00  0.00     0.173 A 
ATOM     91  F   UNL A   1      51.299  27.772  28.231  1.00  0.00    -0.203 F 
ATOM     92  C   UNL A   1      52.894  27.798  26.498  1.00  0.00     0.198 A 
ATOM     93  C   UNL A   1      52.182  28.014  24.218  1.00  0.00     0.198 A 
ATOM     94  F   UNL A   1      49.894  28.246  23.719  1.00  0.00    -0.203 F 
ATOM     95  F   UNL A   1      53.877  27.705  27.404  1.00  0.00    -0.200 F 
ATOM     96  C   UNL A   1      53.200  27.879  25.149  1.00  0.00     0.200 A 
ATOM     97  F   UNL A   1      52.472  28.086  22.912  1.00  0.00    -0.200 F 
ATOM     98  F   UNL A   1      54.478  27.841  24.746  1.00  0.00    -0.200 F 
ENDBRANCH  64  88
BRANCH  76  99
ATOM     99  C   UNL A   1      46.709  33.116  28.827  1.00  0.00     0.064 A 
ATOM    100  C   UNL A   1      46.569  34.217  27.968  1.00  0.00     0.173 A 
ATOM    101  C   UNL A   1      47.149  33.363  30.138  1.00  0.00     0.173 A 
ATOM    102  F   UNL A   1      46.162  34.038  26.702  1.00  0.00    -0.203 F 
ATOM    103  C   UNL A   1      46.893  35.504  28.392  1.00  0.00     0.198 A 
ATOM    104  C   UNL A   1      47.433  34.655  30.570  1.00  0.00     0.198 A 
ATOM    105  F   UNL A   1      47.289  32.351  31.007  1.00  0.00    -0.203 F 
ATOM    106  F   UNL A   1      46.810  36.531  27.534  1.00  0.00    -0.200 F 
ATOM    107  C   UNL A   1      47.315  35.723  29.695  1.00  0.00     0.200 A 
ATOM    108  F   UNL A   1      47.820  34.866  31.836  1.00  0.00    -0.200 F 
ATOM    109  F   UNL A   1      47.619  36.963  30.103  1.00  0.00    -0.200 F 
ENDBRANCH  76  99
ENDBRANCH  50  51
ENDBRANCH  43  45
ENDBRANCH  42  43
ENDBRANCH  41  42
ENDBRANCH  40  41
ENDBRANCH  39  40
ENDBRANCH  38  39
ENDBRANCH  37  38
ENDBRANCH   1  37
TORSDOF 23
ENDMDL
MODEL 2
REMARK VINA RESULT:     -10.7      5.309      9.716
REMARK SMILES CC(=O)O[C@@H]1CC[C@@]23C(=O)O[C@]4(CC[C@]2(O)C1)[C@H]3CC[C@]1(C)[C@H](C(=O)OCCOCCOCCOCCOC(=O)c2ccc(-c3c5nc(c(-c6c(F)c(F)c(F)c(F)c6F)c6ccc([nH]6)c(-c6c(F)c(F)c(F)c(F)c6F)c6nc(c(-c7c(F)c(F)c(F)c(F)c7F)c7ccc3[nH]7)C=C6)C=C5)cc2)CC[C@@H]14
REMARK SMILES IDX 32 1 31 2 30 3 29 4 28 5 27 6 26 7 24 8 25 9 23 10 5 11 6 12
REMARK SMILES IDX 17 13 7 14 15 15 8 16 14 17 9 18 18 19 13 20 10 21 11 22
REMARK SMILES IDX 12 23 19 24 106 25 20 26 21 27 105 28 22 29 104 30 4 31 2 32
REMARK SMILES IDX 1 33 3 34 16 35 33 37 34 38 35 39 36 40 37 41 38 42 39 43
REMARK SMILES IDX 40 44 41 45 42 46 103 47 43 48 102 49 44 50 45 51 46 52
REMARK SMILES IDX 96 53 47 54 101 55 95 56 97 57 48 58 100 59 94 60 93 61
REMARK SMILES IDX 49 63 81 64 61 65 80 66 62 67 65 68 79 69 98 70 63 71 64 72
REMARK SMILES IDX 78 74 99 75 66 76 50 77 51 78 59 79 52 80 53 81 57 82 60 83
REMARK SMILES IDX 54 84 55 85 58 86 56 87 82 88 83 89 91 90 84 91 85 92 89 93
REMARK SMILES IDX 92 94 86 95 87 96 90 97 88 98 67 99 68 100 76 101 69 102
REMARK SMILES IDX 70 103 74 104 77 105 71 106 72 107 75 108 73 109
REMARK H PARENT 16 36 97 62 65 73
REMARK Flexibility Score: inf
ROOT
ATOM      1  O   UNL A   1      39.748  20.942  26.577  1.00  0.00    -0.377 OA
ENDROOT
BRANCH   1   2
ATOM      2  C   UNL A   1      38.719  21.499  25.790  1.00  0.00     0.188 C 
BRANCH   2   3
ATOM      3  C   UNL A   1      37.859  20.497  25.001  1.00  0.00     0.188 C 
BRANCH   3   4
ATOM      4  O   UNL A   1      36.522  20.811  24.621  1.00  0.00    -0.376 OA
BRANCH   4   5
ATOM      5  C   UNL A   1      35.428  20.316  25.377  1.00  0.00     0.202 C 
BRANCH   5   6
ATOM      6  C   UNL A   1      34.074  20.121  24.654  1.00  0.00     0.261 C 
BRANCH   6   7
ATOM      7  O   UNL A   1      32.881  20.467  25.396  1.00  0.00    -0.463 OA
BRANCH   7   8
ATOM      8  C   UNL A   1      32.712  21.785  25.628  1.00  0.00     0.309 C 
ATOM      9  O   UNL A   1      32.190  22.219  26.656  1.00  0.00    -0.252 OA
BRANCH   8  10
ATOM     10  C   UNL A   1      33.276  22.770  24.579  1.00  0.00     0.105 C 
ATOM     11  C   UNL A   1      32.215  29.991  26.746  1.00  0.00     0.179 C 
ATOM     12  C   UNL A   1      32.120  28.559  27.204  1.00  0.00     0.047 C 
ATOM     13  C   UNL A   1      31.354  30.135  25.467  1.00  0.00     0.081 C 
ATOM     14  C   UNL A   1      32.568  27.707  26.038  1.00  0.00     0.026 C 
ATOM     15  C   UNL A   1      31.289  28.956  24.429  1.00  0.00     0.085 C 
ATOM     16  C   UNL A   1      31.220  27.529  24.889  1.00  0.00     0.103 C 
ATOM     17  C   UNL A   1      32.594  28.942  23.524  1.00  0.00     0.041 C 
ATOM     18  C   UNL A   1      30.946  26.330  25.626  1.00  0.00     0.316 C 
ATOM     19  C   UNL A   1      31.246  26.561  23.463  1.00  0.00     0.054 C 
ATOM     20  C   UNL A   1      33.304  27.505  23.331  1.00  0.00     0.052 C 
ATOM     21  O   UNL A   1      30.111  26.002  26.444  1.00  0.00    -0.251 OA
ATOM     22  O   UNL A   1      32.074  25.629  25.168  1.00  0.00    -0.458 OA
ATOM     23  C   UNL A   1      32.584  26.146  23.844  1.00  0.00     0.120 C 
ATOM     24  C   UNL A   1      30.429  25.274  23.129  1.00  0.00     0.009 C 
ATOM     25  C   UNL A   1      33.389  24.967  23.390  1.00  0.00     0.040 C 
ATOM     26  C   UNL A   1      31.029  23.870  23.503  1.00  0.00     0.008 C 
ATOM     27  C   UNL A   1      32.586  23.632  23.406  1.00  0.00    -0.013 C 
ATOM     28  C   UNL A   1      34.555  24.777  24.395  1.00  0.00     0.009 C 
ATOM     29  C   UNL A   1      32.951  23.022  22.016  1.00  0.00     0.013 C 
ATOM     30  C   UNL A   1      34.068  23.775  25.415  1.00  0.00     0.016 C 
BRANCH  11  31
ATOM     31  O   UNL A   1      33.599  30.368  26.505  1.00  0.00    -0.462 OA
BRANCH  31  32
ATOM     32  C   UNL A   1      34.364  30.585  27.623  1.00  0.00     0.302 C 
ATOM     33  C   UNL A   1      35.356  29.485  27.850  1.00  0.00     0.139 C 
ATOM     34  O   UNL A   1      34.302  31.567  28.349  1.00  0.00    -0.253 OA
ENDBRANCH  31  32
ENDBRANCH  11  31
BRANCH  15  35
ATOM     35  O   UNL A   1      30.127  29.237  23.636  1.00  0.00    -0.389 OA
ATOM     36  H   UNL A   1      29.420  29.579  24.206  1.00  0.00     0.211 HD
ENDBRANCH  15  35
ENDBRANCH   8  10
ENDBRANCH   7   8
ENDBRANCH   6   7
ENDBRANCH   5   6
ENDBRANCH   4   5
ENDBRANCH   3   4
ENDBRANCH   2   3
ENDBRANCH   1   2
BRANCH   1  37
ATOM     37  C   UNL A   1      41.063  21.165  26.121  1.00  0.00     0.188 C 
BRANCH  37  38
ATOM     38  C   UNL A   1      42.135  21.379  27.201  1.00  0.00     0.188 C 
BRANCH  38  39
ATOM     39  O   UNL A   1      43.270  22.102  26.745  1.00  0.00    -0.376 OA
BRANCH  39  40
ATOM     40  C   UNL A   1      43.760  23.223  27.456  1.00  0.00     0.202 C 
BRANCH  40  41
ATOM     41  C   UNL A   1      42.821  24.391  27.813  1.00  0.00     0.261 C 
BRANCH  41  42
ATOM     42  O   UNL A   1      42.228  25.122  26.734  1.00  0.00    -0.460 OA
BRANCH  42  43
ATOM     43  C   UNL A   1      40.885  25.255  26.731  1.00  0.00     0.338 C 
ATOM     44  O   UNL A   1      40.082  24.562  26.135  1.00  0.00    -0.246 OA
BRANCH  43  45
ATOM     45  C   UNL A   1      40.534  26.276  27.745  1.00  0.00     0.060 A 
ATOM     46  C   UNL A   1      41.121  27.546  27.656  1.00  0.00     0.016 A 
ATOM     47  C   UNL A   1      39.605  25.998  28.751  1.00  0.00     0.016 A 
ATOM     48  C   UNL A   1      40.801  28.534  28.585  1.00  0.00     0.010 A 
ATOM     49  C   UNL A   1      39.315  26.977  29.707  1.00  0.00     0.010 A 
ATOM     50  C   UNL A   1      39.936  28.237  29.645  1.00  0.00    -0.014 A 
BRANCH  50  51
ATOM     51  C   UNL A   1      39.868  29.164  30.799  1.00  0.00     0.031 A 
ATOM     52  C   UNL A   1      40.868  28.986  31.908  1.00  0.00     0.074 A 
ATOM     53  C   UNL A   1      38.969  30.162  30.850  1.00  0.00     0.049 A 
ATOM     54  N   UNL A   1      41.000  29.647  33.029  1.00  0.00    -0.248 NA
ATOM     55  C   UNL A   1      41.854  27.908  31.725  1.00  0.00     0.031 C 
ATOM     56  C   UNL A   1      37.980  30.461  29.818  1.00  0.00     0.029 A 
ATOM     57  N   UNL A   1      38.743  31.105  31.821  1.00  0.00    -0.354 N 
ATOM     58  C   UNL A   1      42.074  29.060  33.686  1.00  0.00     0.074 A 
ATOM     59  C   UNL A   1      42.538  27.970  32.856  1.00  0.00     0.031 C 
ATOM     60  C   UNL A   1      37.238  31.507  30.219  1.00  0.00     0.029 A 
ATOM     61  C   UNL A   1      37.679  31.930  31.548  1.00  0.00     0.049 A 
ATOM     62  H   UNL A   1      39.292  31.183  32.635  1.00  0.00     0.167 HD
ATOM     63  C   UNL A   1      42.627  29.405  34.872  1.00  0.00     0.037 A 
ATOM     64  C   UNL A   1      37.116  32.895  32.301  1.00  0.00     0.037 A 
ATOM     65  C   UNL A   1      42.155  30.487  35.695  1.00  0.00     0.049 A 
ATOM     66  C   UNL A   1      37.704  33.214  33.653  1.00  0.00     0.074 A 
ATOM     67  C   UNL A   1      42.659  30.935  36.903  1.00  0.00     0.029 A 
ATOM     68  N   UNL A   1      41.056  31.281  35.402  1.00  0.00    -0.354 N 
ATOM     69  N   UNL A   1      38.741  32.681  34.255  1.00  0.00    -0.248 NA
ATOM     70  C   UNL A   1      37.047  34.275  34.428  1.00  0.00     0.031 C 
ATOM     71  C   UNL A   1      41.821  31.949  37.376  1.00  0.00     0.029 A 
ATOM     72  C   UNL A   1      40.842  32.191  36.426  1.00  0.00     0.049 A 
ATOM     73  H   UNL A   1      40.507  31.208  34.587  1.00  0.00     0.167 HD
ATOM     74  C   UNL A   1      38.878  33.360  35.460  1.00  0.00     0.074 A 
ATOM     75  C   UNL A   1      37.828  34.357  35.495  1.00  0.00     0.031 C 
ATOM     76  C   UNL A   1      39.792  33.179  36.447  1.00  0.00     0.037 A 
BRANCH  63  77
ATOM     77  C   UNL A   1      43.774  28.573  35.371  1.00  0.00     0.064 A 
ATOM     78  C   UNL A   1      43.579  27.446  36.185  1.00  0.00     0.173 A 
ATOM     79  C   UNL A   1      45.091  28.900  35.012  1.00  0.00     0.173 A 
ATOM     80  F   UNL A   1      42.343  27.098  36.573  1.00  0.00    -0.203 F 
ATOM     81  C   UNL A   1      44.661  26.700  36.648  1.00  0.00     0.198 A 
ATOM     82  C   UNL A   1      46.167  28.130  35.445  1.00  0.00     0.198 A 
ATOM     83  F   UNL A   1      45.335  29.966  34.236  1.00  0.00    -0.203 F 
ATOM     84  F   UNL A   1      44.454  25.664  37.473  1.00  0.00    -0.200 F 
ATOM     85  C   UNL A   1      45.952  27.037  36.271  1.00  0.00     0.200 A 
ATOM     86  F   UNL A   1      47.412  28.449  35.068  1.00  0.00    -0.200 F 
ATOM     87  F   UNL A   1      46.991  26.313  36.710  1.00  0.00    -0.200 F 
ENDBRANCH  63  77
BRANCH  64  88
ATOM     88  C   UNL A   1      35.915  33.618  31.804  1.00  0.00     0.064 A 
ATOM     89  C   UNL A   1      34.736  33.682  32.561  1.00  0.00     0.173 A 
ATOM     90  C   UNL A   1      35.912  34.239  30.545  1.00  0.00     0.173 A 
ATOM     91  F   UNL A   1      34.677  33.078  33.758  1.00  0.00    -0.203 F 
ATOM     92  C   UNL A   1      33.598  34.321  32.072  1.00  0.00     0.198 A 
ATOM     93  C   UNL A   1      34.784  34.907  30.071  1.00  0.00     0.198 A 
ATOM     94  F   UNL A   1      37.009  34.201  29.775  1.00  0.00    -0.203 F 
ATOM     95  F   UNL A   1      32.469  34.317  32.794  1.00  0.00    -0.200 F 
ATOM     96  C   UNL A   1      33.625  34.939  30.832  1.00  0.00     0.200 A 
ATOM     97  F   UNL A   1      34.818  35.509  28.875  1.00  0.00    -0.200 F 
ATOM     98  F   UNL A   1      32.530  35.553  30.362  1.00  0.00    -0.200 F 
ENDBRANCH  64  88
BRANCH  76  99
ATOM     99  C   UNL A   1      39.728  34.104  37.632  1.00  0.00     0.064 A 
ATOM    100  C   UNL A   1      40.366  35.354  37.635  1.00  0.00     0.173 A 
ATOM    101  C   UNL A   1      38.987  33.747  38.770  1.00  0.00     0.173 A 
ATOM    102  F   UNL A   1      41.095  35.743  36.578  1.00  0.00    -0.203 F 
ATOM    103  C   UNL A   1      40.295  36.192  38.746  1.00  0.00     0.198 A 
ATOM    104  C   UNL A   1      38.885  34.604  39.861  1.00  0.00     0.198 A 
ATOM    105  F   UNL A   1      38.345  32.569  38.818  1.00  0.00    -0.203 F 
ATOM    106  F   UNL A   1      40.964  37.354  38.749  1.00  0.00    -0.200 F 
ATOM    107  C   UNL A   1      39.548  35.821  39.853  1.00  0.00     0.200 A 
ATOM    108  F   UNL A   1      38.144  34.252  40.921  1.00  0.00    -0.200 F 
ATOM    109  F   UNL A   1      39.475  36.632  40.918  1.00  0.00    -0.200 F 
ENDBRANCH  76  99
ENDBRANCH  50  51
ENDBRANCH  43  45
ENDBRANCH  42  43
ENDBRANCH  41  42
ENDBRANCH  40  41
ENDBRANCH  39  40
ENDBRANCH  38  39
ENDBRANCH  37  38
ENDBRANCH   1  37
TORSDOF 23
ENDMDL
MODEL 3
REMARK VINA RESULT:     -10.5      4.622      6.897
REMARK SMILES CC(=O)O[C@@H]1CC[C@@]23C(=O)O[C@]4(CC[C@]2(O)C1)[C@H]3CC[C@]1(C)[C@H](C(=O)OCCOCCOCCOCCOC(=O)c2ccc(-c3c5nc(c(-c6c(F)c(F)c(F)c(F)c6F)c6ccc([nH]6)c(-c6c(F)c(F)c(F)c(F)c6F)c6nc(c(-c7c(F)c(F)c(F)c(F)c7F)c7ccc3[nH]7)C=C6)C=C5)cc2)CC[C@@H]14
REMARK SMILES IDX 32 1 31 2 30 3 29 4 28 5 27 6 26 7 24 8 25 9 23 10 5 11 6 12
REMARK SMILES IDX 17 13 7 14 15 15 8 16 14 17 9 18 18 19 13 20 10 21 11 22
REMARK SMILES IDX 12 23 19 24 106 25 20 26 21 27 105 28 22 29 104 30 4 31 2 32
REMARK SMILES IDX 1 33 3 34 16 35 33 37 34 38 35 39 36 40 37 41 38 42 39 43
REMARK SMILES IDX 40 44 41 45 42 46 103 47 43 48 102 49 44 50 45 51 46 52
REMARK SMILES IDX 96 53 47 54 101 55 95 56 97 57 48 58 100 59 94 60 93 61
REMARK SMILES IDX 49 63 81 64 61 65 80 66 62 67 65 68 79 69 98 70 63 71 64 72
REMARK SMILES IDX 78 74 99 75 66 76 50 77 51 78 59 79 52 80 53 81 57 82 60 83
REMARK SMILES IDX 54 84 55 85 58 86 56 87 82 88 83 89 91 90 84 91 85 92 89 93
REMARK SMILES IDX 92 94 86 95 87 96 90 97 88 98 67 99 68 100 76 101 69 102
REMARK SMILES IDX 70 103 74 104 77 105 71 106 72 107 75 108 73 109
REMARK H PARENT 16 36 97 62 65 73
REMARK Flexibility Score: inf
ROOT
ATOM      1  O   UNL A   1      39.607  20.759  26.383  1.00  0.00    -0.377 OA
ENDROOT
BRANCH   1   2
ATOM      2  C   UNL A   1      38.531  21.417  25.752  1.00  0.00     0.188 C 
BRANCH   2   3
ATOM      3  C   UNL A   1      37.551  20.515  24.981  1.00  0.00     0.188 C 
BRANCH   3   4
ATOM      4  O   UNL A   1      36.244  20.968  24.642  1.00  0.00    -0.376 OA
BRANCH   4   5
ATOM      5  C   UNL A   1      35.122  20.553  25.405  1.00  0.00     0.202 C 
BRANCH   5   6
ATOM      6  C   UNL A   1      33.860  20.080  24.645  1.00  0.00     0.261 C 
BRANCH   6   7
ATOM      7  O   UNL A   1      32.597  20.660  25.049  1.00  0.00    -0.463 OA
BRANCH   7   8
ATOM      8  C   UNL A   1      32.666  21.933  25.489  1.00  0.00     0.309 C 
ATOM      9  O   UNL A   1      32.268  22.274  26.604  1.00  0.00    -0.252 OA
BRANCH   8  10
ATOM     10  C   UNL A   1      33.349  22.969  24.568  1.00  0.00     0.105 C 
ATOM     11  C   UNL A   1      32.442  30.039  27.243  1.00  0.00     0.179 C 
ATOM     12  C   UNL A   1      32.251  28.581  27.573  1.00  0.00     0.047 C 
ATOM     13  C   UNL A   1      31.685  30.326  25.922  1.00  0.00     0.081 C 
ATOM     14  C   UNL A   1      32.747  27.804  26.375  1.00  0.00     0.026 C 
ATOM     15  C   UNL A   1      31.646  29.238  24.789  1.00  0.00     0.085 C 
ATOM     16  C   UNL A   1      31.482  27.784  25.124  1.00  0.00     0.103 C 
ATOM     17  C   UNL A   1      33.012  29.231  23.980  1.00  0.00     0.041 C 
ATOM     18  C   UNL A   1      31.103  26.544  25.738  1.00  0.00     0.316 C 
ATOM     19  C   UNL A   1      31.572  26.931  23.628  1.00  0.00     0.054 C 
ATOM     20  C   UNL A   1      33.672  27.781  23.720  1.00  0.00     0.052 C 
ATOM     21  O   UNL A   1      30.196  26.195  26.465  1.00  0.00    -0.251 OA
ATOM     22  O   UNL A   1      32.230  25.828  25.304  1.00  0.00    -0.458 OA
ATOM     23  C   UNL A   1      32.859  26.422  24.066  1.00  0.00     0.120 C 
ATOM     24  C   UNL A   1      30.727  25.716  23.132  1.00  0.00     0.009 C 
ATOM     25  C   UNL A   1      33.644  25.245  23.575  1.00  0.00     0.040 C 
ATOM     26  C   UNL A   1      31.236  24.259  23.430  1.00  0.00     0.008 C 
ATOM     27  C   UNL A   1      32.785  23.954  23.424  1.00  0.00    -0.013 C 
ATOM     28  C   UNL A   1      34.723  24.919  24.641  1.00  0.00     0.009 C 
ATOM     29  C   UNL A   1      33.226  23.439  22.018  1.00  0.00     0.013 C 
ATOM     30  C   UNL A   1      34.119  23.864  25.538  1.00  0.00     0.016 C 
BRANCH  11  31
ATOM     31  O   UNL A   1      33.854  30.366  27.131  1.00  0.00    -0.462 OA
BRANCH  31  32
ATOM     32  C   UNL A   1      34.232  31.575  27.659  1.00  0.00     0.302 C 
ATOM     33  C   UNL A   1      35.722  31.713  27.746  1.00  0.00     0.139 C 
ATOM     34  O   UNL A   1      33.474  32.475  27.992  1.00  0.00    -0.253 OA
ENDBRANCH  31  32
ENDBRANCH  11  31
BRANCH  15  35
ATOM     35  O   UNL A   1      30.560  29.636  23.941  1.00  0.00    -0.389 OA
ATOM     36  H   UNL A   1      30.745  30.513  23.568  1.00  0.00     0.211 HD
ENDBRANCH  15  35
ENDBRANCH   8  10
ENDBRANCH   7   8
ENDBRANCH   6   7
ENDBRANCH   5   6
ENDBRANCH   4   5
ENDBRANCH   3   4
ENDBRANCH   2   3
ENDBRANCH   1   2
BRANCH   1  37
ATOM     37  C   UNL A   1      40.883  20.995  25.833  1.00  0.00     0.188 C 
BRANCH  37  38
ATOM     38  C   UNL A   1      41.995  21.378  26.822  1.00  0.00     0.188 C 
BRANCH  38  39
ATOM     39  O   UNL A   1      43.044  22.138  26.238  1.00  0.00    -0.376 OA
BRANCH  39  40
ATOM     40  C   UNL A   1      43.480  23.353  26.817  1.00  0.00     0.202 C 
BRANCH  40  41
ATOM     41  C   UNL A   1      42.467  24.462  27.158  1.00  0.00     0.261 C 
BRANCH  41  42
ATOM     42  O   UNL A   1      41.556  24.870  26.131  1.00  0.00    -0.460 OA
BRANCH  42  43
ATOM     43  C   UNL A   1      40.269  25.073  26.481  1.00  0.00     0.338 C 
ATOM     44  O   UNL A   1      39.306  24.407  26.150  1.00  0.00    -0.246 OA
BRANCH  43  45
ATOM     45  C   UNL A   1      40.247  26.140  27.508  1.00  0.00     0.060 A 
ATOM     46  C   UNL A   1      40.834  27.378  27.208  1.00  0.00     0.016 A 
ATOM     47  C   UNL A   1      39.621  25.937  28.740  1.00  0.00     0.016 A 
ATOM     48  C   UNL A   1      40.817  28.408  28.147  1.00  0.00     0.010 A 
ATOM     49  C   UNL A   1      39.640  26.958  29.696  1.00  0.00     0.010 A 
ATOM     50  C   UNL A   1      40.267  28.184  29.414  1.00  0.00    -0.014 A 
BRANCH  50  51
ATOM     51  C   UNL A   1      40.552  29.148  30.503  1.00  0.00     0.031 A 
ATOM     52  C   UNL A   1      39.512  30.189  30.815  1.00  0.00     0.074 A 
ATOM     53  C   UNL A   1      41.684  29.084  31.223  1.00  0.00     0.049 A 
ATOM     54  N   UNL A   1      39.532  31.154  31.697  1.00  0.00    -0.248 NA
ATOM     55  C   UNL A   1      38.277  30.131  30.015  1.00  0.00     0.031 C 
ATOM     56  C   UNL A   1      42.744  28.096  31.044  1.00  0.00     0.029 A 
ATOM     57  N   UNL A   1      42.130  29.879  32.250  1.00  0.00    -0.354 N 
ATOM     58  C   UNL A   1      38.323  31.821  31.552  1.00  0.00     0.074 A 
ATOM     59  C   UNL A   1      37.605  31.174  30.477  1.00  0.00     0.031 C 
ATOM     60  C   UNL A   1      43.730  28.354  31.921  1.00  0.00     0.029 A 
ATOM     61  C   UNL A   1      43.384  29.543  32.699  1.00  0.00     0.049 A 
ATOM     62  H   UNL A   1      41.602  30.619  32.628  1.00  0.00     0.167 HD
ATOM     63  C   UNL A   1      37.852  32.875  32.258  1.00  0.00     0.037 A 
ATOM     64  C   UNL A   1      44.166  30.146  33.615  1.00  0.00     0.037 A 
ATOM     65  C   UNL A   1      38.576  33.519  33.322  1.00  0.00     0.049 A 
ATOM     66  C   UNL A   1      43.650  31.365  34.339  1.00  0.00     0.074 A 
ATOM     67  C   UNL A   1      38.179  34.580  34.117  1.00  0.00     0.029 A 
ATOM     68  N   UNL A   1      39.856  33.171  33.730  1.00  0.00    -0.354 N 
ATOM     69  N   UNL A   1      42.492  31.972  34.224  1.00  0.00    -0.248 NA
ATOM     70  C   UNL A   1      44.548  31.980  35.326  1.00  0.00     0.031 C 
ATOM     71  C   UNL A   1      39.247  34.921  34.952  1.00  0.00     0.029 A 
ATOM     72  C   UNL A   1      40.279  34.023  34.738  1.00  0.00     0.049 A 
ATOM     73  H   UNL A   1      40.386  32.430  33.356  1.00  0.00     0.167 HD
ATOM     74  C   UNL A   1      42.511  33.016  35.141  1.00  0.00     0.074 A 
ATOM     75  C   UNL A   1      43.789  32.948  35.818  1.00  0.00     0.031 C 
ATOM     76  C   UNL A   1      41.556  33.944  35.404  1.00  0.00     0.037 A 
BRANCH  63  77
ATOM     77  C   UNL A   1      36.510  33.428  31.869  1.00  0.00     0.064 A 
ATOM     78  C   UNL A   1      36.293  34.058  30.633  1.00  0.00     0.173 A 
ATOM     79  C   UNL A   1      35.418  33.307  32.741  1.00  0.00     0.173 A 
ATOM     80  F   UNL A   1      37.307  34.216  29.767  1.00  0.00    -0.203 F 
ATOM     81  C   UNL A   1      35.044  34.576  30.302  1.00  0.00     0.198 A 
ATOM     82  C   UNL A   1      34.161  33.791  32.391  1.00  0.00     0.198 A 
ATOM     83  F   UNL A   1      35.568  32.713  33.934  1.00  0.00    -0.203 F 
ATOM     84  F   UNL A   1      34.875  35.226  29.142  1.00  0.00    -0.200 F 
ATOM     85  C   UNL A   1      33.977  34.435  31.176  1.00  0.00     0.200 A 
ATOM     86  F   UNL A   1      33.128  33.642  33.232  1.00  0.00    -0.200 F 
ATOM     87  F   UNL A   1      32.772  34.926  30.853  1.00  0.00    -0.200 F 
ENDBRANCH  63  77
BRANCH  64  88
ATOM     88  C   UNL A   1      45.531  29.620  33.888  1.00  0.00     0.064 A 
ATOM     89  C   UNL A   1      45.764  28.692  34.913  1.00  0.00     0.173 A 
ATOM     90  C   UNL A   1      46.638  30.055  33.142  1.00  0.00     0.173 A 
ATOM     91  F   UNL A   1      44.744  28.267  35.675  1.00  0.00    -0.203 F 
ATOM     92  C   UNL A   1      47.050  28.237  35.196  1.00  0.00     0.198 A 
ATOM     93  C   UNL A   1      47.919  29.573  33.403  1.00  0.00     0.198 A 
ATOM     94  F   UNL A   1      46.473  30.948  32.155  1.00  0.00    -0.203 F 
ATOM     95  F   UNL A   1      47.250  27.395  36.219  1.00  0.00    -0.200 F 
ATOM     96  C   UNL A   1      48.125  28.672  34.436  1.00  0.00     0.200 A 
ATOM     97  F   UNL A   1      48.953  29.991  32.661  1.00  0.00    -0.200 F 
ATOM     98  F   UNL A   1      49.362  28.233  34.708  1.00  0.00    -0.200 F 
ENDBRANCH  64  88
BRANCH  76  99
ATOM     99  C   UNL A   1      41.836  34.938  36.498  1.00  0.00     0.064 A 
ATOM    100  C   UNL A   1      42.599  36.094  36.275  1.00  0.00     0.173 A 
ATOM    101  C   UNL A   1      41.302  34.746  37.782  1.00  0.00     0.173 A 
ATOM    102  F   UNL A   1      43.142  36.323  35.070  1.00  0.00    -0.203 F 
ATOM    103  C   UNL A   1      42.848  36.999  37.305  1.00  0.00     0.198 A 
ATOM    104  C   UNL A   1      41.518  35.673  38.798  1.00  0.00     0.198 A 
ATOM    105  F   UNL A   1      40.553  33.665  38.050  1.00  0.00    -0.203 F 
ATOM    106  F   UNL A   1      43.632  38.064  37.084  1.00  0.00    -0.200 F 
ATOM    107  C   UNL A   1      42.300  36.792  38.562  1.00  0.00     0.200 A 
ATOM    108  F   UNL A   1      40.969  35.481  40.006  1.00  0.00    -0.200 F 
ATOM    109  F   UNL A   1      42.535  37.668  39.549  1.00  0.00    -0.200 F 
ENDBRANCH  76  99
ENDBRANCH  50  51
ENDBRANCH  43  45
ENDBRANCH  42  43
ENDBRANCH  41  42
ENDBRANCH  40  41
ENDBRANCH  39  40
ENDBRANCH  38  39
ENDBRANCH  37  38
ENDBRANCH   1  37
TORSDOF 23
ENDMDL
