MODEL 1
REMARK VINA RESULT:     -10.5      0.000      0.000
REMARK SMILES Cc1c(CC(=O)OCCOCCOCCOCCOC(=O)c2ccc(-c3c4nc(c(-c5c(F)c(F)c(F)c(F)c5F)c5ccc([nH]5)c(-c5c(F)c(F)c(F)c(F)c5F)c5nc(c(-c6c(F)c(F)c(F)c(F)c6F)c6ccc3[nH]6)C=C5)C=C4)cc2)c2cc(O)ccc2n1C(=O)c1ccc(Cl)cc1
REMARK SMILES IDX 12 1 11 2 10 3 9 4 8 5 7 6 5 7 6 8 4 9 3 10 1 11 2 12 92 13
REMARK SMILES IDX 85 14 91 15 86 16 90 17 87 18 89 19 93 20 94 21 95 22 96 23
REMARK SMILES IDX 101 24 97 25 100 26 98 27 99 28 88 29 13 31 14 32 15 33
REMARK SMILES IDX 16 34 17 35 18 36 19 37 20 38 21 39 22 40 23 41 84 42 24 43
REMARK SMILES IDX 83 44 25 45 26 46 27 47 77 48 28 49 82 50 76 51 78 52 29 53
REMARK SMILES IDX 81 54 75 55 74 56 30 58 62 59 42 60 61 61 43 62 46 63 60 64
REMARK SMILES IDX 79 65 44 66 45 67 59 69 80 70 47 71 31 72 32 73 40 74 33 75
REMARK SMILES IDX 34 76 38 77 41 78 35 79 36 80 39 81 37 82 63 83 64 84 72 85
REMARK SMILES IDX 65 86 66 87 70 88 73 89 67 90 68 91 71 92 69 93 48 94 49 95
REMARK SMILES IDX 57 96 50 97 51 98 55 99 58 100 52 101 53 102 56 103 54 104
REMARK H PARENT 88 30 78 57 46 68
REMARK Flexibility Score: inf
ROOT
ATOM      1  C   UNL A   1      33.143  36.003  31.082  1.00  0.00     0.188 C 
ENDROOT
BRANCH   1   2
ATOM      2  C   UNL A   1      33.020  35.747  29.584  1.00  0.00     0.188 C 
BRANCH   2   3
ATOM      3  O   UNL A   1      32.561  34.448  29.259  1.00  0.00    -0.376 OA
BRANCH   3   4
ATOM      4  C   UNL A   1      32.913  33.912  27.995  1.00  0.00     0.202 C 
BRANCH   4   5
ATOM      5  C   UNL A   1      33.933  32.757  27.920  1.00  0.00     0.261 C 
BRANCH   5   6
ATOM      6  O   UNL A   1      33.429  31.405  27.830  1.00  0.00    -0.463 OA
BRANCH   6   7
ATOM      7  C   UNL A   1      32.507  31.122  26.881  1.00  0.00     0.310 C 
ATOM      8  O   UNL A   1      31.425  31.703  26.816  1.00  0.00    -0.252 OA
BRANCH   7   9
ATOM      9  C   UNL A   1      32.907  30.063  25.849  1.00  0.00     0.160 C 
BRANCH   9  10
ATOM     10  C   UNL A   1      31.917  29.006  25.379  1.00  0.00    -0.008 A 
ATOM     11  C   UNL A   1      32.459  27.086  27.031  1.00  0.00     0.065 C 
ATOM     12  C   UNL A   1      31.742  27.722  25.884  1.00  0.00     0.028 A 
ATOM     13  N   UNL A   1      30.722  27.064  25.170  1.00  0.00    -0.280 N 
ATOM     14  C   UNL A   1      30.884  29.187  24.398  1.00  0.00     0.008 A 
ATOM     15  C   UNL A   1      30.242  27.956  24.197  1.00  0.00     0.057 A 
ATOM     16  C   UNL A   1      30.486  30.293  23.605  1.00  0.00     0.056 A 
ATOM     17  C   UNL A   1      29.284  27.817  23.165  1.00  0.00     0.031 A 
ATOM     18  C   UNL A   1      29.600  30.110  22.544  1.00  0.00     0.116 A 
ATOM     19  C   UNL A   1      29.002  28.889  22.318  1.00  0.00     0.048 A 
BRANCH  13  20
ATOM     20  C   UNL A   1      30.237  25.743  25.422  1.00  0.00     0.262 C 
ATOM     21  O   UNL A   1      29.172  25.601  26.022  1.00  0.00    -0.268 OA
BRANCH  20  22
ATOM     22  C   UNL A   1      30.889  24.495  24.988  1.00  0.00     0.040 A 
ATOM     23  C   UNL A   1      31.100  24.248  23.626  1.00  0.00     0.015 A 
ATOM     24  C   UNL A   1      31.286  23.562  25.953  1.00  0.00     0.015 A 
ATOM     25  C   UNL A   1      31.649  23.026  23.227  1.00  0.00     0.021 A 
ATOM     26  C   UNL A   1      31.842  22.345  25.548  1.00  0.00     0.021 A 
ATOM     27  C   UNL A   1      32.007  22.076  24.187  1.00  0.00     0.041 A 
ATOM     28  Cl  UNL A   1      32.642  20.556  23.690  1.00  0.00    -0.084 Cl
ENDBRANCH  20  22
ENDBRANCH  13  20
BRANCH  18  29
ATOM     29  O   UNL A   1      29.400  31.159  21.693  1.00  0.00    -0.508 OA
ATOM     30  H   UNL A   1      29.427  32.036  22.018  1.00  0.00     0.293 HD
ENDBRANCH  18  29
ENDBRANCH   9  10
ENDBRANCH   7   9
ENDBRANCH   6   7
ENDBRANCH   5   6
ENDBRANCH   4   5
ENDBRANCH   3   4
ENDBRANCH   2   3
ENDBRANCH   1   2
BRANCH   1  31
ATOM     31  O   UNL A   1      34.366  36.218  31.742  1.00  0.00    -0.377 OA
BRANCH  31  32
ATOM     32  C   UNL A   1      34.369  36.199  33.141  1.00  0.00     0.188 C 
BRANCH  32  33
ATOM     33  C   UNL A   1      34.735  34.845  33.757  1.00  0.00     0.188 C 
BRANCH  33  34
ATOM     34  O   UNL A   1      34.255  33.613  33.227  1.00  0.00    -0.376 OA
BRANCH  34  35
ATOM     35  C   UNL A   1      35.116  32.710  32.552  1.00  0.00     0.202 C 
BRANCH  35  36
ATOM     36  C   UNL A   1      34.863  32.329  31.080  1.00  0.00     0.261 C 
BRANCH  36  37
ATOM     37  O   UNL A   1      35.843  31.459  30.514  1.00  0.00    -0.460 OA
BRANCH  37  38
ATOM     38  C   UNL A   1      36.977  32.015  30.004  1.00  0.00     0.338 C 
ATOM     39  O   UNL A   1      37.109  33.082  29.465  1.00  0.00    -0.246 OA
BRANCH  38  40
ATOM     40  C   UNL A   1      38.073  31.177  30.549  1.00  0.00     0.060 A 
ATOM     41  C   UNL A   1      39.378  31.674  30.624  1.00  0.00     0.016 A 
ATOM     42  C   UNL A   1      37.820  29.800  30.602  1.00  0.00     0.016 A 
ATOM     43  C   UNL A   1      40.436  30.772  30.568  1.00  0.00     0.010 A 
ATOM     44  C   UNL A   1      38.883  28.902  30.534  1.00  0.00     0.010 A 
ATOM     45  C   UNL A   1      40.190  29.388  30.453  1.00  0.00    -0.014 A 
BRANCH  45  46
ATOM     46  C   UNL A   1      41.350  28.491  30.521  1.00  0.00     0.031 A 
ATOM     47  C   UNL A   1      41.847  28.339  31.916  1.00  0.00     0.074 A 
ATOM     48  C   UNL A   1      41.856  27.702  29.551  1.00  0.00     0.049 A 
ATOM     49  N   UNL A   1      43.031  28.558  32.388  1.00  0.00    -0.248 NA
ATOM     50  C   UNL A   1      40.833  28.013  32.935  1.00  0.00     0.031 C 
ATOM     51  C   UNL A   1      41.326  27.448  28.212  1.00  0.00     0.029 A 
ATOM     52  N   UNL A   1      42.932  26.852  29.623  1.00  0.00    -0.354 N 
ATOM     53  C   UNL A   1      42.944  28.263  33.744  1.00  0.00     0.074 A 
ATOM     54  C   UNL A   1      41.551  28.074  34.051  1.00  0.00     0.031 C 
ATOM     55  C   UNL A   1      41.947  26.364  27.688  1.00  0.00     0.029 A 
ATOM     56  C   UNL A   1      42.983  25.909  28.605  1.00  0.00     0.049 A 
ATOM     57  H   UNL A   1      43.609  26.906  30.336  1.00  0.00     0.167 HD
ATOM     58  C   UNL A   1      44.032  27.981  34.505  1.00  0.00     0.037 A 
ATOM     59  C   UNL A   1      43.757  24.793  28.566  1.00  0.00     0.037 A 
ATOM     60  C   UNL A   1      45.251  28.472  33.934  1.00  0.00     0.049 A 
ATOM     61  C   UNL A   1      44.855  24.957  29.549  1.00  0.00     0.074 A 
ATOM     62  C   UNL A   1      45.726  29.721  33.587  1.00  0.00     0.029 A 
ATOM     63  N   UNL A   1      46.106  27.577  33.345  1.00  0.00    -0.354 N 
ATOM     64  N   UNL A   1      45.864  25.770  29.414  1.00  0.00    -0.248 NA
ATOM     65  C   UNL A   1      44.654  24.429  30.890  1.00  0.00     0.031 C 
ATOM     66  C   UNL A   1      46.544  29.509  32.440  1.00  0.00     0.029 A 
ATOM     67  C   UNL A   1      46.522  28.141  32.167  1.00  0.00     0.049 A 
ATOM     68  H   UNL A   1      46.371  26.698  33.700  1.00  0.00     0.167 HD
ATOM     69  C   UNL A   1      46.162  26.176  30.705  1.00  0.00     0.074 A 
ATOM     70  C   UNL A   1      45.469  25.234  31.573  1.00  0.00     0.031 C 
ATOM     71  C   UNL A   1      46.715  27.399  30.946  1.00  0.00     0.037 A 
BRANCH  58  72
ATOM     72  C   UNL A   1      43.986  26.971  35.615  1.00  0.00     0.064 A 
ATOM     73  C   UNL A   1      44.333  27.345  36.923  1.00  0.00     0.173 A 
ATOM     74  C   UNL A   1      43.860  25.583  35.382  1.00  0.00     0.173 A 
ATOM     75  F   UNL A   1      44.532  28.636  37.231  1.00  0.00    -0.203 F 
ATOM     76  C   UNL A   1      44.560  26.393  37.919  1.00  0.00     0.198 A 
ATOM     77  C   UNL A   1      44.024  24.641  36.391  1.00  0.00     0.198 A 
ATOM     78  F   UNL A   1      43.679  25.086  34.150  1.00  0.00    -0.203 F 
ATOM     79  F   UNL A   1      44.994  26.785  39.124  1.00  0.00    -0.200 F 
ATOM     80  C   UNL A   1      44.400  25.043  37.654  1.00  0.00     0.200 A 
ATOM     81  F   UNL A   1      43.889  23.338  36.106  1.00  0.00    -0.200 F 
ATOM     82  F   UNL A   1      44.658  24.129  38.598  1.00  0.00    -0.200 F 
ENDBRANCH  58  72
BRANCH  59  83
ATOM     83  C   UNL A   1      43.478  23.473  27.941  1.00  0.00     0.064 A 
ATOM     84  C   UNL A   1      42.321  22.741  28.270  1.00  0.00     0.173 A 
ATOM     85  C   UNL A   1      44.187  23.031  26.808  1.00  0.00     0.173 A 
ATOM     86  F   UNL A   1      41.554  23.116  29.304  1.00  0.00    -0.203 F 
ATOM     87  C   UNL A   1      41.889  21.656  27.497  1.00  0.00     0.198 A 
ATOM     88  C   UNL A   1      43.764  21.941  26.046  1.00  0.00     0.198 A 
ATOM     89  F   UNL A   1      45.251  23.708  26.355  1.00  0.00    -0.203 F 
ATOM     90  F   UNL A   1      40.743  21.031  27.802  1.00  0.00    -0.200 F 
ATOM     91  C   UNL A   1      42.607  21.263  26.381  1.00  0.00     0.200 A 
ATOM     92  F   UNL A   1      44.449  21.593  24.948  1.00  0.00    -0.200 F 
ATOM     93  F   UNL A   1      42.163  20.263  25.605  1.00  0.00    -0.200 F 
ENDBRANCH  59  83
BRANCH  71  94
ATOM     94  C   UNL A   1      47.307  28.141  29.786  1.00  0.00     0.064 A 
ATOM     95  C   UNL A   1      46.564  28.956  28.916  1.00  0.00     0.173 A 
ATOM     96  C   UNL A   1      48.702  28.137  29.640  1.00  0.00     0.173 A 
ATOM     97  F   UNL A   1      45.239  29.096  29.059  1.00  0.00    -0.203 F 
ATOM     98  C   UNL A   1      47.190  29.694  27.914  1.00  0.00     0.198 A 
ATOM     99  C   UNL A   1      49.327  28.908  28.664  1.00  0.00     0.198 A 
ATOM    100  F   UNL A   1      49.464  27.419  30.479  1.00  0.00    -0.203 F 
ATOM    101  F   UNL A   1      46.457  30.451  27.084  1.00  0.00    -0.200 F 
ATOM    102  C   UNL A   1      48.570  29.678  27.796  1.00  0.00     0.200 A 
ATOM    103  F   UNL A   1      50.665  28.929  28.587  1.00  0.00    -0.200 F 
ATOM    104  F   UNL A   1      49.175  30.429  26.864  1.00  0.00    -0.200 F 
ENDBRANCH  71  94
ENDBRANCH  45  46
ENDBRANCH  38  40
ENDBRANCH  37  38
ENDBRANCH  36  37
ENDBRANCH  35  36
ENDBRANCH  34  35
ENDBRANCH  33  34
ENDBRANCH  32  33
ENDBRANCH  31  32
ENDBRANCH   1  31
TORSDOF 24
ENDMDL
MODEL 2
REMARK VINA RESULT:     -10.0      1.892      3.034
REMARK SMILES Cc1c(CC(=O)OCCOCCOCCOCCOC(=O)c2ccc(-c3c4nc(c(-c5c(F)c(F)c(F)c(F)c5F)c5ccc([nH]5)c(-c5c(F)c(F)c(F)c(F)c5F)c5nc(c(-c6c(F)c(F)c(F)c(F)c6F)c6ccc3[nH]6)C=C5)C=C4)cc2)c2cc(O)ccc2n1C(=O)c1ccc(Cl)cc1
REMARK SMILES IDX 12 1 11 2 10 3 9 4 8 5 7 6 5 7 6 8 4 9 3 10 1 11 2 12 92 13
REMARK SMILES IDX 85 14 91 15 86 16 90 17 87 18 89 19 93 20 94 21 95 22 96 23
REMARK SMILES IDX 101 24 97 25 100 26 98 27 99 28 88 29 13 31 14 32 15 33
REMARK SMILES IDX 16 34 17 35 18 36 19 37 20 38 21 39 22 40 23 41 84 42 24 43
REMARK SMILES IDX 83 44 25 45 26 46 27 47 77 48 28 49 82 50 76 51 78 52 29 53
REMARK SMILES IDX 81 54 75 55 74 56 30 58 62 59 42 60 61 61 43 62 46 63 60 64
REMARK SMILES IDX 79 65 44 66 45 67 59 69 80 70 47 71 31 72 32 73 40 74 33 75
REMARK SMILES IDX 34 76 38 77 41 78 35 79 36 80 39 81 37 82 63 83 64 84 72 85
REMARK SMILES IDX 65 86 66 87 70 88 73 89 67 90 68 91 71 92 69 93 48 94 49 95
REMARK SMILES IDX 57 96 50 97 51 98 55 99 58 100 52 101 53 102 56 103 54 104
REMARK H PARENT 88 30 78 57 46 68
REMARK Flexibility Score: inf
ROOT
ATOM      1  C   UNL A   1      33.619  34.460  30.317  1.00  0.00     0.188 C 
ENDROOT
BRANCH   1   2
ATOM      2  C   UNL A   1      33.855  33.871  28.931  1.00  0.00     0.188 C 
BRANCH   2   3
ATOM      3  O   UNL A   1      33.924  32.458  28.913  1.00  0.00    -0.376 OA
BRANCH   3   4
ATOM      4  C   UNL A   1      34.197  31.819  27.677  1.00  0.00     0.202 C 
BRANCH   4   5
ATOM      5  C   UNL A   1      35.312  30.755  27.606  1.00  0.00     0.261 C 
BRANCH   5   6
ATOM      6  O   UNL A   1      34.972  29.386  27.926  1.00  0.00    -0.463 OA
BRANCH   6   7
ATOM      7  C   UNL A   1      33.918  28.819  27.295  1.00  0.00     0.310 C 
ATOM      8  O   UNL A   1      32.888  28.499  27.885  1.00  0.00    -0.252 OA
BRANCH   7   9
ATOM      9  C   UNL A   1      34.058  28.639  25.780  1.00  0.00     0.160 C 
BRANCH   9  10
ATOM     10  C   UNL A   1      32.934  28.035  24.949  1.00  0.00    -0.008 A 
ATOM     11  C   UNL A   1      31.094  29.829  25.272  1.00  0.00     0.065 C 
ATOM     12  C   UNL A   1      31.657  28.547  24.749  1.00  0.00     0.028 A 
ATOM     13  N   UNL A   1      30.923  27.683  23.913  1.00  0.00    -0.280 N 
ATOM     14  C   UNL A   1      33.030  26.875  24.107  1.00  0.00     0.008 A 
ATOM     15  C   UNL A   1      31.760  26.606  23.577  1.00  0.00     0.057 A 
ATOM     16  C   UNL A   1      34.089  25.983  23.807  1.00  0.00     0.056 A 
ATOM     17  C   UNL A   1      31.538  25.423  22.834  1.00  0.00     0.031 A 
ATOM     18  C   UNL A   1      33.827  24.785  23.143  1.00  0.00     0.116 A 
ATOM     19  C   UNL A   1      32.569  24.499  22.660  1.00  0.00     0.048 A 
BRANCH  13  20
ATOM     20  C   UNL A   1      29.584  27.892  23.457  1.00  0.00     0.262 C 
ATOM     21  O   UNL A   1      28.735  27.030  23.679  1.00  0.00    -0.268 OA
BRANCH  20  22
ATOM     22  C   UNL A   1      29.097  29.093  22.756  1.00  0.00     0.040 A 
ATOM     23  C   UNL A   1      29.858  29.667  21.730  1.00  0.00     0.015 A 
ATOM     24  C   UNL A   1      27.872  29.654  23.135  1.00  0.00     0.015 A 
ATOM     25  C   UNL A   1      29.419  30.851  21.129  1.00  0.00     0.021 A 
ATOM     26  C   UNL A   1      27.434  30.833  22.524  1.00  0.00     0.021 A 
ATOM     27  C   UNL A   1      28.216  31.433  21.536  1.00  0.00     0.041 A 
ATOM     28  Cl  UNL A   1      27.701  32.913  20.825  1.00  0.00    -0.084 Cl
ENDBRANCH  20  22
ENDBRANCH  13  20
BRANCH  18  29
ATOM     29  O   UNL A   1      34.840  23.874  23.052  1.00  0.00    -0.508 OA
ATOM     30  H   UNL A   1      34.787  23.066  23.522  1.00  0.00     0.293 HD
ENDBRANCH  18  29
ENDBRANCH   9  10
ENDBRANCH   7   9
ENDBRANCH   6   7
ENDBRANCH   5   6
ENDBRANCH   4   5
ENDBRANCH   3   4
ENDBRANCH   2   3
ENDBRANCH   1   2
BRANCH   1  31
ATOM     31  O   UNL A   1      34.328  35.561  30.831  1.00  0.00    -0.377 OA
BRANCH  31  32
ATOM     32  C   UNL A   1      33.891  36.117  32.038  1.00  0.00     0.188 C 
BRANCH  32  33
ATOM     33  C   UNL A   1      34.635  35.609  33.277  1.00  0.00     0.188 C 
BRANCH  33  34
ATOM     34  O   UNL A   1      34.430  34.302  33.805  1.00  0.00    -0.376 OA
BRANCH  34  35
ATOM     35  C   UNL A   1      35.259  33.213  33.432  1.00  0.00     0.202 C 
BRANCH  35  36
ATOM     36  C   UNL A   1      34.860  32.274  32.277  1.00  0.00     0.261 C 
BRANCH  36  37
ATOM     37  O   UNL A   1      35.913  31.438  31.797  1.00  0.00    -0.460 OA
BRANCH  37  38
ATOM     38  C   UNL A   1      36.901  32.012  31.058  1.00  0.00     0.338 C 
ATOM     39  O   UNL A   1      36.871  33.046  30.444  1.00  0.00    -0.246 OA
BRANCH  38  40
ATOM     40  C   UNL A   1      38.125  31.265  31.439  1.00  0.00     0.060 A 
ATOM     41  C   UNL A   1      39.390  31.747  31.088  1.00  0.00     0.016 A 
ATOM     42  C   UNL A   1      37.935  29.923  31.793  1.00  0.00     0.016 A 
ATOM     43  C   UNL A   1      40.425  30.832  30.920  1.00  0.00     0.010 A 
ATOM     44  C   UNL A   1      38.972  29.011  31.611  1.00  0.00     0.010 A 
ATOM     45  C   UNL A   1      40.200  29.454  31.113  1.00  0.00    -0.014 A 
BRANCH  45  46
ATOM     46  C   UNL A   1      41.364  28.564  31.036  1.00  0.00     0.031 A 
ATOM     47  C   UNL A   1      41.940  28.293  32.381  1.00  0.00     0.074 A 
ATOM     48  C   UNL A   1      41.818  27.869  29.972  1.00  0.00     0.049 A 
ATOM     49  N   UNL A   1      43.148  28.479  32.803  1.00  0.00    -0.248 NA
ATOM     50  C   UNL A   1      40.987  27.868  33.422  1.00  0.00     0.031 C 
ATOM     51  C   UNL A   1      41.214  27.731  28.647  1.00  0.00     0.029 A 
ATOM     52  N   UNL A   1      42.899  27.026  29.906  1.00  0.00    -0.354 N 
ATOM     53  C   UNL A   1      43.139  28.063  34.131  1.00  0.00     0.074 A 
ATOM     54  C   UNL A   1      41.767  27.836  34.497  1.00  0.00     0.031 C 
ATOM     55  C   UNL A   1      41.807  26.704  27.994  1.00  0.00     0.029 A 
ATOM     56  C   UNL A   1      42.895  26.178  28.807  1.00  0.00     0.049 A 
ATOM     57  H   UNL A   1      43.615  27.022  30.582  1.00  0.00     0.167 HD
ATOM     58  C   UNL A   1      44.270  27.723  34.801  1.00  0.00     0.037 A 
ATOM     59  C   UNL A   1      43.669  25.077  28.625  1.00  0.00     0.037 A 
ATOM     60  C   UNL A   1      45.452  28.274  34.209  1.00  0.00     0.049 A 
ATOM     61  C   UNL A   1      44.821  25.162  29.556  1.00  0.00     0.074 A 
ATOM     62  C   UNL A   1      45.902  29.553  33.949  1.00  0.00     0.029 A 
ATOM     63  N   UNL A   1      46.276  27.442  33.495  1.00  0.00    -0.354 N 
ATOM     64  N   UNL A   1      45.818  25.992  29.437  1.00  0.00    -0.248 NA
ATOM     65  C   UNL A   1      44.699  24.514  30.853  1.00  0.00     0.031 C 
ATOM     66  C   UNL A   1      46.655  29.451  32.743  1.00  0.00     0.029 A 
ATOM     67  C   UNL A   1      46.623  28.113  32.351  1.00  0.00     0.049 A 
ATOM     68  H   UNL A   1      46.563  26.538  33.754  1.00  0.00     0.167 HD
ATOM     69  C   UNL A   1      46.187  26.284  30.741  1.00  0.00     0.074 A 
ATOM     70  C   UNL A   1      45.548  25.262  31.559  1.00  0.00     0.031 C 
ATOM     71  C   UNL A   1      46.749  27.485  31.059  1.00  0.00     0.037 A 
BRANCH  58  72
ATOM     72  C   UNL A   1      44.290  26.618  35.817  1.00  0.00     0.064 A 
ATOM     73  C   UNL A   1      44.729  26.873  37.126  1.00  0.00     0.173 A 
ATOM     74  C   UNL A   1      44.136  25.257  35.470  1.00  0.00     0.173 A 
ATOM     75  F   UNL A   1      44.960  28.129  37.534  1.00  0.00    -0.203 F 
ATOM     76  C   UNL A   1      45.014  25.834  38.015  1.00  0.00     0.198 A 
ATOM     77  C   UNL A   1      44.360  24.227  36.377  1.00  0.00     0.198 A 
ATOM     78  F   UNL A   1      43.867  24.874  34.214  1.00  0.00    -0.203 F 
ATOM     79  F   UNL A   1      45.533  26.114  39.218  1.00  0.00    -0.200 F 
ATOM     80  C   UNL A   1      44.824  24.514  37.642  1.00  0.00     0.200 A 
ATOM     81  F   UNL A   1      44.194  22.956  35.987  1.00  0.00    -0.200 F 
ATOM     82  F   UNL A   1      45.138  23.518  38.481  1.00  0.00    -0.200 F 
ENDBRANCH  58  72
BRANCH  59  83
ATOM     83  C   UNL A   1      43.361  23.815  27.901  1.00  0.00     0.064 A 
ATOM     84  C   UNL A   1      42.472  22.864  28.440  1.00  0.00     0.173 A 
ATOM     85  C   UNL A   1      43.704  23.641  26.547  1.00  0.00     0.173 A 
ATOM     86  F   UNL A   1      42.050  22.975  29.708  1.00  0.00    -0.203 F 
ATOM     87  C   UNL A   1      41.944  21.826  27.664  1.00  0.00     0.198 A 
ATOM     88  C   UNL A   1      43.188  22.596  25.778  1.00  0.00     0.198 A 
ATOM     89  F   UNL A   1      44.471  24.537  25.911  1.00  0.00    -0.203 F 
ATOM     90  F   UNL A   1      41.045  20.984  28.195  1.00  0.00    -0.200 F 
ATOM     91  C   UNL A   1      42.295  21.698  26.332  1.00  0.00     0.200 A 
ATOM     92  F   UNL A   1      43.510  22.506  24.480  1.00  0.00    -0.200 F 
ATOM     93  F   UNL A   1      41.744  20.741  25.572  1.00  0.00    -0.200 F 
ENDBRANCH  59  83
BRANCH  71  94
ATOM     94  C   UNL A   1      47.272  28.333  29.939  1.00  0.00     0.064 A 
ATOM     95  C   UNL A   1      46.480  29.223  29.196  1.00  0.00     0.173 A 
ATOM     96  C   UNL A   1      48.655  28.344  29.707  1.00  0.00     0.173 A 
ATOM     97  F   UNL A   1      45.167  29.347  29.433  1.00  0.00    -0.203 F 
ATOM     98  C   UNL A   1      47.046  30.053  28.230  1.00  0.00     0.198 A 
ATOM     99  C   UNL A   1      49.222  29.204  28.772  1.00  0.00     0.198 A 
ATOM    100  F   UNL A   1      49.464  27.552  30.428  1.00  0.00    -0.203 F 
ATOM    101  F   UNL A   1      46.267  30.882  27.521  1.00  0.00    -0.200 F 
ATOM    102  C   UNL A   1      48.416  30.051  28.027  1.00  0.00     0.200 A 
ATOM    103  F   UNL A   1      50.553  29.235  28.614  1.00  0.00    -0.200 F 
ATOM    104  F   UNL A   1      48.966  30.886  27.134  1.00  0.00    -0.200 F 
ENDBRANCH  71  94
ENDBRANCH  45  46
ENDBRANCH  38  40
ENDBRANCH  37  38
ENDBRANCH  36  37
ENDBRANCH  35  36
ENDBRANCH  34  35
ENDBRANCH  33  34
ENDBRANCH  32  33
ENDBRANCH  31  32
ENDBRANCH   1  31
TORSDOF 24
ENDMDL
MODEL 3
REMARK VINA RESULT:     -10.0      4.595      9.134
REMARK SMILES Cc1c(CC(=O)OCCOCCOCCOCCOC(=O)c2ccc(-c3c4nc(c(-c5c(F)c(F)c(F)c(F)c5F)c5ccc([nH]5)c(-c5c(F)c(F)c(F)c(F)c5F)c5nc(c(-c6c(F)c(F)c(F)c(F)c6F)c6ccc3[nH]6)C=C5)C=C4)cc2)c2cc(O)ccc2n1C(=O)c1ccc(Cl)cc1
REMARK SMILES IDX 12 1 11 2 10 3 9 4 8 5 7 6 5 7 6 8 4 9 3 10 1 11 2 12 92 13
REMARK SMILES IDX 85 14 91 15 86 16 90 17 87 18 89 19 93 20 94 21 95 22 96 23
REMARK SMILES IDX 101 24 97 25 100 26 98 27 99 28 88 29 13 31 14 32 15 33
REMARK SMILES IDX 16 34 17 35 18 36 19 37 20 38 21 39 22 40 23 41 84 42 24 43
REMARK SMILES IDX 83 44 25 45 26 46 27 47 77 48 28 49 82 50 76 51 78 52 29 53
REMARK SMILES IDX 81 54 75 55 74 56 30 58 62 59 42 60 61 61 43 62 46 63 60 64
REMARK SMILES IDX 79 65 44 66 45 67 59 69 80 70 47 71 31 72 32 73 40 74 33 75
REMARK SMILES IDX 34 76 38 77 41 78 35 79 36 80 39 81 37 82 63 83 64 84 72 85
REMARK SMILES IDX 65 86 66 87 70 88 73 89 67 90 68 91 71 92 69 93 48 94 49 95
REMARK SMILES IDX 57 96 50 97 51 98 55 99 58 100 52 101 53 102 56 103 54 104
REMARK H PARENT 88 30 78 57 46 68
REMARK Flexibility Score: inf
ROOT
ATOM      1  C   UNL A   1      34.572  35.381  32.935  1.00  0.00     0.188 C 
ENDROOT
BRANCH   1   2
ATOM      2  C   UNL A   1      35.185  34.760  34.185  1.00  0.00     0.188 C 
BRANCH   2   3
ATOM      3  O   UNL A   1      35.400  33.365  34.086  1.00  0.00    -0.376 OA
BRANCH   3   4
ATOM      4  C   UNL A   1      36.667  32.855  34.468  1.00  0.00     0.202 C 
BRANCH   4   5
ATOM      5  C   UNL A   1      37.657  32.395  33.378  1.00  0.00     0.261 C 
BRANCH   5   6
ATOM      6  O   UNL A   1      38.382  33.406  32.642  1.00  0.00    -0.463 OA
BRANCH   6   7
ATOM      7  C   UNL A   1      39.720  33.497  32.818  1.00  0.00     0.310 C 
ATOM      8  O   UNL A   1      40.525  32.968  32.054  1.00  0.00    -0.252 OA
BRANCH   7   9
ATOM      9  C   UNL A   1      40.186  34.344  34.006  1.00  0.00     0.160 C 
BRANCH   9  10
ATOM     10  C   UNL A   1      41.660  34.443  34.376  1.00  0.00    -0.008 A 
ATOM     11  C   UNL A   1      41.650  33.252  36.676  1.00  0.00     0.065 C 
ATOM     12  C   UNL A   1      42.278  33.984  35.533  1.00  0.00     0.028 A 
ATOM     13  N   UNL A   1      43.656  34.271  35.484  1.00  0.00    -0.280 N 
ATOM     14  C   UNL A   1      42.717  34.923  33.529  1.00  0.00     0.008 A 
ATOM     15  C   UNL A   1      43.910  34.922  34.266  1.00  0.00     0.057 A 
ATOM     16  C   UNL A   1      42.742  35.429  32.206  1.00  0.00     0.056 A 
ATOM     17  C   UNL A   1      45.081  35.497  33.719  1.00  0.00     0.031 A 
ATOM     18  C   UNL A   1      43.886  36.061  31.720  1.00  0.00     0.116 A 
ATOM     19  C   UNL A   1      45.046  36.101  32.461  1.00  0.00     0.048 A 
BRANCH  13  20
ATOM     20  C   UNL A   1      44.623  33.922  36.478  1.00  0.00     0.262 C 
ATOM     21  O   UNL A   1      44.921  34.749  37.339  1.00  0.00    -0.268 OA
BRANCH  20  22
ATOM     22  C   UNL A   1      45.292  32.615  36.598  1.00  0.00     0.040 A 
ATOM     23  C   UNL A   1      45.319  31.948  37.829  1.00  0.00     0.015 A 
ATOM     24  C   UNL A   1      45.905  32.056  35.470  1.00  0.00     0.015 A 
ATOM     25  C   UNL A   1      46.024  30.746  37.944  1.00  0.00     0.021 A 
ATOM     26  C   UNL A   1      46.601  30.850  35.590  1.00  0.00     0.021 A 
ATOM     27  C   UNL A   1      46.671  30.209  36.828  1.00  0.00     0.041 A 
ATOM     28  Cl  UNL A   1      47.574  28.753  36.984  1.00  0.00    -0.084 Cl
ENDBRANCH  20  22
ENDBRANCH  13  20
BRANCH  18  29
ATOM     29  O   UNL A   1      43.797  36.702  30.518  1.00  0.00    -0.508 OA
ATOM     30  H   UNL A   1      44.365  37.421  30.327  1.00  0.00     0.293 HD
ENDBRANCH  18  29
ENDBRANCH   9  10
ENDBRANCH   7   9
ENDBRANCH   6   7
ENDBRANCH   5   6
ENDBRANCH   4   5
ENDBRANCH   3   4
ENDBRANCH   2   3
ENDBRANCH   1   2
BRANCH   1  31
ATOM     31  O   UNL A   1      33.430  36.201  32.949  1.00  0.00    -0.377 OA
BRANCH  31  32
ATOM     32  C   UNL A   1      32.410  35.921  32.033  1.00  0.00     0.188 C 
BRANCH  32  33
ATOM     33  C   UNL A   1      32.828  36.033  30.563  1.00  0.00     0.188 C 
BRANCH  33  34
ATOM     34  O   UNL A   1      32.758  34.930  29.665  1.00  0.00    -0.376 OA
BRANCH  34  35
ATOM     35  C   UNL A   1      33.805  34.651  28.750  1.00  0.00     0.202 C 
BRANCH  35  36
ATOM     36  C   UNL A   1      33.846  33.316  27.979  1.00  0.00     0.261 C 
BRANCH  36  37
ATOM     37  O   UNL A   1      33.919  32.154  28.805  1.00  0.00    -0.460 OA
BRANCH  37  38
ATOM     38  C   UNL A   1      34.762  32.178  29.874  1.00  0.00     0.338 C 
ATOM     39  O   UNL A   1      34.495  32.363  31.032  1.00  0.00    -0.246 OA
BRANCH  38  40
ATOM     40  C   UNL A   1      36.026  31.598  29.357  1.00  0.00     0.060 A 
ATOM     41  C   UNL A   1      36.162  30.216  29.199  1.00  0.00     0.016 A 
ATOM     42  C   UNL A   1      37.149  32.434  29.418  1.00  0.00     0.016 A 
ATOM     43  C   UNL A   1      37.435  29.660  29.286  1.00  0.00     0.010 A 
ATOM     44  C   UNL A   1      38.420  31.870  29.517  1.00  0.00     0.010 A 
ATOM     45  C   UNL A   1      38.558  30.480  29.515  1.00  0.00    -0.014 A 
BRANCH  45  46
ATOM     46  C   UNL A   1      39.879  29.840  29.475  1.00  0.00     0.031 A 
ATOM     47  C   UNL A   1      40.457  29.687  30.838  1.00  0.00     0.074 A 
ATOM     48  C   UNL A   1      40.493  29.252  28.428  1.00  0.00     0.049 A 
ATOM     49  N   UNL A   1      41.591  30.108  31.295  1.00  0.00    -0.248 NA
ATOM     50  C   UNL A   1      39.577  29.078  31.852  1.00  0.00     0.031 C 
ATOM     51  C   UNL A   1      39.967  28.998  27.087  1.00  0.00     0.029 A 
ATOM     52  N   UNL A   1      41.721  28.640  28.398  1.00  0.00    -0.354 N 
ATOM     53  C   UNL A   1      41.626  29.697  32.623  1.00  0.00     0.074 A 
ATOM     54  C   UNL A   1      40.316  29.200  32.949  1.00  0.00     0.031 C 
ATOM     55  C   UNL A   1      40.773  28.111  26.456  1.00  0.00     0.029 A 
ATOM     56  C   UNL A   1      41.919  27.811  27.302  1.00  0.00     0.049 A 
ATOM     57  H   UNL A   1      42.403  28.778  29.094  1.00  0.00     0.167 HD
ATOM     58  C   UNL A   1      42.781  29.588  33.327  1.00  0.00     0.037 A 
ATOM     59  C   UNL A   1      42.902  26.886  27.147  1.00  0.00     0.037 A 
ATOM     60  C   UNL A   1      43.847  30.363  32.767  1.00  0.00     0.049 A 
ATOM     61  C   UNL A   1      43.986  27.196  28.111  1.00  0.00     0.074 A 
ATOM     62  C   UNL A   1      44.042  31.707  32.516  1.00  0.00     0.029 A 
ATOM     63  N   UNL A   1      44.841  29.714  32.081  1.00  0.00    -0.354 N 
ATOM     64  N   UNL A   1      44.800  28.209  28.018  1.00  0.00    -0.248 NA
ATOM     65  C   UNL A   1      43.956  26.535  29.406  1.00  0.00     0.031 C 
ATOM     66  C   UNL A   1      44.834  31.759  31.333  1.00  0.00     0.029 A 
ATOM     67  C   UNL A   1      45.081  30.442  30.945  1.00  0.00     0.049 A 
ATOM     68  H   UNL A   1      45.295  28.884  32.353  1.00  0.00     0.167 HD
ATOM     69  C   UNL A   1      45.066  28.566  29.331  1.00  0.00     0.074 A 
ATOM     70  C   UNL A   1      44.618  27.436  30.134  1.00  0.00     0.031 C 
ATOM     71  C   UNL A   1      45.367  29.854  29.660  1.00  0.00     0.037 A 
BRANCH  58  72
ATOM     72  C   UNL A   1      42.991  28.507  34.348  1.00  0.00     0.064 A 
ATOM     73  C   UNL A   1      43.296  28.842  35.676  1.00  0.00     0.173 A 
ATOM     74  C   UNL A   1      43.156  27.147  34.000  1.00  0.00     0.173 A 
ATOM     75  F   UNL A   1      43.226  30.116  36.090  1.00  0.00    -0.203 F 
ATOM     76  C   UNL A   1      43.757  27.885  36.583  1.00  0.00     0.198 A 
ATOM     77  C   UNL A   1      43.553  26.185  34.922  1.00  0.00     0.198 A 
ATOM     78  F   UNL A   1      43.042  26.723  32.733  1.00  0.00    -0.203 F 
ATOM     79  F   UNL A   1      44.140  28.264  37.810  1.00  0.00    -0.200 F 
ATOM     80  C   UNL A   1      43.879  26.558  36.207  1.00  0.00     0.200 A 
ATOM     81  F   UNL A   1      43.690  24.911  34.529  1.00  0.00    -0.200 F 
ATOM     82  F   UNL A   1      44.360  25.649  37.065  1.00  0.00    -0.200 F 
ENDBRANCH  58  72
BRANCH  59  83
ATOM     83  C   UNL A   1      42.872  25.589  26.419  1.00  0.00     0.064 A 
ATOM     84  C   UNL A   1      43.825  25.289  25.426  1.00  0.00     0.173 A 
ATOM     85  C   UNL A   1      42.090  24.509  26.871  1.00  0.00     0.173 A 
ATOM     86  F   UNL A   1      44.648  26.244  24.968  1.00  0.00    -0.203 F 
ATOM     87  C   UNL A   1      44.000  23.988  24.941  1.00  0.00     0.198 A 
ATOM     88  C   UNL A   1      42.256  23.215  26.375  1.00  0.00     0.198 A 
ATOM     89  F   UNL A   1      41.216  24.665  27.874  1.00  0.00    -0.203 F 
ATOM     90  F   UNL A   1      44.967  23.731  24.048  1.00  0.00    -0.200 F 
ATOM     91  C   UNL A   1      43.221  22.951  25.422  1.00  0.00     0.200 A 
ATOM     92  F   UNL A   1      41.518  22.213  26.876  1.00  0.00    -0.200 F 
ATOM     93  F   UNL A   1      43.428  21.694  25.003  1.00  0.00    -0.200 F 
ENDBRANCH  59  83
BRANCH  71  94
ATOM     94  C   UNL A   1      45.744  30.791  28.552  1.00  0.00     0.064 A 
ATOM     95  C   UNL A   1      44.818  31.566  27.834  1.00  0.00     0.173 A 
ATOM     96  C   UNL A   1      47.107  31.015  28.309  1.00  0.00     0.173 A 
ATOM     97  F   UNL A   1      43.504  31.486  28.085  1.00  0.00    -0.203 F 
ATOM     98  C   UNL A   1      45.242  32.488  26.880  1.00  0.00     0.198 A 
ATOM     99  C   UNL A   1      47.528  31.967  27.385  1.00  0.00     0.198 A 
ATOM    100  F   UNL A   1      48.034  30.341  29.007  1.00  0.00    -0.203 F 
ATOM    101  F   UNL A   1      44.339  33.203  26.194  1.00  0.00    -0.200 F 
ATOM    102  C   UNL A   1      46.595  32.696  26.664  1.00  0.00     0.200 A 
ATOM    103  F   UNL A   1      48.836  32.200  27.217  1.00  0.00    -0.200 F 
ATOM    104  F   UNL A   1      47.002  33.620  25.783  1.00  0.00    -0.200 F 
ENDBRANCH  71  94
ENDBRANCH  45  46
ENDBRANCH  38  40
ENDBRANCH  37  38
ENDBRANCH  36  37
ENDBRANCH  35  36
ENDBRANCH  34  35
ENDBRANCH  33  34
ENDBRANCH  32  33
ENDBRANCH  31  32
ENDBRANCH   1  31
TORSDOF 24
ENDMDL
