MODEL 1
REMARK VINA RESULT:      -8.9      0.000      0.000
REMARK SMILES CC(=O)N[C@H]1[C@H](OCC(=O)OCCOCCOCCOCCOC(=O)c2ccc(-c3c4nc(c(-c5c(F)c(F)c(F)c(F)c5F)c5ccc([nH]5)c(-c5c(F)c(F)c(F)c(F)c5F)c5nc(c(-c6c(F)c(F)c(F)c(F)c6F)c6ccc3[nH]6)C=C5)C=C4)cc2)[C@H]2O[C@@H](c3ccco3)OC[C@H]2O[C@@H]1Sc1ccc(Cl)cc1
REMARK SMILES IDX 16 1 15 2 14 3 13 4 12 5 11 6 9 7 10 8 8 9 7 10 6 11 5 12
REMARK SMILES IDX 101 13 89 14 100 15 90 16 99 17 91 18 98 19 97 20 4 21 1 22
REMARK SMILES IDX 2 23 3 24 102 26 103 27 104 28 109 29 105 30 108 31 106 32
REMARK SMILES IDX 107 33 92 34 93 35 96 36 94 37 95 38 17 39 18 40 19 41 20 42
REMARK SMILES IDX 21 43 22 44 23 45 24 46 25 47 26 48 27 49 88 50 28 51 87 52
REMARK SMILES IDX 29 53 30 54 31 55 81 56 32 57 86 58 80 59 82 60 33 61 85 62
REMARK SMILES IDX 79 63 78 64 34 66 66 67 46 68 65 69 47 70 50 71 64 72 83 73
REMARK SMILES IDX 48 74 49 75 63 77 84 78 51 79 35 80 36 81 44 82 37 83 38 84
REMARK SMILES IDX 42 85 45 86 39 87 40 88 43 89 41 90 67 91 68 92 76 93 69 94
REMARK SMILES IDX 70 95 74 96 77 97 71 98 72 99 75 100 73 101 52 102 53 103
REMARK SMILES IDX 61 104 54 105 55 106 59 107 62 108 56 109 57 110 60 111
REMARK SMILES IDX 58 112
REMARK H PARENT 4 25 82 65 50 76
REMARK Flexibility Score: inf
ROOT
ATOM      1  C   UNL A   1      35.531  31.059  28.930  1.00  0.00     0.188 C 
ENDROOT
BRANCH   1   2
ATOM      2  C   UNL A   1      34.754  31.714  27.766  1.00  0.00     0.188 C 
BRANCH   2   3
ATOM      3  O   UNL A   1      33.379  31.360  27.683  1.00  0.00    -0.376 OA
BRANCH   3   4
ATOM      4  C   UNL A   1      33.067  30.393  26.680  1.00  0.00     0.202 C 
BRANCH   4   5
ATOM      5  C   UNL A   1      32.913  28.956  27.204  1.00  0.00     0.261 C 
BRANCH   5   6
ATOM      6  O   UNL A   1      31.801  28.246  26.590  1.00  0.00    -0.462 OA
BRANCH   6   7
ATOM      7  C   UNL A   1      32.056  27.574  25.435  1.00  0.00     0.332 C 
ATOM      8  O   UNL A   1      31.355  27.648  24.434  1.00  0.00    -0.250 OA
BRANCH   7   9
ATOM      9  C   UNL A   1      33.341  26.700  25.496  1.00  0.00     0.283 C 
BRANCH   9  10
ATOM     10  O   UNL A   1      33.456  25.409  26.050  1.00  0.00    -0.361 OA
BRANCH  10  11
ATOM     11  C   UNL A   1      33.533  24.205  25.270  1.00  0.00     0.176 C 
ATOM     12  C   UNL A   1      34.768  23.975  24.353  1.00  0.00     0.153 C 
ATOM     13  C   UNL A   1      35.882  23.110  25.056  1.00  0.00     0.206 C 
ATOM     14  C   UNL A   1      33.146  22.897  25.936  1.00  0.00     0.184 C 
ATOM     15  O   UNL A   1      35.383  21.967  25.751  1.00  0.00    -0.356 OA
ATOM     16  O   UNL A   1      32.585  22.050  24.947  1.00  0.00    -0.337 OA
ATOM     17  C   UNL A   1      34.297  22.223  26.637  1.00  0.00     0.177 C 
ATOM     18  C   UNL A   1      32.282  20.724  25.349  1.00  0.00     0.319 C 
ATOM     19  C   UNL A   1      33.762  20.916  27.209  1.00  0.00     0.199 C 
ATOM     20  O   UNL A   1      33.241  20.090  26.182  1.00  0.00    -0.343 OA
BRANCH  12  21
ATOM     21  N   UNL A   1      34.291  23.233  23.132  1.00  0.00    -0.347 N 
ATOM     22  C   UNL A   1      33.245  25.110  21.916  1.00  0.00     0.114 C 
ATOM     23  C   UNL A   1      33.467  23.641  22.124  1.00  0.00     0.217 C 
ATOM     24  O   UNL A   1      32.916  22.813  21.402  1.00  0.00    -0.275 OA
ATOM     25  H   UNL A   1      34.626  22.311  23.049  1.00  0.00     0.163 HD
ENDBRANCH  12  21
BRANCH  13  26
ATOM     26  S   UNL A   1      37.176  24.092  25.950  1.00  0.00    -0.092 SA
BRANCH  26  27
ATOM     27  C   UNL A   1      38.556  23.012  26.316  1.00  0.00     0.010 A 
ATOM     28  C   UNL A   1      38.736  21.724  25.796  1.00  0.00     0.016 A 
ATOM     29  C   UNL A   1      39.556  23.532  27.156  1.00  0.00     0.016 A 
ATOM     30  C   UNL A   1      39.838  20.946  26.180  1.00  0.00     0.021 A 
ATOM     31  C   UNL A   1      40.663  22.764  27.531  1.00  0.00     0.021 A 
ATOM     32  C   UNL A   1      40.795  21.467  27.048  1.00  0.00     0.041 A 
ATOM     33  Cl  UNL A   1      42.152  20.517  27.513  1.00  0.00    -0.084 Cl
ENDBRANCH  26  27
ENDBRANCH  13  26
BRANCH  18  34
ATOM     34  C   UNL A   1      32.323  19.926  24.090  1.00  0.00     0.159 A 
ATOM     35  C   UNL A   1      32.248  20.246  22.749  1.00  0.00     0.051 A 
ATOM     36  O   UNL A   1      32.390  18.564  24.233  1.00  0.00    -0.464 OA
ATOM     37  C   UNL A   1      32.266  19.019  22.041  1.00  0.00     0.042 A 
ATOM     38  C   UNL A   1      32.372  18.029  22.989  1.00  0.00     0.195 A 
ENDBRANCH  18  34
ENDBRANCH  10  11
ENDBRANCH   9  10
ENDBRANCH   7   9
ENDBRANCH   6   7
ENDBRANCH   5   6
ENDBRANCH   4   5
ENDBRANCH   3   4
ENDBRANCH   2   3
ENDBRANCH   1   2
BRANCH   1  39
ATOM     39  O   UNL A   1      36.658  31.828  29.329  1.00  0.00    -0.377 OA
BRANCH  39  40
ATOM     40  C   UNL A   1      37.893  31.185  29.031  1.00  0.00     0.188 C 
BRANCH  40  41
ATOM     41  C   UNL A   1      37.893  29.747  29.523  1.00  0.00     0.188 C 
BRANCH  41  42
ATOM     42  O   UNL A   1      38.124  28.708  28.579  1.00  0.00    -0.376 OA
BRANCH  42  43
ATOM     43  C   UNL A   1      38.751  27.559  29.193  1.00  0.00     0.202 C 
BRANCH  43  44
ATOM     44  C   UNL A   1      40.095  27.064  28.588  1.00  0.00     0.261 C 
BRANCH  44  45
ATOM     45  O   UNL A   1      40.408  27.421  27.221  1.00  0.00    -0.460 OA
BRANCH  45  46
ATOM     46  C   UNL A   1      41.207  26.617  26.471  1.00  0.00     0.338 C 
ATOM     47  O   UNL A   1      41.024  26.267  25.325  1.00  0.00    -0.246 OA
BRANCH  46  48
ATOM     48  C   UNL A   1      42.531  26.585  27.172  1.00  0.00     0.060 A 
ATOM     49  C   UNL A   1      43.166  25.339  27.323  1.00  0.00     0.016 A 
ATOM     50  C   UNL A   1      43.225  27.760  27.478  1.00  0.00     0.016 A 
ATOM     51  C   UNL A   1      44.496  25.269  27.745  1.00  0.00     0.010 A 
ATOM     52  C   UNL A   1      44.536  27.689  27.958  1.00  0.00     0.010 A 
ATOM     53  C   UNL A   1      45.167  26.442  28.112  1.00  0.00    -0.014 A 
BRANCH  53  54
ATOM     54  C   UNL A   1      46.344  26.324  29.003  1.00  0.00     0.031 A 
ATOM     55  C   UNL A   1      47.683  26.503  28.342  1.00  0.00     0.074 A 
ATOM     56  C   UNL A   1      46.247  26.080  30.321  1.00  0.00     0.049 A 
ATOM     57  N   UNL A   1      48.886  26.448  28.848  1.00  0.00    -0.248 NA
ATOM     58  C   UNL A   1      47.653  26.784  26.894  1.00  0.00     0.031 C 
ATOM     59  C   UNL A   1      45.003  25.923  31.068  1.00  0.00     0.029 A 
ATOM     60  N   UNL A   1      47.233  25.911  31.263  1.00  0.00    -0.354 N 
ATOM     61  C   UNL A   1      49.745  26.690  27.784  1.00  0.00     0.074 A 
ATOM     62  C   UNL A   1      48.938  26.862  26.601  1.00  0.00     0.031 C 
ATOM     63  C   UNL A   1      45.300  25.653  32.353  1.00  0.00     0.029 A 
ATOM     64  C   UNL A   1      46.754  25.597  32.511  1.00  0.00     0.049 A 
ATOM     65  H   UNL A   1      48.191  26.006  31.062  1.00  0.00     0.167 HD
ATOM     66  C   UNL A   1      51.094  26.760  27.791  1.00  0.00     0.037 A 
ATOM     67  C   UNL A   1      47.425  25.279  33.637  1.00  0.00     0.037 A 
ATOM     68  C   UNL A   1      51.888  26.541  28.966  1.00  0.00     0.049 A 
ATOM     69  C   UNL A   1      48.937  25.292  33.610  1.00  0.00     0.074 A 
ATOM     70  C   UNL A   1      53.261  26.592  29.102  1.00  0.00     0.029 A 
ATOM     71  N   UNL A   1      51.369  26.199  30.207  1.00  0.00    -0.354 N 
ATOM     72  N   UNL A   1      49.746  25.569  32.615  1.00  0.00    -0.248 NA
ATOM     73  C   UNL A   1      49.627  24.954  34.863  1.00  0.00     0.031 C 
ATOM     74  C   UNL A   1      53.578  26.209  30.409  1.00  0.00     0.029 A 
ATOM     75  C   UNL A   1      52.399  25.997  31.109  1.00  0.00     0.049 A 
ATOM     76  H   UNL A   1      50.411  26.114  30.416  1.00  0.00     0.167 HD
ATOM     77  C   UNL A   1      51.036  25.463  33.123  1.00  0.00     0.074 A 
ATOM     78  C   UNL A   1      50.898  25.113  34.523  1.00  0.00     0.031 C 
ATOM     79  C   UNL A   1      52.227  25.639  32.496  1.00  0.00     0.037 A 
BRANCH  66  80
ATOM     80  C   UNL A   1      51.772  27.014  26.475  1.00  0.00     0.064 A 
ATOM     81  C   UNL A   1      52.182  25.966  25.634  1.00  0.00     0.173 A 
ATOM     82  C   UNL A   1      52.050  28.326  26.068  1.00  0.00     0.173 A 
ATOM     83  F   UNL A   1      51.970  24.690  25.990  1.00  0.00    -0.203 F 
ATOM     84  C   UNL A   1      52.880  26.224  24.456  1.00  0.00     0.198 A 
ATOM     85  C   UNL A   1      52.715  28.582  24.873  1.00  0.00     0.198 A 
ATOM     86  F   UNL A   1      51.692  29.363  26.840  1.00  0.00    -0.203 F 
ATOM     87  F   UNL A   1      53.327  25.206  23.707  1.00  0.00    -0.200 F 
ATOM     88  C   UNL A   1      53.139  27.531  24.074  1.00  0.00     0.200 A 
ATOM     89  F   UNL A   1      52.959  29.846  24.502  1.00  0.00    -0.200 F 
ATOM     90  F   UNL A   1      53.813  27.779  22.941  1.00  0.00    -0.200 F 
ENDBRANCH  66  80
BRANCH  67  91
ATOM     91  C   UNL A   1      46.680  24.909  34.872  1.00  0.00     0.064 A 
ATOM     92  C   UNL A   1      46.414  23.570  35.195  1.00  0.00     0.173 A 
ATOM     93  C   UNL A   1      46.213  25.892  35.759  1.00  0.00     0.173 A 
ATOM     94  F   UNL A   1      46.809  22.591  34.368  1.00  0.00    -0.203 F 
ATOM     95  C   UNL A   1      45.707  23.231  36.348  1.00  0.00     0.198 A 
ATOM     96  C   UNL A   1      45.533  25.551  36.926  1.00  0.00     0.198 A 
ATOM     97  F   UNL A   1      46.429  27.189  35.496  1.00  0.00    -0.203 F 
ATOM     98  F   UNL A   1      45.434  21.946  36.613  1.00  0.00    -0.200 F 
ATOM     99  C   UNL A   1      45.276  24.221  37.219  1.00  0.00     0.200 A 
ATOM    100  F   UNL A   1      45.129  26.512  37.770  1.00  0.00    -0.200 F 
ATOM    101  F   UNL A   1      44.610  23.894  38.335  1.00  0.00    -0.200 F 
ENDBRANCH  67  91
BRANCH  79 102
ATOM    102  C   UNL A   1      53.472  25.484  33.322  1.00  0.00     0.064 A 
ATOM    103  C   UNL A   1      54.100  24.241  33.486  1.00  0.00     0.173 A 
ATOM    104  C   UNL A   1      54.073  26.607  33.913  1.00  0.00     0.173 A 
ATOM    105  F   UNL A   1      53.564  23.136  32.949  1.00  0.00    -0.203 F 
ATOM    106  C   UNL A   1      55.265  24.122  34.241  1.00  0.00     0.198 A 
ATOM    107  C   UNL A   1      55.258  26.491  34.634  1.00  0.00     0.198 A 
ATOM    108  F   UNL A   1      53.521  27.822  33.774  1.00  0.00    -0.203 F 
ATOM    109  F   UNL A   1      55.816  22.916  34.432  1.00  0.00    -0.200 F 
ATOM    110  C   UNL A   1      55.846  25.247  34.807  1.00  0.00     0.200 A 
ATOM    111  F   UNL A   1      55.831  27.583  35.159  1.00  0.00    -0.200 F 
ATOM    112  F   UNL A   1      56.973  25.133  35.524  1.00  0.00    -0.200 F 
ENDBRANCH  79 102
ENDBRANCH  53  54
ENDBRANCH  46  48
ENDBRANCH  45  46
ENDBRANCH  44  45
ENDBRANCH  43  44
ENDBRANCH  42  43
ENDBRANCH  41  42
ENDBRANCH  40  41
ENDBRANCH  39  40
ENDBRANCH   1  39
TORSDOF 26
ENDMDL
MODEL 2
REMARK VINA RESULT:      -8.5      0.835      6.801
REMARK SMILES CC(=O)N[C@H]1[C@H](OCC(=O)OCCOCCOCCOCCOC(=O)c2ccc(-c3c4nc(c(-c5c(F)c(F)c(F)c(F)c5F)c5ccc([nH]5)c(-c5c(F)c(F)c(F)c(F)c5F)c5nc(c(-c6c(F)c(F)c(F)c(F)c6F)c6ccc3[nH]6)C=C5)C=C4)cc2)[C@H]2O[C@@H](c3ccco3)OC[C@H]2O[C@@H]1Sc1ccc(Cl)cc1
REMARK SMILES IDX 16 1 15 2 14 3 13 4 12 5 11 6 9 7 10 8 8 9 7 10 6 11 5 12
REMARK SMILES IDX 101 13 89 14 100 15 90 16 99 17 91 18 98 19 97 20 4 21 1 22
REMARK SMILES IDX 2 23 3 24 102 26 103 27 104 28 109 29 105 30 108 31 106 32
REMARK SMILES IDX 107 33 92 34 93 35 96 36 94 37 95 38 17 39 18 40 19 41 20 42
REMARK SMILES IDX 21 43 22 44 23 45 24 46 25 47 26 48 27 49 88 50 28 51 87 52
REMARK SMILES IDX 29 53 30 54 31 55 81 56 32 57 86 58 80 59 82 60 33 61 85 62
REMARK SMILES IDX 79 63 78 64 34 66 66 67 46 68 65 69 47 70 50 71 64 72 83 73
REMARK SMILES IDX 48 74 49 75 63 77 84 78 51 79 35 80 36 81 44 82 37 83 38 84
REMARK SMILES IDX 42 85 45 86 39 87 40 88 43 89 41 90 67 91 68 92 76 93 69 94
REMARK SMILES IDX 70 95 74 96 77 97 71 98 72 99 75 100 73 101 52 102 53 103
REMARK SMILES IDX 61 104 54 105 55 106 59 107 62 108 56 109 57 110 60 111
REMARK SMILES IDX 58 112
REMARK H PARENT 4 25 82 65 50 76
REMARK Flexibility Score: inf
ROOT
ATOM      1  C   UNL A   1      35.518  30.052  28.407  1.00  0.00     0.188 C 
ENDROOT
BRANCH   1   2
ATOM      2  C   UNL A   1      34.561  29.978  27.196  1.00  0.00     0.188 C 
BRANCH   2   3
ATOM      3  O   UNL A   1      33.379  30.760  27.313  1.00  0.00    -0.376 OA
BRANCH   3   4
ATOM      4  C   UNL A   1      32.186  30.114  26.867  1.00  0.00     0.202 C 
BRANCH   4   5
ATOM      5  C   UNL A   1      32.101  28.618  27.212  1.00  0.00     0.261 C 
BRANCH   5   6
ATOM      6  O   UNL A   1      31.738  27.793  26.069  1.00  0.00    -0.462 OA
BRANCH   6   7
ATOM      7  C   UNL A   1      32.610  27.762  25.025  1.00  0.00     0.332 C 
ATOM      8  O   UNL A   1      32.397  28.295  23.943  1.00  0.00    -0.250 OA
BRANCH   7   9
ATOM      9  C   UNL A   1      33.924  26.991  25.336  1.00  0.00     0.283 C 
BRANCH   9  10
ATOM     10  O   UNL A   1      34.036  25.750  25.996  1.00  0.00    -0.361 OA
BRANCH  10  11
ATOM     11  C   UNL A   1      33.982  24.479  25.329  1.00  0.00     0.176 C 
ATOM     12  C   UNL A   1      35.180  24.042  24.437  1.00  0.00     0.153 C 
ATOM     13  C   UNL A   1      36.205  23.134  25.217  1.00  0.00     0.206 C 
ATOM     14  C   UNL A   1      33.470  23.284  26.111  1.00  0.00     0.184 C 
ATOM     15  O   UNL A   1      35.597  22.116  26.013  1.00  0.00    -0.356 OA
ATOM     16  O   UNL A   1      32.817  22.413  25.203  1.00  0.00    -0.337 OA
ATOM     17  C   UNL A   1      34.551  22.562  26.871  1.00  0.00     0.177 C 
ATOM     18  C   UNL A   1      32.382  21.167  25.724  1.00  0.00     0.319 C 
ATOM     19  C   UNL A   1      33.890  21.374  27.559  1.00  0.00     0.199 C 
ATOM     20  O   UNL A   1      33.278  20.516  26.611  1.00  0.00    -0.343 OA
BRANCH  12  21
ATOM     21  N   UNL A   1      34.618  23.245  23.289  1.00  0.00    -0.347 N 
ATOM     22  C   UNL A   1      33.515  25.072  22.047  1.00  0.00     0.114 C 
ATOM     23  C   UNL A   1      33.736  23.613  22.316  1.00  0.00     0.217 C 
ATOM     24  O   UNL A   1      33.131  22.756  21.673  1.00  0.00    -0.275 OA
ATOM     25  H   UNL A   1      34.938  22.316  23.232  1.00  0.00     0.163 HD
ENDBRANCH  12  21
BRANCH  13  26
ATOM     26  S   UNL A   1      37.600  24.054  26.018  1.00  0.00    -0.092 SA
BRANCH  26  27
ATOM     27  C   UNL A   1      38.892  22.884  26.428  1.00  0.00     0.010 A 
ATOM     28  C   UNL A   1      39.904  23.095  27.373  1.00  0.00     0.016 A 
ATOM     29  C   UNL A   1      38.843  21.639  25.777  1.00  0.00     0.016 A 
ATOM     30  C   UNL A   1      40.892  22.122  27.590  1.00  0.00     0.021 A 
ATOM     31  C   UNL A   1      39.819  20.663  25.999  1.00  0.00     0.021 A 
ATOM     32  C   UNL A   1      40.848  20.913  26.900  1.00  0.00     0.041 A 
ATOM     33  Cl  UNL A   1      42.054  19.716  27.171  1.00  0.00    -0.084 Cl
ENDBRANCH  26  27
ENDBRANCH  13  26
BRANCH  18  34
ATOM     34  C   UNL A   1      32.331  20.258  24.542  1.00  0.00     0.159 A 
ATOM     35  C   UNL A   1      32.604  18.919  24.349  1.00  0.00     0.051 A 
ATOM     36  O   UNL A   1      32.003  20.837  23.343  1.00  0.00    -0.464 OA
ATOM     37  C   UNL A   1      32.438  18.670  22.964  1.00  0.00     0.042 A 
ATOM     38  C   UNL A   1      32.055  19.864  22.402  1.00  0.00     0.195 A 
ENDBRANCH  18  34
ENDBRANCH  10  11
ENDBRANCH   9  10
ENDBRANCH   7   9
ENDBRANCH   6   7
ENDBRANCH   5   6
ENDBRANCH   4   5
ENDBRANCH   3   4
ENDBRANCH   2   3
ENDBRANCH   1   2
BRANCH   1  39
ATOM     39  O   UNL A   1      36.464  31.107  28.286  1.00  0.00    -0.377 OA
BRANCH  39  40
ATOM     40  C   UNL A   1      37.559  30.966  29.184  1.00  0.00     0.188 C 
BRANCH  40  41
ATOM     41  C   UNL A   1      38.433  29.785  28.798  1.00  0.00     0.188 C 
BRANCH  41  42
ATOM     42  O   UNL A   1      38.849  29.665  27.442  1.00  0.00    -0.376 OA
BRANCH  42  43
ATOM     43  C   UNL A   1      40.028  28.837  27.317  1.00  0.00     0.202 C 
BRANCH  43  44
ATOM     44  C   UNL A   1      39.830  27.367  26.854  1.00  0.00     0.261 C 
BRANCH  44  45
ATOM     45  O   UNL A   1      40.831  26.388  27.221  1.00  0.00    -0.460 OA
BRANCH  45  46
ATOM     46  C   UNL A   1      41.805  26.044  26.337  1.00  0.00     0.338 C 
ATOM     47  O   UNL A   1      41.758  26.126  25.129  1.00  0.00    -0.246 OA
BRANCH  46  48
ATOM     48  C   UNL A   1      43.067  25.939  27.137  1.00  0.00     0.060 A 
ATOM     49  C   UNL A   1      43.594  27.118  27.694  1.00  0.00     0.016 A 
ATOM     50  C   UNL A   1      43.596  24.698  27.509  1.00  0.00     0.016 A 
ATOM     51  C   UNL A   1      44.620  27.057  28.639  1.00  0.00     0.010 A 
ATOM     52  C   UNL A   1      44.663  24.640  28.410  1.00  0.00     0.010 A 
ATOM     53  C   UNL A   1      45.191  25.820  28.961  1.00  0.00    -0.014 A 
BRANCH  53  54
ATOM     54  C   UNL A   1      46.551  25.809  29.546  1.00  0.00     0.031 A 
ATOM     55  C   UNL A   1      46.622  25.586  31.031  1.00  0.00     0.074 A 
ATOM     56  C   UNL A   1      47.667  25.978  28.815  1.00  0.00     0.049 A 
ATOM     57  N   UNL A   1      47.657  25.534  31.827  1.00  0.00    -0.248 NA
ATOM     58  C   UNL A   1      45.329  25.395  31.715  1.00  0.00     0.031 C 
ATOM     59  C   UNL A   1      47.716  26.169  27.368  1.00  0.00     0.029 A 
ATOM     60  N   UNL A   1      48.982  26.027  29.209  1.00  0.00    -0.354 N 
ATOM     61  C   UNL A   1      47.137  25.302  33.093  1.00  0.00     0.074 A 
ATOM     62  C   UNL A   1      45.700  25.253  32.974  1.00  0.00     0.031 C 
ATOM     63  C   UNL A   1      48.999  26.342  26.997  1.00  0.00     0.029 A 
ATOM     64  C   UNL A   1      49.855  26.295  28.183  1.00  0.00     0.049 A 
ATOM     65  H   UNL A   1      49.271  25.884  30.138  1.00  0.00     0.167 HD
ATOM     66  C   UNL A   1      47.800  25.146  34.260  1.00  0.00     0.037 A 
ATOM     67  C   UNL A   1      51.188  26.501  28.217  1.00  0.00     0.037 A 
ATOM     68  C   UNL A   1      49.227  25.242  34.373  1.00  0.00     0.049 A 
ATOM     69  C   UNL A   1      51.906  26.394  29.542  1.00  0.00     0.074 A 
ATOM     70  C   UNL A   1      50.016  25.096  35.497  1.00  0.00     0.029 A 
ATOM     71  N   UNL A   1      50.076  25.541  33.316  1.00  0.00    -0.354 N 
ATOM     72  N   UNL A   1      51.418  26.127  30.731  1.00  0.00    -0.248 NA
ATOM     73  C   UNL A   1      53.360  26.610  29.530  1.00  0.00     0.031 C 
ATOM     74  C   UNL A   1      51.336  25.379  35.134  1.00  0.00     0.029 A 
ATOM     75  C   UNL A   1      51.382  25.623  33.769  1.00  0.00     0.049 A 
ATOM     76  H   UNL A   1      49.793  25.674  32.383  1.00  0.00     0.167 HD
ATOM     77  C   UNL A   1      52.502  26.119  31.602  1.00  0.00     0.074 A 
ATOM     78  C   UNL A   1      53.677  26.392  30.798  1.00  0.00     0.031 C 
ATOM     79  C   UNL A   1      52.529  25.905  32.943  1.00  0.00     0.037 A 
BRANCH  66  80
ATOM     80  C   UNL A   1      46.972  24.929  35.493  1.00  0.00     0.064 A 
ATOM     81  C   UNL A   1      46.553  25.996  36.306  1.00  0.00     0.173 A 
ATOM     82  C   UNL A   1      46.625  23.630  35.889  1.00  0.00     0.173 A 
ATOM     83  F   UNL A   1      46.884  27.258  35.992  1.00  0.00    -0.203 F 
ATOM     84  C   UNL A   1      45.853  25.765  37.488  1.00  0.00     0.198 A 
ATOM     85  C   UNL A   1      45.893  23.405  37.052  1.00  0.00     0.198 A 
ATOM     86  F   UNL A   1      47.010  22.575  35.157  1.00  0.00    -0.203 F 
ATOM     87  F   UNL A   1      45.529  26.792  38.286  1.00  0.00    -0.200 F 
ATOM     88  C   UNL A   1      45.518  24.470  37.856  1.00  0.00     0.200 A 
ATOM     89  F   UNL A   1      45.565  22.154  37.402  1.00  0.00    -0.200 F 
ATOM     90  F   UNL A   1      44.847  24.247  38.994  1.00  0.00    -0.200 F 
ENDBRANCH  66  80
BRANCH  67  91
ATOM     91  C   UNL A   1      51.922  26.843  26.968  1.00  0.00     0.064 A 
ATOM     92  C   UNL A   1      52.231  28.170  26.637  1.00  0.00     0.173 A 
ATOM     93  C   UNL A   1      52.332  25.843  26.071  1.00  0.00     0.173 A 
ATOM     94  F   UNL A   1      51.838  29.168  27.441  1.00  0.00    -0.203 F 
ATOM     95  C   UNL A   1      52.911  28.484  25.461  1.00  0.00     0.198 A 
ATOM     96  C   UNL A   1      53.038  26.154  24.910  1.00  0.00     0.198 A 
ATOM     97  F   UNL A   1      52.055  24.556  26.330  1.00  0.00    -0.203 F 
ATOM     98  F   UNL A   1      53.160  29.764  25.152  1.00  0.00    -0.200 F 
ATOM     99  C   UNL A   1      53.324  27.475  24.603  1.00  0.00     0.200 A 
ATOM    100  F   UNL A   1      53.444  25.173  24.091  1.00  0.00    -0.200 F 
ATOM    101  F   UNL A   1      53.991  27.775  23.480  1.00  0.00    -0.200 F 
ENDBRANCH  67  91
BRANCH  79 102
ATOM    102  C   UNL A   1      53.870  25.931  33.618  1.00  0.00     0.064 A 
ATOM    103  C   UNL A   1      54.799  24.892  33.458  1.00  0.00     0.173 A 
ATOM    104  C   UNL A   1      54.251  27.037  34.394  1.00  0.00     0.173 A 
ATOM    105  F   UNL A   1      54.483  23.808  32.733  1.00  0.00    -0.203 F 
ATOM    106  C   UNL A   1      56.045  24.944  34.078  1.00  0.00     0.198 A 
ATOM    107  C   UNL A   1      55.511  27.104  34.980  1.00  0.00     0.198 A 
ATOM    108  F   UNL A   1      53.406  28.065  34.567  1.00  0.00    -0.203 F 
ATOM    109  F   UNL A   1      56.894  23.914  33.958  1.00  0.00    -0.200 F 
ATOM    110  C   UNL A   1      56.402  26.052  34.831  1.00  0.00     0.200 A 
ATOM    111  F   UNL A   1      55.864  28.187  35.687  1.00  0.00    -0.200 F 
ATOM    112  F   UNL A   1      57.606  26.105  35.418  1.00  0.00    -0.200 F 
ENDBRANCH  79 102
ENDBRANCH  53  54
ENDBRANCH  46  48
ENDBRANCH  45  46
ENDBRANCH  44  45
ENDBRANCH  43  44
ENDBRANCH  42  43
ENDBRANCH  41  42
ENDBRANCH  40  41
ENDBRANCH  39  40
ENDBRANCH   1  39
TORSDOF 26
ENDMDL
MODEL 3
REMARK VINA RESULT:      -8.5      6.362     12.552
REMARK SMILES CC(=O)N[C@H]1[C@H](OCC(=O)OCCOCCOCCOCCOC(=O)c2ccc(-c3c4nc(c(-c5c(F)c(F)c(F)c(F)c5F)c5ccc([nH]5)c(-c5c(F)c(F)c(F)c(F)c5F)c5nc(c(-c6c(F)c(F)c(F)c(F)c6F)c6ccc3[nH]6)C=C5)C=C4)cc2)[C@H]2O[C@@H](c3ccco3)OC[C@H]2O[C@@H]1Sc1ccc(Cl)cc1
REMARK SMILES IDX 16 1 15 2 14 3 13 4 12 5 11 6 9 7 10 8 8 9 7 10 6 11 5 12
REMARK SMILES IDX 101 13 89 14 100 15 90 16 99 17 91 18 98 19 97 20 4 21 1 22
REMARK SMILES IDX 2 23 3 24 102 26 103 27 104 28 109 29 105 30 108 31 106 32
REMARK SMILES IDX 107 33 92 34 93 35 96 36 94 37 95 38 17 39 18 40 19 41 20 42
REMARK SMILES IDX 21 43 22 44 23 45 24 46 25 47 26 48 27 49 88 50 28 51 87 52
REMARK SMILES IDX 29 53 30 54 31 55 81 56 32 57 86 58 80 59 82 60 33 61 85 62
REMARK SMILES IDX 79 63 78 64 34 66 66 67 46 68 65 69 47 70 50 71 64 72 83 73
REMARK SMILES IDX 48 74 49 75 63 77 84 78 51 79 35 80 36 81 44 82 37 83 38 84
REMARK SMILES IDX 42 85 45 86 39 87 40 88 43 89 41 90 67 91 68 92 76 93 69 94
REMARK SMILES IDX 70 95 74 96 77 97 71 98 72 99 75 100 73 101 52 102 53 103
REMARK SMILES IDX 61 104 54 105 55 106 59 107 62 108 56 109 57 110 60 111
REMARK SMILES IDX 58 112
REMARK H PARENT 4 25 82 65 50 76
REMARK Flexibility Score: inf
ROOT
ATOM      1  C   UNL A   1      52.805  21.444  34.032  1.00  0.00     0.188 C 
ENDROOT
BRANCH   1   2
ATOM      2  C   UNL A   1      52.645  21.984  32.593  1.00  0.00     0.188 C 
BRANCH   2   3
ATOM      3  O   UNL A   1      51.499  22.798  32.378  1.00  0.00    -0.376 OA
BRANCH   3   4
ATOM      4  C   UNL A   1      51.677  24.180  32.688  1.00  0.00     0.202 C 
BRANCH   4   5
ATOM      5  C   UNL A   1      51.352  25.142  31.533  1.00  0.00     0.261 C 
BRANCH   5   6
ATOM      6  O   UNL A   1      50.017  24.942  30.989  1.00  0.00    -0.462 OA
BRANCH   6   7
ATOM      7  C   UNL A   1      49.305  26.057  30.668  1.00  0.00     0.332 C 
ATOM      8  O   UNL A   1      49.727  27.198  30.810  1.00  0.00    -0.250 OA
BRANCH   7   9
ATOM      9  C   UNL A   1      47.896  25.748  30.086  1.00  0.00     0.283 C 
BRANCH   9  10
ATOM     10  O   UNL A   1      47.492  25.886  28.743  1.00  0.00    -0.361 OA
BRANCH  10  11
ATOM     11  C   UNL A   1      46.169  25.587  28.269  1.00  0.00     0.176 C 
ATOM     12  C   UNL A   1      45.255  26.752  27.793  1.00  0.00     0.153 C 
ATOM     13  C   UNL A   1      45.327  26.969  26.234  1.00  0.00     0.206 C 
ATOM     14  C   UNL A   1      45.994  24.395  27.345  1.00  0.00     0.184 C 
ATOM     15  O   UNL A   1      45.271  25.763  25.472  1.00  0.00    -0.356 OA
ATOM     16  O   UNL A   1      44.713  23.839  27.585  1.00  0.00    -0.337 OA
ATOM     17  C   UNL A   1      46.171  24.740  25.889  1.00  0.00     0.177 C 
ATOM     18  C   UNL A   1      44.307  22.790  26.719  1.00  0.00     0.319 C 
ATOM     19  C   UNL A   1      45.922  23.462  25.099  1.00  0.00     0.199 C 
ATOM     20  O   UNL A   1      44.620  22.959  25.345  1.00  0.00    -0.343 OA
BRANCH  12  21
ATOM     21  N   UNL A   1      43.839  26.390  28.156  1.00  0.00    -0.347 N 
ATOM     22  C   UNL A   1      42.893  28.663  28.354  1.00  0.00     0.114 C 
ATOM     23  C   UNL A   1      42.815  27.183  28.586  1.00  0.00     0.217 C 
ATOM     24  O   UNL A   1      41.845  26.686  29.157  1.00  0.00    -0.275 OA
ATOM     25  H   UNL A   1      43.618  25.435  28.070  1.00  0.00     0.163 HD
ENDBRANCH  12  21
BRANCH  13  26
ATOM     26  S   UNL A   1      46.589  28.209  25.682  1.00  0.00    -0.092 SA
BRANCH  26  27
ATOM     27  C   UNL A   1      48.216  27.480  25.853  1.00  0.00     0.010 A 
ATOM     28  C   UNL A   1      49.074  27.665  26.943  1.00  0.00     0.016 A 
ATOM     29  C   UNL A   1      48.629  26.616  24.824  1.00  0.00     0.016 A 
ATOM     30  C   UNL A   1      50.347  27.075  26.959  1.00  0.00     0.021 A 
ATOM     31  C   UNL A   1      49.892  26.016  24.840  1.00  0.00     0.021 A 
ATOM     32  C   UNL A   1      50.752  26.256  25.906  1.00  0.00     0.041 A 
ATOM     33  Cl  UNL A   1      52.309  25.525  25.927  1.00  0.00    -0.084 Cl
ENDBRANCH  26  27
ENDBRANCH  13  26
BRANCH  18  34
ATOM     34  C   UNL A   1      42.817  22.826  26.752  1.00  0.00     0.159 A 
ATOM     35  C   UNL A   1      41.826  22.126  26.091  1.00  0.00     0.051 A 
ATOM     36  O   UNL A   1      42.247  23.784  27.550  1.00  0.00    -0.464 OA
ATOM     37  C   UNL A   1      40.593  22.689  26.506  1.00  0.00     0.042 A 
ATOM     38  C   UNL A   1      40.905  23.679  27.406  1.00  0.00     0.195 A 
ENDBRANCH  18  34
ENDBRANCH  10  11
ENDBRANCH   9  10
ENDBRANCH   7   9
ENDBRANCH   6   7
ENDBRANCH   5   6
ENDBRANCH   4   5
ENDBRANCH   3   4
ENDBRANCH   2   3
ENDBRANCH   1   2
BRANCH   1  39
ATOM     39  O   UNL A   1      52.107  20.222  34.234  1.00  0.00    -0.377 OA
BRANCH  39  40
ATOM     40  C   UNL A   1      51.329  20.226  35.426  1.00  0.00     0.188 C 
BRANCH  40  41
ATOM     41  C   UNL A   1      49.854  20.032  35.116  1.00  0.00     0.188 C 
BRANCH  41  42
ATOM     42  O   UNL A   1      49.183  21.034  34.360  1.00  0.00    -0.376 OA
BRANCH  42  43
ATOM     43  C   UNL A   1      47.759  21.027  34.611  1.00  0.00     0.202 C 
BRANCH  43  44
ATOM     44  C   UNL A   1      47.081  22.385  34.945  1.00  0.00     0.261 C 
BRANCH  44  45
ATOM     45  O   UNL A   1      46.181  22.964  33.970  1.00  0.00    -0.460 OA
BRANCH  45  46
ATOM     46  C   UNL A   1      44.867  23.139  34.274  1.00  0.00     0.338 C 
ATOM     47  O   UNL A   1      44.208  22.500  35.065  1.00  0.00    -0.246 OA
BRANCH  46  48
ATOM     48  C   UNL A   1      44.507  24.502  33.767  1.00  0.00     0.060 A 
ATOM     49  C   UNL A   1      44.526  24.714  32.377  1.00  0.00     0.016 A 
ATOM     50  C   UNL A   1      43.960  25.474  34.611  1.00  0.00     0.016 A 
ATOM     51  C   UNL A   1      43.973  25.874  31.830  1.00  0.00     0.010 A 
ATOM     52  C   UNL A   1      43.462  26.664  34.070  1.00  0.00     0.010 A 
ATOM     53  C   UNL A   1      43.486  26.875  32.681  1.00  0.00    -0.014 A 
BRANCH  53  54
ATOM     54  C   UNL A   1      43.378  28.252  32.149  1.00  0.00     0.031 A 
ATOM     55  C   UNL A   1      44.680  28.932  31.826  1.00  0.00     0.074 A 
ATOM     56  C   UNL A   1      42.203  28.874  31.952  1.00  0.00     0.049 A 
ATOM     57  N   UNL A   1      44.912  30.130  31.359  1.00  0.00    -0.248 NA
ATOM     58  C   UNL A   1      45.898  28.137  32.069  1.00  0.00     0.031 C 
ATOM     59  C   UNL A   1      40.884  28.299  32.200  1.00  0.00     0.029 A 
ATOM     60  N   UNL A   1      41.940  30.146  31.503  1.00  0.00    -0.354 N 
ATOM     61  C   UNL A   1      46.293  30.223  31.253  1.00  0.00     0.074 A 
ATOM     62  C   UNL A   1      46.853  28.982  31.728  1.00  0.00     0.031 C 
ATOM     63  C   UNL A   1      39.948  29.227  31.924  1.00  0.00     0.029 A 
ATOM     64  C   UNL A   1      40.604  30.465  31.503  1.00  0.00     0.049 A 
ATOM     65  H   UNL A   1      42.642  30.768  31.210  1.00  0.00     0.167 HD
ATOM     66  C   UNL A   1      47.034  31.258  30.800  1.00  0.00     0.037 A 
ATOM     67  C   UNL A   1      39.998  31.635  31.216  1.00  0.00     0.037 A 
ATOM     68  C   UNL A   1      46.467  32.505  30.372  1.00  0.00     0.049 A 
ATOM     69  C   UNL A   1      40.848  32.806  30.780  1.00  0.00     0.074 A 
ATOM     70  C   UNL A   1      47.112  33.625  29.886  1.00  0.00     0.029 A 
ATOM     71  N   UNL A   1      45.112  32.801  30.411  1.00  0.00    -0.354 N 
ATOM     72  N   UNL A   1      42.150  32.877  30.633  1.00  0.00    -0.248 NA
ATOM     73  C   UNL A   1      40.143  34.056  30.462  1.00  0.00     0.031 C 
ATOM     74  C   UNL A   1      46.153  34.625  29.699  1.00  0.00     0.029 A 
ATOM     75  C   UNL A   1      44.901  34.103  29.993  1.00  0.00     0.049 A 
ATOM     76  H   UNL A   1      44.404  32.177  30.692  1.00  0.00     0.167 HD
ATOM     77  C   UNL A   1      42.420  34.165  30.186  1.00  0.00     0.074 A 
ATOM     78  C   UNL A   1      41.140  34.836  30.069  1.00  0.00     0.031 C 
ATOM     79  C   UNL A   1      43.613  34.745  29.896  1.00  0.00     0.037 A 
BRANCH  66  80
ATOM     80  C   UNL A   1      48.526  31.090  30.820  1.00  0.00     0.064 A 
ATOM     81  C   UNL A   1      49.300  31.434  31.941  1.00  0.00     0.173 A 
ATOM     82  C   UNL A   1      49.197  30.615  29.684  1.00  0.00     0.173 A 
ATOM     83  F   UNL A   1      48.713  31.924  33.043  1.00  0.00    -0.203 F 
ATOM     84  C   UNL A   1      50.689  31.345  31.908  1.00  0.00     0.198 A 
ATOM     85  C   UNL A   1      50.583  30.492  29.667  1.00  0.00     0.198 A 
ATOM     86  F   UNL A   1      48.508  30.284  28.581  1.00  0.00    -0.203 F 
ATOM     87  F   UNL A   1      51.411  31.748  32.963  1.00  0.00    -0.200 F 
ATOM     88  C   UNL A   1      51.329  30.867  30.774  1.00  0.00     0.200 A 
ATOM     89  F   UNL A   1      51.198  30.024  28.573  1.00  0.00    -0.200 F 
ATOM     90  F   UNL A   1      52.666  30.783  30.741  1.00  0.00    -0.200 F 
ENDBRANCH  66  80
BRANCH  67  91
ATOM     91  C   UNL A   1      38.520  31.762  31.347  1.00  0.00     0.064 A 
ATOM     92  C   UNL A   1      37.916  32.072  32.574  1.00  0.00     0.173 A 
ATOM     93  C   UNL A   1      37.675  31.572  30.242  1.00  0.00     0.173 A 
ATOM     94  F   UNL A   1      38.671  32.234  33.670  1.00  0.00    -0.203 F 
ATOM     95  C   UNL A   1      36.530  32.180  32.692  1.00  0.00     0.198 A 
ATOM     96  C   UNL A   1      36.293  31.710  30.353  1.00  0.00     0.198 A 
ATOM     97  F   UNL A   1      38.196  31.264  29.045  1.00  0.00    -0.203 F 
ATOM     98  F   UNL A   1      35.978  32.441  33.885  1.00  0.00    -0.200 F 
ATOM     99  C   UNL A   1      35.720  32.010  31.580  1.00  0.00     0.200 A 
ATOM    100  F   UNL A   1      35.516  31.555  29.272  1.00  0.00    -0.200 F 
ATOM    101  F   UNL A   1      34.390  32.129  31.689  1.00  0.00    -0.200 F 
ENDBRANCH  67  91
BRANCH  79 102
ATOM    102  C   UNL A   1      43.590  36.162  29.399  1.00  0.00     0.064 A 
ATOM    103  C   UNL A   1      43.307  36.472  28.061  1.00  0.00     0.173 A 
ATOM    104  C   UNL A   1      43.800  37.227  30.289  1.00  0.00     0.173 A 
ATOM    105  F   UNL A   1      43.105  35.492  27.168  1.00  0.00    -0.203 F 
ATOM    106  C   UNL A   1      43.270  37.794  27.625  1.00  0.00     0.198 A 
ATOM    107  C   UNL A   1      43.724  38.548  29.859  1.00  0.00     0.198 A 
ATOM    108  F   UNL A   1      44.059  36.986  31.583  1.00  0.00    -0.203 F 
ATOM    109  F   UNL A   1      43.055  38.065  26.330  1.00  0.00    -0.200 F 
ATOM    110  C   UNL A   1      43.472  38.830  28.525  1.00  0.00     0.200 A 
ATOM    111  F   UNL A   1      43.895  39.548  30.735  1.00  0.00    -0.200 F 
ATOM    112  F   UNL A   1      43.426  40.102  28.106  1.00  0.00    -0.200 F 
ENDBRANCH  79 102
ENDBRANCH  53  54
ENDBRANCH  46  48
ENDBRANCH  45  46
ENDBRANCH  44  45
ENDBRANCH  43  44
ENDBRANCH  42  43
ENDBRANCH  41  42
ENDBRANCH  40  41
ENDBRANCH  39  40
ENDBRANCH   1  39
TORSDOF 26
ENDMDL
