MODEL 1
REMARK VINA RESULT:      -9.5      0.000      0.000
REMARK SMILES COc1cccc(S(=O)(=O)N[C@H](CC(C)C)C(=O)OCCOCCOCCOCCOC(=O)c2ccc(-c3c4nc(c(-c5c(F)c(F)c(F)c(F)c5F)c5ccc([nH]5)c(-c5c(F)c(F)c(F)c(F)c5F)c5nc(c(-c6c(F)c(F)c(F)c(F)c6F)c6ccc3[nH]6)C=C5)C=C4)cc2)c1
REMARK SMILES IDX 24 1 23 2 22 3 21 4 20 5 19 6 17 7 18 8 12 9 11 10 8 12 9 13
REMARK SMILES IDX 10 14 7 15 3 16 4 17 97 18 5 19 6 20 2 21 1 22 13 23 14 24
REMARK SMILES IDX 15 25 16 26 25 27 26 28 27 29 28 30 29 31 30 32 31 33 32 34
REMARK SMILES IDX 33 35 34 36 35 37 96 38 36 39 95 40 37 41 38 42 39 43 89 44
REMARK SMILES IDX 40 45 94 46 88 47 90 48 41 49 93 50 87 51 86 52 42 54 74 55
REMARK SMILES IDX 54 56 73 57 55 58 58 59 72 60 91 61 56 62 57 63 71 65 92 66
REMARK SMILES IDX 59 67 43 68 44 69 52 70 45 71 46 72 50 73 53 74 47 75 48 76
REMARK SMILES IDX 51 77 49 78 75 79 76 80 84 81 77 82 78 83 82 84 85 85 79 86
REMARK SMILES IDX 80 87 83 88 81 89 60 90 61 91 69 92 62 93 63 94 67 95 70 96
REMARK SMILES IDX 64 97 65 98 68 99 66 100
REMARK H PARENT 11 11 90 53 58 64
REMARK Flexibility Score: inf
ROOT
ATOM      1  C   UNL A   1      35.406  30.435  27.826  1.00  0.00     0.188 C 
ENDROOT
BRANCH   1   2
ATOM      2  C   UNL A   1      34.006  30.693  27.242  1.00  0.00     0.188 C 
BRANCH   2   3
ATOM      3  O   UNL A   1      33.227  29.579  26.804  1.00  0.00    -0.376 OA
BRANCH   3   4
ATOM      4  C   UNL A   1      33.720  28.758  25.741  1.00  0.00     0.202 C 
BRANCH   4   5
ATOM      5  C   UNL A   1      33.285  29.099  24.307  1.00  0.00     0.261 C 
BRANCH   5   6
ATOM      6  O   UNL A   1      31.855  29.207  24.245  1.00  0.00    -0.462 OA
BRANCH   6   7
ATOM      7  C   UNL A   1      31.204  28.750  23.142  1.00  0.00     0.324 C 
ATOM      8  O   UNL A   1      30.813  29.447  22.215  1.00  0.00    -0.250 OA
BRANCH   7   9
ATOM      9  C   UNL A   1      31.170  27.214  23.152  1.00  0.00     0.180 C 
BRANCH   9  10
ATOM     10  N   UNL A   1      31.454  26.628  21.826  1.00  0.00    -0.197 NA
ATOM     11  H   UNL A   1      30.876  25.791  21.742  1.00  0.00     0.142 HD
BRANCH  10  12
ATOM     12  S   UNL A   1      33.032  26.175  21.436  1.00  0.00     0.241 S 
ATOM     13  O   UNL A   1      33.925  27.258  21.760  1.00  0.00    -0.207 OA
ATOM     14  O   UNL A   1      32.949  25.634  20.092  1.00  0.00    -0.207 OA
BRANCH  12  15
ATOM     15  C   UNL A   1      33.375  24.819  22.536  1.00  0.00     0.086 A 
ATOM     16  C   UNL A   1      34.214  24.025  24.647  1.00  0.00     0.120 A 
ATOM     17  C   UNL A   1      33.857  22.721  24.311  1.00  0.00     0.046 A 
ATOM     18  C   UNL A   1      34.042  25.067  23.739  1.00  0.00     0.068 A 
ATOM     19  C   UNL A   1      33.266  22.463  23.074  1.00  0.00     0.005 A 
ATOM     20  C   UNL A   1      33.007  23.514  22.189  1.00  0.00     0.022 A 
BRANCH  16  21
ATOM     21  O   UNL A   1      34.772  24.269  25.871  1.00  0.00    -0.497 OA
ATOM     22  C   UNL A   1      35.311  23.062  26.422  1.00  0.00     0.278 C 
ENDBRANCH  16  21
ENDBRANCH  12  15
ENDBRANCH  10  12
ENDBRANCH   9  10
BRANCH   9  23
ATOM     23  C   UNL A   1      29.882  26.654  23.777  1.00  0.00     0.035 C 
BRANCH  23  24
ATOM     24  C   UNL A   1      29.994  25.777  25.031  1.00  0.00    -0.015 C 
ATOM     25  C   UNL A   1      30.506  24.368  24.729  1.00  0.00     0.007 C 
ATOM     26  C   UNL A   1      30.978  26.455  25.997  1.00  0.00     0.007 C 
ENDBRANCH  23  24
ENDBRANCH   9  23
ENDBRANCH   7   9
ENDBRANCH   6   7
ENDBRANCH   5   6
ENDBRANCH   4   5
ENDBRANCH   3   4
ENDBRANCH   2   3
ENDBRANCH   1   2
BRANCH   1  27
ATOM     27  O   UNL A   1      36.075  31.612  28.238  1.00  0.00    -0.377 OA
BRANCH  27  28
ATOM     28  C   UNL A   1      35.375  32.842  28.059  1.00  0.00     0.188 C 
BRANCH  28  29
ATOM     29  C   UNL A   1      34.682  33.481  29.277  1.00  0.00     0.188 C 
BRANCH  29  30
ATOM     30  O   UNL A   1      33.507  34.224  28.960  1.00  0.00    -0.376 OA
BRANCH  30  31
ATOM     31  C   UNL A   1      33.623  35.642  28.889  1.00  0.00     0.202 C 
BRANCH  31  32
ATOM     32  C   UNL A   1      32.756  36.420  29.894  1.00  0.00     0.261 C 
BRANCH  32  33
ATOM     33  O   UNL A   1      33.290  36.499  31.226  1.00  0.00    -0.460 OA
BRANCH  33  34
ATOM     34  C   UNL A   1      32.860  35.582  32.116  1.00  0.00     0.338 C 
ATOM     35  O   UNL A   1      31.716  35.222  32.318  1.00  0.00    -0.246 OA
BRANCH  34  36
ATOM     36  C   UNL A   1      34.045  34.933  32.706  1.00  0.00     0.060 A 
ATOM     37  C   UNL A   1      35.280  35.585  32.612  1.00  0.00     0.016 A 
ATOM     38  C   UNL A   1      33.943  33.682  33.317  1.00  0.00     0.016 A 
ATOM     39  C   UNL A   1      36.432  34.960  33.088  1.00  0.00     0.010 A 
ATOM     40  C   UNL A   1      35.099  33.049  33.779  1.00  0.00     0.010 A 
ATOM     41  C   UNL A   1      36.352  33.670  33.631  1.00  0.00    -0.014 A 
BRANCH  41  42
ATOM     42  C   UNL A   1      37.592  32.887  33.848  1.00  0.00     0.031 A 
ATOM     43  C   UNL A   1      38.380  33.134  35.104  1.00  0.00     0.074 A 
ATOM     44  C   UNL A   1      38.005  31.969  32.958  1.00  0.00     0.049 A 
ATOM     45  N   UNL A   1      39.504  32.596  35.503  1.00  0.00    -0.248 NA
ATOM     46  C   UNL A   1      37.825  34.130  36.035  1.00  0.00     0.031 C 
ATOM     47  C   UNL A   1      37.308  31.612  31.726  1.00  0.00     0.029 A 
ATOM     48  N   UNL A   1      39.122  31.172  32.961  1.00  0.00    -0.354 N 
ATOM     49  C   UNL A   1      39.790  33.188  36.726  1.00  0.00     0.074 A 
ATOM     50  C   UNL A   1      38.740  34.148  36.991  1.00  0.00     0.031 C 
ATOM     51  C   UNL A   1      38.018  30.667  31.084  1.00  0.00     0.029 A 
ATOM     52  C   UNL A   1      39.230  30.376  31.848  1.00  0.00     0.049 A 
ATOM     53  H   UNL A   1      39.782  31.170  33.692  1.00  0.00     0.167 HD
ATOM     54  C   UNL A   1      40.831  32.949  37.557  1.00  0.00     0.037 A 
ATOM     55  C   UNL A   1      40.209  29.522  31.487  1.00  0.00     0.037 A 
ATOM     56  C   UNL A   1      41.876  31.998  37.291  1.00  0.00     0.049 A 
ATOM     57  C   UNL A   1      41.401  29.334  32.392  1.00  0.00     0.074 A 
ATOM     58  C   UNL A   1      42.957  31.659  38.085  1.00  0.00     0.029 A 
ATOM     59  N   UNL A   1      41.977  31.242  36.132  1.00  0.00    -0.354 N 
ATOM     60  N   UNL A   1      41.645  29.864  33.565  1.00  0.00    -0.248 NA
ATOM     61  C   UNL A   1      42.454  28.424  31.917  1.00  0.00     0.031 C 
ATOM     62  C   UNL A   1      43.743  30.740  37.382  1.00  0.00     0.029 A 
ATOM     63  C   UNL A   1      43.122  30.464  36.174  1.00  0.00     0.049 A 
ATOM     64  H   UNL A   1      41.331  31.257  35.390  1.00  0.00     0.167 HD
ATOM     65  C   UNL A   1      42.857  29.330  33.984  1.00  0.00     0.074 A 
ATOM     66  C   UNL A   1      43.297  28.428  32.940  1.00  0.00     0.031 C 
ATOM     67  C   UNL A   1      43.542  29.563  35.131  1.00  0.00     0.037 A 
BRANCH  54  68
ATOM     68  C   UNL A   1      40.907  33.760  38.816  1.00  0.00     0.064 A 
ATOM     69  C   UNL A   1      40.179  33.412  39.965  1.00  0.00     0.173 A 
ATOM     70  C   UNL A   1      41.728  34.895  38.878  1.00  0.00     0.173 A 
ATOM     71  F   UNL A   1      39.364  32.346  39.952  1.00  0.00    -0.203 F 
ATOM     72  C   UNL A   1      40.249  34.189  41.118  1.00  0.00     0.198 A 
ATOM     73  C   UNL A   1      41.817  35.653  40.042  1.00  0.00     0.198 A 
ATOM     74  F   UNL A   1      42.444  35.270  37.808  1.00  0.00    -0.203 F 
ATOM     75  F   UNL A   1      39.504  33.869  42.186  1.00  0.00    -0.200 F 
ATOM     76  C   UNL A   1      41.072  35.305  41.158  1.00  0.00     0.200 A 
ATOM     77  F   UNL A   1      42.621  36.725  40.081  1.00  0.00    -0.200 F 
ATOM     78  F   UNL A   1      41.139  36.050  42.270  1.00  0.00    -0.200 F 
ENDBRANCH  54  68
BRANCH  55  79
ATOM     79  C   UNL A   1      40.110  28.777  30.205  1.00  0.00     0.064 A 
ATOM     80  C   UNL A   1      39.530  27.501  30.157  1.00  0.00     0.173 A 
ATOM     81  C   UNL A   1      40.610  29.312  29.009  1.00  0.00     0.173 A 
ATOM     82  F   UNL A   1      39.063  26.936  31.280  1.00  0.00    -0.203 F 
ATOM     83  C   UNL A   1      39.469  26.783  28.965  1.00  0.00     0.198 A 
ATOM     84  C   UNL A   1      40.524  28.604  27.812  1.00  0.00     0.198 A 
ATOM     85  F   UNL A   1      41.178  30.526  29.002  1.00  0.00    -0.203 F 
ATOM     86  F   UNL A   1      38.950  25.547  28.956  1.00  0.00    -0.200 F 
ATOM     87  C   UNL A   1      39.960  27.337  27.792  1.00  0.00     0.200 A 
ATOM     88  F   UNL A   1      40.991  29.146  26.680  1.00  0.00    -0.200 F 
ATOM     89  F   UNL A   1      39.899  26.646  26.645  1.00  0.00    -0.200 F 
ENDBRANCH  55  79
BRANCH  67  90
ATOM     90  C   UNL A   1      44.821  28.803  35.342  1.00  0.00     0.064 A 
ATOM     91  C   UNL A   1      44.837  27.542  35.957  1.00  0.00     0.173 A 
ATOM     92  C   UNL A   1      46.039  29.322  34.878  1.00  0.00     0.173 A 
ATOM     93  F   UNL A   1      43.701  27.008  36.431  1.00  0.00    -0.203 F 
ATOM     94  C   UNL A   1      46.029  26.840  36.120  1.00  0.00     0.198 A 
ATOM     95  C   UNL A   1      47.224  28.604  35.014  1.00  0.00     0.198 A 
ATOM     96  F   UNL A   1      46.078  30.519  34.275  1.00  0.00    -0.203 F 
ATOM     97  F   UNL A   1      46.027  25.658  36.751  1.00  0.00    -0.200 F 
ATOM     98  C   UNL A   1      47.219  27.368  35.641  1.00  0.00     0.200 A 
ATOM     99  F   UNL A   1      48.370  29.109  34.538  1.00  0.00    -0.200 F 
ATOM    100  F   UNL A   1      48.363  26.686  35.791  1.00  0.00    -0.200 F 
ENDBRANCH  67  90
ENDBRANCH  41  42
ENDBRANCH  34  36
ENDBRANCH  33  34
ENDBRANCH  32  33
ENDBRANCH  31  32
ENDBRANCH  30  31
ENDBRANCH  29  30
ENDBRANCH  28  29
ENDBRANCH  27  28
ENDBRANCH   1  27
TORSDOF 26
ENDMDL
MODEL 2
REMARK VINA RESULT:      -8.9      3.837      9.307
REMARK SMILES COc1cccc(S(=O)(=O)N[C@H](CC(C)C)C(=O)OCCOCCOCCOCCOC(=O)c2ccc(-c3c4nc(c(-c5c(F)c(F)c(F)c(F)c5F)c5ccc([nH]5)c(-c5c(F)c(F)c(F)c(F)c5F)c5nc(c(-c6c(F)c(F)c(F)c(F)c6F)c6ccc3[nH]6)C=C5)C=C4)cc2)c1
REMARK SMILES IDX 24 1 23 2 22 3 21 4 20 5 19 6 17 7 18 8 12 9 11 10 8 12 9 13
REMARK SMILES IDX 10 14 7 15 3 16 4 17 97 18 5 19 6 20 2 21 1 22 13 23 14 24
REMARK SMILES IDX 15 25 16 26 25 27 26 28 27 29 28 30 29 31 30 32 31 33 32 34
REMARK SMILES IDX 33 35 34 36 35 37 96 38 36 39 95 40 37 41 38 42 39 43 89 44
REMARK SMILES IDX 40 45 94 46 88 47 90 48 41 49 93 50 87 51 86 52 42 54 74 55
REMARK SMILES IDX 54 56 73 57 55 58 58 59 72 60 91 61 56 62 57 63 71 65 92 66
REMARK SMILES IDX 59 67 43 68 44 69 52 70 45 71 46 72 50 73 53 74 47 75 48 76
REMARK SMILES IDX 51 77 49 78 75 79 76 80 84 81 77 82 78 83 82 84 85 85 79 86
REMARK SMILES IDX 80 87 83 88 81 89 60 90 61 91 69 92 62 93 63 94 67 95 70 96
REMARK SMILES IDX 64 97 65 98 68 99 66 100
REMARK H PARENT 11 11 90 53 58 64
REMARK Flexibility Score: inf
ROOT
ATOM      1  C   UNL A   1      41.850  20.924  26.406  1.00  0.00     0.188 C 
ENDROOT
BRANCH   1   2
ATOM      2  C   UNL A   1      40.399  20.946  26.919  1.00  0.00     0.188 C 
BRANCH   2   3
ATOM      3  O   UNL A   1      39.421  21.683  26.186  1.00  0.00    -0.376 OA
BRANCH   3   4
ATOM      4  C   UNL A   1      38.492  20.977  25.357  1.00  0.00     0.202 C 
BRANCH   4   5
ATOM      5  C   UNL A   1      37.315  21.766  24.762  1.00  0.00     0.261 C 
BRANCH   5   6
ATOM      6  O   UNL A   1      36.131  20.953  24.771  1.00  0.00    -0.462 OA
BRANCH   6   7
ATOM      7  C   UNL A   1      35.071  21.335  25.534  1.00  0.00     0.324 C 
ATOM      8  O   UNL A   1      35.149  21.921  26.605  1.00  0.00    -0.250 OA
BRANCH   7   9
ATOM      9  C   UNL A   1      33.759  21.066  24.781  1.00  0.00     0.180 C 
BRANCH   9  10
ATOM     10  N   UNL A   1      33.062  22.306  24.388  1.00  0.00    -0.197 NA
ATOM     11  H   UNL A   1      32.071  22.166  24.591  1.00  0.00     0.142 HD
BRANCH  10  12
ATOM     12  S   UNL A   1      33.162  22.849  22.793  1.00  0.00     0.241 S 
ATOM     13  O   UNL A   1      32.450  21.931  21.940  1.00  0.00    -0.207 OA
ATOM     14  O   UNL A   1      34.565  23.151  22.583  1.00  0.00    -0.207 OA
BRANCH  12  15
ATOM     15  C   UNL A   1      32.280  24.395  22.808  1.00  0.00     0.086 A 
ATOM     16  C   UNL A   1      30.708  25.874  23.873  1.00  0.00     0.120 A 
ATOM     17  C   UNL A   1      30.939  26.840  22.897  1.00  0.00     0.046 A 
ATOM     18  C   UNL A   1      31.320  24.625  23.798  1.00  0.00     0.068 A 
ATOM     19  C   UNL A   1      31.837  26.576  21.862  1.00  0.00     0.005 A 
ATOM     20  C   UNL A   1      32.523  25.359  21.823  1.00  0.00     0.022 A 
BRANCH  16  21
ATOM     21  O   UNL A   1      29.844  26.152  24.895  1.00  0.00    -0.497 OA
ATOM     22  C   UNL A   1      30.138  25.335  26.032  1.00  0.00     0.278 C 
ENDBRANCH  16  21
ENDBRANCH  12  15
ENDBRANCH  10  12
ENDBRANCH   9  10
BRANCH   9  23
ATOM     23  C   UNL A   1      32.839  20.086  25.527  1.00  0.00     0.035 C 
BRANCH  23  24
ATOM     24  C   UNL A   1      32.447  18.774  24.836  1.00  0.00    -0.015 C 
ATOM     25  C   UNL A   1      33.213  18.533  23.535  1.00  0.00     0.007 C 
ATOM     26  C   UNL A   1      32.755  17.619  25.802  1.00  0.00     0.007 C 
ENDBRANCH  23  24
ENDBRANCH   9  23
ENDBRANCH   7   9
ENDBRANCH   6   7
ENDBRANCH   5   6
ENDBRANCH   4   5
ENDBRANCH   3   4
ENDBRANCH   2   3
ENDBRANCH   1   2
BRANCH   1  27
ATOM     27  O   UNL A   1      42.338  19.622  26.138  1.00  0.00    -0.377 OA
BRANCH  27  28
ATOM     28  C   UNL A   1      43.531  19.532  25.364  1.00  0.00     0.188 C 
BRANCH  28  29
ATOM     29  C   UNL A   1      44.606  20.623  25.535  1.00  0.00     0.188 C 
BRANCH  29  30
ATOM     30  O   UNL A   1      45.359  20.894  24.355  1.00  0.00    -0.376 OA
BRANCH  30  31
ATOM     31  C   UNL A   1      46.203  22.042  24.360  1.00  0.00     0.202 C 
BRANCH  31  32
ATOM     32  C   UNL A   1      45.960  23.027  25.516  1.00  0.00     0.261 C 
BRANCH  32  33
ATOM     33  O   UNL A   1      45.290  24.244  25.148  1.00  0.00    -0.460 OA
BRANCH  33  34
ATOM     34  C   UNL A   1      43.958  24.297  25.348  1.00  0.00     0.338 C 
ATOM     35  O   UNL A   1      43.090  23.707  24.734  1.00  0.00    -0.246 OA
BRANCH  34  36
ATOM     36  C   UNL A   1      43.716  25.071  26.580  1.00  0.00     0.060 A 
ATOM     37  C   UNL A   1      42.886  24.520  27.562  1.00  0.00     0.016 A 
ATOM     38  C   UNL A   1      44.278  26.338  26.747  1.00  0.00     0.016 A 
ATOM     39  C   UNL A   1      42.573  25.262  28.701  1.00  0.00     0.010 A 
ATOM     40  C   UNL A   1      43.951  27.087  27.880  1.00  0.00     0.010 A 
ATOM     41  C   UNL A   1      43.068  26.565  28.842  1.00  0.00    -0.014 A 
BRANCH  41  42
ATOM     42  C   UNL A   1      42.498  27.459  29.879  1.00  0.00     0.031 A 
ATOM     43  C   UNL A   1      43.175  27.518  31.219  1.00  0.00     0.074 A 
ATOM     44  C   UNL A   1      41.410  28.209  29.635  1.00  0.00     0.049 A 
ATOM     45  N   UNL A   1      42.852  28.200  32.288  1.00  0.00    -0.248 NA
ATOM     46  C   UNL A   1      44.382  26.690  31.375  1.00  0.00     0.031 C 
ATOM     47  C   UNL A   1      40.690  28.268  28.366  1.00  0.00     0.029 A 
ATOM     48  N   UNL A   1      40.723  29.067  30.457  1.00  0.00    -0.354 N 
ATOM     49  C   UNL A   1      43.811  27.881  33.241  1.00  0.00     0.074 A 
ATOM     50  C   UNL A   1      44.710  26.923  32.636  1.00  0.00     0.031 C 
ATOM     51  C   UNL A   1      39.653  29.115  28.495  1.00  0.00     0.029 A 
ATOM     52  C   UNL A   1      39.623  29.633  29.862  1.00  0.00     0.049 A 
ATOM     53  H   UNL A   1      40.992  29.257  31.385  1.00  0.00     0.167 HD
ATOM     54  C   UNL A   1      43.933  28.350  34.505  1.00  0.00     0.037 A 
ATOM     55  C   UNL A   1      38.693  30.464  30.375  1.00  0.00     0.037 A 
ATOM     56  C   UNL A   1      43.036  29.300  35.106  1.00  0.00     0.049 A 
ATOM     57  C   UNL A   1      38.807  30.907  31.812  1.00  0.00     0.074 A 
ATOM     58  C   UNL A   1      43.095  29.861  36.369  1.00  0.00     0.029 A 
ATOM     59  N   UNL A   1      41.907  29.817  34.488  1.00  0.00    -0.354 N 
ATOM     60  N   UNL A   1      39.737  30.636  32.694  1.00  0.00    -0.248 NA
ATOM     61  C   UNL A   1      37.735  31.776  32.322  1.00  0.00     0.031 C 
ATOM     62  C   UNL A   1      41.969  30.675  36.535  1.00  0.00     0.029 A 
ATOM     63  C   UNL A   1      41.240  30.665  35.356  1.00  0.00     0.049 A 
ATOM     64  H   UNL A   1      41.623  29.612  33.568  1.00  0.00     0.167 HD
ATOM     65  C   UNL A   1      39.385  31.324  33.849  1.00  0.00     0.074 A 
ATOM     66  C   UNL A   1      38.156  32.031  33.553  1.00  0.00     0.031 C 
ATOM     67  C   UNL A   1      40.022  31.369  35.044  1.00  0.00     0.037 A 
BRANCH  54  68
ATOM     68  C   UNL A   1      45.062  27.810  35.331  1.00  0.00     0.064 A 
ATOM     69  C   UNL A   1      44.916  26.658  36.118  1.00  0.00     0.173 A 
ATOM     70  C   UNL A   1      46.311  28.449  35.327  1.00  0.00     0.173 A 
ATOM     71  F   UNL A   1      43.737  26.020  36.172  1.00  0.00    -0.203 F 
ATOM     72  C   UNL A   1      45.972  26.183  36.893  1.00  0.00     0.198 A 
ATOM     73  C   UNL A   1      47.371  27.955  36.081  1.00  0.00     0.198 A 
ATOM     74  F   UNL A   1      46.501  29.554  34.591  1.00  0.00    -0.203 F 
ATOM     75  F   UNL A   1      45.794  25.112  37.680  1.00  0.00    -0.200 F 
ATOM     76  C   UNL A   1      47.200  26.828  36.869  1.00  0.00     0.200 A 
ATOM     77  F   UNL A   1      48.559  28.575  36.048  1.00  0.00    -0.200 F 
ATOM     78  F   UNL A   1      48.214  26.369  37.615  1.00  0.00    -0.200 F 
ENDBRANCH  54  68
BRANCH  55  79
ATOM     79  C   UNL A   1      37.567  30.934  29.526  1.00  0.00     0.064 A 
ATOM     80  C   UNL A   1      37.531  32.248  29.040  1.00  0.00     0.173 A 
ATOM     81  C   UNL A   1      36.495  30.089  29.204  1.00  0.00     0.173 A 
ATOM     82  F   UNL A   1      38.521  33.101  29.345  1.00  0.00    -0.203 F 
ATOM     83  C   UNL A   1      36.460  32.704  28.276  1.00  0.00     0.198 A 
ATOM     84  C   UNL A   1      35.436  30.538  28.417  1.00  0.00     0.198 A 
ATOM     85  F   UNL A   1      36.478  28.824  29.649  1.00  0.00    -0.203 F 
ATOM     86  F   UNL A   1      36.430  33.978  27.861  1.00  0.00    -0.200 F 
ATOM     87  C   UNL A   1      35.415  31.847  27.960  1.00  0.00     0.200 A 
ATOM     88  F   UNL A   1      34.434  29.705  28.107  1.00  0.00    -0.200 F 
ATOM     89  F   UNL A   1      34.386  32.286  27.223  1.00  0.00    -0.200 F 
ENDBRANCH  55  79
BRANCH  67  90
ATOM     90  C   UNL A   1      39.430  32.242  36.114  1.00  0.00     0.064 A 
ATOM     91  C   UNL A   1      38.426  31.775  36.975  1.00  0.00     0.173 A 
ATOM     92  C   UNL A   1      39.911  33.545  36.312  1.00  0.00     0.173 A 
ATOM     93  F   UNL A   1      37.922  30.542  36.818  1.00  0.00    -0.203 F 
ATOM     94  C   UNL A   1      37.908  32.590  37.979  1.00  0.00     0.198 A 
ATOM     95  C   UNL A   1      39.413  34.346  37.336  1.00  0.00     0.198 A 
ATOM     96  F   UNL A   1      40.877  34.037  35.523  1.00  0.00    -0.203 F 
ATOM     97  F   UNL A   1      36.917  32.140  38.760  1.00  0.00    -0.200 F 
ATOM     98  C   UNL A   1      38.408  33.871  38.164  1.00  0.00     0.200 A 
ATOM     99  F   UNL A   1      39.908  35.577  37.523  1.00  0.00    -0.200 F 
ATOM    100  F   UNL A   1      37.915  34.650  39.137  1.00  0.00    -0.200 F 
ENDBRANCH  67  90
ENDBRANCH  41  42
ENDBRANCH  34  36
ENDBRANCH  33  34
ENDBRANCH  32  33
ENDBRANCH  31  32
ENDBRANCH  30  31
ENDBRANCH  29  30
ENDBRANCH  28  29
ENDBRANCH  27  28
ENDBRANCH   1  27
TORSDOF 26
ENDMDL
MODEL 3
REMARK VINA RESULT:      -8.7      5.156     10.811
REMARK SMILES COc1cccc(S(=O)(=O)N[C@H](CC(C)C)C(=O)OCCOCCOCCOCCOC(=O)c2ccc(-c3c4nc(c(-c5c(F)c(F)c(F)c(F)c5F)c5ccc([nH]5)c(-c5c(F)c(F)c(F)c(F)c5F)c5nc(c(-c6c(F)c(F)c(F)c(F)c6F)c6ccc3[nH]6)C=C5)C=C4)cc2)c1
REMARK SMILES IDX 24 1 23 2 22 3 21 4 20 5 19 6 17 7 18 8 12 9 11 10 8 12 9 13
REMARK SMILES IDX 10 14 7 15 3 16 4 17 97 18 5 19 6 20 2 21 1 22 13 23 14 24
REMARK SMILES IDX 15 25 16 26 25 27 26 28 27 29 28 30 29 31 30 32 31 33 32 34
REMARK SMILES IDX 33 35 34 36 35 37 96 38 36 39 95 40 37 41 38 42 39 43 89 44
REMARK SMILES IDX 40 45 94 46 88 47 90 48 41 49 93 50 87 51 86 52 42 54 74 55
REMARK SMILES IDX 54 56 73 57 55 58 58 59 72 60 91 61 56 62 57 63 71 65 92 66
REMARK SMILES IDX 59 67 43 68 44 69 52 70 45 71 46 72 50 73 53 74 47 75 48 76
REMARK SMILES IDX 51 77 49 78 75 79 76 80 84 81 77 82 78 83 82 84 85 85 79 86
REMARK SMILES IDX 80 87 83 88 81 89 60 90 61 91 69 92 62 93 63 94 67 95 70 96
REMARK SMILES IDX 64 97 65 98 68 99 66 100
REMARK H PARENT 11 11 90 53 58 64
REMARK Flexibility Score: inf
ROOT
ATOM      1  C   UNL A   1      40.935  26.268  28.822  1.00  0.00     0.188 C 
ENDROOT
BRANCH   1   2
ATOM      2  C   UNL A   1      39.491  26.707  29.123  1.00  0.00     0.188 C 
BRANCH   2   3
ATOM      3  O   UNL A   1      39.251  28.057  29.518  1.00  0.00    -0.376 OA
BRANCH   3   4
ATOM      4  C   UNL A   1      39.341  29.098  28.540  1.00  0.00     0.202 C 
BRANCH   4   5
ATOM      5  C   UNL A   1      38.449  30.336  28.723  1.00  0.00     0.261 C 
BRANCH   5   6
ATOM      6  O   UNL A   1      39.076  31.258  29.627  1.00  0.00    -0.462 OA
BRANCH   6   7
ATOM      7  C   UNL A   1      38.469  32.448  29.886  1.00  0.00     0.324 C 
ATOM      8  O   UNL A   1      38.040  33.219  29.039  1.00  0.00    -0.250 OA
BRANCH   7   9
ATOM      9  C   UNL A   1      38.259  32.611  31.399  1.00  0.00     0.180 C 
BRANCH   9  10
ATOM     10  N   UNL A   1      37.691  33.926  31.758  1.00  0.00    -0.197 NA
ATOM     11  H   UNL A   1      38.417  34.433  32.266  1.00  0.00     0.142 HD
BRANCH  10  12
ATOM     12  S   UNL A   1      36.292  34.002  32.698  1.00  0.00     0.241 S 
ATOM     13  O   UNL A   1      36.432  35.063  33.662  1.00  0.00    -0.207 OA
ATOM     14  O   UNL A   1      36.034  32.633  33.106  1.00  0.00    -0.207 OA
BRANCH  12  15
ATOM     15  C   UNL A   1      35.020  34.462  31.542  1.00  0.00     0.086 A 
ATOM     16  C   UNL A   1      33.009  35.689  31.053  1.00  0.00     0.120 A 
ATOM     17  C   UNL A   1      33.054  35.257  29.730  1.00  0.00     0.046 A 
ATOM     18  C   UNL A   1      33.945  35.240  31.981  1.00  0.00     0.068 A 
ATOM     19  C   UNL A   1      34.082  34.412  29.313  1.00  0.00     0.005 A 
ATOM     20  C   UNL A   1      35.079  34.024  30.214  1.00  0.00     0.022 A 
BRANCH  16  21
ATOM     21  O   UNL A   1      32.009  36.535  31.445  1.00  0.00    -0.497 OA
ATOM     22  C   UNL A   1      31.429  36.086  32.674  1.00  0.00     0.278 C 
ENDBRANCH  16  21
ENDBRANCH  12  15
ENDBRANCH  10  12
ENDBRANCH   9  10
BRANCH   9  23
ATOM     23  C   UNL A   1      39.519  32.274  32.213  1.00  0.00     0.035 C 
BRANCH  23  24
ATOM     24  C   UNL A   1      39.463  31.105  33.206  1.00  0.00    -0.015 C 
ATOM     25  C   UNL A   1      39.088  31.544  34.622  1.00  0.00     0.007 C 
ATOM     26  C   UNL A   1      38.403  30.110  32.708  1.00  0.00     0.007 C 
ENDBRANCH  23  24
ENDBRANCH   9  23
ENDBRANCH   7   9
ENDBRANCH   6   7
ENDBRANCH   5   6
ENDBRANCH   4   5
ENDBRANCH   3   4
ENDBRANCH   2   3
ENDBRANCH   1   2
BRANCH   1  27
ATOM     27  O   UNL A   1      41.072  25.565  27.601  1.00  0.00    -0.377 OA
BRANCH  27  28
ATOM     28  C   UNL A   1      40.433  24.293  27.519  1.00  0.00     0.188 C 
BRANCH  28  29
ATOM     29  C   UNL A   1      41.249  23.088  27.011  1.00  0.00     0.188 C 
BRANCH  29  30
ATOM     30  O   UNL A   1      42.593  23.401  26.653  1.00  0.00    -0.376 OA
BRANCH  30  31
ATOM     31  C   UNL A   1      43.191  22.638  25.609  1.00  0.00     0.202 C 
BRANCH  31  32
ATOM     32  C   UNL A   1      43.958  23.456  24.557  1.00  0.00     0.261 C 
BRANCH  32  33
ATOM     33  O   UNL A   1      43.976  24.876  24.784  1.00  0.00    -0.460 OA
BRANCH  33  34
ATOM     34  C   UNL A   1      45.172  25.443  25.038  1.00  0.00     0.338 C 
ATOM     35  O   UNL A   1      46.254  25.135  24.576  1.00  0.00    -0.246 OA
BRANCH  34  36
ATOM     36  C   UNL A   1      44.937  26.648  25.855  1.00  0.00     0.060 A 
ATOM     37  C   UNL A   1      46.014  27.200  26.558  1.00  0.00     0.016 A 
ATOM     38  C   UNL A   1      43.661  27.207  25.950  1.00  0.00     0.016 A 
ATOM     39  C   UNL A   1      45.805  28.290  27.402  1.00  0.00     0.010 A 
ATOM     40  C   UNL A   1      43.449  28.288  26.807  1.00  0.00     0.010 A 
ATOM     41  C   UNL A   1      44.513  28.809  27.565  1.00  0.00    -0.014 A 
BRANCH  41  42
ATOM     42  C   UNL A   1      44.235  29.748  28.678  1.00  0.00     0.031 A 
ATOM     43  C   UNL A   1      43.988  29.178  30.046  1.00  0.00     0.074 A 
ATOM     44  C   UNL A   1      44.214  31.077  28.483  1.00  0.00     0.049 A 
ATOM     45  N   UNL A   1      43.700  29.790  31.166  1.00  0.00    -0.248 NA
ATOM     46  C   UNL A   1      44.074  27.713  30.166  1.00  0.00     0.031 C 
ATOM     47  C   UNL A   1      44.476  31.751  27.215  1.00  0.00     0.029 A 
ATOM     48  N   UNL A   1      43.953  32.097  29.363  1.00  0.00    -0.354 N 
ATOM     49  C   UNL A   1      43.567  28.788  32.118  1.00  0.00     0.074 A 
ATOM     50  C   UNL A   1      43.776  27.527  31.442  1.00  0.00     0.031 C 
ATOM     51  C   UNL A   1      44.357  33.078  27.396  1.00  0.00     0.029 A 
ATOM     52  C   UNL A   1      43.983  33.342  28.785  1.00  0.00     0.049 A 
ATOM     53  H   UNL A   1      43.762  31.951  30.318  1.00  0.00     0.167 HD
ATOM     54  C   UNL A   1      43.302  28.910  33.440  1.00  0.00     0.037 A 
ATOM     55  C   UNL A   1      43.721  34.551  29.320  1.00  0.00     0.037 A 
ATOM     56  C   UNL A   1      43.091  30.164  34.111  1.00  0.00     0.049 A 
ATOM     57  C   UNL A   1      43.347  34.652  30.777  1.00  0.00     0.074 A 
ATOM     58  C   UNL A   1      42.848  30.394  35.453  1.00  0.00     0.029 A 
ATOM     59  N   UNL A   1      43.084  31.402  33.483  1.00  0.00    -0.354 N 
ATOM     60  N   UNL A   1      43.264  33.707  31.681  1.00  0.00    -0.248 NA
ATOM     61  C   UNL A   1      43.029  35.995  31.286  1.00  0.00     0.031 C 
ATOM     62  C   UNL A   1      42.638  31.766  35.628  1.00  0.00     0.029 A 
ATOM     63  C   UNL A   1      42.806  32.397  34.405  1.00  0.00     0.049 A 
ATOM     64  H   UNL A   1      43.253  31.549  32.525  1.00  0.00     0.167 HD
ATOM     65  C   UNL A   1      42.920  34.341  32.869  1.00  0.00     0.074 A 
ATOM     66  C   UNL A   1      42.815  35.754  32.572  1.00  0.00     0.031 C 
ATOM     67  C   UNL A   1      42.713  33.801  34.096  1.00  0.00     0.037 A 
BRANCH  54  68
ATOM     68  C   UNL A   1      43.188  27.645  34.238  1.00  0.00     0.064 A 
ATOM     69  C   UNL A   1      41.949  27.035  34.485  1.00  0.00     0.173 A 
ATOM     70  C   UNL A   1      44.338  27.028  34.752  1.00  0.00     0.173 A 
ATOM     71  F   UNL A   1      40.817  27.595  34.030  1.00  0.00    -0.203 F 
ATOM     72  C   UNL A   1      41.864  25.870  35.243  1.00  0.00     0.198 A 
ATOM     73  C   UNL A   1      44.252  25.849  35.486  1.00  0.00     0.198 A 
ATOM     74  F   UNL A   1      45.547  27.571  34.544  1.00  0.00    -0.203 F 
ATOM     75  F   UNL A   1      40.665  25.334  35.513  1.00  0.00    -0.200 F 
ATOM     76  C   UNL A   1      43.015  25.274  35.738  1.00  0.00     0.200 A 
ATOM     77  F   UNL A   1      45.366  25.270  35.954  1.00  0.00    -0.200 F 
ATOM     78  F   UNL A   1      42.931  24.153  36.466  1.00  0.00    -0.200 F 
ENDBRANCH  54  68
BRANCH  55  79
ATOM     79  C   UNL A   1      43.802  35.771  28.474  1.00  0.00     0.064 A 
ATOM     80  C   UNL A   1      45.028  36.412  28.250  1.00  0.00     0.173 A 
ATOM     81  C   UNL A   1      42.655  36.334  27.894  1.00  0.00     0.173 A 
ATOM     82  F   UNL A   1      46.148  35.928  28.808  1.00  0.00    -0.203 F 
ATOM     83  C   UNL A   1      45.103  37.577  27.490  1.00  0.00     0.198 A 
ATOM     84  C   UNL A   1      42.735  37.484  27.111  1.00  0.00     0.198 A 
ATOM     85  F   UNL A   1      41.457  35.762  28.082  1.00  0.00    -0.203 F 
ATOM     86  F   UNL A   1      46.281  38.194  27.328  1.00  0.00    -0.200 F 
ATOM     87  C   UNL A   1      43.957  38.109  26.916  1.00  0.00     0.200 A 
ATOM     88  F   UNL A   1      41.628  37.989  26.552  1.00  0.00    -0.200 F 
ATOM     89  F   UNL A   1      44.030  39.228  26.183  1.00  0.00    -0.200 F 
ENDBRANCH  55  79
BRANCH  67  90
ATOM     90  C   UNL A   1      42.393  34.741  35.223  1.00  0.00     0.064 A 
ATOM     91  C   UNL A   1      41.071  35.091  35.539  1.00  0.00     0.173 A 
ATOM     92  C   UNL A   1      43.419  35.260  36.027  1.00  0.00     0.173 A 
ATOM     93  F   UNL A   1      40.055  34.634  34.791  1.00  0.00    -0.203 F 
ATOM     94  C   UNL A   1      40.792  35.943  36.605  1.00  0.00     0.198 A 
ATOM     95  C   UNL A   1      43.134  36.086  37.111  1.00  0.00     0.198 A 
ATOM     96  F   UNL A   1      44.698  34.950  35.774  1.00  0.00    -0.203 F 
ATOM     97  F   UNL A   1      39.526  36.300  36.860  1.00  0.00    -0.200 F 
ATOM     98  C   UNL A   1      41.822  36.432  37.395  1.00  0.00     0.200 A 
ATOM     99  F   UNL A   1      44.129  36.545  37.882  1.00  0.00    -0.200 F 
ATOM    100  F   UNL A   1      41.550  37.245  38.425  1.00  0.00    -0.200 F 
ENDBRANCH  67  90
ENDBRANCH  41  42
ENDBRANCH  34  36
ENDBRANCH  33  34
ENDBRANCH  32  33
ENDBRANCH  31  32
ENDBRANCH  30  31
ENDBRANCH  29  30
ENDBRANCH  28  29
ENDBRANCH  27  28
ENDBRANCH   1  27
TORSDOF 26
ENDMDL
