MODEL 1
REMARK VINA RESULT:     -10.3      0.000      0.000
REMARK SMILES CC(C)(C[NH+]1CCC(C(N)=S)CC1)C(=O)OCCOCCOCCOCCOC(=O)c1ccc(-c2c3nc(c(-c4c(F)c(F)c(F)c(F)c4F)c4ccc([nH]4)c(-c4c(F)c(F)c(F)c(F)c4F)c4nc(c(-c5c(F)c(F)c(F)c(F)c5F)c5ccc2[nH]5)C=C4)C=C3)cc1
REMARK SMILES IDX 21 1 20 2 19 3 18 4 17 5 16 6 14 7 15 8 2 9 1 10 3 11 4 12
REMARK SMILES IDX 5 13 6 14 13 15 7 17 12 18 8 19 9 20 11 21 10 22 22 25 23 26
REMARK SMILES IDX 24 27 25 28 26 29 27 30 28 31 29 32 30 33 31 34 32 35 93 36
REMARK SMILES IDX 33 37 92 38 34 39 35 40 36 41 86 42 37 43 91 44 85 45 87 46
REMARK SMILES IDX 38 47 90 48 84 49 83 50 39 52 71 53 51 54 70 55 52 56 55 57
REMARK SMILES IDX 69 58 88 59 53 60 54 61 68 63 89 64 56 65 40 66 41 67 49 68
REMARK SMILES IDX 42 69 43 70 47 71 50 72 44 73 45 74 48 75 46 76 72 77 73 78
REMARK SMILES IDX 81 79 74 80 75 81 79 82 82 83 76 84 77 85 80 86 78 87 57 88
REMARK SMILES IDX 58 89 66 90 59 91 60 92 64 93 67 94 61 95 62 96 65 97 63 98
REMARK H PARENT 5 16 10 23 10 24 87 51 55 62
REMARK Flexibility Score: inf
ROOT
ATOM      1  C   UNL A   1      39.947  22.088  26.883  1.00  0.00     0.188 C 
ENDROOT
BRANCH   1   2
ATOM      2  C   UNL A   1      38.898  23.134  26.501  1.00  0.00     0.188 C 
BRANCH   2   3
ATOM      3  O   UNL A   1      37.622  22.755  26.001  1.00  0.00    -0.376 OA
BRANCH   3   4
ATOM      4  C   UNL A   1      37.032  23.488  24.945  1.00  0.00     0.202 C 
BRANCH   4   5
ATOM      5  C   UNL A   1      36.345  22.656  23.849  1.00  0.00     0.261 C 
BRANCH   5   6
ATOM      6  O   UNL A   1      34.916  22.462  23.948  1.00  0.00    -0.463 OA
BRANCH   6   7
ATOM      7  C   UNL A   1      34.509  21.278  24.495  1.00  0.00     0.317 C 
ATOM      8  O   UNL A   1      35.286  20.384  24.814  1.00  0.00    -0.251 OA
BRANCH   7   9
ATOM      9  C   UNL A   1      32.971  21.109  24.534  1.00  0.00     0.111 C 
ATOM     10  C   UNL A   1      32.669  19.617  24.746  1.00  0.00     0.029 C 
ATOM     11  C   UNL A   1      32.522  21.462  23.090  1.00  0.00     0.029 C 
BRANCH   9  12
ATOM     12  C   UNL A   1      32.159  22.050  25.502  1.00  0.00     0.280 C 
BRANCH  12  13
ATOM     13  N   UNL A   1      32.041  23.535  25.451  1.00  0.00    -0.334 N 
ATOM     14  C   UNL A   1      30.731  24.154  25.563  1.00  0.00     0.262 C 
ATOM     15  C   UNL A   1      33.126  24.173  26.217  1.00  0.00     0.262 C 
ATOM     16  H   UNL A   1      32.179  23.751  24.463  1.00  0.00     0.348 HD
ATOM     17  C   UNL A   1      30.720  25.690  25.618  1.00  0.00     0.072 C 
ATOM     18  C   UNL A   1      33.116  25.705  26.216  1.00  0.00     0.072 C 
ATOM     19  C   UNL A   1      31.741  26.232  26.614  1.00  0.00     0.058 C 
BRANCH  19  20
ATOM     20  C   UNL A   1      31.607  27.744  26.775  1.00  0.00     0.076 C 
ATOM     21  S   UNL A   1      31.767  28.873  25.561  1.00  0.00    -0.066 S 
BRANCH  20  22
ATOM     22  N   UNL A   1      31.286  28.176  28.034  1.00  0.00    -0.393 N 
ATOM     23  H   UNL A   1      30.354  28.122  28.349  1.00  0.00     0.157 HD
ATOM     24  H   UNL A   1      31.986  28.540  28.623  1.00  0.00     0.157 HD
ENDBRANCH  20  22
ENDBRANCH  19  20
ENDBRANCH  12  13
ENDBRANCH   9  12
ENDBRANCH   7   9
ENDBRANCH   6   7
ENDBRANCH   5   6
ENDBRANCH   4   5
ENDBRANCH   3   4
ENDBRANCH   2   3
ENDBRANCH   1   2
BRANCH   1  25
ATOM     25  O   UNL A   1      40.399  21.263  25.831  1.00  0.00    -0.377 OA
BRANCH  25  26
ATOM     26  C   UNL A   1      40.965  20.038  26.247  1.00  0.00     0.188 C 
BRANCH  26  27
ATOM     27  C   UNL A   1      42.471  19.935  25.971  1.00  0.00     0.188 C 
BRANCH  27  28
ATOM     28  O   UNL A   1      43.286  21.099  26.014  1.00  0.00    -0.376 OA
BRANCH  28  29
ATOM     29  C   UNL A   1      44.366  21.302  25.120  1.00  0.00     0.202 C 
BRANCH  29  30
ATOM     30  C   UNL A   1      44.437  22.520  24.194  1.00  0.00     0.261 C 
BRANCH  30  31
ATOM     31  O   UNL A   1      43.606  23.603  24.617  1.00  0.00    -0.460 OA
BRANCH  31  32
ATOM     32  C   UNL A   1      44.271  24.694  25.043  1.00  0.00     0.338 C 
ATOM     33  O   UNL A   1      45.373  25.094  24.674  1.00  0.00    -0.246 OA
BRANCH  32  34
ATOM     34  C   UNL A   1      43.373  25.504  25.871  1.00  0.00     0.060 A 
ATOM     35  C   UNL A   1      43.589  26.889  25.880  1.00  0.00     0.016 A 
ATOM     36  C   UNL A   1      42.366  24.922  26.645  1.00  0.00     0.016 A 
ATOM     37  C   UNL A   1      42.825  27.702  26.701  1.00  0.00     0.010 A 
ATOM     38  C   UNL A   1      41.631  25.735  27.508  1.00  0.00     0.010 A 
ATOM     39  C   UNL A   1      41.900  27.114  27.569  1.00  0.00    -0.014 A 
BRANCH  39  40
ATOM     40  C   UNL A   1      41.476  27.896  28.745  1.00  0.00     0.031 A 
ATOM     41  C   UNL A   1      42.316  27.767  29.985  1.00  0.00     0.074 A 
ATOM     42  C   UNL A   1      40.432  28.735  28.681  1.00  0.00     0.049 A 
ATOM     43  N   UNL A   1      42.162  28.322  31.158  1.00  0.00    -0.248 NA
ATOM     44  C   UNL A   1      43.500  26.894  29.885  1.00  0.00     0.031 C 
ATOM     45  C   UNL A   1      39.616  28.978  27.493  1.00  0.00     0.029 A 
ATOM     46  N   UNL A   1      39.882  29.540  29.643  1.00  0.00    -0.354 N 
ATOM     47  C   UNL A   1      43.225  27.865  31.927  1.00  0.00     0.074 A 
ATOM     48  C   UNL A   1      44.005  26.971  31.106  1.00  0.00     0.031 C 
ATOM     49  C   UNL A   1      38.650  29.860  27.804  1.00  0.00     0.029 A 
ATOM     50  C   UNL A   1      38.766  30.214  29.218  1.00  0.00     0.049 A 
ATOM     51  H   UNL A   1      40.251  29.625  30.551  1.00  0.00     0.167 HD
ATOM     52  C   UNL A   1      43.520  28.170  33.210  1.00  0.00     0.037 A 
ATOM     53  C   UNL A   1      37.927  31.005  29.914  1.00  0.00     0.037 A 
ATOM     54  C   UNL A   1      42.715  29.047  34.014  1.00  0.00     0.049 A 
ATOM     55  C   UNL A   1      38.223  31.257  31.371  1.00  0.00     0.074 A 
ATOM     56  C   UNL A   1      42.890  29.415  35.333  1.00  0.00     0.029 A 
ATOM     57  N   UNL A   1      41.568  29.684  33.561  1.00  0.00    -0.354 N 
ATOM     58  N   UNL A   1      39.227  30.823  32.098  1.00  0.00    -0.248 NA
ATOM     59  C   UNL A   1      37.275  32.105  32.106  1.00  0.00     0.031 C 
ATOM     60  C   UNL A   1      41.819  30.239  35.695  1.00  0.00     0.029 A 
ATOM     61  C   UNL A   1      41.010  30.429  34.583  1.00  0.00     0.049 A 
ATOM     62  H   UNL A   1      41.205  29.615  32.649  1.00  0.00     0.167 HD
ATOM     63  C   UNL A   1      39.052  31.371  33.361  1.00  0.00     0.074 A 
ATOM     64  C   UNL A   1      37.845  32.171  33.301  1.00  0.00     0.031 C 
ATOM     65  C   UNL A   1      39.819  31.233  34.471  1.00  0.00     0.037 A 
BRANCH  52  66
ATOM     66  C   UNL A   1      44.725  27.517  33.819  1.00  0.00     0.064 A 
ATOM     67  C   UNL A   1      45.987  28.132  33.807  1.00  0.00     0.173 A 
ATOM     68  C   UNL A   1      44.619  26.253  34.419  1.00  0.00     0.173 A 
ATOM     69  F   UNL A   1      46.148  29.329  33.222  1.00  0.00    -0.203 F 
ATOM     70  C   UNL A   1      47.099  27.497  34.352  1.00  0.00     0.198 A 
ATOM     71  C   UNL A   1      45.728  25.633  34.989  1.00  0.00     0.198 A 
ATOM     72  F   UNL A   1      43.438  25.617  34.451  1.00  0.00    -0.203 F 
ATOM     73  F   UNL A   1      48.304  28.081  34.282  1.00  0.00    -0.200 F 
ATOM     74  C   UNL A   1      46.968  26.252  34.948  1.00  0.00     0.200 A 
ATOM     75  F   UNL A   1      45.597  24.433  35.570  1.00  0.00    -0.200 F 
ATOM     76  F   UNL A   1      48.039  25.642  35.474  1.00  0.00    -0.200 F 
ENDBRANCH  52  66
BRANCH  53  77
ATOM     77  C   UNL A   1      36.733  31.591  29.251  1.00  0.00     0.064 A 
ATOM     78  C   UNL A   1      35.630  30.800  28.905  1.00  0.00     0.173 A 
ATOM     79  C   UNL A   1      36.670  32.960  28.949  1.00  0.00     0.173 A 
ATOM     80  F   UNL A   1      35.647  29.481  29.153  1.00  0.00    -0.203 F 
ATOM     81  C   UNL A   1      34.516  31.351  28.271  1.00  0.00     0.198 A 
ATOM     82  C   UNL A   1      35.546  33.515  28.341  1.00  0.00     0.198 A 
ATOM     83  F   UNL A   1      37.698  33.765  29.258  1.00  0.00    -0.203 F 
ATOM     84  F   UNL A   1      33.492  30.564  27.916  1.00  0.00    -0.200 F 
ATOM     85  C   UNL A   1      34.472  32.710  27.996  1.00  0.00     0.200 A 
ATOM     86  F   UNL A   1      35.504  34.832  28.090  1.00  0.00    -0.200 F 
ATOM     87  F   UNL A   1      33.400  33.240  27.393  1.00  0.00    -0.200 F 
ENDBRANCH  53  77
BRANCH  65  88
ATOM     88  C   UNL A   1      39.413  32.002  35.691  1.00  0.00     0.064 A 
ATOM     89  C   UNL A   1      39.884  33.299  35.932  1.00  0.00     0.173 A 
ATOM     90  C   UNL A   1      38.468  31.463  36.577  1.00  0.00     0.173 A 
ATOM     91  F   UNL A   1      40.797  33.850  35.118  1.00  0.00    -0.203 F 
ATOM     92  C   UNL A   1      39.428  34.029  37.027  1.00  0.00     0.198 A 
ATOM     93  C   UNL A   1      37.994  32.206  37.653  1.00  0.00     0.198 A 
ATOM     94  F   UNL A   1      37.982  30.229  36.379  1.00  0.00    -0.203 F 
ATOM     95  F   UNL A   1      39.911  35.257  37.258  1.00  0.00    -0.200 F 
ATOM     96  C   UNL A   1      38.477  33.487  37.879  1.00  0.00     0.200 A 
ATOM     97  F   UNL A   1      37.061  31.687  38.464  1.00  0.00    -0.200 F 
ATOM     98  F   UNL A   1      38.024  34.199  38.919  1.00  0.00    -0.200 F 
ENDBRANCH  65  88
ENDBRANCH  39  40
ENDBRANCH  32  34
ENDBRANCH  31  32
ENDBRANCH  30  31
ENDBRANCH  29  30
ENDBRANCH  28  29
ENDBRANCH  27  28
ENDBRANCH  26  27
ENDBRANCH  25  26
ENDBRANCH   1  25
TORSDOF 24
ENDMDL
MODEL 2
REMARK VINA RESULT:      -9.8      0.910      2.146
REMARK SMILES CC(C)(C[NH+]1CCC(C(N)=S)CC1)C(=O)OCCOCCOCCOCCOC(=O)c1ccc(-c2c3nc(c(-c4c(F)c(F)c(F)c(F)c4F)c4ccc([nH]4)c(-c4c(F)c(F)c(F)c(F)c4F)c4nc(c(-c5c(F)c(F)c(F)c(F)c5F)c5ccc2[nH]5)C=C4)C=C3)cc1
REMARK SMILES IDX 21 1 20 2 19 3 18 4 17 5 16 6 14 7 15 8 2 9 1 10 3 11 4 12
REMARK SMILES IDX 5 13 6 14 13 15 7 17 12 18 8 19 9 20 11 21 10 22 22 25 23 26
REMARK SMILES IDX 24 27 25 28 26 29 27 30 28 31 29 32 30 33 31 34 32 35 93 36
REMARK SMILES IDX 33 37 92 38 34 39 35 40 36 41 86 42 37 43 91 44 85 45 87 46
REMARK SMILES IDX 38 47 90 48 84 49 83 50 39 52 71 53 51 54 70 55 52 56 55 57
REMARK SMILES IDX 69 58 88 59 53 60 54 61 68 63 89 64 56 65 40 66 41 67 49 68
REMARK SMILES IDX 42 69 43 70 47 71 50 72 44 73 45 74 48 75 46 76 72 77 73 78
REMARK SMILES IDX 81 79 74 80 75 81 79 82 82 83 76 84 77 85 80 86 78 87 57 88
REMARK SMILES IDX 58 89 66 90 59 91 60 92 64 93 67 94 61 95 62 96 65 97 63 98
REMARK H PARENT 5 16 10 23 10 24 87 51 55 62
REMARK Flexibility Score: inf
ROOT
ATOM      1  C   UNL A   1      39.771  22.401  26.916  1.00  0.00     0.188 C 
ENDROOT
BRANCH   1   2
ATOM      2  C   UNL A   1      38.726  23.438  26.500  1.00  0.00     0.188 C 
BRANCH   2   3
ATOM      3  O   UNL A   1      37.475  23.049  25.949  1.00  0.00    -0.376 OA
BRANCH   3   4
ATOM      4  C   UNL A   1      37.093  23.514  24.668  1.00  0.00     0.202 C 
BRANCH   4   5
ATOM      5  C   UNL A   1      36.102  22.627  23.897  1.00  0.00     0.261 C 
BRANCH   5   6
ATOM      6  O   UNL A   1      34.763  22.498  24.426  1.00  0.00    -0.463 OA
BRANCH   6   7
ATOM      7  C   UNL A   1      34.324  21.223  24.644  1.00  0.00     0.317 C 
ATOM      8  O   UNL A   1      35.080  20.263  24.752  1.00  0.00    -0.251 OA
BRANCH   7   9
ATOM      9  C   UNL A   1      32.784  21.078  24.589  1.00  0.00     0.111 C 
ATOM     10  C   UNL A   1      32.413  19.753  25.273  1.00  0.00     0.029 C 
ATOM     11  C   UNL A   1      32.480  20.909  23.076  1.00  0.00     0.029 C 
BRANCH   9  12
ATOM     12  C   UNL A   1      31.920  22.298  25.089  1.00  0.00     0.280 C 
BRANCH  12  13
ATOM     13  N   UNL A   1      32.096  23.741  24.760  1.00  0.00    -0.334 N 
ATOM     14  C   UNL A   1      32.223  24.149  23.371  1.00  0.00     0.262 C 
ATOM     15  C   UNL A   1      31.227  24.580  25.603  1.00  0.00     0.262 C 
ATOM     16  H   UNL A   1      33.066  23.927  25.017  1.00  0.00     0.348 HD
ATOM     17  C   UNL A   1      32.283  25.664  23.122  1.00  0.00     0.072 C 
ATOM     18  C   UNL A   1      31.341  26.089  25.366  1.00  0.00     0.072 C 
ATOM     19  C   UNL A   1      31.190  26.410  23.882  1.00  0.00     0.058 C 
BRANCH  19  20
ATOM     20  C   UNL A   1      31.162  27.888  23.501  1.00  0.00     0.076 C 
ATOM     21  S   UNL A   1      31.417  29.168  24.534  1.00  0.00    -0.066 S 
BRANCH  20  22
ATOM     22  N   UNL A   1      30.945  28.149  22.174  1.00  0.00    -0.393 N 
ATOM     23  H   UNL A   1      30.821  29.077  21.869  1.00  0.00     0.157 HD
ATOM     24  H   UNL A   1      30.913  27.409  21.525  1.00  0.00     0.157 HD
ENDBRANCH  20  22
ENDBRANCH  19  20
ENDBRANCH  12  13
ENDBRANCH   9  12
ENDBRANCH   7   9
ENDBRANCH   6   7
ENDBRANCH   5   6
ENDBRANCH   4   5
ENDBRANCH   3   4
ENDBRANCH   2   3
ENDBRANCH   1   2
BRANCH   1  25
ATOM     25  O   UNL A   1      40.106  21.443  25.937  1.00  0.00    -0.377 OA
BRANCH  25  26
ATOM     26  C   UNL A   1      40.802  20.317  26.429  1.00  0.00     0.188 C 
BRANCH  26  27
ATOM     27  C   UNL A   1      42.301  20.332  26.102  1.00  0.00     0.188 C 
BRANCH  27  28
ATOM     28  O   UNL A   1      42.974  21.567  25.899  1.00  0.00    -0.376 OA
BRANCH  28  29
ATOM     29  C   UNL A   1      44.152  21.669  25.118  1.00  0.00     0.202 C 
BRANCH  29  30
ATOM     30  C   UNL A   1      44.386  22.830  24.146  1.00  0.00     0.261 C 
BRANCH  30  31
ATOM     31  O   UNL A   1      43.665  24.014  24.494  1.00  0.00    -0.460 OA
BRANCH  31  32
ATOM     32  C   UNL A   1      44.348  24.889  25.258  1.00  0.00     0.338 C 
ATOM     33  O   UNL A   1      45.541  25.175  25.187  1.00  0.00    -0.246 OA
BRANCH  32  34
ATOM     34  C   UNL A   1      43.396  25.658  26.064  1.00  0.00     0.060 A 
ATOM     35  C   UNL A   1      43.528  27.053  26.050  1.00  0.00     0.016 A 
ATOM     36  C   UNL A   1      42.419  25.030  26.842  1.00  0.00     0.016 A 
ATOM     37  C   UNL A   1      42.711  27.833  26.850  1.00  0.00     0.010 A 
ATOM     38  C   UNL A   1      41.630  25.812  27.684  1.00  0.00     0.010 A 
ATOM     39  C   UNL A   1      41.816  27.206  27.722  1.00  0.00    -0.014 A 
BRANCH  39  40
ATOM     40  C   UNL A   1      41.336  27.982  28.881  1.00  0.00     0.031 A 
ATOM     41  C   UNL A   1      42.135  27.872  30.150  1.00  0.00     0.074 A 
ATOM     42  C   UNL A   1      40.278  28.800  28.779  1.00  0.00     0.049 A 
ATOM     43  N   UNL A   1      41.930  28.426  31.315  1.00  0.00    -0.248 NA
ATOM     44  C   UNL A   1      43.340  27.023  30.092  1.00  0.00     0.031 C 
ATOM     45  C   UNL A   1      39.499  29.023  27.563  1.00  0.00     0.029 A 
ATOM     46  N   UNL A   1      39.680  29.595  29.719  1.00  0.00    -0.354 N 
ATOM     47  C   UNL A   1      42.975  27.992  32.121  1.00  0.00     0.074 A 
ATOM     48  C   UNL A   1      43.800  27.112  31.329  1.00  0.00     0.031 C 
ATOM     49  C   UNL A   1      38.505  29.887  27.839  1.00  0.00     0.029 A 
ATOM     50  C   UNL A   1      38.566  30.246  29.254  1.00  0.00     0.049 A 
ATOM     51  H   UNL A   1      40.016  29.689  30.639  1.00  0.00     0.167 HD
ATOM     52  C   UNL A   1      43.220  28.306  33.413  1.00  0.00     0.037 A 
ATOM     53  C   UNL A   1      37.688  31.021  29.919  1.00  0.00     0.037 A 
ATOM     54  C   UNL A   1      42.370  29.168  34.186  1.00  0.00     0.049 A 
ATOM     55  C   UNL A   1      37.928  31.282  31.385  1.00  0.00     0.074 A 
ATOM     56  C   UNL A   1      42.492  29.542  35.510  1.00  0.00     0.029 A 
ATOM     57  N   UNL A   1      41.226  29.781  33.693  1.00  0.00    -0.354 N 
ATOM     58  N   UNL A   1      38.915  30.870  32.147  1.00  0.00    -0.248 NA
ATOM     59  C   UNL A   1      36.939  32.112  32.085  1.00  0.00     0.031 C 
ATOM     60  C   UNL A   1      41.393  30.345  35.832  1.00  0.00     0.029 A 
ATOM     61  C   UNL A   1      40.620  30.517  34.693  1.00  0.00     0.049 A 
ATOM     62  H   UNL A   1      40.897  29.703  32.768  1.00  0.00     0.167 HD
ATOM     63  C   UNL A   1      38.686  31.417  33.402  1.00  0.00     0.074 A 
ATOM     64  C   UNL A   1      37.466  32.192  33.299  1.00  0.00     0.031 C 
ATOM     65  C   UNL A   1      39.417  31.296  34.538  1.00  0.00     0.037 A 
BRANCH  52  66
ATOM     66  C   UNL A   1      44.416  27.678  34.064  1.00  0.00     0.064 A 
ATOM     67  C   UNL A   1      44.349  26.417  34.678  1.00  0.00     0.173 A 
ATOM     68  C   UNL A   1      45.647  28.349  34.082  1.00  0.00     0.173 A 
ATOM     69  F   UNL A   1      43.187  25.745  34.713  1.00  0.00    -0.203 F 
ATOM     70  C   UNL A   1      45.463  25.864  35.302  1.00  0.00     0.198 A 
ATOM     71  C   UNL A   1      46.767  27.780  34.682  1.00  0.00     0.198 A 
ATOM     72  F   UNL A   1      45.764  29.561  33.517  1.00  0.00    -0.203 F 
ATOM     73  F   UNL A   1      45.362  24.682  35.927  1.00  0.00    -0.200 F 
ATOM     74  C   UNL A   1      46.672  26.542  35.298  1.00  0.00     0.200 A 
ATOM     75  F   UNL A   1      47.936  28.435  34.672  1.00  0.00    -0.200 F 
ATOM     76  F   UNL A   1      47.745  26.008  35.899  1.00  0.00    -0.200 F 
ENDBRANCH  52  66
BRANCH  53  77
ATOM     77  C   UNL A   1      36.505  31.582  29.214  1.00  0.00     0.064 A 
ATOM     78  C   UNL A   1      36.423  32.944  28.899  1.00  0.00     0.173 A 
ATOM     79  C   UNL A   1      35.429  30.763  28.839  1.00  0.00     0.173 A 
ATOM     80  F   UNL A   1      37.415  33.775  29.253  1.00  0.00    -0.203 F 
ATOM     81  C   UNL A   1      35.306  33.469  28.249  1.00  0.00     0.198 A 
ATOM     82  C   UNL A   1      34.326  31.282  28.165  1.00  0.00     0.198 A 
ATOM     83  F   UNL A   1      35.455  29.450  29.116  1.00  0.00    -0.203 F 
ATOM     84  F   UNL A   1      35.237  34.782  27.995  1.00  0.00    -0.200 F 
ATOM     85  C   UNL A   1      34.261  32.636  27.876  1.00  0.00     0.200 A 
ATOM     86  F   UNL A   1      33.326  30.469  27.795  1.00  0.00    -0.200 F 
ATOM     87  F   UNL A   1      33.191  33.139  27.246  1.00  0.00    -0.200 F 
ENDBRANCH  53  77
BRANCH  65  88
ATOM     88  C   UNL A   1      38.955  32.060  35.741  1.00  0.00     0.064 A 
ATOM     89  C   UNL A   1      38.196  31.452  36.750  1.00  0.00     0.173 A 
ATOM     90  C   UNL A   1      39.360  33.390  35.925  1.00  0.00     0.173 A 
ATOM     91  F   UNL A   1      37.777  30.186  36.611  1.00  0.00    -0.203 F 
ATOM     92  C   UNL A   1      37.849  32.156  37.900  1.00  0.00     0.198 A 
ATOM     93  C   UNL A   1      39.036  34.080  37.088  1.00  0.00     0.198 A 
ATOM     94  F   UNL A   1      40.097  34.008  34.990  1.00  0.00    -0.203 F 
ATOM     95  F   UNL A   1      37.098  31.569  38.842  1.00  0.00    -0.200 F 
ATOM     96  C   UNL A   1      38.278  33.464  38.073  1.00  0.00     0.200 A 
ATOM     97  F   UNL A   1      39.467  35.338  37.261  1.00  0.00    -0.200 F 
ATOM     98  F   UNL A   1      37.962  34.132  39.190  1.00  0.00    -0.200 F 
ENDBRANCH  65  88
ENDBRANCH  39  40
ENDBRANCH  32  34
ENDBRANCH  31  32
ENDBRANCH  30  31
ENDBRANCH  29  30
ENDBRANCH  28  29
ENDBRANCH  27  28
ENDBRANCH  26  27
ENDBRANCH  25  26
ENDBRANCH   1  25
TORSDOF 24
ENDMDL
MODEL 3
REMARK VINA RESULT:      -9.6      5.470     10.782
REMARK SMILES CC(C)(C[NH+]1CCC(C(N)=S)CC1)C(=O)OCCOCCOCCOCCOC(=O)c1ccc(-c2c3nc(c(-c4c(F)c(F)c(F)c(F)c4F)c4ccc([nH]4)c(-c4c(F)c(F)c(F)c(F)c4F)c4nc(c(-c5c(F)c(F)c(F)c(F)c5F)c5ccc2[nH]5)C=C4)C=C3)cc1
REMARK SMILES IDX 21 1 20 2 19 3 18 4 17 5 16 6 14 7 15 8 2 9 1 10 3 11 4 12
REMARK SMILES IDX 5 13 6 14 13 15 7 17 12 18 8 19 9 20 11 21 10 22 22 25 23 26
REMARK SMILES IDX 24 27 25 28 26 29 27 30 28 31 29 32 30 33 31 34 32 35 93 36
REMARK SMILES IDX 33 37 92 38 34 39 35 40 36 41 86 42 37 43 91 44 85 45 87 46
REMARK SMILES IDX 38 47 90 48 84 49 83 50 39 52 71 53 51 54 70 55 52 56 55 57
REMARK SMILES IDX 69 58 88 59 53 60 54 61 68 63 89 64 56 65 40 66 41 67 49 68
REMARK SMILES IDX 42 69 43 70 47 71 50 72 44 73 45 74 48 75 46 76 72 77 73 78
REMARK SMILES IDX 81 79 74 80 75 81 79 82 82 83 76 84 77 85 80 86 78 87 57 88
REMARK SMILES IDX 58 89 66 90 59 91 60 92 64 93 67 94 61 95 62 96 65 97 63 98
REMARK H PARENT 5 16 10 23 10 24 87 51 55 62
REMARK Flexibility Score: inf
ROOT
ATOM      1  C   UNL A   1      35.445  32.813  28.009  1.00  0.00     0.188 C 
ENDROOT
BRANCH   1   2
ATOM      2  C   UNL A   1      34.603  31.587  28.368  1.00  0.00     0.188 C 
BRANCH   2   3
ATOM      3  O   UNL A   1      34.223  30.635  27.383  1.00  0.00    -0.376 OA
BRANCH   3   4
ATOM      4  C   UNL A   1      32.856  30.445  27.076  1.00  0.00     0.202 C 
BRANCH   4   5
ATOM      5  C   UNL A   1      32.499  29.122  26.378  1.00  0.00     0.261 C 
BRANCH   5   6
ATOM      6  O   UNL A   1      32.670  29.051  24.945  1.00  0.00    -0.463 OA
BRANCH   6   7
ATOM      7  C   UNL A   1      31.544  28.783  24.219  1.00  0.00     0.317 C 
ATOM      8  O   UNL A   1      30.589  29.550  24.155  1.00  0.00    -0.251 OA
BRANCH   7   9
ATOM      9  C   UNL A   1      31.520  27.360  23.612  1.00  0.00     0.111 C 
ATOM     10  C   UNL A   1      32.940  27.034  23.123  1.00  0.00     0.029 C 
ATOM     11  C   UNL A   1      30.628  27.508  22.350  1.00  0.00     0.029 C 
BRANCH   9  12
ATOM     12  C   UNL A   1      30.884  26.208  24.480  1.00  0.00     0.280 C 
BRANCH  12  13
ATOM     13  N   UNL A   1      31.536  24.956  24.960  1.00  0.00    -0.334 N 
ATOM     14  C   UNL A   1      31.682  23.831  24.050  1.00  0.00     0.262 C 
ATOM     15  C   UNL A   1      32.705  25.263  25.801  1.00  0.00     0.262 C 
ATOM     16  H   UNL A   1      30.822  24.527  25.550  1.00  0.00     0.348 HD
ATOM     17  C   UNL A   1      32.469  22.629  24.596  1.00  0.00     0.072 C 
ATOM     18  C   UNL A   1      33.443  24.047  26.369  1.00  0.00     0.072 C 
ATOM     19  C   UNL A   1      33.776  23.056  25.258  1.00  0.00     0.058 C 
BRANCH  19  20
ATOM     20  C   UNL A   1      34.619  21.845  25.649  1.00  0.00     0.076 C 
ATOM     21  S   UNL A   1      34.556  20.341  24.938  1.00  0.00    -0.066 S 
BRANCH  20  22
ATOM     22  N   UNL A   1      35.528  22.060  26.651  1.00  0.00    -0.393 N 
ATOM     23  H   UNL A   1      35.596  21.422  27.398  1.00  0.00     0.157 HD
ATOM     24  H   UNL A   1      36.111  22.853  26.625  1.00  0.00     0.157 HD
ENDBRANCH  20  22
ENDBRANCH  19  20
ENDBRANCH  12  13
ENDBRANCH   9  12
ENDBRANCH   7   9
ENDBRANCH   6   7
ENDBRANCH   5   6
ENDBRANCH   4   5
ENDBRANCH   3   4
ENDBRANCH   2   3
ENDBRANCH   1   2
BRANCH   1  25
ATOM     25  O   UNL A   1      34.720  33.975  27.670  1.00  0.00    -0.377 OA
BRANCH  25  26
ATOM     26  C   UNL A   1      33.394  34.002  28.155  1.00  0.00     0.188 C 
BRANCH  26  27
ATOM     27  C   UNL A   1      33.116  35.168  29.113  1.00  0.00     0.188 C 
BRANCH  27  28
ATOM     28  O   UNL A   1      33.012  34.934  30.511  1.00  0.00    -0.376 OA
BRANCH  28  29
ATOM     29  C   UNL A   1      34.149  34.827  31.349  1.00  0.00     0.202 C 
BRANCH  29  30
ATOM     30  C   UNL A   1      34.643  33.479  31.883  1.00  0.00     0.261 C 
BRANCH  30  31
ATOM     31  O   UNL A   1      36.066  33.397  31.984  1.00  0.00    -0.460 OA
BRANCH  31  32
ATOM     32  C   UNL A   1      36.521  32.431  32.805  1.00  0.00     0.338 C 
ATOM     33  O   UNL A   1      36.163  32.195  33.956  1.00  0.00    -0.246 OA
BRANCH  32  34
ATOM     34  C   UNL A   1      37.368  31.515  32.036  1.00  0.00     0.060 A 
ATOM     35  C   UNL A   1      38.400  30.867  32.729  1.00  0.00     0.016 A 
ATOM     36  C   UNL A   1      37.181  31.319  30.665  1.00  0.00     0.016 A 
ATOM     37  C   UNL A   1      39.284  30.049  32.045  1.00  0.00     0.010 A 
ATOM     38  C   UNL A   1      38.099  30.535  29.969  1.00  0.00     0.010 A 
ATOM     39  C   UNL A   1      39.177  29.946  30.655  1.00  0.00    -0.014 A 
BRANCH  39  40
ATOM     40  C   UNL A   1      40.371  29.505  29.910  1.00  0.00     0.031 A 
ATOM     41  C   UNL A   1      41.471  30.514  29.731  1.00  0.00     0.074 A 
ATOM     42  C   UNL A   1      40.493  28.241  29.479  1.00  0.00     0.049 A 
ATOM     43  N   UNL A   1      42.613  30.402  29.107  1.00  0.00    -0.248 NA
ATOM     44  C   UNL A   1      41.253  31.835  30.350  1.00  0.00     0.031 C 
ATOM     45  C   UNL A   1      39.508  27.181  29.683  1.00  0.00     0.029 A 
ATOM     46  N   UNL A   1      41.504  27.637  28.780  1.00  0.00    -0.354 N 
ATOM     47  C   UNL A   1      43.242  31.631  29.259  1.00  0.00     0.074 A 
ATOM     48  C   UNL A   1      42.354  32.485  30.011  1.00  0.00     0.031 C 
ATOM     49  C   UNL A   1      39.956  26.055  29.099  1.00  0.00     0.029 A 
ATOM     50  C   UNL A   1      41.240  26.331  28.457  1.00  0.00     0.049 A 
ATOM     51  H   UNL A   1      42.339  28.097  28.532  1.00  0.00     0.167 HD
ATOM     52  C   UNL A   1      44.459  32.008  28.808  1.00  0.00     0.037 A 
ATOM     53  C   UNL A   1      41.955  25.475  27.703  1.00  0.00     0.037 A 
ATOM     54  C   UNL A   1      45.316  31.146  28.043  1.00  0.00     0.049 A 
ATOM     55  C   UNL A   1      43.268  25.947  27.130  1.00  0.00     0.074 A 
ATOM     56  C   UNL A   1      46.558  31.416  27.505  1.00  0.00     0.029 A 
ATOM     57  N   UNL A   1      44.999  29.838  27.702  1.00  0.00    -0.354 N 
ATOM     58  N   UNL A   1      43.861  27.110  27.273  1.00  0.00    -0.248 NA
ATOM     59  C   UNL A   1      44.011  24.996  26.294  1.00  0.00     0.031 C 
ATOM     60  C   UNL A   1      46.974  30.285  26.795  1.00  0.00     0.029 A 
ATOM     61  C   UNL A   1      46.015  29.292  26.941  1.00  0.00     0.049 A 
ATOM     62  H   UNL A   1      44.174  29.369  27.963  1.00  0.00     0.167 HD
ATOM     63  C   UNL A   1      45.058  27.019  26.577  1.00  0.00     0.074 A 
ATOM     64  C   UNL A   1      45.108  25.685  26.012  1.00  0.00     0.031 C 
ATOM     65  C   UNL A   1      46.034  27.948  26.420  1.00  0.00     0.037 A 
BRANCH  52  66
ATOM     66  C   UNL A   1      44.899  33.414  29.093  1.00  0.00     0.064 A 
ATOM     67  C   UNL A   1      45.642  33.740  30.238  1.00  0.00     0.173 A 
ATOM     68  C   UNL A   1      44.567  34.452  28.210  1.00  0.00     0.173 A 
ATOM     69  F   UNL A   1      45.963  32.787  31.128  1.00  0.00    -0.203 F 
ATOM     70  C   UNL A   1      46.017  35.055  30.499  1.00  0.00     0.198 A 
ATOM     71  C   UNL A   1      44.968  35.762  28.460  1.00  0.00     0.198 A 
ATOM     72  F   UNL A   1      43.851  34.197  27.105  1.00  0.00    -0.203 F 
ATOM     73  F   UNL A   1      46.682  35.350  31.625  1.00  0.00    -0.200 F 
ATOM     74  C   UNL A   1      45.686  36.064  29.607  1.00  0.00     0.200 A 
ATOM     75  F   UNL A   1      44.651  36.735  27.594  1.00  0.00    -0.200 F 
ATOM     76  F   UNL A   1      46.048  37.329  29.859  1.00  0.00    -0.200 F 
ENDBRANCH  52  66
BRANCH  53  77
ATOM     77  C   UNL A   1      41.439  24.107  27.436  1.00  0.00     0.064 A 
ATOM     78  C   UNL A   1      40.321  23.897  26.618  1.00  0.00     0.173 A 
ATOM     79  C   UNL A   1      42.056  22.977  27.994  1.00  0.00     0.173 A 
ATOM     80  F   UNL A   1      39.681  24.944  26.076  1.00  0.00    -0.203 F 
ATOM     81  C   UNL A   1      39.831  22.612  26.381  1.00  0.00     0.198 A 
ATOM     82  C   UNL A   1      41.584  21.692  27.735  1.00  0.00     0.198 A 
ATOM     83  F   UNL A   1      43.130  23.119  28.785  1.00  0.00    -0.203 F 
ATOM     84  F   UNL A   1      38.737  22.444  25.627  1.00  0.00    -0.200 F 
ATOM     85  C   UNL A   1      40.467  21.510  26.933  1.00  0.00     0.200 A 
ATOM     86  F   UNL A   1      42.211  20.630  28.260  1.00  0.00    -0.200 F 
ATOM     87  F   UNL A   1      40.001  20.276  26.699  1.00  0.00    -0.200 F 
ENDBRANCH  53  77
BRANCH  65  88
ATOM     88  C   UNL A   1      47.259  27.542  25.658  1.00  0.00     0.064 A 
ATOM     89  C   UNL A   1      48.346  26.925  26.290  1.00  0.00     0.173 A 
ATOM     90  C   UNL A   1      47.298  27.692  24.264  1.00  0.00     0.173 A 
ATOM     91  F   UNL A   1      48.356  26.771  27.622  1.00  0.00    -0.203 F 
ATOM     92  C   UNL A   1      49.438  26.478  25.550  1.00  0.00     0.198 A 
ATOM     93  C   UNL A   1      48.378  27.219  23.526  1.00  0.00     0.198 A 
ATOM     94  F   UNL A   1      46.274  28.267  23.616  1.00  0.00    -0.203 F 
ATOM     95  F   UNL A   1      50.481  25.915  26.174  1.00  0.00    -0.200 F 
ATOM     96  C   UNL A   1      49.447  26.615  24.170  1.00  0.00     0.200 A 
ATOM     97  F   UNL A   1      48.377  27.335  22.190  1.00  0.00    -0.200 F 
ATOM     98  F   UNL A   1      50.490  26.165  23.458  1.00  0.00    -0.200 F 
ENDBRANCH  65  88
ENDBRANCH  39  40
ENDBRANCH  32  34
ENDBRANCH  31  32
ENDBRANCH  30  31
ENDBRANCH  29  30
ENDBRANCH  28  29
ENDBRANCH  27  28
ENDBRANCH  26  27
ENDBRANCH  25  26
ENDBRANCH   1  25
TORSDOF 24
ENDMDL
