MODEL 1
REMARK VINA RESULT:     -10.1      0.000      0.000
REMARK SMILES O=C(Cn1nc(-c2ccco2)ccc1=O)OCCOCCOCCOCCOC(=O)c1ccc(-c2c3nc(c(-c4c(F)c(F)c(F)c(F)c4F)c4ccc([nH]4)c(-c4c(F)c(F)c(F)c(F)c4F)c4nc(c(-c5c(F)c(F)c(F)c(F)c5F)c5ccc2[nH]5)C=C4)C=C3)cc1
REMARK SMILES IDX 22 1 21 2 20 3 19 4 18 5 17 6 16 7 2 8 1 9 3 10 4 11 5 12
REMARK SMILES IDX 14 13 6 14 13 15 15 16 12 17 7 18 8 19 11 20 9 21 10 22
REMARK SMILES IDX 23 23 24 24 25 25 26 26 27 27 28 28 29 29 30 30 31 31 32 32
REMARK SMILES IDX 93 33 33 34 92 35 34 36 35 37 36 38 86 39 37 40 91 41 85 42
REMARK SMILES IDX 87 43 38 44 90 45 84 46 83 47 39 49 71 50 51 51 70 52 52 53
REMARK SMILES IDX 55 54 69 55 88 56 53 57 54 58 68 60 89 61 56 62 40 63 41 64
REMARK SMILES IDX 49 65 42 66 43 67 47 68 50 69 44 70 45 71 48 72 46 73 72 74
REMARK SMILES IDX 73 75 81 76 74 77 75 78 79 79 82 80 76 81 77 82 80 83 78 84
REMARK SMILES IDX 57 85 58 86 66 87 59 88 60 89 64 90 67 91 61 92 62 93 65 94
REMARK SMILES IDX 63 95
REMARK H PARENT 87 48 55 59
REMARK Flexibility Score: inf
ROOT
ATOM      1  O   UNL A   1      32.841  26.739  25.823  1.00  0.00    -0.377 OA
ENDROOT
BRANCH   1   2
ATOM      2  C   UNL A   1      31.822  25.744  25.933  1.00  0.00     0.188 C 
BRANCH   2   3
ATOM      3  C   UNL A   1      32.229  24.504  26.742  1.00  0.00     0.188 C 
BRANCH   3   4
ATOM      4  O   UNL A   1      31.113  23.783  27.244  1.00  0.00    -0.376 OA
BRANCH   4   5
ATOM      5  C   UNL A   1      30.854  22.465  26.805  1.00  0.00     0.202 C 
BRANCH   5   6
ATOM      6  C   UNL A   1      31.127  22.149  25.338  1.00  0.00     0.261 C 
BRANCH   6   7
ATOM      7  O   UNL A   1      31.469  20.791  25.007  1.00  0.00    -0.462 OA
BRANCH   7   8
ATOM      8  C   UNL A   1      32.585  20.078  25.198  1.00  0.00     0.328 C 
ATOM      9  O   UNL A   1      32.537  19.144  26.006  1.00  0.00    -0.250 OA
BRANCH   8  10
ATOM     10  C   UNL A   1      33.932  20.447  24.609  1.00  0.00     0.270 C 
BRANCH  10  11
ATOM     11  N   UNL A   1      34.532  21.771  24.608  1.00  0.00    -0.218 N 
ATOM     12  N   UNL A   1      34.057  22.576  23.588  1.00  0.00    -0.166 NA
ATOM     13  C   UNL A   1      35.020  22.332  25.779  1.00  0.00     0.267 A 
ATOM     14  C   UNL A   1      34.358  23.837  23.617  1.00  0.00     0.126 A 
ATOM     15  C   UNL A   1      35.640  23.669  25.611  1.00  0.00     0.076 A 
ATOM     16  O   UNL A   1      35.063  21.768  26.864  1.00  0.00    -0.268 OA
ATOM     17  C   UNL A   1      35.354  24.414  24.539  1.00  0.00     0.040 A 
BRANCH  14  18
ATOM     18  C   UNL A   1      33.566  24.720  22.801  1.00  0.00     0.154 A 
ATOM     19  C   UNL A   1      32.208  24.667  22.544  1.00  0.00     0.052 A 
ATOM     20  O   UNL A   1      34.101  25.843  22.242  1.00  0.00    -0.463 OA
ATOM     21  C   UNL A   1      31.890  25.826  21.807  1.00  0.00     0.043 A 
ATOM     22  C   UNL A   1      33.078  26.492  21.619  1.00  0.00     0.196 A 
ENDBRANCH  14  18
ENDBRANCH  10  11
ENDBRANCH   8  10
ENDBRANCH   7   8
ENDBRANCH   6   7
ENDBRANCH   5   6
ENDBRANCH   4   5
ENDBRANCH   3   4
ENDBRANCH   2   3
ENDBRANCH   1   2
BRANCH   1  23
ATOM     23  C   UNL A   1      32.456  27.902  25.107  1.00  0.00     0.188 C 
BRANCH  23  24
ATOM     24  C   UNL A   1      32.090  29.142  25.960  1.00  0.00     0.188 C 
BRANCH  24  25
ATOM     25  O   UNL A   1      31.925  30.435  25.394  1.00  0.00    -0.376 OA
BRANCH  25  26
ATOM     26  C   UNL A   1      31.106  31.400  26.033  1.00  0.00     0.202 C 
BRANCH  26  27
ATOM     27  C   UNL A   1      31.749  32.465  26.933  1.00  0.00     0.261 C 
BRANCH  27  28
ATOM     28  O   UNL A   1      32.973  32.074  27.567  1.00  0.00    -0.460 OA
BRANCH  28  29
ATOM     29  C   UNL A   1      33.858  33.075  27.818  1.00  0.00     0.338 C 
ATOM     30  O   UNL A   1      33.647  34.262  27.828  1.00  0.00    -0.246 OA
BRANCH  29  31
ATOM     31  C   UNL A   1      35.123  32.461  28.301  1.00  0.00     0.060 A 
ATOM     32  C   UNL A   1      36.321  33.177  28.306  1.00  0.00     0.016 A 
ATOM     33  C   UNL A   1      35.100  31.116  28.698  1.00  0.00     0.016 A 
ATOM     34  C   UNL A   1      37.488  32.557  28.759  1.00  0.00     0.010 A 
ATOM     35  C   UNL A   1      36.271  30.488  29.128  1.00  0.00     0.010 A 
ATOM     36  C   UNL A   1      37.464  31.219  29.202  1.00  0.00    -0.014 A 
BRANCH  36  37
ATOM     37  C   UNL A   1      38.600  30.702  29.999  1.00  0.00     0.031 A 
ATOM     38  C   UNL A   1      38.847  31.090  31.421  1.00  0.00     0.074 A 
ATOM     39  C   UNL A   1      39.425  29.837  29.375  1.00  0.00     0.049 A 
ATOM     40  N   UNL A   1      39.721  30.592  32.261  1.00  0.00    -0.248 NA
ATOM     41  C   UNL A   1      38.029  32.177  31.976  1.00  0.00     0.031 C 
ATOM     42  C   UNL A   1      39.304  29.442  27.969  1.00  0.00     0.029 A 
ATOM     43  N   UNL A   1      40.501  29.125  29.832  1.00  0.00    -0.354 N 
ATOM     44  C   UNL A   1      39.540  31.278  33.453  1.00  0.00     0.074 A 
ATOM     45  C   UNL A   1      38.508  32.267  33.213  1.00  0.00     0.031 C 
ATOM     46  C   UNL A   1      40.240  28.526  27.689  1.00  0.00     0.029 A 
ATOM     47  C   UNL A   1      41.037  28.284  28.887  1.00  0.00     0.049 A 
ATOM     48  H   UNL A   1      40.856  29.206  30.746  1.00  0.00     0.167 HD
ATOM     49  C   UNL A   1      40.169  31.075  34.635  1.00  0.00     0.037 A 
ATOM     50  C   UNL A   1      42.046  27.398  28.978  1.00  0.00     0.037 A 
ATOM     51  C   UNL A   1      41.201  30.089  34.850  1.00  0.00     0.049 A 
ATOM     52  C   UNL A   1      42.732  27.210  30.301  1.00  0.00     0.074 A 
ATOM     53  C   UNL A   1      41.854  29.771  36.030  1.00  0.00     0.029 A 
ATOM     54  N   UNL A   1      41.739  29.271  33.866  1.00  0.00    -0.354 N 
ATOM     55  N   UNL A   1      42.475  27.782  31.450  1.00  0.00    -0.248 NA
ATOM     56  C   UNL A   1      43.840  26.246  30.342  1.00  0.00     0.031 C 
ATOM     57  C   UNL A   1      42.824  28.805  35.749  1.00  0.00     0.029 A 
ATOM     58  C   UNL A   1      42.739  28.477  34.406  1.00  0.00     0.049 A 
ATOM     59  H   UNL A   1      41.454  29.260  32.924  1.00  0.00     0.167 HD
ATOM     60  C   UNL A   1      43.370  27.234  32.356  1.00  0.00     0.074 A 
ATOM     61  C   UNL A   1      44.165  26.268  31.628  1.00  0.00     0.031 C 
ATOM     62  C   UNL A   1      43.519  27.512  33.674  1.00  0.00     0.037 A 
BRANCH  49  63
ATOM     63  C   UNL A   1      39.754  31.898  35.822  1.00  0.00     0.064 A 
ATOM     64  C   UNL A   1      40.360  33.135  36.089  1.00  0.00     0.173 A 
ATOM     65  C   UNL A   1      38.646  31.528  36.600  1.00  0.00     0.173 A 
ATOM     66  F   UNL A   1      41.418  33.537  35.371  1.00  0.00    -0.203 F 
ATOM     67  C   UNL A   1      39.870  33.971  37.089  1.00  0.00     0.198 A 
ATOM     68  C   UNL A   1      38.145  32.377  37.583  1.00  0.00     0.198 A 
ATOM     69  F   UNL A   1      38.020  30.364  36.374  1.00  0.00    -0.203 F 
ATOM     70  F   UNL A   1      40.466  35.147  37.329  1.00  0.00    -0.200 F 
ATOM     71  C   UNL A   1      38.756  33.599  37.825  1.00  0.00     0.200 A 
ATOM     72  F   UNL A   1      37.055  32.026  38.279  1.00  0.00    -0.200 F 
ATOM     73  F   UNL A   1      38.265  34.420  38.764  1.00  0.00    -0.200 F 
ENDBRANCH  49  63
BRANCH  50  74
ATOM     74  C   UNL A   1      42.423  26.593  27.789  1.00  0.00     0.064 A 
ATOM     75  C   UNL A   1      43.408  27.043  26.899  1.00  0.00     0.173 A 
ATOM     76  C   UNL A   1      41.830  25.349  27.532  1.00  0.00     0.173 A 
ATOM     77  F   UNL A   1      43.998  28.232  27.098  1.00  0.00    -0.203 F 
ATOM     78  C   UNL A   1      43.770  26.289  25.786  1.00  0.00     0.198 A 
ATOM     79  C   UNL A   1      42.214  24.581  26.437  1.00  0.00     0.198 A 
ATOM     80  F   UNL A   1      40.890  24.868  28.361  1.00  0.00    -0.203 F 
ATOM     81  F   UNL A   1      44.684  26.761  24.927  1.00  0.00    -0.200 F 
ATOM     82  C   UNL A   1      43.177  25.055  25.560  1.00  0.00     0.200 A 
ATOM     83  F   UNL A   1      41.655  23.381  26.233  1.00  0.00    -0.200 F 
ATOM     84  F   UNL A   1      43.532  24.325  24.493  1.00  0.00    -0.200 F 
ENDBRANCH  50  74
BRANCH  62  85
ATOM     85  C   UNL A   1      44.575  26.760  34.430  1.00  0.00     0.064 A 
ATOM     86  C   UNL A   1      45.847  27.308  34.649  1.00  0.00     0.173 A 
ATOM     87  C   UNL A   1      44.281  25.521  35.021  1.00  0.00     0.173 A 
ATOM     88  F   UNL A   1      46.181  28.482  34.092  1.00  0.00    -0.203 F 
ATOM     89  C   UNL A   1      46.788  26.642  35.429  1.00  0.00     0.198 A 
ATOM     90  C   UNL A   1      45.214  24.872  35.825  1.00  0.00     0.198 A 
ATOM     91  F   UNL A   1      43.077  24.957  34.847  1.00  0.00    -0.203 F 
ATOM     92  F   UNL A   1      48.006  27.172  35.604  1.00  0.00    -0.200 F 
ATOM     93  C   UNL A   1      46.467  25.432  36.026  1.00  0.00     0.200 A 
ATOM     94  F   UNL A   1      44.897  23.711  36.415  1.00  0.00    -0.200 F 
ATOM     95  F   UNL A   1      47.366  24.805  36.798  1.00  0.00    -0.200 F 
ENDBRANCH  62  85
ENDBRANCH  36  37
ENDBRANCH  29  31
ENDBRANCH  28  29
ENDBRANCH  27  28
ENDBRANCH  26  27
ENDBRANCH  25  26
ENDBRANCH  24  25
ENDBRANCH  23  24
ENDBRANCH   1  23
TORSDOF 22
ENDMDL
MODEL 2
REMARK VINA RESULT:     -10.0      4.742      9.924
REMARK SMILES O=C(Cn1nc(-c2ccco2)ccc1=O)OCCOCCOCCOCCOC(=O)c1ccc(-c2c3nc(c(-c4c(F)c(F)c(F)c(F)c4F)c4ccc([nH]4)c(-c4c(F)c(F)c(F)c(F)c4F)c4nc(c(-c5c(F)c(F)c(F)c(F)c5F)c5ccc2[nH]5)C=C4)C=C3)cc1
REMARK SMILES IDX 22 1 21 2 20 3 19 4 18 5 17 6 16 7 2 8 1 9 3 10 4 11 5 12
REMARK SMILES IDX 14 13 6 14 13 15 15 16 12 17 7 18 8 19 11 20 9 21 10 22
REMARK SMILES IDX 23 23 24 24 25 25 26 26 27 27 28 28 29 29 30 30 31 31 32 32
REMARK SMILES IDX 93 33 33 34 92 35 34 36 35 37 36 38 86 39 37 40 91 41 85 42
REMARK SMILES IDX 87 43 38 44 90 45 84 46 83 47 39 49 71 50 51 51 70 52 52 53
REMARK SMILES IDX 55 54 69 55 88 56 53 57 54 58 68 60 89 61 56 62 40 63 41 64
REMARK SMILES IDX 49 65 42 66 43 67 47 68 50 69 44 70 45 71 48 72 46 73 72 74
REMARK SMILES IDX 73 75 81 76 74 77 75 78 79 79 82 80 76 81 77 82 80 83 78 84
REMARK SMILES IDX 57 85 58 86 66 87 59 88 60 89 64 90 67 91 61 92 62 93 65 94
REMARK SMILES IDX 63 95
REMARK H PARENT 87 48 55 59
REMARK Flexibility Score: inf
ROOT
ATOM      1  O   UNL A   1      34.777  23.086  25.641  1.00  0.00    -0.377 OA
ENDROOT
BRANCH   1   2
ATOM      2  C   UNL A   1      34.217  21.825  26.008  1.00  0.00     0.188 C 
BRANCH   2   3
ATOM      3  C   UNL A   1      34.591  20.665  25.073  1.00  0.00     0.188 C 
BRANCH   3   4
ATOM      4  O   UNL A   1      33.490  20.198  24.307  1.00  0.00    -0.376 OA
BRANCH   4   5
ATOM      5  C   UNL A   1      32.337  20.999  24.146  1.00  0.00     0.202 C 
BRANCH   5   6
ATOM      6  C   UNL A   1      31.988  21.451  22.731  1.00  0.00     0.261 C 
BRANCH   6   7
ATOM      7  O   UNL A   1      32.861  22.412  22.110  1.00  0.00    -0.462 OA
BRANCH   7   8
ATOM      8  C   UNL A   1      33.319  23.600  22.522  1.00  0.00     0.328 C 
ATOM      9  O   UNL A   1      34.533  23.810  22.427  1.00  0.00    -0.250 OA
BRANCH   8  10
ATOM     10  C   UNL A   1      32.469  24.629  23.240  1.00  0.00     0.270 C 
BRANCH  10  11
ATOM     11  N   UNL A   1      32.606  26.073  23.140  1.00  0.00    -0.218 N 
ATOM     12  N   UNL A   1      31.485  26.684  22.606  1.00  0.00    -0.166 NA
ATOM     13  C   UNL A   1      33.446  26.769  23.996  1.00  0.00     0.267 A 
ATOM     14  C   UNL A   1      31.409  27.977  22.667  1.00  0.00     0.126 A 
ATOM     15  C   UNL A   1      33.513  28.229  23.745  1.00  0.00     0.076 A 
ATOM     16  O   UNL A   1      34.180  26.256  24.831  1.00  0.00    -0.268 OA
ATOM     17  C   UNL A   1      32.537  28.839  23.065  1.00  0.00     0.040 A 
BRANCH  14  18
ATOM     18  C   UNL A   1      30.111  28.567  22.473  1.00  0.00     0.154 A 
ATOM     19  C   UNL A   1      28.926  28.274  23.123  1.00  0.00     0.052 A 
ATOM     20  O   UNL A   1      29.931  29.630  21.637  1.00  0.00    -0.463 OA
ATOM     21  C   UNL A   1      27.976  29.216  22.678  1.00  0.00     0.043 A 
ATOM     22  C   UNL A   1      28.624  29.997  21.751  1.00  0.00     0.196 A 
ENDBRANCH  14  18
ENDBRANCH  10  11
ENDBRANCH   8  10
ENDBRANCH   7   8
ENDBRANCH   6   7
ENDBRANCH   5   6
ENDBRANCH   4   5
ENDBRANCH   3   4
ENDBRANCH   2   3
ENDBRANCH   1   2
BRANCH   1  23
ATOM     23  C   UNL A   1      36.095  23.309  26.118  1.00  0.00     0.188 C 
BRANCH  23  24
ATOM     24  C   UNL A   1      37.245  22.773  25.229  1.00  0.00     0.188 C 
BRANCH  24  25
ATOM     25  O   UNL A   1      38.147  21.769  25.674  1.00  0.00    -0.376 OA
BRANCH  25  26
ATOM     26  C   UNL A   1      38.234  20.528  24.994  1.00  0.00     0.202 C 
BRANCH  26  27
ATOM     27  C   UNL A   1      39.142  19.421  25.548  1.00  0.00     0.261 C 
BRANCH  27  28
ATOM     28  O   UNL A   1      40.122  19.852  26.501  1.00  0.00    -0.460 OA
BRANCH  28  29
ATOM     29  C   UNL A   1      41.420  19.724  26.116  1.00  0.00     0.338 C 
ATOM     30  O   UNL A   1      41.904  18.864  25.424  1.00  0.00    -0.246 OA
BRANCH  29  31
ATOM     31  C   UNL A   1      42.142  20.961  26.515  1.00  0.00     0.060 A 
ATOM     32  C   UNL A   1      42.731  21.796  25.566  1.00  0.00     0.016 A 
ATOM     33  C   UNL A   1      42.271  21.242  27.884  1.00  0.00     0.016 A 
ATOM     34  C   UNL A   1      43.408  22.943  25.988  1.00  0.00     0.010 A 
ATOM     35  C   UNL A   1      42.969  22.376  28.307  1.00  0.00     0.010 A 
ATOM     36  C   UNL A   1      43.504  23.256  27.358  1.00  0.00    -0.014 A 
BRANCH  36  37
ATOM     37  C   UNL A   1      43.899  24.627  27.760  1.00  0.00     0.031 A 
ATOM     38  C   UNL A   1      45.317  25.098  27.778  1.00  0.00     0.074 A 
ATOM     39  C   UNL A   1      42.899  25.458  28.114  1.00  0.00     0.049 A 
ATOM     40  N   UNL A   1      45.769  26.313  27.969  1.00  0.00    -0.248 NA
ATOM     41  C   UNL A   1      46.366  24.091  27.569  1.00  0.00     0.031 C 
ATOM     42  C   UNL A   1      41.487  25.075  28.188  1.00  0.00     0.029 A 
ATOM     43  N   UNL A   1      42.905  26.785  28.454  1.00  0.00    -0.354 N 
ATOM     44  C   UNL A   1      47.150  26.227  27.873  1.00  0.00     0.074 A 
ATOM     45  C   UNL A   1      47.468  24.829  27.659  1.00  0.00     0.031 C 
ATOM     46  C   UNL A   1      40.757  26.152  28.508  1.00  0.00     0.029 A 
ATOM     47  C   UNL A   1      41.648  27.293  28.680  1.00  0.00     0.049 A 
ATOM     48  H   UNL A   1      43.726  27.321  28.529  1.00  0.00     0.167 HD
ATOM     49  C   UNL A   1      48.054  27.234  27.937  1.00  0.00     0.037 A 
ATOM     50  C   UNL A   1      41.253  28.546  28.972  1.00  0.00     0.037 A 
ATOM     51  C   UNL A   1      47.716  28.619  28.160  1.00  0.00     0.049 A 
ATOM     52  C   UNL A   1      42.284  29.635  29.051  1.00  0.00     0.074 A 
ATOM     53  C   UNL A   1      48.561  29.718  28.182  1.00  0.00     0.029 A 
ATOM     54  N   UNL A   1      46.438  29.097  28.411  1.00  0.00    -0.354 N 
ATOM     55  N   UNL A   1      43.576  29.563  28.844  1.00  0.00    -0.248 NA
ATOM     56  C   UNL A   1      41.804  30.980  29.393  1.00  0.00     0.031 C 
ATOM     57  C   UNL A   1      47.804  30.848  28.502  1.00  0.00     0.029 A 
ATOM     58  C   UNL A   1      46.478  30.467  28.623  1.00  0.00     0.049 A 
ATOM     59  H   UNL A   1      45.624  28.545  28.436  1.00  0.00     0.167 HD
ATOM     60  C   UNL A   1      44.059  30.851  29.007  1.00  0.00     0.074 A 
ATOM     61  C   UNL A   1      42.920  31.692  29.311  1.00  0.00     0.031 C 
ATOM     62  C   UNL A   1      45.336  31.295  28.917  1.00  0.00     0.037 A 
BRANCH  49  63
ATOM     63  C   UNL A   1      49.507  26.911  27.732  1.00  0.00     0.064 A 
ATOM     64  C   UNL A   1      50.354  26.670  28.825  1.00  0.00     0.173 A 
ATOM     65  C   UNL A   1      50.017  26.686  26.444  1.00  0.00     0.173 A 
ATOM     66  F   UNL A   1      49.913  26.864  30.076  1.00  0.00    -0.203 F 
ATOM     67  C   UNL A   1      51.656  26.213  28.634  1.00  0.00     0.198 A 
ATOM     68  C   UNL A   1      51.312  26.207  26.259  1.00  0.00     0.198 A 
ATOM     69  F   UNL A   1      49.244  26.885  25.366  1.00  0.00    -0.203 F 
ATOM     70  F   UNL A   1      52.448  25.993  29.692  1.00  0.00    -0.200 F 
ATOM     71  C   UNL A   1      52.129  25.970  27.354  1.00  0.00     0.200 A 
ATOM     72  F   UNL A   1      51.761  25.951  25.022  1.00  0.00    -0.200 F 
ATOM     73  F   UNL A   1      53.371  25.498  27.175  1.00  0.00    -0.200 F 
ENDBRANCH  49  63
BRANCH  50  74
ATOM     74  C   UNL A   1      39.808  28.833  29.159  1.00  0.00     0.064 A 
ATOM     75  C   UNL A   1      39.009  29.234  28.080  1.00  0.00     0.173 A 
ATOM     76  C   UNL A   1      39.192  28.687  30.410  1.00  0.00     0.173 A 
ATOM     77  F   UNL A   1      39.556  29.396  26.866  1.00  0.00    -0.203 F 
ATOM     78  C   UNL A   1      37.653  29.497  28.249  1.00  0.00     0.198 A 
ATOM     79  C   UNL A   1      37.829  28.920  30.572  1.00  0.00     0.198 A 
ATOM     80  F   UNL A   1      39.911  28.293  31.472  1.00  0.00    -0.203 F 
ATOM     81  F   UNL A   1      36.920  29.921  27.210  1.00  0.00    -0.200 F 
ATOM     82  C   UNL A   1      37.063  29.334  29.494  1.00  0.00     0.200 A 
ATOM     83  F   UNL A   1      37.259  28.741  31.771  1.00  0.00    -0.200 F 
ATOM     84  F   UNL A   1      35.755  29.580  29.655  1.00  0.00    -0.200 F 
ENDBRANCH  50  74
BRANCH  62  85
ATOM     85  C   UNL A   1      45.583  32.759  29.138  1.00  0.00     0.064 A 
ATOM     86  C   UNL A   1      45.934  33.259  30.400  1.00  0.00     0.173 A 
ATOM     87  C   UNL A   1      45.561  33.655  28.057  1.00  0.00     0.173 A 
ATOM     88  F   UNL A   1      45.954  32.444  31.466  1.00  0.00    -0.203 F 
ATOM     89  C   UNL A   1      46.250  34.603  30.574  1.00  0.00     0.198 A 
ATOM     90  C   UNL A   1      45.907  34.993  28.230  1.00  0.00     0.198 A 
ATOM     91  F   UNL A   1      45.238  33.226  26.828  1.00  0.00    -0.203 F 
ATOM     92  F   UNL A   1      46.557  35.064  31.794  1.00  0.00    -0.200 F 
ATOM     93  C   UNL A   1      46.249  35.466  29.488  1.00  0.00     0.200 A 
ATOM     94  F   UNL A   1      45.921  35.821  27.177  1.00  0.00    -0.200 F 
ATOM     95  F   UNL A   1      46.579  36.754  29.654  1.00  0.00    -0.200 F 
ENDBRANCH  62  85
ENDBRANCH  36  37
ENDBRANCH  29  31
ENDBRANCH  28  29
ENDBRANCH  27  28
ENDBRANCH  26  27
ENDBRANCH  25  26
ENDBRANCH  24  25
ENDBRANCH  23  24
ENDBRANCH   1  23
TORSDOF 22
ENDMDL
MODEL 3
REMARK VINA RESULT:      -9.8      1.399      7.571
REMARK SMILES O=C(Cn1nc(-c2ccco2)ccc1=O)OCCOCCOCCOCCOC(=O)c1ccc(-c2c3nc(c(-c4c(F)c(F)c(F)c(F)c4F)c4ccc([nH]4)c(-c4c(F)c(F)c(F)c(F)c4F)c4nc(c(-c5c(F)c(F)c(F)c(F)c5F)c5ccc2[nH]5)C=C4)C=C3)cc1
REMARK SMILES IDX 22 1 21 2 20 3 19 4 18 5 17 6 16 7 2 8 1 9 3 10 4 11 5 12
REMARK SMILES IDX 14 13 6 14 13 15 15 16 12 17 7 18 8 19 11 20 9 21 10 22
REMARK SMILES IDX 23 23 24 24 25 25 26 26 27 27 28 28 29 29 30 30 31 31 32 32
REMARK SMILES IDX 93 33 33 34 92 35 34 36 35 37 36 38 86 39 37 40 91 41 85 42
REMARK SMILES IDX 87 43 38 44 90 45 84 46 83 47 39 49 71 50 51 51 70 52 52 53
REMARK SMILES IDX 55 54 69 55 88 56 53 57 54 58 68 60 89 61 56 62 40 63 41 64
REMARK SMILES IDX 49 65 42 66 43 67 47 68 50 69 44 70 45 71 48 72 46 73 72 74
REMARK SMILES IDX 73 75 81 76 74 77 75 78 79 79 82 80 76 81 77 82 80 83 78 84
REMARK SMILES IDX 57 85 58 86 66 87 59 88 60 89 64 90 67 91 61 92 62 93 65 94
REMARK SMILES IDX 63 95
REMARK H PARENT 87 48 55 59
REMARK Flexibility Score: inf
ROOT
ATOM      1  O   UNL A   1      32.994  28.434  27.188  1.00  0.00    -0.377 OA
ENDROOT
BRANCH   1   2
ATOM      2  C   UNL A   1      31.728  27.781  27.282  1.00  0.00     0.188 C 
BRANCH   2   3
ATOM      3  C   UNL A   1      31.669  26.406  26.602  1.00  0.00     0.188 C 
BRANCH   3   4
ATOM      4  O   UNL A   1      31.048  26.449  25.325  1.00  0.00    -0.376 OA
BRANCH   4   5
ATOM      5  C   UNL A   1      31.793  26.174  24.156  1.00  0.00     0.202 C 
BRANCH   5   6
ATOM      6  C   UNL A   1      31.993  24.709  23.781  1.00  0.00     0.261 C 
BRANCH   6   7
ATOM      7  O   UNL A   1      31.163  23.738  24.443  1.00  0.00    -0.462 OA
BRANCH   7   8
ATOM      8  C   UNL A   1      31.384  22.943  25.497  1.00  0.00     0.328 C 
ATOM      9  O   UNL A   1      30.427  22.302  25.942  1.00  0.00    -0.250 OA
BRANCH   8  10
ATOM     10  C   UNL A   1      32.689  22.909  26.267  1.00  0.00     0.270 C 
BRANCH  10  11
ATOM     11  N   UNL A   1      33.860  22.116  25.932  1.00  0.00    -0.218 N 
ATOM     12  N   UNL A   1      33.549  20.808  25.604  1.00  0.00    -0.166 NA
ATOM     13  C   UNL A   1      35.005  22.714  25.426  1.00  0.00     0.267 A 
ATOM     14  C   UNL A   1      34.481  20.071  25.085  1.00  0.00     0.126 A 
ATOM     15  C   UNL A   1      36.130  21.781  25.173  1.00  0.00     0.076 A 
ATOM     16  O   UNL A   1      35.165  23.920  25.290  1.00  0.00    -0.268 OA
ATOM     17  C   UNL A   1      35.899  20.473  25.033  1.00  0.00     0.040 A 
BRANCH  14  18
ATOM     18  C   UNL A   1      34.067  18.873  24.403  1.00  0.00     0.154 A 
ATOM     19  C   UNL A   1      34.786  17.711  24.192  1.00  0.00     0.052 A 
ATOM     20  O   UNL A   1      32.788  18.717  23.953  1.00  0.00    -0.463 OA
ATOM     21  C   UNL A   1      33.898  16.788  23.602  1.00  0.00     0.043 A 
ATOM     22  C   UNL A   1      32.707  17.456  23.445  1.00  0.00     0.196 A 
ENDBRANCH  14  18
ENDBRANCH  10  11
ENDBRANCH   8  10
ENDBRANCH   7   8
ENDBRANCH   6   7
ENDBRANCH   5   6
ENDBRANCH   4   5
ENDBRANCH   3   4
ENDBRANCH   2   3
ENDBRANCH   1   2
BRANCH   1  23
ATOM     23  C   UNL A   1      33.170  29.218  26.019  1.00  0.00     0.188 C 
BRANCH  23  24
ATOM     24  C   UNL A   1      32.111  30.321  25.768  1.00  0.00     0.188 C 
BRANCH  24  25
ATOM     25  O   UNL A   1      31.515  31.060  26.826  1.00  0.00    -0.376 OA
BRANCH  25  26
ATOM     26  C   UNL A   1      31.383  32.469  26.734  1.00  0.00     0.202 C 
BRANCH  26  27
ATOM     27  C   UNL A   1      32.582  33.367  27.072  1.00  0.00     0.261 C 
BRANCH  27  28
ATOM     28  O   UNL A   1      32.423  34.186  28.237  1.00  0.00    -0.460 OA
BRANCH  28  29
ATOM     29  C   UNL A   1      33.514  34.909  28.607  1.00  0.00     0.338 C 
ATOM     30  O   UNL A   1      33.586  36.099  28.783  1.00  0.00    -0.246 OA
BRANCH  29  31
ATOM     31  C   UNL A   1      34.594  33.956  28.976  1.00  0.00     0.060 A 
ATOM     32  C   UNL A   1      35.928  34.212  28.656  1.00  0.00     0.016 A 
ATOM     33  C   UNL A   1      34.234  32.755  29.605  1.00  0.00     0.016 A 
ATOM     34  C   UNL A   1      36.909  33.284  29.014  1.00  0.00     0.010 A 
ATOM     35  C   UNL A   1      35.211  31.815  29.941  1.00  0.00     0.010 A 
ATOM     36  C   UNL A   1      36.560  32.095  29.687  1.00  0.00    -0.014 A 
BRANCH  36  37
ATOM     37  C   UNL A   1      37.619  31.312  30.365  1.00  0.00     0.031 A 
ATOM     38  C   UNL A   1      38.446  30.279  29.670  1.00  0.00     0.074 A 
ATOM     39  C   UNL A   1      37.818  31.580  31.670  1.00  0.00     0.049 A 
ATOM     40  N   UNL A   1      39.495  29.637  30.121  1.00  0.00    -0.248 NA
ATOM     41  C   UNL A   1      38.049  29.903  28.306  1.00  0.00     0.031 C 
ATOM     42  C   UNL A   1      37.022  32.527  32.455  1.00  0.00     0.029 A 
ATOM     43  N   UNL A   1      38.747  31.107  32.558  1.00  0.00    -0.354 N 
ATOM     44  C   UNL A   1      39.907  28.804  29.090  1.00  0.00     0.074 A 
ATOM     45  C   UNL A   1      38.961  28.982  28.007  1.00  0.00     0.031 C 
ATOM     46  C   UNL A   1      37.523  32.600  33.695  1.00  0.00     0.029 A 
ATOM     47  C   UNL A   1      38.661  31.692  33.799  1.00  0.00     0.049 A 
ATOM     48  H   UNL A   1      39.411  30.417  32.332  1.00  0.00     0.167 HD
ATOM     49  C   UNL A   1      40.989  27.990  29.059  1.00  0.00     0.037 A 
ATOM     50  C   UNL A   1      39.425  31.533  34.894  1.00  0.00     0.037 A 
ATOM     51  C   UNL A   1      41.914  27.821  30.154  1.00  0.00     0.049 A 
ATOM     52  C   UNL A   1      40.608  30.609  34.829  1.00  0.00     0.074 A 
ATOM     53  C   UNL A   1      43.072  27.062  30.192  1.00  0.00     0.029 A 
ATOM     54  N   UNL A   1      41.783  28.408  31.405  1.00  0.00    -0.354 N 
ATOM     55  N   UNL A   1      41.055  29.915  33.812  1.00  0.00    -0.248 NA
ATOM     56  C   UNL A   1      41.399  30.455  36.057  1.00  0.00     0.031 C 
ATOM     57  C   UNL A   1      43.609  27.143  31.480  1.00  0.00     0.029 A 
ATOM     58  C   UNL A   1      42.820  27.998  32.230  1.00  0.00     0.049 A 
ATOM     59  H   UNL A   1      41.060  29.022  31.667  1.00  0.00     0.167 HD
ATOM     60  C   UNL A   1      42.189  29.260  34.268  1.00  0.00     0.074 A 
ATOM     61  C   UNL A   1      42.375  29.655  35.649  1.00  0.00     0.031 C 
ATOM     62  C   UNL A   1      42.999  28.404  33.600  1.00  0.00     0.037 A 
BRANCH  49  63
ATOM     63  C   UNL A   1      41.279  27.229  27.797  1.00  0.00     0.064 A 
ATOM     64  C   UNL A   1      42.040  27.803  26.767  1.00  0.00     0.173 A 
ATOM     65  C   UNL A   1      40.934  25.873  27.681  1.00  0.00     0.173 A 
ATOM     66  F   UNL A   1      42.400  29.092  26.832  1.00  0.00    -0.203 F 
ATOM     67  C   UNL A   1      42.447  27.047  25.670  1.00  0.00     0.198 A 
ATOM     68  C   UNL A   1      41.363  25.115  26.594  1.00  0.00     0.198 A 
ATOM     69  F   UNL A   1      40.223  25.271  28.645  1.00  0.00    -0.203 F 
ATOM     70  F   UNL A   1      43.170  27.617  24.697  1.00  0.00    -0.200 F 
ATOM     71  C   UNL A   1      42.120  25.702  25.591  1.00  0.00     0.200 A 
ATOM     72  F   UNL A   1      41.065  23.809  26.529  1.00  0.00    -0.200 F 
ATOM     73  F   UNL A   1      42.541  24.967  24.551  1.00  0.00    -0.200 F 
ENDBRANCH  49  63
BRANCH  50  74
ATOM     74  C   UNL A   1      39.116  32.308  36.122  1.00  0.00     0.064 A 
ATOM     75  C   UNL A   1      39.676  33.576  36.332  1.00  0.00     0.173 A 
ATOM     76  C   UNL A   1      38.237  31.812  37.095  1.00  0.00     0.173 A 
ATOM     77  F   UNL A   1      40.530  34.088  35.434  1.00  0.00    -0.203 F 
ATOM     78  C   UNL A   1      39.383  34.309  37.479  1.00  0.00     0.198 A 
ATOM     79  C   UNL A   1      37.920  32.559  38.226  1.00  0.00     0.198 A 
ATOM     80  F   UNL A   1      37.665  30.609  36.934  1.00  0.00    -0.203 F 
ATOM     81  F   UNL A   1      39.965  35.500  37.677  1.00  0.00    -0.200 F 
ATOM     82  C   UNL A   1      38.500  33.803  38.422  1.00  0.00     0.200 A 
ATOM     83  F   UNL A   1      37.051  32.076  39.124  1.00  0.00    -0.200 F 
ATOM     84  F   UNL A   1      38.212  34.513  39.522  1.00  0.00    -0.200 F 
ENDBRANCH  50  74
BRANCH  62  85
ATOM     85  C   UNL A   1      44.175  27.836  34.341  1.00  0.00     0.064 A 
ATOM     86  C   UNL A   1      44.082  26.622  35.036  1.00  0.00     0.173 A 
ATOM     87  C   UNL A   1      45.429  28.464  34.275  1.00  0.00     0.173 A 
ATOM     88  F   UNL A   1      42.902  25.992  35.140  1.00  0.00    -0.203 F 
ATOM     89  C   UNL A   1      45.202  26.058  35.642  1.00  0.00     0.198 A 
ATOM     90  C   UNL A   1      46.552  27.882  34.857  1.00  0.00     0.198 A 
ATOM     91  F   UNL A   1      45.572  29.623  33.617  1.00  0.00    -0.203 F 
ATOM     92  F   UNL A   1      45.085  24.910  36.324  1.00  0.00    -0.200 F 
ATOM     93  C   UNL A   1      46.437  26.681  35.541  1.00  0.00     0.200 A 
ATOM     94  F   UNL A   1      47.748  28.476  34.744  1.00  0.00    -0.200 F 
ATOM     95  F   UNL A   1      47.518  26.123  36.104  1.00  0.00    -0.200 F 
ENDBRANCH  62  85
ENDBRANCH  36  37
ENDBRANCH  29  31
ENDBRANCH  28  29
ENDBRANCH  27  28
ENDBRANCH  26  27
ENDBRANCH  25  26
ENDBRANCH  24  25
ENDBRANCH  23  24
ENDBRANCH   1  23
TORSDOF 22
ENDMDL
