MODEL 1
REMARK VINA RESULT:      -9.9      0.000      0.000
REMARK SMILES CSCC[C@@H](NC(=O)[C@@H]1CC(=O)N(C)C1)C(=O)OCCOCCOCCOCCOC(=O)c1ccc(-c2c3nc(c(-c4c(F)c(F)c(F)c(F)c4F)c4ccc([nH]4)c(-c4c(F)c(F)c(F)c(F)c4F)c4nc(c(-c5c(F)c(F)c(F)c(F)c5F)c5ccc2[nH]5)C=C4)C=C3)cc1
REMARK SMILES IDX 23 1 22 2 21 3 20 4 19 5 18 6 16 7 17 8 5 9 4 10 3 11 2 12
REMARK SMILES IDX 1 13 6 14 7 15 8 17 9 18 10 19 15 20 11 21 13 22 12 23 14 24
REMARK SMILES IDX 24 25 25 26 26 27 27 28 28 29 29 30 30 31 31 32 32 33 33 34
REMARK SMILES IDX 34 35 95 36 35 37 94 38 36 39 37 40 38 41 88 42 39 43 93 44
REMARK SMILES IDX 87 45 89 46 40 47 92 48 86 49 85 50 41 52 73 53 53 54 72 55
REMARK SMILES IDX 54 56 57 57 71 58 90 59 55 60 56 61 70 63 91 64 58 65 42 66
REMARK SMILES IDX 43 67 51 68 44 69 45 70 49 71 52 72 46 73 47 74 50 75 48 76
REMARK SMILES IDX 74 77 75 78 83 79 76 80 77 81 81 82 84 83 78 84 79 85 82 86
REMARK SMILES IDX 80 87 59 88 60 89 68 90 61 91 62 92 66 93 69 94 63 95 64 96
REMARK SMILES IDX 67 97 65 98
REMARK H PARENT 6 16 89 51 57 62
REMARK Flexibility Score: inf
ROOT
ATOM      1  C   UNL A   1      31.916  26.053  21.596  1.00  0.00     0.188 C 
ENDROOT
BRANCH   1   2
ATOM      2  C   UNL A   1      33.126  25.837  22.522  1.00  0.00     0.188 C 
BRANCH   2   3
ATOM      3  O   UNL A   1      34.023  24.768  22.253  1.00  0.00    -0.376 OA
BRANCH   3   4
ATOM      4  C   UNL A   1      33.890  23.560  22.994  1.00  0.00     0.202 C 
BRANCH   4   5
ATOM      5  C   UNL A   1      35.123  22.677  23.197  1.00  0.00     0.261 C 
BRANCH   5   6
ATOM      6  O   UNL A   1      35.418  22.355  24.580  1.00  0.00    -0.462 OA
BRANCH   6   7
ATOM      7  C   UNL A   1      35.182  21.078  24.973  1.00  0.00     0.328 C 
ATOM      8  O   UNL A   1      36.026  20.189  24.931  1.00  0.00    -0.250 OA
BRANCH   7   9
ATOM      9  C   UNL A   1      33.687  20.765  25.253  1.00  0.00     0.193 C 
BRANCH   9  10
ATOM     10  C   UNL A   1      33.022  19.479  24.738  1.00  0.00     0.048 C 
BRANCH  10  11
ATOM     11  C   UNL A   1      32.949  18.328  25.751  1.00  0.00     0.072 C 
BRANCH  11  12
ATOM     12  S   UNL A   1      33.613  16.742  25.140  1.00  0.00    -0.165 SA
ATOM     13  C   UNL A   1      33.448  16.970  23.357  1.00  0.00     0.085 C 
ENDBRANCH  11  12
ENDBRANCH  10  11
ENDBRANCH   9  10
BRANCH   9  14
ATOM     14  N   UNL A   1      33.323  21.125  26.637  1.00  0.00    -0.342 N 
ATOM     15  C   UNL A   1      32.724  22.241  27.162  1.00  0.00     0.226 C 
ATOM     16  H   UNL A   1      33.552  20.440  27.306  1.00  0.00     0.164 HD
ATOM     17  O   UNL A   1      32.522  22.273  28.375  1.00  0.00    -0.275 OA
BRANCH  15  18
ATOM     18  C   UNL A   1      32.288  23.362  26.245  1.00  0.00     0.107 C 
ATOM     19  C   UNL A   1      33.110  24.628  26.451  1.00  0.00     0.115 C 
ATOM     20  C   UNL A   1      30.846  23.829  26.383  1.00  0.00     0.133 C 
ATOM     21  C   UNL A   1      32.174  25.759  26.180  1.00  0.00     0.223 C 
ATOM     22  N   UNL A   1      30.915  25.227  26.017  1.00  0.00    -0.345 N 
ATOM     23  O   UNL A   1      32.500  26.932  26.089  1.00  0.00    -0.275 OA
ATOM     24  C   UNL A   1      29.783  25.998  25.574  1.00  0.00     0.146 C 
ENDBRANCH  15  18
ENDBRANCH   9  14
ENDBRANCH   7   9
ENDBRANCH   6   7
ENDBRANCH   5   6
ENDBRANCH   4   5
ENDBRANCH   3   4
ENDBRANCH   2   3
ENDBRANCH   1   2
BRANCH   1  25
ATOM     25  O   UNL A   1      31.043  27.101  21.984  1.00  0.00    -0.377 OA
BRANCH  25  26
ATOM     26  C   UNL A   1      31.597  28.160  22.768  1.00  0.00     0.188 C 
BRANCH  26  27
ATOM     27  C   UNL A   1      30.630  29.117  23.495  1.00  0.00     0.188 C 
BRANCH  27  28
ATOM     28  O   UNL A   1      30.856  29.206  24.896  1.00  0.00    -0.376 OA
BRANCH  28  29
ATOM     29  C   UNL A   1      31.242  30.456  25.450  1.00  0.00     0.202 C 
BRANCH  29  30
ATOM     30  C   UNL A   1      32.025  30.437  26.772  1.00  0.00     0.261 C 
BRANCH  30  31
ATOM     31  O   UNL A   1      33.417  30.780  26.697  1.00  0.00    -0.460 OA
BRANCH  31  32
ATOM     32  C   UNL A   1      33.909  31.704  27.545  1.00  0.00     0.338 C 
ATOM     33  O   UNL A   1      33.345  32.685  27.996  1.00  0.00    -0.246 OA
BRANCH  32  34
ATOM     34  C   UNL A   1      35.238  31.238  27.971  1.00  0.00     0.060 A 
ATOM     35  C   UNL A   1      35.420  29.900  28.348  1.00  0.00     0.016 A 
ATOM     36  C   UNL A   1      36.292  32.151  28.031  1.00  0.00     0.016 A 
ATOM     37  C   UNL A   1      36.656  29.482  28.842  1.00  0.00     0.010 A 
ATOM     38  C   UNL A   1      37.519  31.737  28.541  1.00  0.00     0.010 A 
ATOM     39  C   UNL A   1      37.690  30.415  28.991  1.00  0.00    -0.014 A 
BRANCH  39  40
ATOM     40  C   UNL A   1      38.863  30.119  29.841  1.00  0.00     0.031 A 
ATOM     41  C   UNL A   1      39.872  29.140  29.308  1.00  0.00     0.074 A 
ATOM     42  C   UNL A   1      38.994  30.643  31.070  1.00  0.00     0.049 A 
ATOM     43  N   UNL A   1      40.855  28.536  29.922  1.00  0.00    -0.248 NA
ATOM     44  C   UNL A   1      39.733  28.776  27.888  1.00  0.00     0.031 C 
ATOM     45  C   UNL A   1      38.107  31.635  31.669  1.00  0.00     0.029 A 
ATOM     46  N   UNL A   1      39.918  30.374  32.049  1.00  0.00    -0.354 N 
ATOM     47  C   UNL A   1      41.430  27.701  28.972  1.00  0.00     0.074 A 
ATOM     48  C   UNL A   1      40.681  27.864  27.746  1.00  0.00     0.031 C 
ATOM     49  C   UNL A   1      38.511  31.871  32.930  1.00  0.00     0.029 A 
ATOM     50  C   UNL A   1      39.650  31.006  33.238  1.00  0.00     0.049 A 
ATOM     51  H   UNL A   1      40.696  29.785  31.913  1.00  0.00     0.167 HD
ATOM     52  C   UNL A   1      42.488  26.871  29.115  1.00  0.00     0.037 A 
ATOM     53  C   UNL A   1      40.232  30.857  34.445  1.00  0.00     0.037 A 
ATOM     54  C   UNL A   1      43.221  26.716  30.341  1.00  0.00     0.049 A 
ATOM     55  C   UNL A   1      41.361  29.867  34.603  1.00  0.00     0.074 A 
ATOM     56  C   UNL A   1      44.316  25.910  30.597  1.00  0.00     0.029 A 
ATOM     57  N   UNL A   1      42.924  27.381  31.522  1.00  0.00    -0.354 N 
ATOM     58  N   UNL A   1      41.911  29.085  33.706  1.00  0.00    -0.248 NA
ATOM     59  C   UNL A   1      41.945  29.733  35.946  1.00  0.00     0.031 C 
ATOM     60  C   UNL A   1      44.648  26.046  31.948  1.00  0.00     0.029 A 
ATOM     61  C   UNL A   1      43.803  26.987  32.516  1.00  0.00     0.049 A 
ATOM     62  H   UNL A   1      42.197  28.034  31.636  1.00  0.00     0.167 HD
ATOM     63  C   UNL A   1      42.928  28.401  34.361  1.00  0.00     0.074 A 
ATOM     64  C   UNL A   1      42.918  28.856  35.735  1.00  0.00     0.031 C 
ATOM     65  C   UNL A   1      43.797  27.483  33.869  1.00  0.00     0.037 A 
BRANCH  52  66
ATOM     66  C   UNL A   1      42.886  26.040  27.931  1.00  0.00     0.064 A 
ATOM     67  C   UNL A   1      42.336  24.771  27.699  1.00  0.00     0.173 A 
ATOM     68  C   UNL A   1      43.816  26.533  27.002  1.00  0.00     0.173 A 
ATOM     69  F   UNL A   1      41.457  24.247  28.566  1.00  0.00    -0.203 F 
ATOM     70  C   UNL A   1      42.720  24.016  26.594  1.00  0.00     0.198 A 
ATOM     71  C   UNL A   1      44.173  25.789  25.881  1.00  0.00     0.198 A 
ATOM     72  F   UNL A   1      44.372  27.740  27.176  1.00  0.00    -0.203 F 
ATOM     73  F   UNL A   1      42.219  22.785  26.418  1.00  0.00    -0.200 F 
ATOM     74  C   UNL A   1      43.632  24.527  25.683  1.00  0.00     0.200 A 
ATOM     75  F   UNL A   1      45.044  26.290  24.995  1.00  0.00    -0.200 F 
ATOM     76  F   UNL A   1      43.994  23.802  24.615  1.00  0.00    -0.200 F 
ENDBRANCH  52  66
BRANCH  53  77
ATOM     77  C   UNL A   1      39.744  31.643  35.609  1.00  0.00     0.064 A 
ATOM     78  C   UNL A   1      38.640  31.209  36.357  1.00  0.00     0.173 A 
ATOM     79  C   UNL A   1      40.353  32.849  35.988  1.00  0.00     0.173 A 
ATOM     80  F   UNL A   1      38.006  30.077  36.019  1.00  0.00    -0.203 F 
ATOM     81  C   UNL A   1      38.154  31.959  37.426  1.00  0.00     0.198 A 
ATOM     82  C   UNL A   1      39.884  33.582  37.076  1.00  0.00     0.198 A 
ATOM     83  F   UNL A   1      41.407  33.314  35.301  1.00  0.00    -0.203 F 
ATOM     84  F   UNL A   1      37.067  31.545  38.091  1.00  0.00    -0.200 F 
ATOM     85  C   UNL A   1      38.780  33.142  37.788  1.00  0.00     0.200 A 
ATOM     86  F   UNL A   1      40.498  34.720  37.429  1.00  0.00    -0.200 F 
ATOM     87  F   UNL A   1      38.313  33.862  38.818  1.00  0.00    -0.200 F 
ENDBRANCH  53  77
BRANCH  65  88
ATOM     88  C   UNL A   1      44.863  26.960  34.787  1.00  0.00     0.064 A 
ATOM     89  C   UNL A   1      46.050  27.666  35.024  1.00  0.00     0.173 A 
ATOM     90  C   UNL A   1      44.639  25.782  35.518  1.00  0.00     0.173 A 
ATOM     91  F   UNL A   1      46.316  28.791  34.342  1.00  0.00    -0.203 F 
ATOM     92  C   UNL A   1      46.978  27.208  35.957  1.00  0.00     0.198 A 
ATOM     93  C   UNL A   1      45.554  25.344  36.470  1.00  0.00     0.198 A 
ATOM     94  F   UNL A   1      43.513  25.076  35.334  1.00  0.00    -0.203 F 
ATOM     95  F   UNL A   1      48.119  27.884  36.151  1.00  0.00    -0.200 F 
ATOM     96  C   UNL A   1      46.723  26.056  36.687  1.00  0.00     0.200 A 
ATOM     97  F   UNL A   1      45.296  24.242  37.188  1.00  0.00    -0.200 F 
ATOM     98  F   UNL A   1      47.606  25.632  37.603  1.00  0.00    -0.200 F 
ENDBRANCH  65  88
ENDBRANCH  39  40
ENDBRANCH  32  34
ENDBRANCH  31  32
ENDBRANCH  30  31
ENDBRANCH  29  30
ENDBRANCH  28  29
ENDBRANCH  27  28
ENDBRANCH  26  27
ENDBRANCH  25  26
ENDBRANCH   1  25
TORSDOF 25
ENDMDL
MODEL 2
REMARK VINA RESULT:      -9.7      3.179      8.476
REMARK SMILES CSCC[C@@H](NC(=O)[C@@H]1CC(=O)N(C)C1)C(=O)OCCOCCOCCOCCOC(=O)c1ccc(-c2c3nc(c(-c4c(F)c(F)c(F)c(F)c4F)c4ccc([nH]4)c(-c4c(F)c(F)c(F)c(F)c4F)c4nc(c(-c5c(F)c(F)c(F)c(F)c5F)c5ccc2[nH]5)C=C4)C=C3)cc1
REMARK SMILES IDX 23 1 22 2 21 3 20 4 19 5 18 6 16 7 17 8 5 9 4 10 3 11 2 12
REMARK SMILES IDX 1 13 6 14 7 15 8 17 9 18 10 19 15 20 11 21 13 22 12 23 14 24
REMARK SMILES IDX 24 25 25 26 26 27 27 28 28 29 29 30 30 31 31 32 32 33 33 34
REMARK SMILES IDX 34 35 95 36 35 37 94 38 36 39 37 40 38 41 88 42 39 43 93 44
REMARK SMILES IDX 87 45 89 46 40 47 92 48 86 49 85 50 41 52 73 53 53 54 72 55
REMARK SMILES IDX 54 56 57 57 71 58 90 59 55 60 56 61 70 63 91 64 58 65 42 66
REMARK SMILES IDX 43 67 51 68 44 69 45 70 49 71 52 72 46 73 47 74 50 75 48 76
REMARK SMILES IDX 74 77 75 78 83 79 76 80 77 81 81 82 84 83 78 84 79 85 82 86
REMARK SMILES IDX 80 87 59 88 60 89 68 90 61 91 62 92 66 93 69 94 63 95 64 96
REMARK SMILES IDX 67 97 65 98
REMARK H PARENT 6 16 89 51 57 62
REMARK Flexibility Score: inf
ROOT
ATOM      1  C   UNL A   1      40.886  19.970  26.112  1.00  0.00     0.188 C 
ENDROOT
BRANCH   1   2
ATOM      2  C   UNL A   1      40.219  21.343  26.304  1.00  0.00     0.188 C 
BRANCH   2   3
ATOM      3  O   UNL A   1      38.801  21.432  26.309  1.00  0.00    -0.376 OA
BRANCH   3   4
ATOM      4  C   UNL A   1      38.188  22.610  25.796  1.00  0.00     0.202 C 
BRANCH   4   5
ATOM      5  C   UNL A   1      36.855  22.487  25.056  1.00  0.00     0.261 C 
BRANCH   5   6
ATOM      6  O   UNL A   1      35.951  23.606  25.242  1.00  0.00    -0.462 OA
BRANCH   6   7
ATOM      7  C   UNL A   1      34.735  23.328  25.773  1.00  0.00     0.328 C 
ATOM      8  O   UNL A   1      34.550  22.467  26.629  1.00  0.00    -0.250 OA
BRANCH   7   9
ATOM      9  C   UNL A   1      33.549  24.012  25.042  1.00  0.00     0.193 C 
BRANCH   9  10
ATOM     10  C   UNL A   1      32.524  24.873  25.798  1.00  0.00     0.048 C 
BRANCH  10  11
ATOM     11  C   UNL A   1      31.071  24.388  25.713  1.00  0.00     0.072 C 
BRANCH  11  12
ATOM     12  S   UNL A   1      30.840  22.620  26.102  1.00  0.00    -0.165 SA
ATOM     13  C   UNL A   1      29.480  22.709  27.287  1.00  0.00     0.085 C 
ENDBRANCH  11  12
ENDBRANCH  10  11
ENDBRANCH   9  10
BRANCH   9  14
ATOM     14  N   UNL A   1      33.981  24.578  23.750  1.00  0.00    -0.342 N 
ATOM     15  C   UNL A   1      33.493  25.615  22.999  1.00  0.00     0.226 C 
ATOM     16  H   UNL A   1      34.763  24.129  23.354  1.00  0.00     0.164 HD
ATOM     17  O   UNL A   1      34.066  25.889  21.946  1.00  0.00    -0.275 OA
BRANCH  15  18
ATOM     18  C   UNL A   1      32.313  26.417  23.502  1.00  0.00     0.107 C 
ATOM     19  C   UNL A   1      31.263  26.639  22.420  1.00  0.00     0.115 C 
ATOM     20  C   UNL A   1      32.614  27.816  24.020  1.00  0.00     0.133 C 
ATOM     21  C   UNL A   1      30.664  27.975  22.714  1.00  0.00     0.223 C 
ATOM     22  N   UNL A   1      31.398  28.545  23.729  1.00  0.00    -0.345 N 
ATOM     23  O   UNL A   1      29.679  28.438  22.162  1.00  0.00    -0.275 OA
ATOM     24  C   UNL A   1      31.013  29.762  24.394  1.00  0.00     0.146 C 
ENDBRANCH  15  18
ENDBRANCH   9  14
ENDBRANCH   7   9
ENDBRANCH   6   7
ENDBRANCH   5   6
ENDBRANCH   4   5
ENDBRANCH   3   4
ENDBRANCH   2   3
ENDBRANCH   1   2
BRANCH   1  25
ATOM     25  O   UNL A   1      42.097  19.988  25.376  1.00  0.00    -0.377 OA
BRANCH  25  26
ATOM     26  C   UNL A   1      43.165  19.162  25.849  1.00  0.00     0.188 C 
BRANCH  26  27
ATOM     27  C   UNL A   1      44.342  18.869  24.896  1.00  0.00     0.188 C 
BRANCH  27  28
ATOM     28  O   UNL A   1      45.101  20.019  24.551  1.00  0.00    -0.376 OA
BRANCH  28  29
ATOM     29  C   UNL A   1      45.650  20.816  25.592  1.00  0.00     0.202 C 
BRANCH  29  30
ATOM     30  C   UNL A   1      45.552  22.343  25.447  1.00  0.00     0.261 C 
BRANCH  30  31
ATOM     31  O   UNL A   1      44.434  22.977  26.088  1.00  0.00    -0.460 OA
BRANCH  31  32
ATOM     32  C   UNL A   1      43.419  23.435  25.329  1.00  0.00     0.338 C 
ATOM     33  O   UNL A   1      43.008  22.984  24.275  1.00  0.00    -0.246 OA
BRANCH  32  34
ATOM     34  C   UNL A   1      42.770  24.519  26.081  1.00  0.00     0.060 A 
ATOM     35  C   UNL A   1      43.050  25.855  25.761  1.00  0.00     0.016 A 
ATOM     36  C   UNL A   1      41.912  24.197  27.134  1.00  0.00     0.016 A 
ATOM     37  C   UNL A   1      42.508  26.881  26.535  1.00  0.00     0.010 A 
ATOM     38  C   UNL A   1      41.387  25.221  27.918  1.00  0.00     0.010 A 
ATOM     39  C   UNL A   1      41.721  26.561  27.649  1.00  0.00    -0.014 A 
BRANCH  39  40
ATOM     40  C   UNL A   1      41.445  27.567  28.698  1.00  0.00     0.031 A 
ATOM     41  C   UNL A   1      42.286  27.512  29.944  1.00  0.00     0.074 A 
ATOM     42  C   UNL A   1      40.441  28.450  28.583  1.00  0.00     0.049 A 
ATOM     43  N   UNL A   1      42.116  28.111  31.093  1.00  0.00    -0.248 NA
ATOM     44  C   UNL A   1      43.471  26.640  29.887  1.00  0.00     0.031 C 
ATOM     45  C   UNL A   1      39.596  28.624  27.407  1.00  0.00     0.029 A 
ATOM     46  N   UNL A   1      39.943  29.344  29.498  1.00  0.00    -0.354 N 
ATOM     47  C   UNL A   1      43.153  27.664  31.902  1.00  0.00     0.074 A 
ATOM     48  C   UNL A   1      43.939  26.736  31.121  1.00  0.00     0.031 C 
ATOM     49  C   UNL A   1      38.659  29.549  27.681  1.00  0.00     0.029 A 
ATOM     50  C   UNL A   1      38.810  29.987  29.069  1.00  0.00     0.049 A 
ATOM     51  H   UNL A   1      40.358  29.506  30.376  1.00  0.00     0.167 HD
ATOM     52  C   UNL A   1      43.420  27.999  33.185  1.00  0.00     0.037 A 
ATOM     53  C   UNL A   1      37.969  30.797  29.743  1.00  0.00     0.037 A 
ATOM     54  C   UNL A   1      42.627  28.921  33.951  1.00  0.00     0.049 A 
ATOM     55  C   UNL A   1      38.241  31.097  31.198  1.00  0.00     0.074 A 
ATOM     56  C   UNL A   1      42.811  29.341  35.256  1.00  0.00     0.029 A 
ATOM     57  N   UNL A   1      41.490  29.560  33.477  1.00  0.00    -0.354 N 
ATOM     58  N   UNL A   1      39.224  30.684  31.961  1.00  0.00    -0.248 NA
ATOM     59  C   UNL A   1      37.280  31.970  31.889  1.00  0.00     0.031 C 
ATOM     60  C   UNL A   1      41.754  30.192  35.590  1.00  0.00     0.029 A 
ATOM     61  C   UNL A   1      40.950  30.355  34.473  1.00  0.00     0.049 A 
ATOM     62  H   UNL A   1      41.123  29.462  32.570  1.00  0.00     0.167 HD
ATOM     63  C   UNL A   1      39.025  31.277  33.202  1.00  0.00     0.074 A 
ATOM     64  C   UNL A   1      37.824  32.077  33.094  1.00  0.00     0.031 C 
ATOM     65  C   UNL A   1      39.773  31.174  34.329  1.00  0.00     0.037 A 
BRANCH  52  66
ATOM     66  C   UNL A   1      44.590  27.336  33.849  1.00  0.00     0.064 A 
ATOM     67  C   UNL A   1      44.492  26.058  34.417  1.00  0.00     0.173 A 
ATOM     68  C   UNL A   1      45.837  27.981  33.895  1.00  0.00     0.173 A 
ATOM     69  F   UNL A   1      43.320  25.405  34.415  1.00  0.00    -0.203 F 
ATOM     70  C   UNL A   1      45.591  25.460  35.029  1.00  0.00     0.198 A 
ATOM     71  C   UNL A   1      46.941  27.367  34.479  1.00  0.00     0.198 A 
ATOM     72  F   UNL A   1      45.986  29.204  33.366  1.00  0.00    -0.203 F 
ATOM     73  F   UNL A   1      45.461  24.259  35.610  1.00  0.00    -0.200 F 
ATOM     74  C   UNL A   1      46.815  26.111  35.053  1.00  0.00     0.200 A 
ATOM     75  F   UNL A   1      48.126  27.991  34.489  1.00  0.00    -0.200 F 
ATOM     76  F   UNL A   1      47.873  25.530  35.635  1.00  0.00    -0.200 F 
ENDBRANCH  52  66
BRANCH  53  77
ATOM     77  C   UNL A   1      36.774  31.362  29.063  1.00  0.00     0.064 A 
ATOM     78  C   UNL A   1      36.724  32.716  28.703  1.00  0.00     0.173 A 
ATOM     79  C   UNL A   1      35.651  30.571  28.776  1.00  0.00     0.173 A 
ATOM     80  F   UNL A   1      37.761  33.521  28.981  1.00  0.00    -0.203 F 
ATOM     81  C   UNL A   1      35.593  33.262  28.100  1.00  0.00     0.198 A 
ATOM     82  C   UNL A   1      34.531  31.111  28.145  1.00  0.00     0.198 A 
ATOM     83  F   UNL A   1      35.642  29.271  29.106  1.00  0.00    -0.203 F 
ATOM     84  F   UNL A   1      35.554  34.570  27.814  1.00  0.00    -0.200 F 
ATOM     85  C   UNL A   1      34.500  32.457  27.816  1.00  0.00     0.200 A 
ATOM     86  F   UNL A   1      33.481  30.328  27.862  1.00  0.00    -0.200 F 
ATOM     87  F   UNL A   1      33.412  32.982  27.234  1.00  0.00    -0.200 F 
ENDBRANCH  53  77
BRANCH  65  88
ATOM     88  C   UNL A   1      39.373  31.999  35.517  1.00  0.00     0.064 A 
ATOM     89  C   UNL A   1      39.740  33.345  35.644  1.00  0.00     0.173 A 
ATOM     90  C   UNL A   1      38.518  31.455  36.490  1.00  0.00     0.173 A 
ATOM     91  F   UNL A   1      40.564  33.909  34.747  1.00  0.00    -0.203 F 
ATOM     92  C   UNL A   1      39.272  34.116  36.705  1.00  0.00     0.198 A 
ATOM     93  C   UNL A   1      38.029  32.235  37.532  1.00  0.00     0.198 A 
ATOM     94  F   UNL A   1      38.130  30.172  36.407  1.00  0.00    -0.203 F 
ATOM     95  F   UNL A   1      39.655  35.394  36.823  1.00  0.00    -0.200 F 
ATOM     96  C   UNL A   1      38.407  33.564  37.640  1.00  0.00     0.200 A 
ATOM     97  F   UNL A   1      37.178  31.705  38.422  1.00  0.00    -0.200 F 
ATOM     98  F   UNL A   1      37.937  34.315  38.646  1.00  0.00    -0.200 F 
ENDBRANCH  65  88
ENDBRANCH  39  40
ENDBRANCH  32  34
ENDBRANCH  31  32
ENDBRANCH  30  31
ENDBRANCH  29  30
ENDBRANCH  28  29
ENDBRANCH  27  28
ENDBRANCH  26  27
ENDBRANCH  25  26
ENDBRANCH   1  25
TORSDOF 25
ENDMDL
MODEL 3
REMARK VINA RESULT:      -9.2      1.445      2.022
REMARK SMILES CSCC[C@@H](NC(=O)[C@@H]1CC(=O)N(C)C1)C(=O)OCCOCCOCCOCCOC(=O)c1ccc(-c2c3nc(c(-c4c(F)c(F)c(F)c(F)c4F)c4ccc([nH]4)c(-c4c(F)c(F)c(F)c(F)c4F)c4nc(c(-c5c(F)c(F)c(F)c(F)c5F)c5ccc2[nH]5)C=C4)C=C3)cc1
REMARK SMILES IDX 23 1 22 2 21 3 20 4 19 5 18 6 16 7 17 8 5 9 4 10 3 11 2 12
REMARK SMILES IDX 1 13 6 14 7 15 8 17 9 18 10 19 15 20 11 21 13 22 12 23 14 24
REMARK SMILES IDX 24 25 25 26 26 27 27 28 28 29 29 30 30 31 31 32 32 33 33 34
REMARK SMILES IDX 34 35 95 36 35 37 94 38 36 39 37 40 38 41 88 42 39 43 93 44
REMARK SMILES IDX 87 45 89 46 40 47 92 48 86 49 85 50 41 52 73 53 53 54 72 55
REMARK SMILES IDX 54 56 57 57 71 58 90 59 55 60 56 61 70 63 91 64 58 65 42 66
REMARK SMILES IDX 43 67 51 68 44 69 45 70 49 71 52 72 46 73 47 74 50 75 48 76
REMARK SMILES IDX 74 77 75 78 83 79 76 80 77 81 81 82 84 83 78 84 79 85 82 86
REMARK SMILES IDX 80 87 59 88 60 89 68 90 61 91 62 92 66 93 69 94 63 95 64 96
REMARK SMILES IDX 67 97 65 98
REMARK H PARENT 6 16 89 51 57 62
REMARK Flexibility Score: inf
ROOT
ATOM      1  C   UNL A   1      32.536  25.750  21.591  1.00  0.00     0.188 C 
ENDROOT
BRANCH   1   2
ATOM      2  C   UNL A   1      33.028  24.682  22.583  1.00  0.00     0.188 C 
BRANCH   2   3
ATOM      3  O   UNL A   1      34.424  24.521  22.795  1.00  0.00    -0.376 OA
BRANCH   3   4
ATOM      4  C   UNL A   1      34.937  23.210  23.002  1.00  0.00     0.202 C 
BRANCH   4   5
ATOM      5  C   UNL A   1      36.193  23.034  23.858  1.00  0.00     0.261 C 
BRANCH   5   6
ATOM      6  O   UNL A   1      35.963  22.428  25.156  1.00  0.00    -0.462 OA
BRANCH   6   7
ATOM      7  C   UNL A   1      35.770  21.085  25.177  1.00  0.00     0.328 C 
ATOM      8  O   UNL A   1      36.629  20.272  24.851  1.00  0.00    -0.250 OA
BRANCH   7   9
ATOM      9  C   UNL A   1      34.296  20.658  25.412  1.00  0.00     0.193 C 
BRANCH   9  10
ATOM     10  C   UNL A   1      33.763  19.300  24.929  1.00  0.00     0.048 C 
BRANCH  10  11
ATOM     11  C   UNL A   1      32.639  19.369  23.887  1.00  0.00     0.072 C 
BRANCH  11  12
ATOM     12  S   UNL A   1      32.154  21.062  23.410  1.00  0.00    -0.165 SA
ATOM     13  C   UNL A   1      31.776  20.826  21.660  1.00  0.00     0.085 C 
ENDBRANCH  11  12
ENDBRANCH  10  11
ENDBRANCH   9  10
BRANCH   9  14
ATOM     14  N   UNL A   1      33.844  21.042  26.763  1.00  0.00    -0.342 N 
ATOM     15  C   UNL A   1      33.169  22.144  27.221  1.00  0.00     0.226 C 
ATOM     16  H   UNL A   1      34.069  20.388  27.465  1.00  0.00     0.164 HD
ATOM     17  O   UNL A   1      32.903  22.202  28.420  1.00  0.00    -0.275 OA
BRANCH  15  18
ATOM     18  C   UNL A   1      32.731  23.215  26.248  1.00  0.00     0.107 C 
ATOM     19  C   UNL A   1      33.608  24.459  26.326  1.00  0.00     0.115 C 
ATOM     20  C   UNL A   1      31.315  23.747  26.415  1.00  0.00     0.133 C 
ATOM     21  C   UNL A   1      32.702  25.605  26.017  1.00  0.00     0.223 C 
ATOM     22  N   UNL A   1      31.418  25.113  25.948  1.00  0.00    -0.345 N 
ATOM     23  O   UNL A   1      33.065  26.754  25.829  1.00  0.00    -0.275 OA
ATOM     24  C   UNL A   1      30.295  25.895  25.503  1.00  0.00     0.146 C 
ENDBRANCH  15  18
ENDBRANCH   9  14
ENDBRANCH   7   9
ENDBRANCH   6   7
ENDBRANCH   5   6
ENDBRANCH   4   5
ENDBRANCH   3   4
ENDBRANCH   2   3
ENDBRANCH   1   2
BRANCH   1  25
ATOM     25  O   UNL A   1      31.662  26.722  22.139  1.00  0.00    -0.377 OA
BRANCH  25  26
ATOM     26  C   UNL A   1      32.257  27.868  22.752  1.00  0.00     0.188 C 
BRANCH  26  27
ATOM     27  C   UNL A   1      31.329  28.962  23.318  1.00  0.00     0.188 C 
BRANCH  27  28
ATOM     28  O   UNL A   1      31.299  29.012  24.738  1.00  0.00    -0.376 OA
BRANCH  28  29
ATOM     29  C   UNL A   1      31.745  30.191  25.392  1.00  0.00     0.202 C 
BRANCH  29  30
ATOM     30  C   UNL A   1      32.336  30.043  26.803  1.00  0.00     0.261 C 
BRANCH  30  31
ATOM     31  O   UNL A   1      33.765  29.932  26.892  1.00  0.00    -0.460 OA
BRANCH  31  32
ATOM     32  C   UNL A   1      34.455  30.885  27.547  1.00  0.00     0.338 C 
ATOM     33  O   UNL A   1      34.103  32.021  27.808  1.00  0.00    -0.246 OA
BRANCH  32  34
ATOM     34  C   UNL A   1      35.690  30.261  28.046  1.00  0.00     0.060 A 
ATOM     35  C   UNL A   1      35.712  29.680  29.322  1.00  0.00     0.016 A 
ATOM     36  C   UNL A   1      36.837  30.293  27.252  1.00  0.00     0.016 A 
ATOM     37  C   UNL A   1      36.907  29.174  29.832  1.00  0.00     0.010 A 
ATOM     38  C   UNL A   1      38.034  29.805  27.769  1.00  0.00     0.010 A 
ATOM     39  C   UNL A   1      38.082  29.287  29.076  1.00  0.00    -0.014 A 
BRANCH  39  40
ATOM     40  C   UNL A   1      39.409  29.119  29.706  1.00  0.00     0.031 A 
ATOM     41  C   UNL A   1      40.278  28.003  29.196  1.00  0.00     0.074 A 
ATOM     42  C   UNL A   1      39.802  29.880  30.740  1.00  0.00     0.049 A 
ATOM     43  N   UNL A   1      41.369  27.494  29.706  1.00  0.00    -0.248 NA
ATOM     44  C   UNL A   1      39.837  27.359  27.948  1.00  0.00     0.031 C 
ATOM     45  C   UNL A   1      39.065  31.016  31.284  1.00  0.00     0.029 A 
ATOM     46  N   UNL A   1      40.913  29.777  31.539  1.00  0.00    -0.354 N 
ATOM     47  C   UNL A   1      41.725  26.453  28.857  1.00  0.00     0.074 A 
ATOM     48  C   UNL A   1      40.731  26.393  27.809  1.00  0.00     0.031 C 
ATOM     49  C   UNL A   1      39.731  31.490  32.353  1.00  0.00     0.029 A 
ATOM     50  C   UNL A   1      40.907  30.655  32.594  1.00  0.00     0.049 A 
ATOM     51  H   UNL A   1      41.642  29.137  31.372  1.00  0.00     0.167 HD
ATOM     52  C   UNL A   1      42.788  25.621  28.950  1.00  0.00     0.037 A 
ATOM     53  C   UNL A   1      41.733  30.733  33.656  1.00  0.00     0.037 A 
ATOM     54  C   UNL A   1      43.766  25.691  30.001  1.00  0.00     0.049 A 
ATOM     55  C   UNL A   1      42.869  29.745  33.783  1.00  0.00     0.074 A 
ATOM     56  C   UNL A   1      44.888  24.904  30.188  1.00  0.00     0.029 A 
ATOM     57  N   UNL A   1      43.730  26.600  31.048  1.00  0.00    -0.354 N 
ATOM     58  N   UNL A   1      43.212  28.768  32.979  1.00  0.00    -0.248 NA
ATOM     59  C   UNL A   1      43.726  29.865  34.971  1.00  0.00     0.031 C 
ATOM     60  C   UNL A   1      45.502  25.302  31.379  1.00  0.00     0.029 A 
ATOM     61  C   UNL A   1      44.800  26.380  31.897  1.00  0.00     0.049 A 
ATOM     62  H   UNL A   1      43.046  27.297  31.169  1.00  0.00     0.167 HD
ATOM     63  C   UNL A   1      44.344  28.187  33.538  1.00  0.00     0.074 A 
ATOM     64  C   UNL A   1      44.629  28.919  34.754  1.00  0.00     0.031 C 
ATOM     65  C   UNL A   1      45.085  27.146  33.083  1.00  0.00     0.037 A 
BRANCH  52  66
ATOM     66  C   UNL A   1      42.921  24.544  27.915  1.00  0.00     0.064 A 
ATOM     67  C   UNL A   1      43.509  24.789  26.665  1.00  0.00     0.173 A 
ATOM     68  C   UNL A   1      42.476  23.241  28.187  1.00  0.00     0.173 A 
ATOM     69  F   UNL A   1      43.935  26.021  26.347  1.00  0.00    -0.203 F 
ATOM     70  C   UNL A   1      43.623  23.775  25.717  1.00  0.00     0.198 A 
ATOM     71  C   UNL A   1      42.621  22.223  27.250  1.00  0.00     0.198 A 
ATOM     72  F   UNL A   1      41.908  22.953  29.367  1.00  0.00    -0.203 F 
ATOM     73  F   UNL A   1      44.142  24.043  24.510  1.00  0.00    -0.200 F 
ATOM     74  C   UNL A   1      43.186  22.493  26.012  1.00  0.00     0.200 A 
ATOM     75  F   UNL A   1      42.211  20.981  27.542  1.00  0.00    -0.200 F 
ATOM     76  F   UNL A   1      43.304  21.516  25.102  1.00  0.00    -0.200 F 
ENDBRANCH  52  66
BRANCH  53  77
ATOM     77  C   UNL A   1      41.508  31.766  34.701  1.00  0.00     0.064 A 
ATOM     78  C   UNL A   1      40.583  31.554  35.734  1.00  0.00     0.173 A 
ATOM     79  C   UNL A   1      42.192  32.991  34.683  1.00  0.00     0.173 A 
ATOM     80  F   UNL A   1      39.882  30.411  35.781  1.00  0.00    -0.203 F 
ATOM     81  C   UNL A   1      40.338  32.533  36.695  1.00  0.00     0.198 A 
ATOM     82  C   UNL A   1      41.969  33.956  35.662  1.00  0.00     0.198 A 
ATOM     83  F   UNL A   1      43.082  33.248  33.713  1.00  0.00    -0.203 F 
ATOM     84  F   UNL A   1      39.412  32.323  37.640  1.00  0.00    -0.200 F 
ATOM     85  C   UNL A   1      41.036  33.730  36.662  1.00  0.00     0.200 A 
ATOM     86  F   UNL A   1      42.653  35.108  35.633  1.00  0.00    -0.200 F 
ATOM     87  F   UNL A   1      40.802  34.670  37.588  1.00  0.00    -0.200 F 
ENDBRANCH  53  77
BRANCH  65  88
ATOM     88  C   UNL A   1      46.322  26.775  33.848  1.00  0.00     0.064 A 
ATOM     89  C   UNL A   1      47.559  27.387  33.602  1.00  0.00     0.173 A 
ATOM     90  C   UNL A   1      46.237  25.867  34.916  1.00  0.00     0.173 A 
ATOM     91  F   UNL A   1      47.694  28.254  32.587  1.00  0.00    -0.203 F 
ATOM     92  C   UNL A   1      48.668  27.098  34.393  1.00  0.00     0.198 A 
ATOM     93  C   UNL A   1      47.339  25.603  35.722  1.00  0.00     0.198 A 
ATOM     94  F   UNL A   1      45.072  25.263  35.198  1.00  0.00    -0.203 F 
ATOM     95  F   UNL A   1      49.848  27.674  34.126  1.00  0.00    -0.200 F 
ATOM     96  C   UNL A   1      48.554  26.217  35.460  1.00  0.00     0.200 A 
ATOM     97  F   UNL A   1      47.222  24.767  36.763  1.00  0.00    -0.200 F 
ATOM     98  F   UNL A   1      49.617  25.960  36.235  1.00  0.00    -0.200 F 
ENDBRANCH  65  88
ENDBRANCH  39  40
ENDBRANCH  32  34
ENDBRANCH  31  32
ENDBRANCH  30  31
ENDBRANCH  29  30
ENDBRANCH  28  29
ENDBRANCH  27  28
ENDBRANCH  26  27
ENDBRANCH  25  26
ENDBRANCH   1  25
TORSDOF 25
ENDMDL
