MODEL 1
REMARK VINA RESULT:      -8.3      0.000      0.000
REMARK SMILES C=CCOc1ccccc1/C=C/c1cc(C(=O)OCCOCCOCCOCCOC(=O)c2ccc(-c3c4nc(c(-c5c(F)c(F)c(F)c(F)c5F)c5ccc([nH]5)c(-c5c(F)c(F)c(F)c(F)c5F)c5nc(c(-c6c(F)c(F)c(F)c(F)c6F)c6ccc3[nH]6)C=C5)C=C4)cc2)ncn1
REMARK SMILES IDX 22 1 21 2 20 3 19 4 18 5 16 6 17 7 15 8 13 9 14 10 98 11
REMARK SMILES IDX 97 12 96 13 12 14 11 15 10 16 5 17 6 18 7 19 9 20 8 21 4 22
REMARK SMILES IDX 3 23 2 24 1 25 23 26 24 27 25 28 26 29 27 30 28 31 29 32
REMARK SMILES IDX 30 33 31 34 32 35 33 36 34 37 95 38 35 39 94 40 36 41 37 42
REMARK SMILES IDX 38 43 88 44 39 45 93 46 87 47 89 48 40 49 92 50 86 51 85 52
REMARK SMILES IDX 41 54 73 55 53 56 72 57 54 58 57 59 71 60 90 61 55 62 56 63
REMARK SMILES IDX 70 65 91 66 58 67 42 68 43 69 51 70 44 71 45 72 49 73 52 74
REMARK SMILES IDX 46 75 47 76 50 77 48 78 74 79 75 80 83 81 76 82 77 83 81 84
REMARK SMILES IDX 84 85 78 86 79 87 82 88 80 89 59 90 60 91 68 92 61 93 62 94
REMARK SMILES IDX 66 95 69 96 63 97 64 98 67 99 65 100
REMARK H PARENT 89 53 57 64
REMARK Flexibility Score: inf
ROOT
ATOM      1  C   UNL A   1      45.679  42.984  23.052  1.00  0.00     0.188 C 
ENDROOT
BRANCH   1   2
ATOM      2  O   UNL A   1      44.385  42.498  22.756  1.00  0.00    -0.376 OA
BRANCH   2   3
ATOM      3  C   UNL A   1      43.214  43.286  22.885  1.00  0.00     0.202 C 
BRANCH   3   4
ATOM      4  C   UNL A   1      41.935  43.197  22.028  1.00  0.00     0.261 C 
BRANCH   4   5
ATOM      5  O   UNL A   1      42.054  42.670  20.711  1.00  0.00    -0.459 OA
BRANCH   5   6
ATOM      6  C   UNL A   1      41.613  43.441  19.691  1.00  0.00     0.357 C 
ATOM      7  O   UNL A   1      40.451  43.619  19.374  1.00  0.00    -0.244 OA
BRANCH   6   8
ATOM      8  C   UNL A   1      42.798  44.152  19.121  1.00  0.00     0.152 A 
ATOM      9  C   UNL A   1      43.774  45.973  18.027  1.00  0.00     0.067 A 
ATOM     10  C   UNL A   1      42.624  45.316  18.404  1.00  0.00     0.064 A 
ATOM     11  N   UNL A   1      44.995  45.431  18.205  1.00  0.00    -0.237 NA
ATOM     12  C   UNL A   1      45.044  44.251  18.839  1.00  0.00     0.223 A 
ATOM     13  N   UNL A   1      44.002  43.586  19.345  1.00  0.00    -0.229 NA
BRANCH   9  14
ATOM     14  C   UNL A   1      43.781  47.407  17.682  1.00  0.00     0.029 C 
ATOM     15  C   UNL A   1      44.555  48.305  18.316  1.00  0.00     0.014 C 
BRANCH  15  16
ATOM     16  C   UNL A   1      45.015  49.584  17.760  1.00  0.00     0.017 A 
ATOM     17  C   UNL A   1      46.099  50.238  18.386  1.00  0.00     0.126 A 
ATOM     18  C   UNL A   1      46.556  51.473  17.926  1.00  0.00     0.047 A 
ATOM     19  C   UNL A   1      45.958  52.056  16.811  1.00  0.00     0.004 A 
ATOM     20  C   UNL A   1      44.431  50.179  16.637  1.00  0.00     0.012 A 
ATOM     21  C   UNL A   1      44.903  51.409  16.165  1.00  0.00     0.001 A 
BRANCH  17  22
ATOM     22  O   UNL A   1      46.670  49.707  19.522  1.00  0.00    -0.489 OA
BRANCH  22  23
ATOM     23  C   UNL A   1      48.092  49.562  19.400  1.00  0.00     0.257 C 
BRANCH  23  24
ATOM     24  C   UNL A   1      48.615  48.762  20.560  1.00  0.00     0.006 C 
ATOM     25  C   UNL A   1      49.468  49.233  21.481  1.00  0.00     0.007 C 
ENDBRANCH  23  24
ENDBRANCH  22  23
ENDBRANCH  17  22
ENDBRANCH  15  16
ENDBRANCH   9  14
ENDBRANCH   6   8
ENDBRANCH   5   6
ENDBRANCH   4   5
ENDBRANCH   3   4
ENDBRANCH   2   3
ENDBRANCH   1   2
BRANCH   1  26
ATOM     26  C   UNL A   1      46.796  41.922  23.011  1.00  0.00     0.188 C 
BRANCH  26  27
ATOM     27  O   UNL A   1      46.388  40.650  23.488  1.00  0.00    -0.377 OA
BRANCH  27  28
ATOM     28  C   UNL A   1      46.980  40.171  24.696  1.00  0.00     0.188 C 
BRANCH  28  29
ATOM     29  C   UNL A   1      46.248  40.265  26.057  1.00  0.00     0.188 C 
BRANCH  29  30
ATOM     30  O   UNL A   1      45.526  41.470  26.266  1.00  0.00    -0.376 OA
BRANCH  30  31
ATOM     31  C   UNL A   1      44.195  41.398  26.750  1.00  0.00     0.202 C 
BRANCH  31  32
ATOM     32  C   UNL A   1      43.094  41.117  25.717  1.00  0.00     0.261 C 
BRANCH  32  33
ATOM     33  O   UNL A   1      42.100  40.159  26.110  1.00  0.00    -0.460 OA
BRANCH  33  34
ATOM     34  C   UNL A   1      41.905  39.982  27.436  1.00  0.00     0.338 C 
ATOM     35  O   UNL A   1      41.305  40.711  28.197  1.00  0.00    -0.246 OA
BRANCH  34  36
ATOM     36  C   UNL A   1      42.396  38.631  27.780  1.00  0.00     0.060 A 
ATOM     37  C   UNL A   1      42.182  37.582  26.877  1.00  0.00     0.016 A 
ATOM     38  C   UNL A   1      43.064  38.403  28.986  1.00  0.00     0.016 A 
ATOM     39  C   UNL A   1      42.602  36.291  27.194  1.00  0.00     0.010 A 
ATOM     40  C   UNL A   1      43.467  37.106  29.311  1.00  0.00     0.010 A 
ATOM     41  C   UNL A   1      43.207  36.038  28.433  1.00  0.00    -0.014 A 
BRANCH  41  42
ATOM     42  C   UNL A   1      43.400  34.639  28.885  1.00  0.00     0.031 A 
ATOM     43  C   UNL A   1      42.243  33.928  29.531  1.00  0.00     0.074 A 
ATOM     44  C   UNL A   1      44.572  34.004  28.714  1.00  0.00     0.049 A 
ATOM     45  N   UNL A   1      42.184  32.728  30.048  1.00  0.00    -0.248 NA
ATOM     46  C   UNL A   1      40.979  34.679  29.608  1.00  0.00     0.031 C 
ATOM     47  C   UNL A   1      45.754  34.572  28.072  1.00  0.00     0.029 A 
ATOM     48  N   UNL A   1      44.960  32.739  29.081  1.00  0.00    -0.354 N 
ATOM     49  C   UNL A   1      40.886  32.584  30.519  1.00  0.00     0.074 A 
ATOM     50  C   UNL A   1      40.198  33.829  30.257  1.00  0.00     0.031 C 
ATOM     51  C   UNL A   1      46.745  33.663  28.104  1.00  0.00     0.029 A 
ATOM     52  C   UNL A   1      46.275  32.465  28.799  1.00  0.00     0.049 A 
ATOM     53  H   UNL A   1      44.353  32.090  29.505  1.00  0.00     0.167 HD
ATOM     54  C   UNL A   1      40.317  31.508  31.113  1.00  0.00     0.037 A 
ATOM     55  C   UNL A   1      47.021  31.382  29.096  1.00  0.00     0.037 A 
ATOM     56  C   UNL A   1      41.006  30.271  31.374  1.00  0.00     0.049 A 
ATOM     57  C   UNL A   1      46.384  30.221  29.821  1.00  0.00     0.074 A 
ATOM     58  C   UNL A   1      40.509  29.111  31.941  1.00  0.00     0.029 A 
ATOM     59  N   UNL A   1      42.346  30.041  31.099  1.00  0.00    -0.354 N 
ATOM     60  N   UNL A   1      45.147  30.076  30.230  1.00  0.00    -0.248 NA
ATOM     61  C   UNL A   1      47.249  29.071  30.119  1.00  0.00     0.031 C 
ATOM     62  C   UNL A   1      41.565  28.204  32.074  1.00  0.00     0.029 A 
ATOM     63  C   UNL A   1      42.704  28.769  31.520  1.00  0.00     0.049 A 
ATOM     64  H   UNL A   1      42.954  30.684  30.668  1.00  0.00     0.167 HD
ATOM     65  C   UNL A   1      45.077  28.813  30.805  1.00  0.00     0.074 A 
ATOM     66  C   UNL A   1      46.394  28.225  30.678  1.00  0.00     0.031 C 
ATOM     67  C   UNL A   1      44.019  28.194  31.385  1.00  0.00     0.037 A 
BRANCH  54  68
ATOM     68  C   UNL A   1      38.887  31.635  31.558  1.00  0.00     0.064 A 
ATOM     69  C   UNL A   1      37.813  31.407  30.685  1.00  0.00     0.173 A 
ATOM     70  C   UNL A   1      38.590  31.964  32.889  1.00  0.00     0.173 A 
ATOM     71  F   UNL A   1      38.041  31.102  29.398  1.00  0.00    -0.203 F 
ATOM     72  C   UNL A   1      36.496  31.536  31.120  1.00  0.00     0.198 A 
ATOM     73  C   UNL A   1      37.273  32.058  33.330  1.00  0.00     0.198 A 
ATOM     74  F   UNL A   1      39.579  32.190  33.768  1.00  0.00    -0.203 F 
ATOM     75  F   UNL A   1      35.487  31.369  30.254  1.00  0.00    -0.200 F 
ATOM     76  C   UNL A   1      36.227  31.853  32.443  1.00  0.00     0.200 A 
ATOM     77  F   UNL A   1      37.016  32.349  34.612  1.00  0.00    -0.200 F 
ATOM     78  F   UNL A   1      34.959  31.969  32.862  1.00  0.00    -0.200 F 
ENDBRANCH  54  68
BRANCH  55  79
ATOM     79  C   UNL A   1      48.461  31.349  28.728  1.00  0.00     0.064 A 
ATOM     80  C   UNL A   1      48.899  30.716  27.557  1.00  0.00     0.173 A 
ATOM     81  C   UNL A   1      49.434  31.938  29.551  1.00  0.00     0.173 A 
ATOM     82  F   UNL A   1      48.012  30.114  26.751  1.00  0.00    -0.203 F 
ATOM     83  C   UNL A   1      50.253  30.657  27.232  1.00  0.00     0.198 A 
ATOM     84  C   UNL A   1      50.784  31.907  29.210  1.00  0.00     0.198 A 
ATOM     85  F   UNL A   1      49.070  32.553  30.687  1.00  0.00    -0.203 F 
ATOM     86  F   UNL A   1      50.648  30.001  26.133  1.00  0.00    -0.200 F 
ATOM     87  C   UNL A   1      51.195  31.259  28.054  1.00  0.00     0.200 A 
ATOM     88  F   UNL A   1      51.688  32.502  30.000  1.00  0.00    -0.200 F 
ATOM     89  F   UNL A   1      52.495  31.207  27.739  1.00  0.00    -0.200 F 
ENDBRANCH  55  79
BRANCH  67  90
ATOM     90  C   UNL A   1      44.224  26.793  31.893  1.00  0.00     0.064 A 
ATOM     91  C   UNL A   1      44.460  26.523  33.250  1.00  0.00     0.173 A 
ATOM     92  C   UNL A   1      44.141  25.701  31.014  1.00  0.00     0.173 A 
ATOM     93  F   UNL A   1      44.560  27.529  34.131  1.00  0.00    -0.203 F 
ATOM     94  C   UNL A   1      44.636  25.216  33.700  1.00  0.00     0.198 A 
ATOM     95  C   UNL A   1      44.281  24.395  31.474  1.00  0.00     0.198 A 
ATOM     96  F   UNL A   1      43.908  25.901  29.708  1.00  0.00    -0.203 F 
ATOM     97  F   UNL A   1      44.916  24.987  34.991  1.00  0.00    -0.200 F 
ATOM     98  C   UNL A   1      44.538  24.154  32.814  1.00  0.00     0.200 A 
ATOM     99  F   UNL A   1      44.167  23.369  30.619  1.00  0.00    -0.200 F 
ATOM    100  F   UNL A   1      44.699  22.898  33.252  1.00  0.00    -0.200 F 
ENDBRANCH  67  90
ENDBRANCH  41  42
ENDBRANCH  34  36
ENDBRANCH  33  34
ENDBRANCH  32  33
ENDBRANCH  31  32
ENDBRANCH  30  31
ENDBRANCH  29  30
ENDBRANCH  28  29
ENDBRANCH  27  28
ENDBRANCH  26  27
ENDBRANCH   1  26
TORSDOF 25
ENDMDL
MODEL 2
REMARK VINA RESULT:      -8.3      7.585     13.357
REMARK SMILES C=CCOc1ccccc1/C=C/c1cc(C(=O)OCCOCCOCCOCCOC(=O)c2ccc(-c3c4nc(c(-c5c(F)c(F)c(F)c(F)c5F)c5ccc([nH]5)c(-c5c(F)c(F)c(F)c(F)c5F)c5nc(c(-c6c(F)c(F)c(F)c(F)c6F)c6ccc3[nH]6)C=C5)C=C4)cc2)ncn1
REMARK SMILES IDX 22 1 21 2 20 3 19 4 18 5 16 6 17 7 15 8 13 9 14 10 98 11
REMARK SMILES IDX 97 12 96 13 12 14 11 15 10 16 5 17 6 18 7 19 9 20 8 21 4 22
REMARK SMILES IDX 3 23 2 24 1 25 23 26 24 27 25 28 26 29 27 30 28 31 29 32
REMARK SMILES IDX 30 33 31 34 32 35 33 36 34 37 95 38 35 39 94 40 36 41 37 42
REMARK SMILES IDX 38 43 88 44 39 45 93 46 87 47 89 48 40 49 92 50 86 51 85 52
REMARK SMILES IDX 41 54 73 55 53 56 72 57 54 58 57 59 71 60 90 61 55 62 56 63
REMARK SMILES IDX 70 65 91 66 58 67 42 68 43 69 51 70 44 71 45 72 49 73 52 74
REMARK SMILES IDX 46 75 47 76 50 77 48 78 74 79 75 80 83 81 76 82 77 83 81 84
REMARK SMILES IDX 84 85 78 86 79 87 82 88 80 89 59 90 60 91 68 92 61 93 62 94
REMARK SMILES IDX 66 95 69 96 63 97 64 98 67 99 65 100
REMARK H PARENT 89 53 57 64
REMARK Flexibility Score: inf
ROOT
ATOM      1  C   UNL A   1      38.561  31.291  29.941  1.00  0.00     0.188 C 
ENDROOT
BRANCH   1   2
ATOM      2  O   UNL A   1      37.624  31.109  28.897  1.00  0.00    -0.376 OA
BRANCH   2   3
ATOM      3  C   UNL A   1      36.224  31.216  29.087  1.00  0.00     0.202 C 
BRANCH   3   4
ATOM      4  C   UNL A   1      35.149  31.399  27.996  1.00  0.00     0.261 C 
BRANCH   4   5
ATOM      5  O   UNL A   1      34.616  30.228  27.387  1.00  0.00    -0.459 OA
BRANCH   5   6
ATOM      6  C   UNL A   1      33.355  30.298  26.903  1.00  0.00     0.357 C 
ATOM      7  O   UNL A   1      32.549  31.184  27.122  1.00  0.00    -0.244 OA
BRANCH   6   8
ATOM      8  C   UNL A   1      33.184  29.175  25.931  1.00  0.00     0.152 A 
ATOM      9  C   UNL A   1      33.645  27.005  25.193  1.00  0.00     0.067 A 
ATOM     10  C   UNL A   1      33.956  28.040  26.048  1.00  0.00     0.064 A 
ATOM     11  N   UNL A   1      32.751  27.150  24.194  1.00  0.00    -0.237 NA
ATOM     12  C   UNL A   1      32.119  28.330  24.119  1.00  0.00     0.223 A 
ATOM     13  N   UNL A   1      32.261  29.355  24.964  1.00  0.00    -0.229 NA
BRANCH   9  14
ATOM     14  C   UNL A   1      34.030  25.610  25.476  1.00  0.00     0.029 C 
ATOM     15  C   UNL A   1      34.464  24.767  24.524  1.00  0.00     0.014 C 
BRANCH  15  16
ATOM     16  C   UNL A   1      35.319  23.593  24.743  1.00  0.00     0.017 A 
ATOM     17  C   UNL A   1      34.771  22.311  24.522  1.00  0.00     0.126 A 
ATOM     18  C   UNL A   1      35.522  21.158  24.750  1.00  0.00     0.047 A 
ATOM     19  C   UNL A   1      36.845  21.272  25.169  1.00  0.00     0.004 A 
ATOM     20  C   UNL A   1      36.651  23.690  25.158  1.00  0.00     0.012 A 
ATOM     21  C   UNL A   1      37.411  22.533  25.366  1.00  0.00     0.001 A 
BRANCH  17  22
ATOM     22  O   UNL A   1      33.448  22.173  24.159  1.00  0.00    -0.489 OA
BRANCH  22  23
ATOM     23  C   UNL A   1      32.658  21.576  25.197  1.00  0.00     0.257 C 
BRANCH  23  24
ATOM     24  C   UNL A   1      31.438  22.418  25.445  1.00  0.00     0.006 C 
ATOM     25  C   UNL A   1      31.028  23.410  24.642  1.00  0.00     0.007 C 
ENDBRANCH  23  24
ENDBRANCH  22  23
ENDBRANCH  17  22
ENDBRANCH  15  16
ENDBRANCH   9  14
ENDBRANCH   6   8
ENDBRANCH   5   6
ENDBRANCH   4   5
ENDBRANCH   3   4
ENDBRANCH   2   3
ENDBRANCH   1   2
BRANCH   1  26
ATOM     26  C   UNL A   1      38.804  32.759  30.344  1.00  0.00     0.188 C 
BRANCH  26  27
ATOM     27  O   UNL A   1      39.955  33.331  29.744  1.00  0.00    -0.377 OA
BRANCH  27  28
ATOM     28  C   UNL A   1      40.426  34.575  30.261  1.00  0.00     0.188 C 
BRANCH  28  29
ATOM     29  C   UNL A   1      41.926  34.959  30.228  1.00  0.00     0.188 C 
BRANCH  29  30
ATOM     30  O   UNL A   1      42.258  35.992  29.312  1.00  0.00    -0.376 OA
BRANCH  30  31
ATOM     31  C   UNL A   1      41.529  36.096  28.101  1.00  0.00     0.202 C 
BRANCH  31  32
ATOM     32  C   UNL A   1      42.264  36.707  26.898  1.00  0.00     0.261 C 
BRANCH  32  33
ATOM     33  O   UNL A   1      43.191  35.840  26.228  1.00  0.00    -0.460 OA
BRANCH  33  34
ATOM     34  C   UNL A   1      44.488  35.916  26.605  1.00  0.00     0.338 C 
ATOM     35  O   UNL A   1      45.221  36.878  26.534  1.00  0.00    -0.246 OA
BRANCH  34  36
ATOM     36  C   UNL A   1      44.820  34.657  27.305  1.00  0.00     0.060 A 
ATOM     37  C   UNL A   1      44.328  33.448  26.795  1.00  0.00     0.016 A 
ATOM     38  C   UNL A   1      45.610  34.671  28.457  1.00  0.00     0.016 A 
ATOM     39  C   UNL A   1      44.596  32.251  27.458  1.00  0.00     0.010 A 
ATOM     40  C   UNL A   1      45.861  33.473  29.130  1.00  0.00     0.010 A 
ATOM     41  C   UNL A   1      45.326  32.263  28.654  1.00  0.00    -0.014 A 
BRANCH  41  42
ATOM     42  C   UNL A   1      45.374  31.045  29.499  1.00  0.00     0.031 A 
ATOM     43  C   UNL A   1      44.224  30.770  30.427  1.00  0.00     0.074 A 
ATOM     44  C   UNL A   1      46.409  30.190  29.435  1.00  0.00     0.049 A 
ATOM     45  N   UNL A   1      44.062  29.802  31.292  1.00  0.00    -0.248 NA
ATOM     46  C   UNL A   1      43.103  31.723  30.373  1.00  0.00     0.031 C 
ATOM     47  C   UNL A   1      47.565  30.327  28.552  1.00  0.00     0.029 A 
ATOM     48  N   UNL A   1      46.656  29.038  30.141  1.00  0.00    -0.354 N 
ATOM     49  C   UNL A   1      42.831  30.035  31.891  1.00  0.00     0.074 A 
ATOM     50  C   UNL A   1      42.301  31.251  31.316  1.00  0.00     0.031 C 
ATOM     51  C   UNL A   1      48.409  29.306  28.780  1.00  0.00     0.029 A 
ATOM     52  C   UNL A   1      47.869  28.465  29.848  1.00  0.00     0.049 A 
ATOM     53  H   UNL A   1      46.025  28.659  30.794  1.00  0.00     0.167 HD
ATOM     54  C   UNL A   1      42.198  29.297  32.835  1.00  0.00     0.037 A 
ATOM     55  C   UNL A   1      48.484  27.401  30.402  1.00  0.00     0.037 A 
ATOM     56  C   UNL A   1      42.730  28.088  33.406  1.00  0.00     0.049 A 
ATOM     57  C   UNL A   1      47.789  26.634  31.501  1.00  0.00     0.074 A 
ATOM     58  C   UNL A   1      42.152  27.250  34.343  1.00  0.00     0.029 A 
ATOM     59  N   UNL A   1      43.975  27.553  33.105  1.00  0.00    -0.354 N 
ATOM     60  N   UNL A   1      46.610  26.836  32.037  1.00  0.00    -0.248 NA
ATOM     61  C   UNL A   1      48.512  25.485  32.066  1.00  0.00     0.031 C 
ATOM     62  C   UNL A   1      43.074  26.248  34.661  1.00  0.00     0.029 A 
ATOM     63  C   UNL A   1      44.198  26.416  33.867  1.00  0.00     0.049 A 
ATOM     64  H   UNL A   1      44.606  27.925  32.447  1.00  0.00     0.167 HD
ATOM     65  C   UNL A   1      46.437  25.828  32.977  1.00  0.00     0.074 A 
ATOM     66  C   UNL A   1      47.626  25.005  32.928  1.00  0.00     0.031 C 
ATOM     67  C   UNL A   1      45.387  25.603  33.806  1.00  0.00     0.037 A 
BRANCH  54  68
ATOM     68  C   UNL A   1      40.874  29.799  33.336  1.00  0.00     0.064 A 
ATOM     69  C   UNL A   1      39.657  29.353  32.801  1.00  0.00     0.173 A 
ATOM     70  C   UNL A   1      40.825  30.725  34.390  1.00  0.00     0.173 A 
ATOM     71  F   UNL A   1      39.646  28.478  31.782  1.00  0.00    -0.203 F 
ATOM     72  C   UNL A   1      38.441  29.837  33.279  1.00  0.00     0.198 A 
ATOM     73  C   UNL A   1      39.608  31.181  34.890  1.00  0.00     0.198 A 
ATOM     74  F   UNL A   1      41.958  31.184  34.942  1.00  0.00    -0.203 F 
ATOM     75  F   UNL A   1      37.293  29.439  32.714  1.00  0.00    -0.200 F 
ATOM     76  C   UNL A   1      38.417  30.744  34.328  1.00  0.00     0.200 A 
ATOM     77  F   UNL A   1      39.588  32.045  35.913  1.00  0.00    -0.200 F 
ATOM     78  F   UNL A   1      37.248  31.204  34.793  1.00  0.00    -0.200 F 
ENDBRANCH  54  68
BRANCH  55  79
ATOM     79  C   UNL A   1      49.842  27.007  29.943  1.00  0.00     0.064 A 
ATOM     80  C   UNL A   1      50.989  27.382  30.656  1.00  0.00     0.173 A 
ATOM     81  C   UNL A   1      50.022  26.260  28.768  1.00  0.00     0.173 A 
ATOM     82  F   UNL A   1      50.873  28.120  31.770  1.00  0.00    -0.203 F 
ATOM     83  C   UNL A   1      52.263  27.042  30.203  1.00  0.00     0.198 A 
ATOM     84  C   UNL A   1      51.294  25.893  28.334  1.00  0.00     0.198 A 
ATOM     85  F   UNL A   1      48.959  25.880  28.044  1.00  0.00    -0.203 F 
ATOM     86  F   UNL A   1      53.344  27.456  30.878  1.00  0.00    -0.200 F 
ATOM     87  C   UNL A   1      52.415  26.290  29.047  1.00  0.00     0.200 A 
ATOM     88  F   UNL A   1      51.434  25.156  27.224  1.00  0.00    -0.200 F 
ATOM     89  F   UNL A   1      53.638  25.958  28.616  1.00  0.00    -0.200 F 
ENDBRANCH  55  79
BRANCH  67  90
ATOM     90  C   UNL A   1      45.454  24.397  34.703  1.00  0.00     0.064 A 
ATOM     91  C   UNL A   1      44.972  23.143  34.297  1.00  0.00     0.173 A 
ATOM     92  C   UNL A   1      46.048  24.489  35.972  1.00  0.00     0.173 A 
ATOM     93  F   UNL A   1      44.385  23.001  33.099  1.00  0.00    -0.203 F 
ATOM     94  C   UNL A   1      45.054  22.037  35.140  1.00  0.00     0.198 A 
ATOM     95  C   UNL A   1      46.161  23.373  36.795  1.00  0.00     0.198 A 
ATOM     96  F   UNL A   1      46.534  25.661  36.407  1.00  0.00    -0.203 F 
ATOM     97  F   UNL A   1      44.536  20.862  34.752  1.00  0.00    -0.200 F 
ATOM     98  C   UNL A   1      45.656  22.150  36.384  1.00  0.00     0.200 A 
ATOM     99  F   UNL A   1      46.760  23.481  37.990  1.00  0.00    -0.200 F 
ATOM    100  F   UNL A   1      45.741  21.083  37.189  1.00  0.00    -0.200 F 
ENDBRANCH  67  90
ENDBRANCH  41  42
ENDBRANCH  34  36
ENDBRANCH  33  34
ENDBRANCH  32  33
ENDBRANCH  31  32
ENDBRANCH  30  31
ENDBRANCH  29  30
ENDBRANCH  28  29
ENDBRANCH  27  28
ENDBRANCH  26  27
ENDBRANCH   1  26
TORSDOF 25
ENDMDL
MODEL 3
REMARK VINA RESULT:      -8.3      3.653      5.746
REMARK SMILES C=CCOc1ccccc1/C=C/c1cc(C(=O)OCCOCCOCCOCCOC(=O)c2ccc(-c3c4nc(c(-c5c(F)c(F)c(F)c(F)c5F)c5ccc([nH]5)c(-c5c(F)c(F)c(F)c(F)c5F)c5nc(c(-c6c(F)c(F)c(F)c(F)c6F)c6ccc3[nH]6)C=C5)C=C4)cc2)ncn1
REMARK SMILES IDX 22 1 21 2 20 3 19 4 18 5 16 6 17 7 15 8 13 9 14 10 98 11
REMARK SMILES IDX 97 12 96 13 12 14 11 15 10 16 5 17 6 18 7 19 9 20 8 21 4 22
REMARK SMILES IDX 3 23 2 24 1 25 23 26 24 27 25 28 26 29 27 30 28 31 29 32
REMARK SMILES IDX 30 33 31 34 32 35 33 36 34 37 95 38 35 39 94 40 36 41 37 42
REMARK SMILES IDX 38 43 88 44 39 45 93 46 87 47 89 48 40 49 92 50 86 51 85 52
REMARK SMILES IDX 41 54 73 55 53 56 72 57 54 58 57 59 71 60 90 61 55 62 56 63
REMARK SMILES IDX 70 65 91 66 58 67 42 68 43 69 51 70 44 71 45 72 49 73 52 74
REMARK SMILES IDX 46 75 47 76 50 77 48 78 74 79 75 80 83 81 76 82 77 83 81 84
REMARK SMILES IDX 84 85 78 86 79 87 82 88 80 89 59 90 60 91 68 92 61 93 62 94
REMARK SMILES IDX 66 95 69 96 63 97 64 98 67 99 65 100
REMARK H PARENT 89 53 57 64
REMARK Flexibility Score: inf
ROOT
ATOM      1  C   UNL A   1      49.897  38.310  27.318  1.00  0.00     0.188 C 
ENDROOT
BRANCH   1   2
ATOM      2  O   UNL A   1      48.821  39.073  26.808  1.00  0.00    -0.376 OA
BRANCH   2   3
ATOM      3  C   UNL A   1      47.601  38.496  26.376  1.00  0.00     0.202 C 
BRANCH   3   4
ATOM      4  C   UNL A   1      46.204  39.150  26.403  1.00  0.00     0.261 C 
BRANCH   4   5
ATOM      5  O   UNL A   1      46.041  40.394  25.733  1.00  0.00    -0.459 OA
BRANCH   5   6
ATOM      6  C   UNL A   1      44.788  40.897  25.651  1.00  0.00     0.357 C 
ATOM      7  O   UNL A   1      43.766  40.347  26.020  1.00  0.00    -0.244 OA
BRANCH   6   8
ATOM      8  C   UNL A   1      44.900  42.307  25.168  1.00  0.00     0.152 A 
ATOM      9  C   UNL A   1      44.871  43.906  23.462  1.00  0.00     0.067 A 
ATOM     10  C   UNL A   1      44.893  42.575  23.816  1.00  0.00     0.064 A 
ATOM     11  N   UNL A   1      45.013  44.888  24.374  1.00  0.00    -0.237 NA
ATOM     12  C   UNL A   1      45.099  44.510  25.658  1.00  0.00     0.223 A 
ATOM     13  N   UNL A   1      45.016  43.259  26.117  1.00  0.00    -0.229 NA
BRANCH   9  14
ATOM     14  C   UNL A   1      44.405  44.359  22.138  1.00  0.00     0.029 C 
ATOM     15  C   UNL A   1      43.944  43.514  21.200  1.00  0.00     0.014 C 
BRANCH  15  16
ATOM     16  C   UNL A   1      43.023  43.863  20.110  1.00  0.00     0.017 A 
ATOM     17  C   UNL A   1      43.509  44.654  19.046  1.00  0.00     0.126 A 
ATOM     18  C   UNL A   1      42.672  45.049  18.003  1.00  0.00     0.047 A 
ATOM     19  C   UNL A   1      41.343  44.629  17.991  1.00  0.00     0.004 A 
ATOM     20  C   UNL A   1      41.689  43.444  20.080  1.00  0.00     0.012 A 
ATOM     21  C   UNL A   1      40.855  43.824  19.022  1.00  0.00     0.001 A 
BRANCH  17  22
ATOM     22  O   UNL A   1      44.803  45.125  19.065  1.00  0.00    -0.489 OA
BRANCH  22  23
ATOM     23  C   UNL A   1      45.283  45.451  17.753  1.00  0.00     0.257 C 
BRANCH  23  24
ATOM     24  C   UNL A   1      46.315  46.539  17.853  1.00  0.00     0.006 C 
ATOM     25  C   UNL A   1      47.229  46.805  16.909  1.00  0.00     0.007 C 
ENDBRANCH  23  24
ENDBRANCH  22  23
ENDBRANCH  17  22
ENDBRANCH  15  16
ENDBRANCH   9  14
ENDBRANCH   6   8
ENDBRANCH   5   6
ENDBRANCH   4   5
ENDBRANCH   3   4
ENDBRANCH   2   3
ENDBRANCH   1   2
BRANCH   1  26
ATOM     26  C   UNL A   1      49.884  36.822  26.916  1.00  0.00     0.188 C 
BRANCH  26  27
ATOM     27  O   UNL A   1      49.541  35.949  27.980  1.00  0.00    -0.377 OA
BRANCH  27  28
ATOM     28  C   UNL A   1      50.350  35.982  29.155  1.00  0.00     0.188 C 
BRANCH  28  29
ATOM     29  C   UNL A   1      49.816  35.506  30.529  1.00  0.00     0.188 C 
BRANCH  29  30
ATOM     30  O   UNL A   1      49.290  36.534  31.354  1.00  0.00    -0.376 OA
BRANCH  30  31
ATOM     31  C   UNL A   1      49.136  37.836  30.815  1.00  0.00     0.202 C 
BRANCH  31  32
ATOM     32  C   UNL A   1      47.699  38.356  30.655  1.00  0.00     0.261 C 
BRANCH  32  33
ATOM     33  O   UNL A   1      46.926  37.741  29.614  1.00  0.00    -0.460 OA
BRANCH  33  34
ATOM     34  C   UNL A   1      45.642  37.430  29.903  1.00  0.00     0.338 C 
ATOM     35  O   UNL A   1      44.761  38.185  30.254  1.00  0.00    -0.246 OA
BRANCH  34  36
ATOM     36  C   UNL A   1      45.436  36.012  29.535  1.00  0.00     0.060 A 
ATOM     37  C   UNL A   1      44.915  35.710  28.270  1.00  0.00     0.016 A 
ATOM     38  C   UNL A   1      45.755  34.991  30.433  1.00  0.00     0.016 A 
ATOM     39  C   UNL A   1      44.677  34.384  27.912  1.00  0.00     0.010 A 
ATOM     40  C   UNL A   1      45.496  33.664  30.081  1.00  0.00     0.010 A 
ATOM     41  C   UNL A   1      44.924  33.357  28.833  1.00  0.00    -0.014 A 
BRANCH  41  42
ATOM     42  C   UNL A   1      44.417  31.990  28.564  1.00  0.00     0.031 A 
ATOM     43  C   UNL A   1      43.078  31.598  29.125  1.00  0.00     0.074 A 
ATOM     44  C   UNL A   1      45.121  31.116  27.824  1.00  0.00     0.049 A 
ATOM     45  N   UNL A   1      42.450  30.452  29.065  1.00  0.00    -0.248 NA
ATOM     46  C   UNL A   1      42.349  32.646  29.858  1.00  0.00     0.031 C 
ATOM     47  C   UNL A   1      46.411  31.387  27.198  1.00  0.00     0.029 A 
ATOM     48  N   UNL A   1      44.846  29.813  27.486  1.00  0.00    -0.354 N 
ATOM     49  C   UNL A   1      41.263  30.637  29.760  1.00  0.00     0.074 A 
ATOM     50  C   UNL A   1      41.269  31.993  30.260  1.00  0.00     0.031 C 
ATOM     51  C   UNL A   1      46.828  30.277  26.563  1.00  0.00     0.029 A 
ATOM     52  C   UNL A   1      45.849  29.210  26.769  1.00  0.00     0.049 A 
ATOM     53  H   UNL A   1      44.010  29.356  27.735  1.00  0.00     0.167 HD
ATOM     54  C   UNL A   1      40.254  29.754  29.959  1.00  0.00     0.037 A 
ATOM     55  C   UNL A   1      45.974  27.933  26.353  1.00  0.00     0.037 A 
ATOM     56  C   UNL A   1      40.253  28.403  29.461  1.00  0.00     0.049 A 
ATOM     57  C   UNL A   1      44.869  26.948  26.646  1.00  0.00     0.074 A 
ATOM     58  C   UNL A   1      39.266  27.441  29.580  1.00  0.00     0.029 A 
ATOM     59  N   UNL A   1      41.300  27.818  28.761  1.00  0.00    -0.354 N 
ATOM     60  N   UNL A   1      43.732  27.138  27.271  1.00  0.00    -0.248 NA
ATOM     61  C   UNL A   1      45.065  25.572  26.169  1.00  0.00     0.031 C 
ATOM     62  C   UNL A   1      39.743  26.254  29.016  1.00  0.00     0.029 A 
ATOM     63  C   UNL A   1      40.997  26.496  28.476  1.00  0.00     0.049 A 
ATOM     64  H   UNL A   1      42.133  28.275  28.505  1.00  0.00     0.167 HD
ATOM     65  C   UNL A   1      43.066  25.919  27.237  1.00  0.00     0.074 A 
ATOM     66  C   UNL A   1      43.920  24.999  26.516  1.00  0.00     0.031 C 
ATOM     67  C   UNL A   1      41.856  25.590  27.754  1.00  0.00     0.037 A 
BRANCH  54  68
ATOM     68  C   UNL A   1      39.084  30.210  30.784  1.00  0.00     0.064 A 
ATOM     69  C   UNL A   1      39.056  30.067  32.179  1.00  0.00     0.173 A 
ATOM     70  C   UNL A   1      37.984  30.823  30.167  1.00  0.00     0.173 A 
ATOM     71  F   UNL A   1      40.077  29.474  32.819  1.00  0.00    -0.203 F 
ATOM     72  C   UNL A   1      37.957  30.493  32.922  1.00  0.00     0.198 A 
ATOM     73  C   UNL A   1      36.902  31.280  30.915  1.00  0.00     0.198 A 
ATOM     74  F   UNL A   1      37.958  30.989  28.835  1.00  0.00    -0.203 F 
ATOM     75  F   UNL A   1      37.929  30.295  34.247  1.00  0.00    -0.200 F 
ATOM     76  C   UNL A   1      36.885  31.106  32.291  1.00  0.00     0.200 A 
ATOM     77  F   UNL A   1      35.875  31.886  30.304  1.00  0.00    -0.200 F 
ATOM     78  F   UNL A   1      35.832  31.522  33.007  1.00  0.00    -0.200 F 
ENDBRANCH  54  68
BRANCH  55  79
ATOM     79  C   UNL A   1      47.202  27.505  25.632  1.00  0.00     0.064 A 
ATOM     80  C   UNL A   1      48.281  26.926  26.313  1.00  0.00     0.173 A 
ATOM     81  C   UNL A   1      47.327  27.683  24.245  1.00  0.00     0.173 A 
ATOM     82  F   UNL A   1      48.223  26.761  27.642  1.00  0.00    -0.203 F 
ATOM     83  C   UNL A   1      49.445  26.559  25.639  1.00  0.00     0.198 A 
ATOM     84  C   UNL A   1      48.477  27.285  23.567  1.00  0.00     0.198 A 
ATOM     85  F   UNL A   1      46.325  28.237  23.546  1.00  0.00    -0.203 F 
ATOM     86  F   UNL A   1      50.481  26.054  26.321  1.00  0.00    -0.200 F 
ATOM     87  C   UNL A   1      49.539  26.730  24.265  1.00  0.00     0.200 A 
ATOM     88  F   UNL A   1      48.558  27.441  22.239  1.00  0.00    -0.200 F 
ATOM     89  F   UNL A   1      50.655  26.371  23.618  1.00  0.00    -0.200 F 
ENDBRANCH  55  79
BRANCH  67  90
ATOM     90  C   UNL A   1      41.360  24.188  27.528  1.00  0.00     0.064 A 
ATOM     91  C   UNL A   1      40.267  23.914  26.691  1.00  0.00     0.173 A 
ATOM     92  C   UNL A   1      42.014  23.100  28.127  1.00  0.00     0.173 A 
ATOM     93  F   UNL A   1      39.598  24.917  26.103  1.00  0.00    -0.203 F 
ATOM     94  C   UNL A   1      39.831  22.606  26.487  1.00  0.00     0.198 A 
ATOM     95  C   UNL A   1      41.597  21.793  27.891  1.00  0.00     0.198 A 
ATOM     96  F   UNL A   1      43.069  23.303  28.929  1.00  0.00    -0.203 F 
ATOM     97  F   UNL A   1      38.751  22.374  25.727  1.00  0.00    -0.200 F 
ATOM     98  C   UNL A   1      40.501  21.547  27.080  1.00  0.00     0.200 A 
ATOM     99  F   UNL A   1      42.258  20.768  28.450  1.00  0.00    -0.200 F 
ATOM    100  F   UNL A   1      40.084  20.290  26.875  1.00  0.00    -0.200 F 
ENDBRANCH  67  90
ENDBRANCH  41  42
ENDBRANCH  34  36
ENDBRANCH  33  34
ENDBRANCH  32  33
ENDBRANCH  31  32
ENDBRANCH  30  31
ENDBRANCH  29  30
ENDBRANCH  28  29
ENDBRANCH  27  28
ENDBRANCH  26  27
ENDBRANCH   1  26
TORSDOF 25
ENDMDL
