MODEL 1
REMARK VINA RESULT:     -11.1      0.000      0.000
REMARK SMILES O=C(OCCOCCOCCOCCOC(=O)c1ccc(-c2ccc(Cl)cc2)cc1F)c1ccc(-c2c3nc(c(-c4c(F)c(F)c(F)c(F)c4F)c4ccc([nH]4)c(-c4c(F)c(F)c(F)c(F)c4F)c4nc(c(-c5c(F)c(F)c(F)c(F)c5F)c5ccc2[nH]5)C=C4)C=C3)cc1
REMARK SMILES IDX 8 1 7 2 6 3 5 4 4 5 3 6 2 7 1 8 32 9 33 10 94 11 34 12 93 13
REMARK SMILES IDX 35 14 36 15 37 16 87 17 38 18 92 19 86 20 88 21 39 22 91 23
REMARK SMILES IDX 85 24 84 25 40 27 72 28 52 29 71 30 53 31 56 32 70 33 89 34
REMARK SMILES IDX 54 35 55 36 69 38 90 39 57 40 41 41 42 42 50 43 43 44 44 45
REMARK SMILES IDX 48 46 51 47 45 48 46 49 49 50 47 51 73 52 74 53 82 54 75 55
REMARK SMILES IDX 76 56 80 57 83 58 77 59 78 60 81 61 79 62 58 63 59 64 67 65
REMARK SMILES IDX 60 66 61 67 65 68 68 69 62 70 63 71 66 72 64 73 9 74 10 75
REMARK SMILES IDX 11 76 12 77 13 78 14 79 15 80 16 81 17 82 18 83 19 84 30 85
REMARK SMILES IDX 20 86 29 87 31 88 21 89 22 90 23 91 28 92 24 93 27 94 25 95
REMARK SMILES IDX 26 96
REMARK H PARENT 88 26 56 37
REMARK Flexibility Score: inf
ROOT
ATOM      1  C   UNL A   1      39.949  20.995  26.254  1.00  0.00     0.188 C 
ENDROOT
BRANCH   1   2
ATOM      2  C   UNL A   1      41.272  20.261  26.477  1.00  0.00     0.188 C 
BRANCH   2   3
ATOM      3  O   UNL A   1      42.310  20.777  25.645  1.00  0.00    -0.376 OA
BRANCH   3   4
ATOM      4  C   UNL A   1      42.691  22.135  25.851  1.00  0.00     0.202 C 
BRANCH   4   5
ATOM      5  C   UNL A   1      43.646  22.719  24.810  1.00  0.00     0.261 C 
BRANCH   5   6
ATOM      6  O   UNL A   1      43.434  24.113  24.540  1.00  0.00    -0.460 OA
BRANCH   6   7
ATOM      7  C   UNL A   1      43.983  25.192  25.149  1.00  0.00     0.338 C 
ATOM      8  O   UNL A   1      45.133  25.510  24.847  1.00  0.00    -0.246 OA
BRANCH   7   9
ATOM      9  C   UNL A   1      43.285  26.031  26.170  1.00  0.00     0.060 A 
ATOM     10  C   UNL A   1      43.503  27.389  26.383  1.00  0.00     0.016 A 
ATOM     11  C   UNL A   1      42.267  25.412  26.915  1.00  0.00     0.016 A 
ATOM     12  C   UNL A   1      42.817  28.104  27.344  1.00  0.00     0.010 A 
ATOM     13  C   UNL A   1      41.542  26.127  27.873  1.00  0.00     0.010 A 
ATOM     14  C   UNL A   1      41.847  27.471  28.108  1.00  0.00    -0.014 A 
BRANCH  14  15
ATOM     15  C   UNL A   1      41.349  28.208  29.277  1.00  0.00     0.031 A 
ATOM     16  C   UNL A   1      42.218  28.216  30.497  1.00  0.00     0.074 A 
ATOM     17  C   UNL A   1      40.274  29.007  29.155  1.00  0.00     0.049 A 
ATOM     18  N   UNL A   1      41.996  28.745  31.667  1.00  0.00    -0.248 NA
ATOM     19  C   UNL A   1      43.531  27.555  30.375  1.00  0.00     0.031 C 
ATOM     20  C   UNL A   1      39.501  29.198  27.924  1.00  0.00     0.029 A 
ATOM     21  N   UNL A   1      39.676  29.844  30.056  1.00  0.00    -0.354 N 
ATOM     22  C   UNL A   1      43.122  28.452  32.424  1.00  0.00     0.074 A 
ATOM     23  C   UNL A   1      44.027  27.697  31.594  1.00  0.00     0.031 C 
ATOM     24  C   UNL A   1      38.549  30.119  28.142  1.00  0.00     0.029 A 
ATOM     25  C   UNL A   1      38.590  30.511  29.545  1.00  0.00     0.049 A 
ATOM     26  H   UNL A   1      39.993  29.956  30.981  1.00  0.00     0.167 HD
ATOM     27  C   UNL A   1      43.361  28.795  33.707  1.00  0.00     0.037 A 
ATOM     28  C   UNL A   1      37.709  31.313  30.172  1.00  0.00     0.037 A 
ATOM     29  C   UNL A   1      42.435  29.564  34.488  1.00  0.00     0.049 A 
ATOM     30  C   UNL A   1      37.923  31.553  31.643  1.00  0.00     0.074 A 
ATOM     31  C   UNL A   1      42.499  29.900  35.824  1.00  0.00     0.029 A 
ATOM     32  N   UNL A   1      41.270  30.127  33.979  1.00  0.00    -0.354 N 
ATOM     33  N   UNL A   1      38.924  31.174  32.404  1.00  0.00    -0.248 NA
ATOM     34  C   UNL A   1      36.882  32.305  32.351  1.00  0.00     0.031 C 
ATOM     35  C   UNL A   1      41.346  30.627  36.136  1.00  0.00     0.029 A 
ATOM     36  C   UNL A   1      40.597  30.798  34.981  1.00  0.00     0.049 A 
ATOM     37  H   UNL A   1      40.970  30.057  33.044  1.00  0.00     0.167 HD
ATOM     38  C   UNL A   1      38.648  31.658  33.673  1.00  0.00     0.074 A 
ATOM     39  C   UNL A   1      37.391  32.376  33.574  1.00  0.00     0.031 C 
ATOM     40  C   UNL A   1      39.358  31.520  34.820  1.00  0.00     0.037 A 
BRANCH  27  41
ATOM     41  C   UNL A   1      44.620  28.290  34.343  1.00  0.00     0.064 A 
ATOM     42  C   UNL A   1      45.776  29.085  34.339  1.00  0.00     0.173 A 
ATOM     43  C   UNL A   1      44.695  27.024  34.941  1.00  0.00     0.173 A 
ATOM     44  F   UNL A   1      45.751  30.310  33.795  1.00  0.00    -0.203 F 
ATOM     45  C   UNL A   1      46.966  28.623  34.893  1.00  0.00     0.198 A 
ATOM     46  C   UNL A   1      45.882  26.575  35.518  1.00  0.00     0.198 A 
ATOM     47  F   UNL A   1      43.608  26.241  35.005  1.00  0.00    -0.203 F 
ATOM     48  F   UNL A   1      48.063  29.393  34.857  1.00  0.00    -0.200 F 
ATOM     49  C   UNL A   1      47.018  27.370  35.483  1.00  0.00     0.200 A 
ATOM     50  F   UNL A   1      45.921  25.378  36.120  1.00  0.00    -0.200 F 
ATOM     51  F   UNL A   1      48.161  26.931  36.028  1.00  0.00    -0.200 F 
ENDBRANCH  27  41
BRANCH  28  52
ATOM     52  C   UNL A   1      36.545  31.884  29.440  1.00  0.00     0.064 A 
ATOM     53  C   UNL A   1      35.480  31.074  29.011  1.00  0.00     0.173 A 
ATOM     54  C   UNL A   1      36.461  33.256  29.162  1.00  0.00     0.173 A 
ATOM     55  F   UNL A   1      35.499  29.754  29.252  1.00  0.00    -0.203 F 
ATOM     56  C   UNL A   1      34.393  31.607  28.321  1.00  0.00     0.198 A 
ATOM     57  C   UNL A   1      35.356  33.794  28.502  1.00  0.00     0.198 A 
ATOM     58  F   UNL A   1      37.438  34.081  29.566  1.00  0.00    -0.203 F 
ATOM     59  F   UNL A   1      33.409  30.801  27.899  1.00  0.00    -0.200 F 
ATOM     60  C   UNL A   1      34.326  32.968  28.076  1.00  0.00     0.200 A 
ATOM     61  F   UNL A   1      35.282  35.115  28.293  1.00  0.00    -0.200 F 
ATOM     62  F   UNL A   1      33.267  33.486  27.438  1.00  0.00    -0.200 F 
ENDBRANCH  28  52
BRANCH  40  63
ATOM     63  C   UNL A   1      38.817  32.191  36.043  1.00  0.00     0.064 A 
ATOM     64  C   UNL A   1      39.140  33.531  36.309  1.00  0.00     0.173 A 
ATOM     65  C   UNL A   1      38.076  31.484  36.999  1.00  0.00     0.173 A 
ATOM     66  F   UNL A   1      39.860  34.241  35.427  1.00  0.00    -0.203 F 
ATOM     67  C   UNL A   1      38.762  34.131  37.503  1.00  0.00     0.198 A 
ATOM     68  C   UNL A   1      37.667  32.100  38.176  1.00  0.00     0.198 A 
ATOM     69  F   UNL A   1      37.735  30.205  36.780  1.00  0.00    -0.203 F 
ATOM     70  F   UNL A   1      39.126  35.395  37.760  1.00  0.00    -0.200 F 
ATOM     71  C   UNL A   1      38.022  33.417  38.434  1.00  0.00     0.200 A 
ATOM     72  F   UNL A   1      36.931  31.418  39.065  1.00  0.00    -0.200 F 
ATOM     73  F   UNL A   1      37.652  33.997  39.583  1.00  0.00    -0.200 F 
ENDBRANCH  40  63
ENDBRANCH  14  15
ENDBRANCH   7   9
ENDBRANCH   6   7
ENDBRANCH   5   6
ENDBRANCH   4   5
ENDBRANCH   3   4
ENDBRANCH   2   3
ENDBRANCH   1   2
BRANCH   1  74
ATOM     74  O   UNL A   1      39.792  22.213  26.977  1.00  0.00    -0.377 OA
BRANCH  74  75
ATOM     75  C   UNL A   1      38.817  23.124  26.484  1.00  0.00     0.188 C 
BRANCH  75  76
ATOM     76  C   UNL A   1      37.790  22.622  25.439  1.00  0.00     0.188 C 
BRANCH  76  77
ATOM     77  O   UNL A   1      36.845  23.601  25.049  1.00  0.00    -0.376 OA
BRANCH  77  78
ATOM     78  C   UNL A   1      35.561  23.548  25.657  1.00  0.00     0.202 C 
BRANCH  78  79
ATOM     79  C   UNL A   1      34.456  22.621  25.109  1.00  0.00     0.261 C 
BRANCH  79  80
ATOM     80  O   UNL A   1      33.271  22.462  25.903  1.00  0.00    -0.460 OA
BRANCH  80  81
ATOM     81  C   UNL A   1      32.117  22.106  25.287  1.00  0.00     0.341 C 
ATOM     82  O   UNL A   1      31.626  21.004  25.241  1.00  0.00    -0.246 OA
BRANCH  81  83
ATOM     83  C   UNL A   1      31.409  23.357  24.925  1.00  0.00     0.095 A 
ATOM     84  C   UNL A   1      31.106  23.594  23.575  1.00  0.00     0.019 A 
ATOM     85  C   UNL A   1      30.939  24.234  25.896  1.00  0.00     0.138 A 
ATOM     86  C   UNL A   1      30.340  24.707  23.212  1.00  0.00     0.010 A 
ATOM     87  C   UNL A   1      30.210  25.368  25.533  1.00  0.00     0.049 A 
ATOM     88  F   UNL A   1      31.203  24.028  27.194  1.00  0.00    -0.206 F 
ATOM     89  C   UNL A   1      29.922  25.632  24.182  1.00  0.00    -0.015 A 
BRANCH  89  90
ATOM     90  C   UNL A   1      29.373  26.929  23.773  1.00  0.00    -0.018 A 
ATOM     91  C   UNL A   1      30.280  27.950  23.437  1.00  0.00     0.010 A 
ATOM     92  C   UNL A   1      28.000  27.188  23.659  1.00  0.00     0.010 A 
ATOM     93  C   UNL A   1      29.837  29.197  22.999  1.00  0.00     0.021 A 
ATOM     94  C   UNL A   1      27.551  28.443  23.223  1.00  0.00     0.021 A 
ATOM     95  C   UNL A   1      28.472  29.439  22.893  1.00  0.00     0.041 A 
ATOM     96  Cl  UNL A   1      27.924  30.976  22.348  1.00  0.00    -0.084 Cl
ENDBRANCH  89  90
ENDBRANCH  81  83
ENDBRANCH  80  81
ENDBRANCH  79  80
ENDBRANCH  78  79
ENDBRANCH  77  78
ENDBRANCH  76  77
ENDBRANCH  75  76
ENDBRANCH  74  75
ENDBRANCH   1  74
TORSDOF 21
ENDMDL
MODEL 2
REMARK VINA RESULT:     -11.0      4.045      9.381
REMARK SMILES O=C(OCCOCCOCCOCCOC(=O)c1ccc(-c2ccc(Cl)cc2)cc1F)c1ccc(-c2c3nc(c(-c4c(F)c(F)c(F)c(F)c4F)c4ccc([nH]4)c(-c4c(F)c(F)c(F)c(F)c4F)c4nc(c(-c5c(F)c(F)c(F)c(F)c5F)c5ccc2[nH]5)C=C4)C=C3)cc1
REMARK SMILES IDX 8 1 7 2 6 3 5 4 4 5 3 6 2 7 1 8 32 9 33 10 94 11 34 12 93 13
REMARK SMILES IDX 35 14 36 15 37 16 87 17 38 18 92 19 86 20 88 21 39 22 91 23
REMARK SMILES IDX 85 24 84 25 40 27 72 28 52 29 71 30 53 31 56 32 70 33 89 34
REMARK SMILES IDX 54 35 55 36 69 38 90 39 57 40 41 41 42 42 50 43 43 44 44 45
REMARK SMILES IDX 48 46 51 47 45 48 46 49 49 50 47 51 73 52 74 53 82 54 75 55
REMARK SMILES IDX 76 56 80 57 83 58 77 59 78 60 81 61 79 62 58 63 59 64 67 65
REMARK SMILES IDX 60 66 61 67 65 68 68 69 62 70 63 71 66 72 64 73 9 74 10 75
REMARK SMILES IDX 11 76 12 77 13 78 14 79 15 80 16 81 17 82 18 83 19 84 30 85
REMARK SMILES IDX 20 86 29 87 31 88 21 89 22 90 23 91 28 92 24 93 27 94 25 95
REMARK SMILES IDX 26 96
REMARK H PARENT 88 26 56 37
REMARK Flexibility Score: inf
ROOT
ATOM      1  C   UNL A   1      31.608  28.685  25.230  1.00  0.00     0.188 C 
ENDROOT
BRANCH   1   2
ATOM      2  C   UNL A   1      32.521  29.441  26.197  1.00  0.00     0.188 C 
BRANCH   2   3
ATOM      3  O   UNL A   1      31.777  30.284  27.077  1.00  0.00    -0.376 OA
BRANCH   3   4
ATOM      4  C   UNL A   1      31.725  31.672  26.755  1.00  0.00     0.202 C 
BRANCH   4   5
ATOM      5  C   UNL A   1      32.896  32.512  27.267  1.00  0.00     0.261 C 
BRANCH   5   6
ATOM      6  O   UNL A   1      32.512  33.803  27.765  1.00  0.00    -0.460 OA
BRANCH   6   7
ATOM      7  C   UNL A   1      33.147  34.591  28.667  1.00  0.00     0.338 C 
ATOM      8  O   UNL A   1      32.728  35.736  28.837  1.00  0.00    -0.246 OA
BRANCH   7   9
ATOM      9  C   UNL A   1      34.329  34.165  29.475  1.00  0.00     0.060 A 
ATOM     10  C   UNL A   1      35.661  34.357  29.119  1.00  0.00     0.016 A 
ATOM     11  C   UNL A   1      34.070  33.600  30.734  1.00  0.00     0.016 A 
ATOM     12  C   UNL A   1      36.706  33.939  29.918  1.00  0.00     0.010 A 
ATOM     13  C   UNL A   1      35.115  33.196  31.571  1.00  0.00     0.010 A 
ATOM     14  C   UNL A   1      36.438  33.338  31.139  1.00  0.00    -0.014 A 
BRANCH  14  15
ATOM     15  C   UNL A   1      37.568  32.685  31.811  1.00  0.00     0.031 A 
ATOM     16  C   UNL A   1      38.242  31.566  31.078  1.00  0.00     0.074 A 
ATOM     17  C   UNL A   1      38.090  33.231  32.925  1.00  0.00     0.049 A 
ATOM     18  N   UNL A   1      39.223  30.798  31.461  1.00  0.00    -0.248 NA
ATOM     19  C   UNL A   1      37.756  31.287  29.713  1.00  0.00     0.031 C 
ATOM     20  C   UNL A   1      37.598  34.449  33.576  1.00  0.00     0.029 A 
ATOM     21  N   UNL A   1      39.173  32.866  33.675  1.00  0.00    -0.354 N 
ATOM     22  C   UNL A   1      39.446  29.929  30.402  1.00  0.00     0.074 A 
ATOM     23  C   UNL A   1      38.502  30.252  29.360  1.00  0.00     0.031 C 
ATOM     24  C   UNL A   1      38.398  34.745  34.613  1.00  0.00     0.029 A 
ATOM     25  C   UNL A   1      39.398  33.692  34.750  1.00  0.00     0.049 A 
ATOM     26  H   UNL A   1      39.737  32.087  33.466  1.00  0.00     0.167 HD
ATOM     27  C   UNL A   1      40.369  28.948  30.324  1.00  0.00     0.037 A 
ATOM     28  C   UNL A   1      40.290  33.569  35.749  1.00  0.00     0.037 A 
ATOM     29  C   UNL A   1      41.299  28.676  31.383  1.00  0.00     0.049 A 
ATOM     30  C   UNL A   1      41.207  32.375  35.709  1.00  0.00     0.074 A 
ATOM     31  C   UNL A   1      42.220  27.654  31.485  1.00  0.00     0.029 A 
ATOM     32  N   UNL A   1      41.423  29.455  32.528  1.00  0.00    -0.354 N 
ATOM     33  N   UNL A   1      41.342  31.469  34.767  1.00  0.00    -0.248 NA
ATOM     34  C   UNL A   1      42.075  32.166  36.872  1.00  0.00     0.031 C 
ATOM     35  C   UNL A   1      42.871  27.788  32.716  1.00  0.00     0.029 A 
ATOM     36  C   UNL A   1      42.399  28.929  33.351  1.00  0.00     0.049 A 
ATOM     37  H   UNL A   1      40.895  30.263  32.721  1.00  0.00     0.167 HD
ATOM     38  C   UNL A   1      42.323  30.597  35.210  1.00  0.00     0.074 A 
ATOM     39  C   UNL A   1      42.763  31.094  36.501  1.00  0.00     0.031 C 
ATOM     40  C   UNL A   1      42.815  29.481  34.616  1.00  0.00     0.037 A 
BRANCH  27  41
ATOM     41  C   UNL A   1      40.365  28.079  29.105  1.00  0.00     0.064 A 
ATOM     42  C   UNL A   1      39.640  26.877  29.101  1.00  0.00     0.173 A 
ATOM     43  C   UNL A   1      41.082  28.417  27.948  1.00  0.00     0.173 A 
ATOM     44  F   UNL A   1      38.924  26.517  30.176  1.00  0.00    -0.203 F 
ATOM     45  C   UNL A   1      39.651  26.037  27.992  1.00  0.00     0.198 A 
ATOM     46  C   UNL A   1      41.068  27.586  26.829  1.00  0.00     0.198 A 
ATOM     47  F   UNL A   1      41.759  29.574  27.887  1.00  0.00    -0.203 F 
ATOM     48  F   UNL A   1      38.968  24.883  28.021  1.00  0.00    -0.200 F 
ATOM     49  C   UNL A   1      40.363  26.392  26.857  1.00  0.00     0.200 A 
ATOM     50  F   UNL A   1      41.728  27.948  25.720  1.00  0.00    -0.200 F 
ATOM     51  F   UNL A   1      40.361  25.588  25.784  1.00  0.00    -0.200 F 
ENDBRANCH  27  41
BRANCH  28  52
ATOM     52  C   UNL A   1      40.319  34.549  36.869  1.00  0.00     0.064 A 
ATOM     53  C   UNL A   1      41.202  35.642  36.865  1.00  0.00     0.173 A 
ATOM     54  C   UNL A   1      39.455  34.425  37.967  1.00  0.00     0.173 A 
ATOM     55  F   UNL A   1      42.049  35.818  35.839  1.00  0.00    -0.203 F 
ATOM     56  C   UNL A   1      41.234  36.556  37.916  1.00  0.00     0.198 A 
ATOM     57  C   UNL A   1      39.464  35.360  39.003  1.00  0.00     0.198 A 
ATOM     58  F   UNL A   1      38.576  33.414  38.017  1.00  0.00    -0.203 F 
ATOM     59  F   UNL A   1      42.110  37.569  37.895  1.00  0.00    -0.200 F 
ATOM     60  C   UNL A   1      40.358  36.420  38.980  1.00  0.00     0.200 A 
ATOM     61  F   UNL A   1      38.594  35.242  40.015  1.00  0.00    -0.200 F 
ATOM     62  F   UNL A   1      40.367  37.315  39.978  1.00  0.00    -0.200 F 
ENDBRANCH  28  52
BRANCH  40  63
ATOM     63  C   UNL A   1      43.909  28.752  35.332  1.00  0.00     0.064 A 
ATOM     64  C   UNL A   1      45.250  29.010  35.010  1.00  0.00     0.173 A 
ATOM     65  C   UNL A   1      43.629  27.730  36.248  1.00  0.00     0.173 A 
ATOM     66  F   UNL A   1      45.562  29.971  34.127  1.00  0.00    -0.203 F 
ATOM     67  C   UNL A   1      46.273  28.250  35.563  1.00  0.00     0.198 A 
ATOM     68  C   UNL A   1      44.658  26.996  36.828  1.00  0.00     0.198 A 
ATOM     69  F   UNL A   1      42.361  27.458  36.592  1.00  0.00    -0.203 F 
ATOM     70  F   UNL A   1      47.544  28.477  35.203  1.00  0.00    -0.200 F 
ATOM     71  C   UNL A   1      45.977  27.247  36.475  1.00  0.00     0.200 A 
ATOM     72  F   UNL A   1      44.375  26.044  37.726  1.00  0.00    -0.200 F 
ATOM     73  F   UNL A   1      46.964  26.518  37.012  1.00  0.00    -0.200 F 
ENDBRANCH  40  63
ENDBRANCH  14  15
ENDBRANCH   7   9
ENDBRANCH   6   7
ENDBRANCH   5   6
ENDBRANCH   4   5
ENDBRANCH   3   4
ENDBRANCH   2   3
ENDBRANCH   1   2
BRANCH   1  74
ATOM     74  O   UNL A   1      31.569  29.192  23.899  1.00  0.00    -0.377 OA
BRANCH  74  75
ATOM     75  C   UNL A   1      30.289  29.559  23.396  1.00  0.00     0.188 C 
BRANCH  75  76
ATOM     76  C   UNL A   1      29.396  28.465  22.763  1.00  0.00     0.188 C 
BRANCH  76  77
ATOM     77  O   UNL A   1      28.609  27.755  23.701  1.00  0.00    -0.376 OA
BRANCH  77  78
ATOM     78  C   UNL A   1      28.747  26.340  23.730  1.00  0.00     0.202 C 
BRANCH  78  79
ATOM     79  C   UNL A   1      30.095  25.676  24.079  1.00  0.00     0.261 C 
BRANCH  79  80
ATOM     80  O   UNL A   1      30.720  24.872  23.068  1.00  0.00    -0.460 OA
BRANCH  80  81
ATOM     81  C   UNL A   1      31.835  25.341  22.458  1.00  0.00     0.341 C 
ATOM     82  O   UNL A   1      31.917  26.298  21.726  1.00  0.00    -0.246 OA
BRANCH  81  83
ATOM     83  C   UNL A   1      32.995  24.652  23.073  1.00  0.00     0.095 A 
ATOM     84  C   UNL A   1      33.751  25.335  24.039  1.00  0.00     0.019 A 
ATOM     85  C   UNL A   1      33.275  23.318  22.801  1.00  0.00     0.138 A 
ATOM     86  C   UNL A   1      34.779  24.675  24.720  1.00  0.00     0.010 A 
ATOM     87  C   UNL A   1      34.328  22.669  23.450  1.00  0.00     0.049 A 
ATOM     88  F   UNL A   1      32.563  22.637  21.892  1.00  0.00    -0.206 F 
ATOM     89  C   UNL A   1      35.110  23.348  24.401  1.00  0.00    -0.015 A 
BRANCH  89  90
ATOM     90  C   UNL A   1      36.354  22.759  24.905  1.00  0.00    -0.018 A 
ATOM     91  C   UNL A   1      36.615  21.412  24.597  1.00  0.00     0.010 A 
ATOM     92  C   UNL A   1      37.311  23.476  25.637  1.00  0.00     0.010 A 
ATOM     93  C   UNL A   1      37.796  20.791  25.004  1.00  0.00     0.021 A 
ATOM     94  C   UNL A   1      38.498  22.853  26.051  1.00  0.00     0.021 A 
ATOM     95  C   UNL A   1      38.733  21.515  25.730  1.00  0.00     0.041 A 
ATOM     96  Cl  UNL A   1      40.192  20.752  26.228  1.00  0.00    -0.084 Cl
ENDBRANCH  89  90
ENDBRANCH  81  83
ENDBRANCH  80  81
ENDBRANCH  79  80
ENDBRANCH  78  79
ENDBRANCH  77  78
ENDBRANCH  76  77
ENDBRANCH  75  76
ENDBRANCH  74  75
ENDBRANCH   1  74
TORSDOF 21
ENDMDL
MODEL 3
REMARK VINA RESULT:     -10.9      4.546      8.918
REMARK SMILES O=C(OCCOCCOCCOCCOC(=O)c1ccc(-c2ccc(Cl)cc2)cc1F)c1ccc(-c2c3nc(c(-c4c(F)c(F)c(F)c(F)c4F)c4ccc([nH]4)c(-c4c(F)c(F)c(F)c(F)c4F)c4nc(c(-c5c(F)c(F)c(F)c(F)c5F)c5ccc2[nH]5)C=C4)C=C3)cc1
REMARK SMILES IDX 8 1 7 2 6 3 5 4 4 5 3 6 2 7 1 8 32 9 33 10 94 11 34 12 93 13
REMARK SMILES IDX 35 14 36 15 37 16 87 17 38 18 92 19 86 20 88 21 39 22 91 23
REMARK SMILES IDX 85 24 84 25 40 27 72 28 52 29 71 30 53 31 56 32 70 33 89 34
REMARK SMILES IDX 54 35 55 36 69 38 90 39 57 40 41 41 42 42 50 43 43 44 44 45
REMARK SMILES IDX 48 46 51 47 45 48 46 49 49 50 47 51 73 52 74 53 82 54 75 55
REMARK SMILES IDX 76 56 80 57 83 58 77 59 78 60 81 61 79 62 58 63 59 64 67 65
REMARK SMILES IDX 60 66 61 67 65 68 68 69 62 70 63 71 66 72 64 73 9 74 10 75
REMARK SMILES IDX 11 76 12 77 13 78 14 79 15 80 16 81 17 82 18 83 19 84 30 85
REMARK SMILES IDX 20 86 29 87 31 88 21 89 22 90 23 91 28 92 24 93 27 94 25 95
REMARK SMILES IDX 26 96
REMARK H PARENT 88 26 56 37
REMARK Flexibility Score: inf
ROOT
ATOM      1  C   UNL A   1      34.721  21.832  26.697  1.00  0.00     0.188 C 
ENDROOT
BRANCH   1   2
ATOM      2  C   UNL A   1      34.752  20.939  25.456  1.00  0.00     0.188 C 
BRANCH   2   3
ATOM      3  O   UNL A   1      35.413  21.575  24.362  1.00  0.00    -0.376 OA
BRANCH   3   4
ATOM      4  C   UNL A   1      36.755  22.004  24.577  1.00  0.00     0.202 C 
BRANCH   4   5
ATOM      5  C   UNL A   1      37.776  20.890  24.810  1.00  0.00     0.261 C 
BRANCH   5   6
ATOM      6  O   UNL A   1      38.357  20.896  26.123  1.00  0.00    -0.460 OA
BRANCH   6   7
ATOM      7  C   UNL A   1      39.630  21.182  26.490  1.00  0.00     0.338 C 
ATOM      8  O   UNL A   1      40.439  20.257  26.559  1.00  0.00    -0.246 OA
BRANCH   7   9
ATOM      9  C   UNL A   1      40.126  22.553  26.817  1.00  0.00     0.060 A 
ATOM     10  C   UNL A   1      39.659  23.736  26.250  1.00  0.00     0.016 A 
ATOM     11  C   UNL A   1      41.084  22.658  27.839  1.00  0.00     0.016 A 
ATOM     12  C   UNL A   1      40.162  24.972  26.603  1.00  0.00     0.010 A 
ATOM     13  C   UNL A   1      41.586  23.903  28.230  1.00  0.00     0.010 A 
ATOM     14  C   UNL A   1      41.143  25.060  27.581  1.00  0.00    -0.014 A 
BRANCH  14  15
ATOM     15  C   UNL A   1      41.817  26.357  27.719  1.00  0.00     0.031 A 
ATOM     16  C   UNL A   1      41.150  27.382  28.584  1.00  0.00     0.074 A 
ATOM     17  C   UNL A   1      43.073  26.510  27.263  1.00  0.00     0.049 A 
ATOM     18  N   UNL A   1      41.505  28.611  28.835  1.00  0.00    -0.248 NA
ATOM     19  C   UNL A   1      39.923  26.955  29.285  1.00  0.00     0.031 C 
ATOM     20  C   UNL A   1      43.856  25.471  26.586  1.00  0.00     0.029 A 
ATOM     21  N   UNL A   1      43.929  27.572  27.342  1.00  0.00    -0.354 N 
ATOM     22  C   UNL A   1      40.531  29.109  29.689  1.00  0.00     0.074 A 
ATOM     23  C   UNL A   1      39.566  28.061  29.916  1.00  0.00     0.031 C 
ATOM     24  C   UNL A   1      45.088  25.942  26.339  1.00  0.00     0.029 A 
ATOM     25  C   UNL A   1      45.150  27.337  26.757  1.00  0.00     0.049 A 
ATOM     26  H   UNL A   1      43.694  28.424  27.776  1.00  0.00     0.167 HD
ATOM     27  C   UNL A   1      40.465  30.344  30.229  1.00  0.00     0.037 A 
ATOM     28  C   UNL A   1      46.175  28.184  26.552  1.00  0.00     0.037 A 
ATOM     29  C   UNL A   1      41.462  31.347  29.986  1.00  0.00     0.049 A 
ATOM     30  C   UNL A   1      46.005  29.600  27.036  1.00  0.00     0.074 A 
ATOM     31  C   UNL A   1      41.475  32.668  30.384  1.00  0.00     0.029 A 
ATOM     32  N   UNL A   1      42.637  31.121  29.279  1.00  0.00    -0.354 N 
ATOM     33  N   UNL A   1      45.026  30.119  27.741  1.00  0.00    -0.248 NA
ATOM     34  C   UNL A   1      47.061  30.553  26.681  1.00  0.00     0.031 C 
ATOM     35  C   UNL A   1      42.638  33.255  29.876  1.00  0.00     0.029 A 
ATOM     36  C   UNL A   1      43.379  32.284  29.217  1.00  0.00     0.049 A 
ATOM     37  H   UNL A   1      42.900  30.260  28.882  1.00  0.00     0.167 HD
ATOM     38  C   UNL A   1      45.355  31.451  27.934  1.00  0.00     0.074 A 
ATOM     39  C   UNL A   1      46.638  31.656  27.285  1.00  0.00     0.031 C 
ATOM     40  C   UNL A   1      44.665  32.424  28.578  1.00  0.00     0.037 A 
BRANCH  27  41
ATOM     41  C   UNL A   1      39.267  30.681  31.061  1.00  0.00     0.064 A 
ATOM     42  C   UNL A   1      38.089  31.134  30.446  1.00  0.00     0.173 A 
ATOM     43  C   UNL A   1      39.277  30.572  32.459  1.00  0.00     0.173 A 
ATOM     44  F   UNL A   1      38.023  31.237  29.111  1.00  0.00    -0.203 F 
ATOM     45  C   UNL A   1      36.975  31.486  31.201  1.00  0.00     0.198 A 
ATOM     46  C   UNL A   1      38.150  30.901  33.211  1.00  0.00     0.198 A 
ATOM     47  F   UNL A   1      40.364  30.108  33.093  1.00  0.00    -0.203 F 
ATOM     48  F   UNL A   1      35.870  31.937  30.591  1.00  0.00    -0.200 F 
ATOM     49  C   UNL A   1      37.005  31.367  32.582  1.00  0.00     0.200 A 
ATOM     50  F   UNL A   1      38.168  30.752  34.543  1.00  0.00    -0.200 F 
ATOM     51  F   UNL A   1      35.926  31.694  33.307  1.00  0.00    -0.200 F 
ENDBRANCH  27  41
BRANCH  28  52
ATOM     52  C   UNL A   1      47.395  27.740  25.823  1.00  0.00     0.064 A 
ATOM     53  C   UNL A   1      47.446  27.729  24.419  1.00  0.00     0.173 A 
ATOM     54  C   UNL A   1      48.545  27.327  26.511  1.00  0.00     0.173 A 
ATOM     55  F   UNL A   1      46.380  28.119  23.703  1.00  0.00    -0.203 F 
ATOM     56  C   UNL A   1      48.586  27.308  23.736  1.00  0.00     0.198 A 
ATOM     57  C   UNL A   1      49.697  26.938  25.827  1.00  0.00     0.198 A 
ATOM     58  F   UNL A   1      48.561  27.336  27.852  1.00  0.00    -0.203 F 
ATOM     59  F   UNL A   1      48.590  27.281  22.396  1.00  0.00    -0.200 F 
ATOM     60  C   UNL A   1      49.714  26.923  24.440  1.00  0.00     0.200 A 
ATOM     61  F   UNL A   1      50.796  26.595  26.512  1.00  0.00    -0.200 F 
ATOM     62  F   UNL A   1      50.821  26.545  23.785  1.00  0.00    -0.200 F 
ENDBRANCH  28  52
BRANCH  40  63
ATOM     63  C   UNL A   1      45.298  33.779  28.650  1.00  0.00     0.064 A 
ATOM     64  C   UNL A   1      45.053  34.721  27.640  1.00  0.00     0.173 A 
ATOM     65  C   UNL A   1      46.223  34.101  29.651  1.00  0.00     0.173 A 
ATOM     66  F   UNL A   1      44.185  34.448  26.654  1.00  0.00    -0.203 F 
ATOM     67  C   UNL A   1      45.735  35.931  27.616  1.00  0.00     0.198 A 
ATOM     68  C   UNL A   1      46.876  35.329  29.644  1.00  0.00     0.198 A 
ATOM     69  F   UNL A   1      46.478  33.233  30.642  1.00  0.00    -0.203 F 
ATOM     70  F   UNL A   1      45.526  36.796  26.613  1.00  0.00    -0.200 F 
ATOM     71  C   UNL A   1      46.642  36.236  28.620  1.00  0.00     0.200 A 
ATOM     72  F   UNL A   1      47.734  35.634  30.627  1.00  0.00    -0.200 F 
ATOM     73  F   UNL A   1      47.295  37.405  28.600  1.00  0.00    -0.200 F 
ENDBRANCH  40  63
ENDBRANCH  14  15
ENDBRANCH   7   9
ENDBRANCH   6   7
ENDBRANCH   5   6
ENDBRANCH   4   5
ENDBRANCH   3   4
ENDBRANCH   2   3
ENDBRANCH   1   2
BRANCH   1  74
ATOM     74  O   UNL A   1      34.033  23.072  26.545  1.00  0.00    -0.377 OA
BRANCH  74  75
ATOM     75  C   UNL A   1      32.738  23.155  27.128  1.00  0.00     0.188 C 
BRANCH  75  76
ATOM     76  C   UNL A   1      31.502  23.177  26.197  1.00  0.00     0.188 C 
BRANCH  76  77
ATOM     77  O   UNL A   1      31.187  21.917  25.635  1.00  0.00    -0.376 OA
BRANCH  77  78
ATOM     78  C   UNL A   1      31.674  21.644  24.328  1.00  0.00     0.202 C 
BRANCH  78  79
ATOM     79  C   UNL A   1      31.810  22.766  23.276  1.00  0.00     0.261 C 
BRANCH  79  80
ATOM     80  O   UNL A   1      33.106  23.357  23.101  1.00  0.00    -0.460 OA
BRANCH  80  81
ATOM     81  C   UNL A   1      33.211  24.493  22.370  1.00  0.00     0.341 C 
ATOM     82  O   UNL A   1      33.080  24.604  21.175  1.00  0.00    -0.246 OA
BRANCH  81  83
ATOM     83  C   UNL A   1      33.229  25.629  23.323  1.00  0.00     0.095 A 
ATOM     84  C   UNL A   1      32.199  26.581  23.256  1.00  0.00     0.019 A 
ATOM     85  C   UNL A   1      34.167  25.705  24.345  1.00  0.00     0.138 A 
ATOM     86  C   UNL A   1      32.123  27.600  24.211  1.00  0.00     0.010 A 
ATOM     87  C   UNL A   1      34.117  26.746  25.276  1.00  0.00     0.049 A 
ATOM     88  F   UNL A   1      35.155  24.804  24.441  1.00  0.00    -0.206 F 
ATOM     89  C   UNL A   1      33.107  27.721  25.205  1.00  0.00    -0.015 A 
BRANCH  89  90
ATOM     90  C   UNL A   1      33.184  28.939  26.019  1.00  0.00    -0.018 A 
ATOM     91  C   UNL A   1      34.363  29.165  26.752  1.00  0.00     0.010 A 
ATOM     92  C   UNL A   1      32.168  29.903  26.070  1.00  0.00     0.010 A 
ATOM     93  C   UNL A   1      34.530  30.319  27.516  1.00  0.00     0.021 A 
ATOM     94  C   UNL A   1      32.332  31.063  26.842  1.00  0.00     0.021 A 
ATOM     95  C   UNL A   1      33.513  31.265  27.558  1.00  0.00     0.041 A 
ATOM     96  Cl  UNL A   1      33.720  32.691  28.497  1.00  0.00    -0.084 Cl
ENDBRANCH  89  90
ENDBRANCH  81  83
ENDBRANCH  80  81
ENDBRANCH  79  80
ENDBRANCH  78  79
ENDBRANCH  77  78
ENDBRANCH  76  77
ENDBRANCH  75  76
ENDBRANCH  74  75
ENDBRANCH   1  74
TORSDOF 21
ENDMDL
