MODEL 1
REMARK VINA RESULT:     -10.7      0.000      0.000
REMARK SMILES Cc1ccn(-c2cccc(NS(=O)(=O)c3cc(C(=O)OCCOCCOCCOCCOC(=O)c4ccc(-c5c6nc(c(-c7c(F)c(F)c(F)c(F)c7F)c7ccc([nH]7)c(-c7c(F)c(F)c(F)c(F)c7F)c7nc(c(-c8c(F)c(F)c(F)c(F)c8F)c8ccc5[nH]8)C=C7)C=C6)cc4)cc(F)c3C)c2)n1
REMARK SMILES IDX 25 1 24 2 23 3 22 4 21 5 20 6 18 7 19 8 17 9 15 10 16 11
REMARK SMILES IDX 101 12 99 13 102 14 98 15 100 16 12 17 13 18 14 19 11 20
REMARK SMILES IDX 10 22 6 23 7 24 103 25 8 26 9 27 5 28 1 29 2 30 3 31 104 32
REMARK SMILES IDX 4 33 26 34 27 35 28 36 29 37 30 38 31 39 32 40 33 41 34 42
REMARK SMILES IDX 35 43 36 44 97 45 37 46 96 47 38 48 39 49 40 50 90 51 41 52
REMARK SMILES IDX 95 53 89 54 91 55 42 56 94 57 88 58 87 59 43 61 75 62 55 63
REMARK SMILES IDX 74 64 56 65 59 66 73 67 92 68 57 69 58 70 72 72 93 73 60 74
REMARK SMILES IDX 44 75 45 76 53 77 46 78 47 79 51 80 54 81 48 82 49 83 52 84
REMARK SMILES IDX 50 85 76 86 77 87 85 88 78 89 79 90 83 91 86 92 80 93 81 94
REMARK SMILES IDX 84 95 82 96 61 97 62 98 70 99 63 100 64 101 68 102 71 103
REMARK SMILES IDX 65 104 66 105 69 106 67 107
REMARK H PARENT 11 21 91 60 59 71
REMARK Flexibility Score: inf
ROOT
ATOM      1  C   UNL A   1      41.407  19.905  25.974  1.00  0.00     0.188 C 
ENDROOT
BRANCH   1   2
ATOM      2  C   UNL A   1      40.419  20.703  26.856  1.00  0.00     0.188 C 
BRANCH   2   3
ATOM      3  O   UNL A   1      39.561  21.548  26.115  1.00  0.00    -0.376 OA
BRANCH   3   4
ATOM      4  C   UNL A   1      39.347  22.891  26.485  1.00  0.00     0.202 C 
BRANCH   4   5
ATOM      5  C   UNL A   1      38.029  23.648  26.243  1.00  0.00     0.261 C 
BRANCH   5   6
ATOM      6  O   UNL A   1      37.011  22.978  25.499  1.00  0.00    -0.460 OA
BRANCH   6   7
ATOM      7  C   UNL A   1      35.809  22.847  26.090  1.00  0.00     0.338 C 
ATOM      8  O   UNL A   1      35.502  23.162  27.233  1.00  0.00    -0.246 OA
BRANCH   7   9
ATOM      9  C   UNL A   1      34.834  22.471  25.048  1.00  0.00     0.064 A 
ATOM     10  C   UNL A   1      33.443  23.157  23.171  1.00  0.00     0.094 A 
ATOM     11  C   UNL A   1      34.406  23.456  24.152  1.00  0.00     0.038 A 
ATOM     12  C   UNL A   1      32.920  21.854  23.067  1.00  0.00     0.005 A 
ATOM     13  C   UNL A   1      33.443  20.872  23.927  1.00  0.00     0.128 A 
ATOM     14  C   UNL A   1      31.781  21.450  22.174  1.00  0.00     0.049 C 
ATOM     15  C   UNL A   1      34.382  21.162  24.913  1.00  0.00     0.055 A 
ATOM     16  F   UNL A   1      32.977  19.616  23.851  1.00  0.00    -0.207 F 
BRANCH  10  17
ATOM     17  S   UNL A   1      32.817  24.541  22.232  1.00  0.00     0.262 S 
ATOM     18  O   UNL A   1      31.408  24.679  22.530  1.00  0.00    -0.201 OA
ATOM     19  O   UNL A   1      33.245  24.380  20.857  1.00  0.00    -0.201 OA
BRANCH  17  20
ATOM     20  N   UNL A   1      33.625  25.914  22.868  1.00  0.00    -0.280 N 
ATOM     21  H   UNL A   1      34.571  26.083  22.657  1.00  0.00     0.180 HD
BRANCH  20  22
ATOM     22  C   UNL A   1      32.888  26.815  23.720  1.00  0.00     0.051 A 
ATOM     23  C   UNL A   1      31.189  28.491  24.081  1.00  0.00     0.067 A 
ATOM     24  C   UNL A   1      31.631  28.680  25.399  1.00  0.00     0.028 A 
ATOM     25  C   UNL A   1      31.822  27.567  23.229  1.00  0.00     0.055 A 
ATOM     26  C   UNL A   1      32.607  27.845  25.909  1.00  0.00     0.004 A 
ATOM     27  C   UNL A   1      33.171  26.879  25.086  1.00  0.00     0.027 A 
BRANCH  23  28
ATOM     28  N   UNL A   1      30.016  29.170  23.677  1.00  0.00    -0.241 N 
ATOM     29  C   UNL A   1      28.586  32.317  22.880  1.00  0.00     0.069 C 
ATOM     30  C   UNL A   1      28.905  30.881  23.079  1.00  0.00     0.060 A 
ATOM     31  C   UNL A   1      28.329  29.790  22.397  1.00  0.00     0.045 A 
ATOM     32  N   UNL A   1      29.842  30.487  23.955  1.00  0.00    -0.173 NA
ATOM     33  C   UNL A   1      29.061  28.704  22.803  1.00  0.00     0.115 A 
ENDBRANCH  23  28
ENDBRANCH  20  22
ENDBRANCH  17  20
ENDBRANCH  10  17
ENDBRANCH   7   9
ENDBRANCH   6   7
ENDBRANCH   5   6
ENDBRANCH   4   5
ENDBRANCH   3   4
ENDBRANCH   2   3
ENDBRANCH   1   2
BRANCH   1  34
ATOM     34  O   UNL A   1      42.765  19.893  26.378  1.00  0.00    -0.377 OA
BRANCH  34  35
ATOM     35  C   UNL A   1      43.730  19.236  25.560  1.00  0.00     0.188 C 
BRANCH  35  36
ATOM     36  C   UNL A   1      44.924  19.961  24.867  1.00  0.00     0.188 C 
BRANCH  36  37
ATOM     37  O   UNL A   1      44.596  20.841  23.803  1.00  0.00    -0.376 OA
BRANCH  37  38
ATOM     38  C   UNL A   1      44.104  22.152  23.994  1.00  0.00     0.202 C 
BRANCH  38  39
ATOM     39  C   UNL A   1      45.077  23.201  24.518  1.00  0.00     0.261 C 
BRANCH  39  40
ATOM     40  O   UNL A   1      44.576  24.515  24.395  1.00  0.00    -0.460 OA
BRANCH  40  41
ATOM     41  C   UNL A   1      44.894  25.321  25.416  1.00  0.00     0.338 C 
ATOM     42  O   UNL A   1      46.019  25.677  25.768  1.00  0.00    -0.246 OA
BRANCH  41  43
ATOM     43  C   UNL A   1      43.670  25.634  26.146  1.00  0.00     0.060 A 
ATOM     44  C   UNL A   1      42.850  26.584  25.539  1.00  0.00     0.016 A 
ATOM     45  C   UNL A   1      43.687  25.400  27.528  1.00  0.00     0.016 A 
ATOM     46  C   UNL A   1      42.331  27.557  26.347  1.00  0.00     0.010 A 
ATOM     47  C   UNL A   1      43.213  26.395  28.328  1.00  0.00     0.010 A 
ATOM     48  C   UNL A   1      42.646  27.505  27.707  1.00  0.00    -0.014 A 
BRANCH  48  49
ATOM     49  C   UNL A   1      42.326  28.651  28.512  1.00  0.00     0.031 A 
ATOM     50  C   UNL A   1      43.308  29.731  28.338  1.00  0.00     0.074 A 
ATOM     51  C   UNL A   1      41.187  28.699  29.224  1.00  0.00     0.049 A 
ATOM     52  N   UNL A   1      44.141  30.182  29.212  1.00  0.00    -0.248 NA
ATOM     53  C   UNL A   1      43.545  30.212  26.966  1.00  0.00     0.031 C 
ATOM     54  C   UNL A   1      40.062  27.760  29.210  1.00  0.00     0.029 A 
ATOM     55  N   UNL A   1      40.748  29.692  30.036  1.00  0.00    -0.354 N 
ATOM     56  C   UNL A   1      44.863  31.164  28.545  1.00  0.00     0.074 A 
ATOM     57  C   UNL A   1      44.634  30.958  27.143  1.00  0.00     0.031 C 
ATOM     58  C   UNL A   1      38.989  28.346  29.789  1.00  0.00     0.029 A 
ATOM     59  C   UNL A   1      39.386  29.645  30.302  1.00  0.00     0.049 A 
ATOM     60  H   UNL A   1      41.342  30.384  30.406  1.00  0.00     0.167 HD
ATOM     61  C   UNL A   1      45.308  32.257  29.217  1.00  0.00     0.037 A 
ATOM     62  C   UNL A   1      38.661  30.688  30.778  1.00  0.00     0.037 A 
ATOM     63  C   UNL A   1      45.399  31.981  30.634  1.00  0.00     0.049 A 
ATOM     64  C   UNL A   1      39.627  31.643  31.397  1.00  0.00     0.074 A 
ATOM     65  C   UNL A   1      46.070  31.034  31.386  1.00  0.00     0.029 A 
ATOM     66  N   UNL A   1      44.421  32.483  31.461  1.00  0.00    -0.354 N 
ATOM     67  N   UNL A   1      40.310  31.381  32.480  1.00  0.00    -0.248 NA
ATOM     68  C   UNL A   1      40.198  32.676  30.539  1.00  0.00     0.031 C 
ATOM     69  C   UNL A   1      45.170  30.680  32.433  1.00  0.00     0.029 A 
ATOM     70  C   UNL A   1      44.030  31.473  32.303  1.00  0.00     0.049 A 
ATOM     71  H   UNL A   1      44.068  33.401  31.451  1.00  0.00     0.167 HD
ATOM     72  C   UNL A   1      41.579  31.888  32.232  1.00  0.00     0.074 A 
ATOM     73  C   UNL A   1      41.431  32.735  31.051  1.00  0.00     0.031 C 
ATOM     74  C   UNL A   1      42.687  31.341  32.817  1.00  0.00     0.037 A 
BRANCH  61  75
ATOM     75  C   UNL A   1      45.218  33.659  28.655  1.00  0.00     0.064 A 
ATOM     76  C   UNL A   1      46.381  34.452  28.670  1.00  0.00     0.173 A 
ATOM     77  C   UNL A   1      44.015  34.361  28.399  1.00  0.00     0.173 A 
ATOM     78  F   UNL A   1      47.583  33.897  28.886  1.00  0.00    -0.203 F 
ATOM     79  C   UNL A   1      46.327  35.844  28.570  1.00  0.00     0.198 A 
ATOM     80  C   UNL A   1      43.972  35.744  28.250  1.00  0.00     0.198 A 
ATOM     81  F   UNL A   1      42.814  33.776  28.379  1.00  0.00    -0.203 F 
ATOM     82  F   UNL A   1      47.443  36.562  28.740  1.00  0.00    -0.200 F 
ATOM     83  C   UNL A   1      45.120  36.490  28.378  1.00  0.00     0.200 A 
ATOM     84  F   UNL A   1      42.788  36.347  28.068  1.00  0.00    -0.200 F 
ATOM     85  F   UNL A   1      45.056  37.827  28.360  1.00  0.00    -0.200 F 
ENDBRANCH  61  75
BRANCH  62  86
ATOM     86  C   UNL A   1      37.283  31.076  30.380  1.00  0.00     0.064 A 
ATOM     87  C   UNL A   1      36.358  31.530  31.334  1.00  0.00     0.173 A 
ATOM     88  C   UNL A   1      36.919  31.255  29.029  1.00  0.00     0.173 A 
ATOM     89  F   UNL A   1      36.644  31.448  32.642  1.00  0.00    -0.203 F 
ATOM     90  C   UNL A   1      35.155  32.140  30.959  1.00  0.00     0.198 A 
ATOM     91  C   UNL A   1      35.715  31.850  28.657  1.00  0.00     0.198 A 
ATOM     92  F   UNL A   1      37.763  30.944  28.035  1.00  0.00    -0.203 F 
ATOM     93  F   UNL A   1      34.326  32.617  31.898  1.00  0.00    -0.200 F 
ATOM     94  C   UNL A   1      34.838  32.305  29.621  1.00  0.00     0.200 A 
ATOM     95  F   UNL A   1      35.439  32.035  27.357  1.00  0.00    -0.200 F 
ATOM     96  F   UNL A   1      33.712  32.937  29.261  1.00  0.00    -0.200 F 
ENDBRANCH  62  86
BRANCH  74  97
ATOM     97  C   UNL A   1      42.482  30.339  33.918  1.00  0.00     0.064 A 
ATOM     98  C   UNL A   1      42.206  28.978  33.696  1.00  0.00     0.173 A 
ATOM     99  C   UNL A   1      42.733  30.738  35.237  1.00  0.00     0.173 A 
ATOM    100  F   UNL A   1      42.064  28.498  32.455  1.00  0.00    -0.203 F 
ATOM    101  C   UNL A   1      42.141  28.071  34.754  1.00  0.00     0.198 A 
ATOM    102  C   UNL A   1      42.705  29.824  36.286  1.00  0.00     0.198 A 
ATOM    103  F   UNL A   1      43.060  32.013  35.502  1.00  0.00    -0.203 F 
ATOM    104  F   UNL A   1      41.866  26.781  34.516  1.00  0.00    -0.200 F 
ATOM    105  C   UNL A   1      42.399  28.494  36.047  1.00  0.00     0.200 A 
ATOM    106  F   UNL A   1      43.008  30.227  37.528  1.00  0.00    -0.200 F 
ATOM    107  F   UNL A   1      42.382  27.615  37.058  1.00  0.00    -0.200 F 
ENDBRANCH  74  97
ENDBRANCH  48  49
ENDBRANCH  41  43
ENDBRANCH  40  41
ENDBRANCH  39  40
ENDBRANCH  38  39
ENDBRANCH  37  38
ENDBRANCH  36  37
ENDBRANCH  35  36
ENDBRANCH  34  35
ENDBRANCH   1  34
TORSDOF 24
ENDMDL
MODEL 2
REMARK VINA RESULT:     -10.4      1.710      2.882
REMARK SMILES Cc1ccn(-c2cccc(NS(=O)(=O)c3cc(C(=O)OCCOCCOCCOCCOC(=O)c4ccc(-c5c6nc(c(-c7c(F)c(F)c(F)c(F)c7F)c7ccc([nH]7)c(-c7c(F)c(F)c(F)c(F)c7F)c7nc(c(-c8c(F)c(F)c(F)c(F)c8F)c8ccc5[nH]8)C=C7)C=C6)cc4)cc(F)c3C)c2)n1
REMARK SMILES IDX 25 1 24 2 23 3 22 4 21 5 20 6 18 7 19 8 17 9 15 10 16 11
REMARK SMILES IDX 101 12 99 13 102 14 98 15 100 16 12 17 13 18 14 19 11 20
REMARK SMILES IDX 10 22 6 23 7 24 103 25 8 26 9 27 5 28 1 29 2 30 3 31 104 32
REMARK SMILES IDX 4 33 26 34 27 35 28 36 29 37 30 38 31 39 32 40 33 41 34 42
REMARK SMILES IDX 35 43 36 44 97 45 37 46 96 47 38 48 39 49 40 50 90 51 41 52
REMARK SMILES IDX 95 53 89 54 91 55 42 56 94 57 88 58 87 59 43 61 75 62 55 63
REMARK SMILES IDX 74 64 56 65 59 66 73 67 92 68 57 69 58 70 72 72 93 73 60 74
REMARK SMILES IDX 44 75 45 76 53 77 46 78 47 79 51 80 54 81 48 82 49 83 52 84
REMARK SMILES IDX 50 85 76 86 77 87 85 88 78 89 79 90 83 91 86 92 80 93 81 94
REMARK SMILES IDX 84 95 82 96 61 97 62 98 70 99 63 100 64 101 68 102 71 103
REMARK SMILES IDX 65 104 66 105 69 106 67 107
REMARK H PARENT 11 21 91 60 59 71
REMARK Flexibility Score: inf
ROOT
ATOM      1  C   UNL A   1      42.766  18.877  26.026  1.00  0.00     0.188 C 
ENDROOT
BRANCH   1   2
ATOM      2  C   UNL A   1      41.497  19.712  25.742  1.00  0.00     0.188 C 
BRANCH   2   3
ATOM      3  O   UNL A   1      40.956  20.323  26.896  1.00  0.00    -0.376 OA
BRANCH   3   4
ATOM      4  C   UNL A   1      40.090  21.431  26.809  1.00  0.00     0.202 C 
BRANCH   4   5
ATOM      5  C   UNL A   1      38.978  21.570  25.755  1.00  0.00     0.261 C 
BRANCH   5   6
ATOM      6  O   UNL A   1      37.675  21.932  26.215  1.00  0.00    -0.460 OA
BRANCH   6   7
ATOM      7  C   UNL A   1      37.245  23.172  25.919  1.00  0.00     0.338 C 
ATOM      8  O   UNL A   1      37.927  24.148  25.631  1.00  0.00    -0.246 OA
BRANCH   7   9
ATOM      9  C   UNL A   1      35.778  23.115  25.766  1.00  0.00     0.064 A 
ATOM     10  C   UNL A   1      33.826  23.530  24.372  1.00  0.00     0.094 A 
ATOM     11  C   UNL A   1      35.221  23.522  24.549  1.00  0.00     0.038 A 
ATOM     12  C   UNL A   1      32.978  23.105  25.412  1.00  0.00     0.005 A 
ATOM     13  C   UNL A   1      33.581  22.618  26.586  1.00  0.00     0.128 A 
ATOM     14  C   UNL A   1      31.480  23.215  25.404  1.00  0.00     0.049 C 
ATOM     15  C   UNL A   1      34.960  22.624  26.778  1.00  0.00     0.055 A 
ATOM     16  F   UNL A   1      32.806  22.193  27.595  1.00  0.00    -0.207 F 
BRANCH  10  17
ATOM     17  S   UNL A   1      33.226  24.273  22.862  1.00  0.00     0.262 S 
ATOM     18  O   UNL A   1      32.958  23.209  21.920  1.00  0.00    -0.201 OA
ATOM     19  O   UNL A   1      34.135  25.341  22.497  1.00  0.00    -0.201 OA
BRANCH  17  20
ATOM     20  N   UNL A   1      31.726  24.992  23.285  1.00  0.00    -0.280 N 
ATOM     21  H   UNL A   1      30.913  24.444  23.373  1.00  0.00     0.180 HD
BRANCH  20  22
ATOM     22  C   UNL A   1      31.683  26.416  23.507  1.00  0.00     0.051 A 
ATOM     23  C   UNL A   1      32.066  28.370  24.870  1.00  0.00     0.067 A 
ATOM     24  C   UNL A   1      31.387  29.173  23.941  1.00  0.00     0.028 A 
ATOM     25  C   UNL A   1      32.207  26.985  24.666  1.00  0.00     0.055 A 
ATOM     26  C   UNL A   1      30.980  28.620  22.743  1.00  0.00     0.004 A 
ATOM     27  C   UNL A   1      31.196  27.266  22.512  1.00  0.00     0.027 A 
BRANCH  23  28
ATOM     28  N   UNL A   1      32.704  29.016  25.955  1.00  0.00    -0.241 N 
ATOM     29  C   UNL A   1      35.746  29.436  27.730  1.00  0.00     0.069 C 
ATOM     30  C   UNL A   1      34.377  29.523  27.164  1.00  0.00     0.060 A 
ATOM     31  C   UNL A   1      33.530  30.652  27.183  1.00  0.00     0.045 A 
ATOM     32  N   UNL A   1      33.814  28.486  26.528  1.00  0.00    -0.173 NA
ATOM     33  C   UNL A   1      32.462  30.295  26.401  1.00  0.00     0.115 A 
ENDBRANCH  23  28
ENDBRANCH  20  22
ENDBRANCH  17  20
ENDBRANCH  10  17
ENDBRANCH   7   9
ENDBRANCH   6   7
ENDBRANCH   5   6
ENDBRANCH   4   5
ENDBRANCH   3   4
ENDBRANCH   2   3
ENDBRANCH   1   2
BRANCH   1  34
ATOM     34  O   UNL A   1      44.010  19.553  25.964  1.00  0.00    -0.377 OA
BRANCH  34  35
ATOM     35  C   UNL A   1      44.542  19.918  24.692  1.00  0.00     0.188 C 
BRANCH  35  36
ATOM     36  C   UNL A   1      44.887  21.382  24.280  1.00  0.00     0.188 C 
BRANCH  36  37
ATOM     37  O   UNL A   1      43.789  22.259  24.089  1.00  0.00    -0.376 OA
BRANCH  37  38
ATOM     38  C   UNL A   1      43.143  22.947  25.142  1.00  0.00     0.202 C 
BRANCH  38  39
ATOM     39  C   UNL A   1      42.985  24.456  25.006  1.00  0.00     0.261 C 
BRANCH  39  40
ATOM     40  O   UNL A   1      44.087  25.166  25.529  1.00  0.00    -0.460 OA
BRANCH  40  41
ATOM     41  C   UNL A   1      43.863  25.721  26.727  1.00  0.00     0.338 C 
ATOM     42  O   UNL A   1      43.457  25.164  27.747  1.00  0.00    -0.246 OA
BRANCH  41  43
ATOM     43  C   UNL A   1      44.073  27.160  26.608  1.00  0.00     0.060 A 
ATOM     44  C   UNL A   1      44.990  27.697  27.510  1.00  0.00     0.016 A 
ATOM     45  C   UNL A   1      43.029  27.900  26.036  1.00  0.00     0.016 A 
ATOM     46  C   UNL A   1      44.635  28.863  28.129  1.00  0.00     0.010 A 
ATOM     47  C   UNL A   1      42.650  29.036  26.687  1.00  0.00     0.010 A 
ATOM     48  C   UNL A   1      43.402  29.426  27.792  1.00  0.00    -0.014 A 
BRANCH  48  49
ATOM     49  C   UNL A   1      42.909  30.497  28.613  1.00  0.00     0.031 A 
ATOM     50  C   UNL A   1      43.726  31.711  28.474  1.00  0.00     0.074 A 
ATOM     51  C   UNL A   1      41.767  30.364  29.309  1.00  0.00     0.049 A 
ATOM     52  N   UNL A   1      44.474  32.260  29.368  1.00  0.00    -0.248 NA
ATOM     53  C   UNL A   1      43.907  32.249  27.115  1.00  0.00     0.031 C 
ATOM     54  C   UNL A   1      40.790  29.272  29.260  1.00  0.00     0.029 A 
ATOM     55  N   UNL A   1      41.178  31.266  30.132  1.00  0.00    -0.354 N 
ATOM     56  C   UNL A   1      45.053  33.349  28.731  1.00  0.00     0.074 A 
ATOM     57  C   UNL A   1      44.874  33.141  27.322  1.00  0.00     0.031 C 
ATOM     58  C   UNL A   1      39.637  29.684  29.833  1.00  0.00     0.029 A 
ATOM     59  C   UNL A   1      39.834  31.017  30.376  1.00  0.00     0.049 A 
ATOM     60  H   UNL A   1      41.661  32.029  30.524  1.00  0.00     0.167 HD
ATOM     61  C   UNL A   1      45.327  34.481  29.430  1.00  0.00     0.037 A 
ATOM     62  C   UNL A   1      38.960  31.933  30.861  1.00  0.00     0.037 A 
ATOM     63  C   UNL A   1      45.439  34.192  30.842  1.00  0.00     0.049 A 
ATOM     64  C   UNL A   1      39.769  33.006  31.512  1.00  0.00     0.074 A 
ATOM     65  C   UNL A   1      46.232  33.337  31.587  1.00  0.00     0.029 A 
ATOM     66  N   UNL A   1      44.390  34.530  31.664  1.00  0.00    -0.354 N 
ATOM     67  N   UNL A   1      40.470  32.823  32.600  1.00  0.00    -0.248 NA
ATOM     68  C   UNL A   1      40.194  34.127  30.683  1.00  0.00     0.031 C 
ATOM     69  C   UNL A   1      45.380  32.835  32.613  1.00  0.00     0.029 A 
ATOM     70  C   UNL A   1      44.139  33.457  32.481  1.00  0.00     0.049 A 
ATOM     71  H   UNL A   1      43.906  35.387  31.665  1.00  0.00     0.167 HD
ATOM     72  C   UNL A   1      41.655  33.514  32.381  1.00  0.00     0.074 A 
ATOM     73  C   UNL A   1      41.399  34.354  31.214  1.00  0.00     0.031 C 
ATOM     74  C   UNL A   1      42.823  33.122  32.972  1.00  0.00     0.037 A 
BRANCH  61  75
ATOM     75  C   UNL A   1      45.041  35.867  28.893  1.00  0.00     0.064 A 
ATOM     76  C   UNL A   1      43.750  36.131  28.398  1.00  0.00     0.173 A 
ATOM     77  C   UNL A   1      46.022  36.830  28.555  1.00  0.00     0.173 A 
ATOM     78  F   UNL A   1      42.734  35.297  28.666  1.00  0.00    -0.203 F 
ATOM     79  C   UNL A   1      43.494  37.193  27.529  1.00  0.00     0.198 A 
ATOM     80  C   UNL A   1      45.752  37.917  27.728  1.00  0.00     0.198 A 
ATOM     81  F   UNL A   1      47.305  36.728  28.911  1.00  0.00    -0.203 F 
ATOM     82  F   UNL A   1      42.285  37.312  26.969  1.00  0.00    -0.200 F 
ATOM     83  C   UNL A   1      44.500  38.075  27.181  1.00  0.00     0.200 A 
ATOM     84  F   UNL A   1      46.745  38.757  27.403  1.00  0.00    -0.200 F 
ATOM     85  F   UNL A   1      44.277  39.048  26.289  1.00  0.00    -0.200 F 
ENDBRANCH  61  75
BRANCH  62  86
ATOM     86  C   UNL A   1      37.545  32.125  30.450  1.00  0.00     0.064 A 
ATOM     87  C   UNL A   1      36.503  32.039  31.387  1.00  0.00     0.173 A 
ATOM     88  C   UNL A   1      37.200  32.649  29.186  1.00  0.00     0.173 A 
ATOM     89  F   UNL A   1      36.751  31.602  32.631  1.00  0.00    -0.203 F 
ATOM     90  C   UNL A   1      35.205  32.465  31.085  1.00  0.00     0.198 A 
ATOM     91  C   UNL A   1      35.903  33.061  28.882  1.00  0.00     0.198 A 
ATOM     92  F   UNL A   1      38.130  32.863  28.245  1.00  0.00    -0.203 F 
ATOM     93  F   UNL A   1      34.252  32.425  32.027  1.00  0.00    -0.200 F 
ATOM     94  C   UNL A   1      34.908  32.982  29.835  1.00  0.00     0.200 A 
ATOM     95  F   UNL A   1      35.641  33.592  27.679  1.00  0.00    -0.200 F 
ATOM     96  F   UNL A   1      33.678  33.441  29.562  1.00  0.00    -0.200 F 
ENDBRANCH  62  86
BRANCH  74  97
ATOM     97  C   UNL A   1      42.752  32.077  34.051  1.00  0.00     0.064 A 
ATOM     98  C   UNL A   1      42.467  32.362  35.398  1.00  0.00     0.173 A 
ATOM     99  C   UNL A   1      42.815  30.729  33.677  1.00  0.00     0.173 A 
ATOM    100  F   UNL A   1      42.282  33.622  35.811  1.00  0.00    -0.203 F 
ATOM    101  C   UNL A   1      42.299  31.341  36.333  1.00  0.00     0.198 A 
ATOM    102  C   UNL A   1      42.609  29.712  34.605  1.00  0.00     0.198 A 
ATOM    103  F   UNL A   1      43.025  30.397  32.393  1.00  0.00    -0.203 F 
ATOM    104  F   UNL A   1      42.038  31.640  37.614  1.00  0.00    -0.200 F 
ATOM    105  C   UNL A   1      42.362  30.017  35.934  1.00  0.00     0.200 A 
ATOM    106  F   UNL A   1      42.618  28.433  34.203  1.00  0.00    -0.200 F 
ATOM    107  F   UNL A   1      42.155  29.035  36.822  1.00  0.00    -0.200 F 
ENDBRANCH  74  97
ENDBRANCH  48  49
ENDBRANCH  41  43
ENDBRANCH  40  41
ENDBRANCH  39  40
ENDBRANCH  38  39
ENDBRANCH  37  38
ENDBRANCH  36  37
ENDBRANCH  35  36
ENDBRANCH  34  35
ENDBRANCH   1  34
TORSDOF 24
ENDMDL
MODEL 3
REMARK VINA RESULT:     -10.3      2.214      3.516
REMARK SMILES Cc1ccn(-c2cccc(NS(=O)(=O)c3cc(C(=O)OCCOCCOCCOCCOC(=O)c4ccc(-c5c6nc(c(-c7c(F)c(F)c(F)c(F)c7F)c7ccc([nH]7)c(-c7c(F)c(F)c(F)c(F)c7F)c7nc(c(-c8c(F)c(F)c(F)c(F)c8F)c8ccc5[nH]8)C=C7)C=C6)cc4)cc(F)c3C)c2)n1
REMARK SMILES IDX 25 1 24 2 23 3 22 4 21 5 20 6 18 7 19 8 17 9 15 10 16 11
REMARK SMILES IDX 101 12 99 13 102 14 98 15 100 16 12 17 13 18 14 19 11 20
REMARK SMILES IDX 10 22 6 23 7 24 103 25 8 26 9 27 5 28 1 29 2 30 3 31 104 32
REMARK SMILES IDX 4 33 26 34 27 35 28 36 29 37 30 38 31 39 32 40 33 41 34 42
REMARK SMILES IDX 35 43 36 44 97 45 37 46 96 47 38 48 39 49 40 50 90 51 41 52
REMARK SMILES IDX 95 53 89 54 91 55 42 56 94 57 88 58 87 59 43 61 75 62 55 63
REMARK SMILES IDX 74 64 56 65 59 66 73 67 92 68 57 69 58 70 72 72 93 73 60 74
REMARK SMILES IDX 44 75 45 76 53 77 46 78 47 79 51 80 54 81 48 82 49 83 52 84
REMARK SMILES IDX 50 85 76 86 77 87 85 88 78 89 79 90 83 91 86 92 80 93 81 94
REMARK SMILES IDX 84 95 82 96 61 97 62 98 70 99 63 100 64 101 68 102 71 103
REMARK SMILES IDX 65 104 66 105 69 106 67 107
REMARK H PARENT 11 21 91 60 59 71
REMARK Flexibility Score: inf
ROOT
ATOM      1  C   UNL A   1      42.680  19.019  25.605  1.00  0.00     0.188 C 
ENDROOT
BRANCH   1   2
ATOM      2  C   UNL A   1      41.556  19.953  26.109  1.00  0.00     0.188 C 
BRANCH   2   3
ATOM      3  O   UNL A   1      40.287  19.649  25.566  1.00  0.00    -0.376 OA
BRANCH   3   4
ATOM      4  C   UNL A   1      39.108  20.237  26.066  1.00  0.00     0.202 C 
BRANCH   4   5
ATOM      5  C   UNL A   1      38.420  21.457  25.429  1.00  0.00     0.261 C 
BRANCH   5   6
ATOM      6  O   UNL A   1      37.043  21.674  25.740  1.00  0.00    -0.460 OA
BRANCH   6   7
ATOM      7  C   UNL A   1      36.619  22.950  25.780  1.00  0.00     0.338 C 
ATOM      8  O   UNL A   1      37.253  23.955  25.484  1.00  0.00    -0.246 OA
BRANCH   7   9
ATOM      9  C   UNL A   1      35.163  22.933  26.020  1.00  0.00     0.064 A 
ATOM     10  C   UNL A   1      32.928  23.467  25.217  1.00  0.00     0.094 A 
ATOM     11  C   UNL A   1      34.319  23.420  25.016  1.00  0.00     0.038 A 
ATOM     12  C   UNL A   1      32.370  23.002  26.423  1.00  0.00     0.005 A 
ATOM     13  C   UNL A   1      33.244  22.436  27.369  1.00  0.00     0.128 A 
ATOM     14  C   UNL A   1      30.928  23.144  26.819  1.00  0.00     0.049 C 
ATOM     15  C   UNL A   1      34.624  22.402  27.187  1.00  0.00     0.055 A 
ATOM     16  F   UNL A   1      32.749  21.971  28.526  1.00  0.00    -0.207 F 
BRANCH  10  17
ATOM     17  S   UNL A   1      31.976  24.308  23.960  1.00  0.00     0.262 S 
ATOM     18  O   UNL A   1      31.202  23.314  23.251  1.00  0.00    -0.201 OA
ATOM     19  O   UNL A   1      32.875  25.174  23.224  1.00  0.00    -0.201 OA
BRANCH  17  20
ATOM     20  N   UNL A   1      30.883  25.309  24.823  1.00  0.00    -0.280 N 
ATOM     21  H   UNL A   1      30.115  24.920  25.301  1.00  0.00     0.180 HD
BRANCH  20  22
ATOM     22  C   UNL A   1      31.113  26.733  24.832  1.00  0.00     0.051 A 
ATOM     23  C   UNL A   1      32.029  28.735  25.821  1.00  0.00     0.067 A 
ATOM     24  C   UNL A   1      31.352  29.529  24.882  1.00  0.00     0.028 A 
ATOM     25  C   UNL A   1      31.903  27.333  25.810  1.00  0.00     0.055 A 
ATOM     26  C   UNL A   1      30.671  28.917  23.848  1.00  0.00     0.004 A 
ATOM     27  C   UNL A   1      30.619  27.529  23.796  1.00  0.00     0.027 A 
BRANCH  23  28
ATOM     28  N   UNL A   1      32.931  29.379  26.698  1.00  0.00    -0.241 N 
ATOM     29  C   UNL A   1      36.341  29.890  27.531  1.00  0.00     0.069 C 
ATOM     30  C   UNL A   1      34.864  29.930  27.390  1.00  0.00     0.060 A 
ATOM     31  C   UNL A   1      34.020  31.018  27.698  1.00  0.00     0.045 A 
ATOM     32  N   UNL A   1      34.178  28.885  26.904  1.00  0.00    -0.173 NA
ATOM     33  C   UNL A   1      32.784  30.634  27.245  1.00  0.00     0.115 A 
ENDBRANCH  23  28
ENDBRANCH  20  22
ENDBRANCH  17  20
ENDBRANCH  10  17
ENDBRANCH   7   9
ENDBRANCH   6   7
ENDBRANCH   5   6
ENDBRANCH   4   5
ENDBRANCH   3   4
ENDBRANCH   2   3
ENDBRANCH   1   2
BRANCH   1  34
ATOM     34  O   UNL A   1      44.010  19.497  25.712  1.00  0.00    -0.377 OA
BRANCH  34  35
ATOM     35  C   UNL A   1      44.618  20.126  24.586  1.00  0.00     0.188 C 
BRANCH  35  36
ATOM     36  C   UNL A   1      44.845  21.664  24.464  1.00  0.00     0.188 C 
BRANCH  36  37
ATOM     37  O   UNL A   1      43.693  22.454  24.221  1.00  0.00    -0.376 OA
BRANCH  37  38
ATOM     38  C   UNL A   1      42.912  23.038  25.244  1.00  0.00     0.202 C 
BRANCH  38  39
ATOM     39  C   UNL A   1      42.717  24.549  25.206  1.00  0.00     0.261 C 
BRANCH  39  40
ATOM     40  O   UNL A   1      43.932  25.256  25.340  1.00  0.00    -0.460 OA
BRANCH  40  41
ATOM     41  C   UNL A   1      44.054  25.923  26.494  1.00  0.00     0.338 C 
ATOM     42  O   UNL A   1      43.956  25.470  27.635  1.00  0.00    -0.246 OA
BRANCH  41  43
ATOM     43  C   UNL A   1      44.216  27.339  26.187  1.00  0.00     0.060 A 
ATOM     44  C   UNL A   1      45.309  27.953  26.797  1.00  0.00     0.016 A 
ATOM     45  C   UNL A   1      43.062  28.032  25.796  1.00  0.00     0.016 A 
ATOM     46  C   UNL A   1      45.092  29.180  27.360  1.00  0.00     0.010 A 
ATOM     47  C   UNL A   1      42.828  29.232  26.397  1.00  0.00     0.010 A 
ATOM     48  C   UNL A   1      43.808  29.722  27.257  1.00  0.00    -0.014 A 
BRANCH  48  49
ATOM     49  C   UNL A   1      43.503  30.875  28.057  1.00  0.00     0.031 A 
ATOM     50  C   UNL A   1      44.181  32.080  27.555  1.00  0.00     0.074 A 
ATOM     51  C   UNL A   1      42.609  30.807  29.057  1.00  0.00     0.049 A 
ATOM     52  N   UNL A   1      45.116  32.752  28.133  1.00  0.00    -0.248 NA
ATOM     53  C   UNL A   1      43.948  32.448  26.148  1.00  0.00     0.031 C 
ATOM     54  C   UNL A   1      41.720  29.696  29.411  1.00  0.00     0.029 A 
ATOM     55  N   UNL A   1      42.223  31.791  29.905  1.00  0.00    -0.354 N 
ATOM     56  C   UNL A   1      45.434  33.766  27.238  1.00  0.00     0.074 A 
ATOM     57  C   UNL A   1      44.882  33.380  25.971  1.00  0.00     0.031 C 
ATOM     58  C   UNL A   1      40.750  30.152  30.236  1.00  0.00     0.029 A 
ATOM     59  C   UNL A   1      41.016  31.546  30.545  1.00  0.00     0.049 A 
ATOM     60  H   UNL A   1      42.752  32.608  30.054  1.00  0.00     0.167 HD
ATOM     61  C   UNL A   1      45.827  34.982  27.698  1.00  0.00     0.037 A 
ATOM     62  C   UNL A   1      40.260  32.496  31.150  1.00  0.00     0.037 A 
ATOM     63  C   UNL A   1      46.344  34.874  29.044  1.00  0.00     0.049 A 
ATOM     64  C   UNL A   1      41.158  33.659  31.419  1.00  0.00     0.074 A 
ATOM     65  C   UNL A   1      47.358  34.136  29.627  1.00  0.00     0.029 A 
ATOM     66  N   UNL A   1      45.546  35.289  30.085  1.00  0.00    -0.354 N 
ATOM     67  N   UNL A   1      42.142  33.629  32.278  1.00  0.00    -0.248 NA
ATOM     68  C   UNL A   1      41.273  34.677  30.381  1.00  0.00     0.031 C 
ATOM     69  C   UNL A   1      46.854  33.748  30.903  1.00  0.00     0.029 A 
ATOM     70  C   UNL A   1      45.592  34.322  31.056  1.00  0.00     0.049 A 
ATOM     71  H   UNL A   1      45.035  36.129  30.125  1.00  0.00     0.167 HD
ATOM     72  C   UNL A   1      43.179  34.312  31.656  1.00  0.00     0.074 A 
ATOM     73  C   UNL A   1      42.563  34.995  30.521  1.00  0.00     0.031 C 
ATOM     74  C   UNL A   1      44.486  34.022  31.934  1.00  0.00     0.037 A 
BRANCH  61  75
ATOM     75  C   UNL A   1      45.327  36.284  27.109  1.00  0.00     0.064 A 
ATOM     76  C   UNL A   1      46.273  37.283  26.816  1.00  0.00     0.173 A 
ATOM     77  C   UNL A   1      43.978  36.714  27.109  1.00  0.00     0.173 A 
ATOM     78  F   UNL A   1      47.582  36.991  26.771  1.00  0.00    -0.203 F 
ATOM     79  C   UNL A   1      45.911  38.623  26.668  1.00  0.00     0.198 A 
ATOM     80  C   UNL A   1      43.617  38.044  26.913  1.00  0.00     0.198 A 
ATOM     81  F   UNL A   1      42.951  35.911  27.397  1.00  0.00    -0.203 F 
ATOM     82  F   UNL A   1      46.863  39.555  26.539  1.00  0.00    -0.200 F 
ATOM     83  C   UNL A   1      44.585  39.005  26.734  1.00  0.00     0.200 A 
ATOM     84  F   UNL A   1      42.323  38.390  26.985  1.00  0.00    -0.200 F 
ATOM     85  F   UNL A   1      44.241  40.298  26.671  1.00  0.00    -0.200 F 
ENDBRANCH  61  75
BRANCH  62  86
ATOM     86  C   UNL A   1      38.779  32.606  31.135  1.00  0.00     0.064 A 
ATOM     87  C   UNL A   1      38.094  32.968  29.964  1.00  0.00     0.173 A 
ATOM     88  C   UNL A   1      37.984  32.112  32.191  1.00  0.00     0.173 A 
ATOM     89  F   UNL A   1      38.775  33.397  28.891  1.00  0.00    -0.203 F 
ATOM     90  C   UNL A   1      36.706  32.828  29.851  1.00  0.00     0.198 A 
ATOM     91  C   UNL A   1      36.599  31.987  32.082  1.00  0.00     0.198 A 
ATOM     92  F   UNL A   1      38.538  31.651  33.321  1.00  0.00    -0.203 F 
ATOM     93  F   UNL A   1      36.096  33.126  28.695  1.00  0.00    -0.200 F 
ATOM     94  C   UNL A   1      35.961  32.332  30.908  1.00  0.00     0.200 A 
ATOM     95  F   UNL A   1      35.897  31.471  33.102  1.00  0.00    -0.200 F 
ATOM     96  F   UNL A   1      34.640  32.147  30.782  1.00  0.00    -0.200 F 
ENDBRANCH  62  86
BRANCH  74  97
ATOM     97  C   UNL A   1      44.776  33.120  33.100  1.00  0.00     0.064 A 
ATOM     98  C   UNL A   1      44.872  33.566  34.430  1.00  0.00     0.173 A 
ATOM     99  C   UNL A   1      44.795  31.736  32.882  1.00  0.00     0.173 A 
ATOM    100  F   UNL A   1      44.751  34.864  34.731  1.00  0.00    -0.203 F 
ATOM    101  C   UNL A   1      45.027  32.667  35.486  1.00  0.00     0.198 A 
ATOM    102  C   UNL A   1      44.911  30.839  33.941  1.00  0.00     0.198 A 
ATOM    103  F   UNL A   1      44.647  31.250  31.640  1.00  0.00    -0.203 F 
ATOM    104  F   UNL A   1      45.127  33.119  36.744  1.00  0.00    -0.200 F 
ATOM    105  C   UNL A   1      45.037  31.304  35.241  1.00  0.00     0.200 A 
ATOM    106  F   UNL A   1      44.867  29.521  33.704  1.00  0.00    -0.200 F 
ATOM    107  F   UNL A   1      45.139  30.438  36.258  1.00  0.00    -0.200 F 
ENDBRANCH  74  97
ENDBRANCH  48  49
ENDBRANCH  41  43
ENDBRANCH  40  41
ENDBRANCH  39  40
ENDBRANCH  38  39
ENDBRANCH  37  38
ENDBRANCH  36  37
ENDBRANCH  35  36
ENDBRANCH  34  35
ENDBRANCH   1  34
TORSDOF 24
ENDMDL
