MODEL 1
REMARK VINA RESULT:     -10.9      0.000      0.000
REMARK SMILES Cc1ccc(F)cc1NC(=O)c1nn(C)cc1C(=O)OCCOCCOCCOCCOC(=O)c1ccc(-c2c3nc(c(-c4c(F)c(F)c(F)c(F)c4F)c4ccc([nH]4)c(-c4c(F)c(F)c(F)c(F)c4F)c4nc(c(-c5c(F)c(F)c(F)c(F)c5F)c5ccc2[nH]5)C=C4)C=C3)cc1
REMARK SMILES IDX 26 1 25 2 24 3 23 4 22 5 21 6 20 7 18 8 19 9 17 10 12 11
REMARK SMILES IDX 13 12 14 13 16 14 15 15 10 16 9 17 11 19 8 20 1 21 2 22 3 23
REMARK SMILES IDX 4 24 7 25 5 26 6 27 27 28 28 29 29 30 30 31 31 32 32 33
REMARK SMILES IDX 33 34 34 35 35 36 36 37 97 38 37 39 96 40 38 41 39 42 40 43
REMARK SMILES IDX 90 44 41 45 95 46 89 47 91 48 42 49 94 50 88 51 87 52 43 54
REMARK SMILES IDX 75 55 55 56 74 57 56 58 59 59 73 60 92 61 57 62 58 63 72 65
REMARK SMILES IDX 93 66 60 67 44 68 45 69 53 70 46 71 47 72 51 73 54 74 48 75
REMARK SMILES IDX 49 76 52 77 50 78 76 79 77 80 85 81 78 82 79 83 83 84 86 85
REMARK SMILES IDX 80 86 81 87 84 88 82 89 61 90 62 91 70 92 63 93 64 94 68 95
REMARK SMILES IDX 71 96 65 97 66 98 69 99 67 100
REMARK H PARENT 9 18 91 53 59 64
REMARK Flexibility Score: inf
ROOT
ATOM      1  O   UNL A   1      34.195  35.403  28.836  1.00  0.00    -0.377 OA
ENDROOT
BRANCH   1   2
ATOM      2  C   UNL A   1      34.088  34.516  27.748  1.00  0.00     0.188 C 
BRANCH   2   3
ATOM      3  C   UNL A   1      33.028  33.449  28.016  1.00  0.00     0.188 C 
BRANCH   3   4
ATOM      4  O   UNL A   1      31.889  33.406  27.164  1.00  0.00    -0.376 OA
BRANCH   4   5
ATOM      5  C   UNL A   1      31.424  32.140  26.698  1.00  0.00     0.202 C 
BRANCH   5   6
ATOM      6  C   UNL A   1      32.280  30.883  26.951  1.00  0.00     0.261 C 
BRANCH   6   7
ATOM      7  O   UNL A   1      31.830  29.638  26.368  1.00  0.00    -0.460 OA
BRANCH   7   8
ATOM      8  C   UNL A   1      32.455  29.241  25.226  1.00  0.00     0.342 C 
ATOM      9  O   UNL A   1      33.652  28.904  25.178  1.00  0.00    -0.246 OA
BRANCH   8  10
ATOM     10  C   UNL A   1      31.625  29.227  24.046  1.00  0.00     0.111 A 
ATOM     11  C   UNL A   1      31.872  28.585  22.788  1.00  0.00     0.165 A 
ATOM     12  N   UNL A   1      30.991  29.013  21.862  1.00  0.00    -0.167 NA
ATOM     13  N   UNL A   1      30.082  29.713  22.558  1.00  0.00    -0.274 N 
ATOM     14  C   UNL A   1      30.408  29.871  23.872  1.00  0.00     0.125 A 
ATOM     15  C   UNL A   1      28.907  30.196  21.873  1.00  0.00     0.173 C 
BRANCH  11  16
ATOM     16  C   UNL A   1      32.906  27.584  22.450  1.00  0.00     0.277 C 
ATOM     17  N   UNL A   1      32.911  26.331  23.076  1.00  0.00    -0.320 N 
ATOM     18  H   UNL A   1      33.626  25.719  22.790  1.00  0.00     0.170 HD
ATOM     19  O   UNL A   1      33.841  27.844  21.692  1.00  0.00    -0.267 OA
BRANCH  17  20
ATOM     20  C   UNL A   1      32.037  25.822  24.054  1.00  0.00     0.047 A 
ATOM     21  C   UNL A   1      33.984  25.333  25.689  1.00  0.00     0.046 C 
ATOM     22  C   UNL A   1      32.533  25.455  25.316  1.00  0.00    -0.027 A 
ATOM     23  C   UNL A   1      31.616  25.384  26.368  1.00  0.00     0.008 A 
ATOM     24  C   UNL A   1      30.277  25.707  26.162  1.00  0.00     0.039 A 
ATOM     25  C   UNL A   1      30.659  25.801  23.836  1.00  0.00     0.065 A 
ATOM     26  C   UNL A   1      29.788  25.850  24.894  1.00  0.00     0.125 A 
ATOM     27  F   UNL A   1      28.488  26.110  24.700  1.00  0.00    -0.207 F 
ENDBRANCH  17  20
ENDBRANCH  11  16
ENDBRANCH   8  10
ENDBRANCH   7   8
ENDBRANCH   6   7
ENDBRANCH   5   6
ENDBRANCH   4   5
ENDBRANCH   3   4
ENDBRANCH   2   3
ENDBRANCH   1   2
BRANCH   1  28
ATOM     28  C   UNL A   1      33.028  36.091  29.222  1.00  0.00     0.188 C 
BRANCH  28  29
ATOM     29  C   UNL A   1      32.928  36.406  30.717  1.00  0.00     0.188 C 
BRANCH  29  30
ATOM     30  O   UNL A   1      32.739  35.163  31.413  1.00  0.00    -0.376 OA
BRANCH  30  31
ATOM     31  C   UNL A   1      33.634  34.898  32.484  1.00  0.00     0.202 C 
BRANCH  31  32
ATOM     32  C   UNL A   1      34.562  33.659  32.338  1.00  0.00     0.261 C 
BRANCH  32  33
ATOM     33  O   UNL A   1      34.993  33.314  31.013  1.00  0.00    -0.460 OA
BRANCH  33  34
ATOM     34  C   UNL A   1      35.693  32.169  30.943  1.00  0.00     0.338 C 
ATOM     35  O   UNL A   1      35.655  31.263  31.775  1.00  0.00    -0.246 OA
BRANCH  34  36
ATOM     36  C   UNL A   1      36.645  32.100  29.782  1.00  0.00     0.060 A 
ATOM     37  C   UNL A   1      37.610  31.135  30.135  1.00  0.00     0.016 A 
ATOM     38  C   UNL A   1      37.069  33.398  29.529  1.00  0.00     0.016 A 
ATOM     39  C   UNL A   1      38.595  31.558  31.006  1.00  0.00     0.010 A 
ATOM     40  C   UNL A   1      38.030  33.861  30.389  1.00  0.00     0.010 A 
ATOM     41  C   UNL A   1      38.705  32.930  31.205  1.00  0.00    -0.014 A 
BRANCH  41  42
ATOM     42  C   UNL A   1      39.755  33.493  32.002  1.00  0.00     0.031 A 
ATOM     43  C   UNL A   1      39.262  34.048  33.273  1.00  0.00     0.074 A 
ATOM     44  C   UNL A   1      41.042  33.295  31.651  1.00  0.00     0.049 A 
ATOM     45  N   UNL A   1      39.866  34.945  33.961  1.00  0.00    -0.248 NA
ATOM     46  C   UNL A   1      37.928  33.721  33.806  1.00  0.00     0.031 C 
ATOM     47  C   UNL A   1      42.174  33.204  32.557  1.00  0.00     0.029 A 
ATOM     48  N   UNL A   1      41.607  33.171  30.368  1.00  0.00    -0.354 N 
ATOM     49  C   UNL A   1      39.215  34.987  35.174  1.00  0.00     0.074 A 
ATOM     50  C   UNL A   1      37.928  34.381  34.963  1.00  0.00     0.031 C 
ATOM     51  C   UNL A   1      43.312  33.232  31.843  1.00  0.00     0.029 A 
ATOM     52  C   UNL A   1      42.968  33.546  30.464  1.00  0.00     0.049 A 
ATOM     53  H   UNL A   1      41.141  32.877  29.552  1.00  0.00     0.167 HD
ATOM     54  C   UNL A   1      39.935  35.280  36.288  1.00  0.00     0.037 A 
ATOM     55  C   UNL A   1      43.485  34.639  29.815  1.00  0.00     0.037 A 
ATOM     56  C   UNL A   1      41.328  35.513  35.921  1.00  0.00     0.049 A 
ATOM     57  C   UNL A   1      43.833  35.769  30.723  1.00  0.00     0.074 A 
ATOM     58  C   UNL A   1      42.418  34.658  35.875  1.00  0.00     0.029 A 
ATOM     59  N   UNL A   1      41.641  36.590  35.101  1.00  0.00    -0.354 N 
ATOM     60  N   UNL A   1      43.362  35.902  31.927  1.00  0.00    -0.248 NA
ATOM     61  C   UNL A   1      44.711  36.851  30.314  1.00  0.00     0.031 C 
ATOM     62  C   UNL A   1      43.393  35.234  35.023  1.00  0.00     0.029 A 
ATOM     63  C   UNL A   1      42.900  36.439  34.553  1.00  0.00     0.049 A 
ATOM     64  H   UNL A   1      41.046  37.356  34.932  1.00  0.00     0.167 HD
ATOM     65  C   UNL A   1      43.847  37.062  32.462  1.00  0.00     0.074 A 
ATOM     66  C   UNL A   1      44.713  37.599  31.427  1.00  0.00     0.031 C 
ATOM     67  C   UNL A   1      43.474  37.475  33.706  1.00  0.00     0.037 A 
BRANCH  54  68
ATOM     68  C   UNL A   1      39.447  34.959  37.674  1.00  0.00     0.064 A 
ATOM     69  C   UNL A   1      39.271  35.981  38.628  1.00  0.00     0.173 A 
ATOM     70  C   UNL A   1      39.163  33.657  38.130  1.00  0.00     0.173 A 
ATOM     71  F   UNL A   1      39.457  37.270  38.318  1.00  0.00    -0.203 F 
ATOM     72  C   UNL A   1      38.907  35.718  39.948  1.00  0.00     0.198 A 
ATOM     73  C   UNL A   1      38.845  33.389  39.466  1.00  0.00     0.198 A 
ATOM     74  F   UNL A   1      39.156  32.614  37.288  1.00  0.00    -0.203 F 
ATOM     75  F   UNL A   1      38.752  36.736  40.807  1.00  0.00    -0.200 F 
ATOM     76  C   UNL A   1      38.715  34.420  40.375  1.00  0.00     0.200 A 
ATOM     77  F   UNL A   1      38.662  32.122  39.867  1.00  0.00    -0.200 F 
ATOM     78  F   UNL A   1      38.390  34.169  41.649  1.00  0.00    -0.200 F 
ENDBRANCH  54  68
BRANCH  55  79
ATOM     79  C   UNL A   1      43.059  34.891  28.408  1.00  0.00     0.064 A 
ATOM     80  C   UNL A   1      42.072  35.881  28.312  1.00  0.00     0.173 A 
ATOM     81  C   UNL A   1      44.075  34.828  27.443  1.00  0.00     0.173 A 
ATOM     82  F   UNL A   1      41.016  35.875  29.137  1.00  0.00    -0.203 F 
ATOM     83  C   UNL A   1      42.390  37.040  27.655  1.00  0.00     0.198 A 
ATOM     84  C   UNL A   1      44.396  35.986  26.778  1.00  0.00     0.198 A 
ATOM     85  F   UNL A   1      44.923  33.793  27.402  1.00  0.00    -0.203 F 
ATOM     86  F   UNL A   1      41.697  38.166  27.880  1.00  0.00    -0.200 F 
ATOM     87  C   UNL A   1      43.631  37.103  27.059  1.00  0.00     0.200 A 
ATOM     88  F   UNL A   1      45.563  36.093  26.128  1.00  0.00    -0.200 F 
ATOM     89  F   UNL A   1      44.254  38.255  27.206  1.00  0.00    -0.200 F 
ENDBRANCH  55  79
BRANCH  67  90
ATOM     90  C   UNL A   1      43.705  38.847  34.285  1.00  0.00     0.064 A 
ATOM     91  C   UNL A   1      44.401  39.099  35.479  1.00  0.00     0.173 A 
ATOM     92  C   UNL A   1      43.317  40.003  33.562  1.00  0.00     0.173 A 
ATOM     93  F   UNL A   1      44.981  38.119  36.180  1.00  0.00    -0.203 F 
ATOM     94  C   UNL A   1      44.588  40.392  35.966  1.00  0.00     0.198 A 
ATOM     95  C   UNL A   1      43.596  41.292  34.002  1.00  0.00     0.198 A 
ATOM     96  F   UNL A   1      42.674  39.929  32.388  1.00  0.00    -0.203 F 
ATOM     97  F   UNL A   1      45.176  40.567  37.157  1.00  0.00    -0.200 F 
ATOM     98  C   UNL A   1      44.200  41.488  35.222  1.00  0.00     0.200 A 
ATOM     99  F   UNL A   1      43.285  42.338  33.224  1.00  0.00    -0.200 F 
ATOM    100  F   UNL A   1      44.432  42.728  35.668  1.00  0.00    -0.200 F 
ENDBRANCH  67  90
ENDBRANCH  41  42
ENDBRANCH  34  36
ENDBRANCH  33  34
ENDBRANCH  32  33
ENDBRANCH  31  32
ENDBRANCH  30  31
ENDBRANCH  29  30
ENDBRANCH  28  29
ENDBRANCH   1  28
TORSDOF 22
ENDMDL
MODEL 2
REMARK VINA RESULT:     -10.2      1.727      2.887
REMARK SMILES Cc1ccc(F)cc1NC(=O)c1nn(C)cc1C(=O)OCCOCCOCCOCCOC(=O)c1ccc(-c2c3nc(c(-c4c(F)c(F)c(F)c(F)c4F)c4ccc([nH]4)c(-c4c(F)c(F)c(F)c(F)c4F)c4nc(c(-c5c(F)c(F)c(F)c(F)c5F)c5ccc2[nH]5)C=C4)C=C3)cc1
REMARK SMILES IDX 26 1 25 2 24 3 23 4 22 5 21 6 20 7 18 8 19 9 17 10 12 11
REMARK SMILES IDX 13 12 14 13 16 14 15 15 10 16 9 17 11 19 8 20 1 21 2 22 3 23
REMARK SMILES IDX 4 24 7 25 5 26 6 27 27 28 28 29 29 30 30 31 31 32 32 33
REMARK SMILES IDX 33 34 34 35 35 36 36 37 97 38 37 39 96 40 38 41 39 42 40 43
REMARK SMILES IDX 90 44 41 45 95 46 89 47 91 48 42 49 94 50 88 51 87 52 43 54
REMARK SMILES IDX 75 55 55 56 74 57 56 58 59 59 73 60 92 61 57 62 58 63 72 65
REMARK SMILES IDX 93 66 60 67 44 68 45 69 53 70 46 71 47 72 51 73 54 74 48 75
REMARK SMILES IDX 49 76 52 77 50 78 76 79 77 80 85 81 78 82 79 83 83 84 86 85
REMARK SMILES IDX 80 86 81 87 84 88 82 89 61 90 62 91 70 92 63 93 64 94 68 95
REMARK SMILES IDX 71 96 65 97 66 98 69 99 67 100
REMARK H PARENT 9 18 91 53 59 64
REMARK Flexibility Score: inf
ROOT
ATOM      1  O   UNL A   1      33.939  32.913  27.909  1.00  0.00    -0.377 OA
ENDROOT
BRANCH   1   2
ATOM      2  C   UNL A   1      33.524  31.591  27.662  1.00  0.00     0.188 C 
BRANCH   2   3
ATOM      3  C   UNL A   1      34.725  30.654  27.541  1.00  0.00     0.188 C 
BRANCH   3   4
ATOM      4  O   UNL A   1      34.498  29.254  27.653  1.00  0.00    -0.376 OA
BRANCH   4   5
ATOM      5  C   UNL A   1      34.385  28.477  26.461  1.00  0.00     0.202 C 
BRANCH   5   6
ATOM      6  C   UNL A   1      33.159  28.674  25.546  1.00  0.00     0.261 C 
BRANCH   6   7
ATOM      7  O   UNL A   1      32.828  27.602  24.632  1.00  0.00    -0.460 OA
BRANCH   7   8
ATOM      8  C   UNL A   1      31.524  27.214  24.599  1.00  0.00     0.342 C 
ATOM      9  O   UNL A   1      30.581  27.986  24.349  1.00  0.00    -0.246 OA
BRANCH   8  10
ATOM     10  C   UNL A   1      31.295  25.815  24.868  1.00  0.00     0.111 A 
ATOM     11  C   UNL A   1      31.299  24.715  23.948  1.00  0.00     0.165 A 
ATOM     12  N   UNL A   1      30.794  23.611  24.534  1.00  0.00    -0.167 NA
ATOM     13  N   UNL A   1      30.695  23.933  25.833  1.00  0.00    -0.274 N 
ATOM     14  C   UNL A   1      30.985  25.239  26.092  1.00  0.00     0.125 A 
ATOM     15  C   UNL A   1      30.314  22.907  26.774  1.00  0.00     0.173 C 
BRANCH  11  16
ATOM     16  C   UNL A   1      31.771  24.687  22.547  1.00  0.00     0.277 C 
ATOM     17  N   UNL A   1      32.610  23.657  22.103  1.00  0.00    -0.320 N 
ATOM     18  H   UNL A   1      32.872  23.706  21.156  1.00  0.00     0.170 HD
ATOM     19  O   UNL A   1      31.526  25.600  21.760  1.00  0.00    -0.267 OA
BRANCH  17  20
ATOM     20  C   UNL A   1      33.131  22.563  22.817  1.00  0.00     0.047 A 
ATOM     21  C   UNL A   1      35.094  23.970  23.747  1.00  0.00     0.046 C 
ATOM     22  C   UNL A   1      34.233  22.741  23.670  1.00  0.00    -0.027 A 
ATOM     23  C   UNL A   1      34.434  21.781  24.665  1.00  0.00     0.008 A 
ATOM     24  C   UNL A   1      33.544  20.720  24.815  1.00  0.00     0.039 A 
ATOM     25  C   UNL A   1      32.485  21.326  22.795  1.00  0.00     0.065 A 
ATOM     26  C   UNL A   1      32.615  20.457  23.848  1.00  0.00     0.125 A 
ATOM     27  F   UNL A   1      31.795  19.405  23.973  1.00  0.00    -0.207 F 
ENDBRANCH  17  20
ENDBRANCH  11  16
ENDBRANCH   8  10
ENDBRANCH   7   8
ENDBRANCH   6   7
ENDBRANCH   5   6
ENDBRANCH   4   5
ENDBRANCH   3   4
ENDBRANCH   2   3
ENDBRANCH   1   2
BRANCH   1  28
ATOM     28  C   UNL A   1      32.932  33.891  28.032  1.00  0.00     0.188 C 
BRANCH  28  29
ATOM     29  C   UNL A   1      33.334  35.137  28.824  1.00  0.00     0.188 C 
BRANCH  29  30
ATOM     30  O   UNL A   1      32.676  35.075  30.100  1.00  0.00    -0.376 OA
BRANCH  30  31
ATOM     31  C   UNL A   1      33.494  35.284  31.243  1.00  0.00     0.202 C 
BRANCH  31  32
ATOM     32  C   UNL A   1      34.424  34.113  31.668  1.00  0.00     0.261 C 
BRANCH  32  33
ATOM     33  O   UNL A   1      35.488  33.759  30.773  1.00  0.00    -0.460 OA
BRANCH  33  34
ATOM     34  C   UNL A   1      35.854  32.468  30.834  1.00  0.00     0.338 C 
ATOM     35  O   UNL A   1      35.477  31.665  31.687  1.00  0.00    -0.246 OA
BRANCH  34  36
ATOM     36  C   UNL A   1      36.877  32.068  29.809  1.00  0.00     0.060 A 
ATOM     37  C   UNL A   1      37.684  31.096  30.432  1.00  0.00     0.016 A 
ATOM     38  C   UNL A   1      37.477  33.237  29.360  1.00  0.00     0.016 A 
ATOM     39  C   UNL A   1      38.644  31.575  31.302  1.00  0.00     0.010 A 
ATOM     40  C   UNL A   1      38.419  33.757  30.210  1.00  0.00     0.010 A 
ATOM     41  C   UNL A   1      38.907  32.940  31.250  1.00  0.00    -0.014 A 
BRANCH  41  42
ATOM     42  C   UNL A   1      39.954  33.535  32.027  1.00  0.00     0.031 A 
ATOM     43  C   UNL A   1      39.460  34.116  33.287  1.00  0.00     0.074 A 
ATOM     44  C   UNL A   1      41.242  33.342  31.676  1.00  0.00     0.049 A 
ATOM     45  N   UNL A   1      40.056  35.037  33.950  1.00  0.00    -0.248 NA
ATOM     46  C   UNL A   1      38.132  33.787  33.833  1.00  0.00     0.031 C 
ATOM     47  C   UNL A   1      42.379  33.287  32.579  1.00  0.00     0.029 A 
ATOM     48  N   UNL A   1      41.803  33.193  30.394  1.00  0.00    -0.354 N 
ATOM     49  C   UNL A   1      39.409  35.102  35.163  1.00  0.00     0.074 A 
ATOM     50  C   UNL A   1      38.129  34.476  34.973  1.00  0.00     0.031 C 
ATOM     51  C   UNL A   1      43.513  33.310  31.860  1.00  0.00     0.029 A 
ATOM     52  C   UNL A   1      43.160  33.585  30.475  1.00  0.00     0.049 A 
ATOM     53  H   UNL A   1      41.338  32.873  29.588  1.00  0.00     0.167 HD
ATOM     54  C   UNL A   1      40.131  35.431  36.266  1.00  0.00     0.037 A 
ATOM     55  C   UNL A   1      43.663  34.667  29.796  1.00  0.00     0.037 A 
ATOM     56  C   UNL A   1      41.519  35.670  35.888  1.00  0.00     0.049 A 
ATOM     57  C   UNL A   1      44.001  35.824  30.675  1.00  0.00     0.074 A 
ATOM     58  C   UNL A   1      42.619  34.827  35.858  1.00  0.00     0.029 A 
ATOM     59  N   UNL A   1      41.817  36.729  35.040  1.00  0.00    -0.354 N 
ATOM     60  N   UNL A   1      43.534  35.982  31.877  1.00  0.00    -0.248 NA
ATOM     61  C   UNL A   1      44.865  36.905  30.235  1.00  0.00     0.031 C 
ATOM     62  C   UNL A   1      43.584  35.392  34.989  1.00  0.00     0.029 A 
ATOM     63  C   UNL A   1      43.076  36.579  34.491  1.00  0.00     0.049 A 
ATOM     64  H   UNL A   1      41.213  37.485  34.854  1.00  0.00     0.167 HD
ATOM     65  C   UNL A   1      44.007  37.159  32.381  1.00  0.00     0.074 A 
ATOM     66  C   UNL A   1      44.863  37.680  31.329  1.00  0.00     0.031 C 
ATOM     67  C   UNL A   1      43.634  37.599  33.616  1.00  0.00     0.037 A 
BRANCH  54  68
ATOM     68  C   UNL A   1      39.652  35.139  37.662  1.00  0.00     0.064 A 
ATOM     69  C   UNL A   1      39.353  33.820  38.057  1.00  0.00     0.173 A 
ATOM     70  C   UNL A   1      39.443  36.122  38.648  1.00  0.00     0.173 A 
ATOM     71  F   UNL A   1      39.551  32.780  37.239  1.00  0.00    -0.203 F 
ATOM     72  C   UNL A   1      38.822  33.516  39.311  1.00  0.00     0.198 A 
ATOM     73  C   UNL A   1      38.866  35.824  39.888  1.00  0.00     0.198 A 
ATOM     74  F   UNL A   1      39.818  37.394  38.449  1.00  0.00    -0.203 F 
ATOM     75  F   UNL A   1      38.562  32.240  39.628  1.00  0.00    -0.200 F 
ATOM     76  C   UNL A   1      38.557  34.520  40.219  1.00  0.00     0.200 A 
ATOM     77  F   UNL A   1      38.613  36.810  40.760  1.00  0.00    -0.200 F 
ATOM     78  F   UNL A   1      38.025  34.228  41.413  1.00  0.00    -0.200 F 
ENDBRANCH  54  68
BRANCH  55  79
ATOM     79  C   UNL A   1      43.228  34.879  28.386  1.00  0.00     0.064 A 
ATOM     80  C   UNL A   1      42.208  35.834  28.272  1.00  0.00     0.173 A 
ATOM     81  C   UNL A   1      44.246  34.833  27.421  1.00  0.00     0.173 A 
ATOM     82  F   UNL A   1      41.153  35.806  29.099  1.00  0.00    -0.203 F 
ATOM     83  C   UNL A   1      42.486  36.990  27.594  1.00  0.00     0.198 A 
ATOM     84  C   UNL A   1      44.527  35.989  26.736  1.00  0.00     0.198 A 
ATOM     85  F   UNL A   1      45.129  33.827  27.399  1.00  0.00    -0.203 F 
ATOM     86  F   UNL A   1      41.755  38.096  27.799  1.00  0.00    -0.200 F 
ATOM     87  C   UNL A   1      43.724  37.084  26.996  1.00  0.00     0.200 A 
ATOM     88  F   UNL A   1      45.690  36.124  26.083  1.00  0.00    -0.200 F 
ATOM     89  F   UNL A   1      44.308  38.260  27.122  1.00  0.00    -0.200 F 
ENDBRANCH  55  79
BRANCH  67  90
ATOM     90  C   UNL A   1      43.852  38.989  34.159  1.00  0.00     0.064 A 
ATOM     91  C   UNL A   1      43.386  40.163  33.547  1.00  0.00     0.173 A 
ATOM     92  C   UNL A   1      44.461  39.173  35.426  1.00  0.00     0.173 A 
ATOM     93  F   UNL A   1      42.639  40.135  32.438  1.00  0.00    -0.203 F 
ATOM     94  C   UNL A   1      43.615  41.424  34.097  1.00  0.00     0.198 A 
ATOM     95  C   UNL A   1      44.595  40.424  36.018  1.00  0.00     0.198 A 
ATOM     96  F   UNL A   1      44.928  38.147  36.151  1.00  0.00    -0.203 F 
ATOM     97  F   UNL A   1      43.229  42.516  33.422  1.00  0.00    -0.200 F 
ATOM     98  C   UNL A   1      44.204  41.554  35.338  1.00  0.00     0.200 A 
ATOM     99  F   UNL A   1      45.095  40.518  37.259  1.00  0.00    -0.200 F 
ATOM    100  F   UNL A   1      44.372  42.763  35.887  1.00  0.00    -0.200 F 
ENDBRANCH  67  90
ENDBRANCH  41  42
ENDBRANCH  34  36
ENDBRANCH  33  34
ENDBRANCH  32  33
ENDBRANCH  31  32
ENDBRANCH  30  31
ENDBRANCH  29  30
ENDBRANCH  28  29
ENDBRANCH   1  28
TORSDOF 22
ENDMDL
MODEL 3
REMARK VINA RESULT:     -10.2      7.569     11.317
REMARK SMILES Cc1ccc(F)cc1NC(=O)c1nn(C)cc1C(=O)OCCOCCOCCOCCOC(=O)c1ccc(-c2c3nc(c(-c4c(F)c(F)c(F)c(F)c4F)c4ccc([nH]4)c(-c4c(F)c(F)c(F)c(F)c4F)c4nc(c(-c5c(F)c(F)c(F)c(F)c5F)c5ccc2[nH]5)C=C4)C=C3)cc1
REMARK SMILES IDX 26 1 25 2 24 3 23 4 22 5 21 6 20 7 18 8 19 9 17 10 12 11
REMARK SMILES IDX 13 12 14 13 16 14 15 15 10 16 9 17 11 19 8 20 1 21 2 22 3 23
REMARK SMILES IDX 4 24 7 25 5 26 6 27 27 28 28 29 29 30 30 31 31 32 32 33
REMARK SMILES IDX 33 34 34 35 35 36 36 37 97 38 37 39 96 40 38 41 39 42 40 43
REMARK SMILES IDX 90 44 41 45 95 46 89 47 91 48 42 49 94 50 88 51 87 52 43 54
REMARK SMILES IDX 75 55 55 56 74 57 56 58 59 59 73 60 92 61 57 62 58 63 72 65
REMARK SMILES IDX 93 66 60 67 44 68 45 69 53 70 46 71 47 72 51 73 54 74 48 75
REMARK SMILES IDX 49 76 52 77 50 78 76 79 77 80 85 81 78 82 79 83 83 84 86 85
REMARK SMILES IDX 80 86 81 87 84 88 82 89 61 90 62 91 70 92 63 93 64 94 68 95
REMARK SMILES IDX 71 96 65 97 66 98 69 99 67 100
REMARK H PARENT 9 18 91 53 59 64
REMARK Flexibility Score: inf
ROOT
ATOM      1  O   UNL A   1      41.766  19.797  27.405  1.00  0.00    -0.377 OA
ENDROOT
BRANCH   1   2
ATOM      2  C   UNL A   1      40.760  20.777  27.503  1.00  0.00     0.188 C 
BRANCH   2   3
ATOM      3  C   UNL A   1      40.492  21.423  26.144  1.00  0.00     0.188 C 
BRANCH   3   4
ATOM      4  O   UNL A   1      39.176  21.341  25.610  1.00  0.00    -0.376 OA
BRANCH   4   5
ATOM      5  C   UNL A   1      38.135  22.102  26.221  1.00  0.00     0.202 C 
BRANCH   5   6
ATOM      6  C   UNL A   1      36.705  22.017  25.651  1.00  0.00     0.261 C 
BRANCH   6   7
ATOM      7  O   UNL A   1      35.665  22.749  26.341  1.00  0.00    -0.460 OA
BRANCH   7   8
ATOM      8  C   UNL A   1      35.009  23.698  25.620  1.00  0.00     0.342 C 
ATOM      9  O   UNL A   1      35.396  24.877  25.519  1.00  0.00    -0.246 OA
BRANCH   8  10
ATOM     10  C   UNL A   1      33.812  23.243  24.954  1.00  0.00     0.111 A 
ATOM     11  C   UNL A   1      32.486  23.122  25.485  1.00  0.00     0.165 A 
ATOM     12  N   UNL A   1      31.703  22.425  24.637  1.00  0.00    -0.167 NA
ATOM     13  N   UNL A   1      32.433  22.315  23.516  1.00  0.00    -0.274 N 
ATOM     14  C   UNL A   1      33.703  22.791  23.647  1.00  0.00     0.125 A 
ATOM     15  C   UNL A   1      31.820  21.737  22.344  1.00  0.00     0.173 C 
BRANCH  11  16
ATOM     16  C   UNL A   1      31.951  23.649  26.758  1.00  0.00     0.277 C 
ATOM     17  N   UNL A   1      31.714  25.021  26.913  1.00  0.00    -0.320 N 
ATOM     18  H   UNL A   1      31.349  25.290  27.786  1.00  0.00     0.170 HD
ATOM     19  O   UNL A   1      31.786  22.929  27.742  1.00  0.00    -0.267 OA
BRANCH  17  20
ATOM     20  C   UNL A   1      31.923  26.069  25.998  1.00  0.00     0.047 A 
ATOM     21  C   UNL A   1      29.686  25.599  24.785  1.00  0.00     0.046 C 
ATOM     22  C   UNL A   1      30.922  26.404  25.072  1.00  0.00    -0.027 A 
ATOM     23  C   UNL A   1      30.973  27.681  24.507  1.00  0.00     0.008 A 
ATOM     24  C   UNL A   1      31.961  28.585  24.891  1.00  0.00     0.039 A 
ATOM     25  C   UNL A   1      33.061  26.873  26.086  1.00  0.00     0.065 A 
ATOM     26  C   UNL A   1      33.035  28.164  25.623  1.00  0.00     0.125 A 
ATOM     27  F   UNL A   1      34.008  29.027  25.946  1.00  0.00    -0.207 F 
ENDBRANCH  17  20
ENDBRANCH  11  16
ENDBRANCH   8  10
ENDBRANCH   7   8
ENDBRANCH   6   7
ENDBRANCH   5   6
ENDBRANCH   4   5
ENDBRANCH   3   4
ENDBRANCH   2   3
ENDBRANCH   1   2
BRANCH   1  28
ATOM     28  C   UNL A   1      41.962  19.201  26.144  1.00  0.00     0.188 C 
BRANCH  28  29
ATOM     29  C   UNL A   1      42.746  17.887  26.164  1.00  0.00     0.188 C 
BRANCH  29  30
ATOM     30  O   UNL A   1      44.144  18.214  26.233  1.00  0.00    -0.376 OA
BRANCH  30  31
ATOM     31  C   UNL A   1      44.784  18.508  24.999  1.00  0.00     0.202 C 
BRANCH  31  32
ATOM     32  C   UNL A   1      46.165  19.218  25.073  1.00  0.00     0.261 C 
BRANCH  32  33
ATOM     33  O   UNL A   1      46.215  20.493  25.730  1.00  0.00    -0.460 OA
BRANCH  33  34
ATOM     34  C   UNL A   1      45.982  21.540  24.921  1.00  0.00     0.338 C 
ATOM     35  O   UNL A   1      46.845  22.284  24.458  1.00  0.00    -0.246 OA
BRANCH  34  36
ATOM     36  C   UNL A   1      44.525  21.820  24.683  1.00  0.00     0.060 A 
ATOM     37  C   UNL A   1      44.481  23.022  23.948  1.00  0.00     0.016 A 
ATOM     38  C   UNL A   1      43.898  21.779  25.922  1.00  0.00     0.016 A 
ATOM     39  C   UNL A   1      44.655  24.181  24.677  1.00  0.00     0.010 A 
ATOM     40  C   UNL A   1      44.069  22.905  26.685  1.00  0.00     0.010 A 
ATOM     41  C   UNL A   1      44.560  24.070  26.061  1.00  0.00    -0.014 A 
BRANCH  41  42
ATOM     42  C   UNL A   1      44.617  25.219  26.914  1.00  0.00     0.031 A 
ATOM     43  C   UNL A   1      43.399  26.043  26.831  1.00  0.00     0.074 A 
ATOM     44  C   UNL A   1      45.612  25.336  27.817  1.00  0.00     0.049 A 
ATOM     45  N   UNL A   1      43.336  27.286  27.136  1.00  0.00    -0.248 NA
ATOM     46  C   UNL A   1      42.150  25.537  26.236  1.00  0.00     0.031 C 
ATOM     47  C   UNL A   1      45.527  26.000  29.106  1.00  0.00     0.029 A 
ATOM     48  N   UNL A   1      46.947  24.899  27.733  1.00  0.00    -0.354 N 
ATOM     49  C   UNL A   1      41.995  27.596  27.166  1.00  0.00     0.074 A 
ATOM     50  C   UNL A   1      41.326  26.568  26.417  1.00  0.00     0.031 C 
ATOM     51  C   UNL A   1      46.761  26.113  29.625  1.00  0.00     0.029 A 
ATOM     52  C   UNL A   1      47.716  25.709  28.603  1.00  0.00     0.049 A 
ATOM     53  H   UNL A   1      47.286  24.164  27.173  1.00  0.00     0.167 HD
ATOM     54  C   UNL A   1      41.565  28.536  28.048  1.00  0.00     0.037 A 
ATOM     55  C   UNL A   1      48.704  26.549  28.156  1.00  0.00     0.037 A 
ATOM     56  C   UNL A   1      42.700  29.048  28.808  1.00  0.00     0.049 A 
ATOM     57  C   UNL A   1      48.352  27.995  28.251  1.00  0.00     0.074 A 
ATOM     58  C   UNL A   1      43.236  28.663  30.027  1.00  0.00     0.029 A 
ATOM     59  N   UNL A   1      43.706  29.738  28.141  1.00  0.00    -0.354 N 
ATOM     60  N   UNL A   1      47.137  28.440  28.366  1.00  0.00    -0.248 NA
ATOM     61  C   UNL A   1      49.355  29.043  28.185  1.00  0.00     0.031 C 
ATOM     62  C   UNL A   1      44.571  29.132  30.090  1.00  0.00     0.029 A 
ATOM     63  C   UNL A   1      44.849  29.806  28.913  1.00  0.00     0.049 A 
ATOM     64  H   UNL A   1      43.616  30.125  27.240  1.00  0.00     0.167 HD
ATOM     65  C   UNL A   1      47.168  29.805  28.384  1.00  0.00     0.074 A 
ATOM     66  C   UNL A   1      48.581  30.131  28.304  1.00  0.00     0.031 C 
ATOM     67  C   UNL A   1      46.020  30.536  28.449  1.00  0.00     0.037 A 
BRANCH  54  68
ATOM     68  C   UNL A   1      40.123  28.661  28.457  1.00  0.00     0.064 A 
ATOM     69  C   UNL A   1      39.178  29.240  27.587  1.00  0.00     0.173 A 
ATOM     70  C   UNL A   1      39.618  28.252  29.706  1.00  0.00     0.173 A 
ATOM     71  F   UNL A   1      39.508  29.627  26.350  1.00  0.00    -0.203 F 
ATOM     72  C   UNL A   1      37.851  29.456  27.960  1.00  0.00     0.198 A 
ATOM     73  C   UNL A   1      38.300  28.513  30.098  1.00  0.00     0.198 A 
ATOM     74  F   UNL A   1      40.378  27.564  30.570  1.00  0.00    -0.203 F 
ATOM     75  F   UNL A   1      37.000  30.008  27.084  1.00  0.00    -0.200 F 
ATOM     76  C   UNL A   1      37.416  29.114  29.223  1.00  0.00     0.200 A 
ATOM     77  F   UNL A   1      37.891  28.175  31.330  1.00  0.00    -0.200 F 
ATOM     78  F   UNL A   1      36.148  29.345  29.587  1.00  0.00    -0.200 F 
ENDBRANCH  54  68
BRANCH  55  79
ATOM     79  C   UNL A   1      49.623  26.054  27.091  1.00  0.00     0.064 A 
ATOM     80  C   UNL A   1      49.245  26.480  25.810  1.00  0.00     0.173 A 
ATOM     81  C   UNL A   1      50.983  26.006  27.433  1.00  0.00     0.173 A 
ATOM     82  F   UNL A   1      47.967  26.399  25.414  1.00  0.00    -0.203 F 
ATOM     83  C   UNL A   1      50.094  27.317  25.138  1.00  0.00     0.198 A 
ATOM     84  C   UNL A   1      51.839  26.842  26.760  1.00  0.00     0.198 A 
ATOM     85  F   UNL A   1      51.386  25.438  28.576  1.00  0.00    -0.203 F 
ATOM     86  F   UNL A   1      49.642  28.092  24.140  1.00  0.00    -0.200 F 
ATOM     87  C   UNL A   1      51.300  27.604  25.740  1.00  0.00     0.200 A 
ATOM     88  F   UNL A   1      53.051  27.117  27.261  1.00  0.00    -0.200 F 
ATOM     89  F   UNL A   1      51.674  28.865  25.648  1.00  0.00    -0.200 F 
ENDBRANCH  55  79
BRANCH  67  90
ATOM     90  C   UNL A   1      45.902  32.017  28.191  1.00  0.00     0.064 A 
ATOM     91  C   UNL A   1      46.279  33.014  29.105  1.00  0.00     0.173 A 
ATOM     92  C   UNL A   1      45.500  32.491  26.917  1.00  0.00     0.173 A 
ATOM     93  F   UNL A   1      46.844  32.721  30.281  1.00  0.00    -0.203 F 
ATOM     94  C   UNL A   1      46.151  34.372  28.811  1.00  0.00     0.198 A 
ATOM     95  C   UNL A   1      45.471  33.843  26.595  1.00  0.00     0.198 A 
ATOM     96  F   UNL A   1      45.141  31.662  25.926  1.00  0.00    -0.203 F 
ATOM     97  F   UNL A   1      46.437  35.278  29.755  1.00  0.00    -0.200 F 
ATOM     98  C   UNL A   1      45.763  34.786  27.553  1.00  0.00     0.200 A 
ATOM     99  F   UNL A   1      45.172  34.219  25.343  1.00  0.00    -0.200 F 
ATOM    100  F   UNL A   1      45.695  36.090  27.259  1.00  0.00    -0.200 F 
ENDBRANCH  67  90
ENDBRANCH  41  42
ENDBRANCH  34  36
ENDBRANCH  33  34
ENDBRANCH  32  33
ENDBRANCH  31  32
ENDBRANCH  30  31
ENDBRANCH  29  30
ENDBRANCH  28  29
ENDBRANCH   1  28
TORSDOF 22
ENDMDL
