MODEL 1
REMARK VINA RESULT:     -10.2      0.000      0.000
REMARK SMILES CCCn1cc(Br)cc1C(=O)NC[C@H]1CC[C@@H](C(=O)OCCOCCOCCOCCOC(=O)c2ccc(-c3c4nc(c(-c5c(F)c(F)c(F)c(F)c5F)c5ccc([nH]5)c(-c5c(F)c(F)c(F)c(F)c5F)c5nc(c(-c6c(F)c(F)c(F)c(F)c6F)c6ccc3[nH]6)C=C5)C=C4)cc2)O1
REMARK SMILES IDX 24 1 23 2 22 3 21 4 20 5 18 6 19 7 17 8 14 9 15 10 98 11
REMARK SMILES IDX 16 12 13 13 12 14 10 15 11 16 9 18 4 19 5 20 6 21 8 22 7 23
REMARK SMILES IDX 3 24 2 25 1 26 25 27 26 28 27 29 28 30 29 31 30 32 31 33
REMARK SMILES IDX 32 34 33 35 34 36 35 37 36 38 97 39 37 40 96 41 38 42 39 43
REMARK SMILES IDX 40 44 90 45 41 46 95 47 89 48 91 49 42 50 94 51 88 52 87 53
REMARK SMILES IDX 43 55 75 56 55 57 74 58 56 59 59 60 73 61 92 62 57 63 58 64
REMARK SMILES IDX 72 66 93 67 60 68 44 69 45 70 53 71 46 72 47 73 51 74 54 75
REMARK SMILES IDX 48 76 49 77 52 78 50 79 76 80 77 81 85 82 78 83 79 84 83 85
REMARK SMILES IDX 86 86 80 87 81 88 84 89 82 90 61 91 62 92 70 93 63 94 64 95
REMARK SMILES IDX 68 96 71 97 65 98 66 99 69 100 67 101
REMARK H PARENT 12 17 91 54 59 65
REMARK Flexibility Score: inf
ROOT
ATOM      1  C   UNL A   1      31.966  29.831  25.183  1.00  0.00     0.188 C 
ENDROOT
BRANCH   1   2
ATOM      2  O   UNL A   1      30.689  29.707  24.584  1.00  0.00    -0.376 OA
BRANCH   2   3
ATOM      3  C   UNL A   1      30.645  29.626  23.170  1.00  0.00     0.202 C 
BRANCH   3   4
ATOM      4  C   UNL A   1      29.752  28.530  22.571  1.00  0.00     0.261 C 
BRANCH   4   5
ATOM      5  O   UNL A   1      30.492  27.417  22.034  1.00  0.00    -0.461 OA
BRANCH   5   6
ATOM      6  C   UNL A   1      31.156  26.616  22.901  1.00  0.00     0.335 C 
ATOM      7  O   UNL A   1      32.370  26.461  22.901  1.00  0.00    -0.249 OA
BRANCH   6   8
ATOM      8  C   UNL A   1      30.180  25.910  23.870  1.00  0.00     0.228 C 
ATOM      9  C   UNL A   1      30.843  24.113  25.205  1.00  0.00     0.138 C 
ATOM     10  C   UNL A   1      30.073  25.049  26.097  1.00  0.00     0.037 C 
ATOM     11  O   UNL A   1      30.514  24.499  23.870  1.00  0.00    -0.361 OA
ATOM     12  C   UNL A   1      30.218  26.341  25.344  1.00  0.00     0.047 C 
BRANCH   9  13
ATOM     13  C   UNL A   1      32.356  24.159  25.485  1.00  0.00     0.148 C 
BRANCH  13  14
ATOM     14  N   UNL A   1      33.272  24.044  24.362  1.00  0.00    -0.348 N 
ATOM     15  C   UNL A   1      33.917  23.049  23.680  1.00  0.00     0.268 C 
ATOM     16  O   UNL A   1      34.469  23.423  22.640  1.00  0.00    -0.268 OA
ATOM     17  H   UNL A   1      33.489  24.929  23.989  1.00  0.00     0.163 HD
BRANCH  15  18
ATOM     18  C   UNL A   1      34.101  21.677  24.133  1.00  0.00     0.108 A 
ATOM     19  N   UNL A   1      35.083  21.006  24.846  1.00  0.00    -0.342 N 
ATOM     20  C   UNL A   1      34.767  19.655  24.910  1.00  0.00     0.102 A 
ATOM     21  C   UNL A   1      33.496  19.497  24.443  1.00  0.00     0.036 A 
ATOM     22  C   UNL A   1      33.066  20.739  23.976  1.00  0.00     0.049 A 
ATOM     23  Br  UNL A   1      32.475  17.930  24.426  1.00  0.00    -0.049 Br
BRANCH  19  24
ATOM     24  C   UNL A   1      36.260  21.489  25.550  1.00  0.00     0.122 C 
BRANCH  24  25
ATOM     25  C   UNL A   1      37.625  20.922  25.163  1.00  0.00     0.018 C 
ATOM     26  C   UNL A   1      38.815  21.690  25.695  1.00  0.00     0.006 C 
ENDBRANCH  24  25
ENDBRANCH  19  24
ENDBRANCH  15  18
ENDBRANCH  13  14
ENDBRANCH   9  13
ENDBRANCH   6   8
ENDBRANCH   5   6
ENDBRANCH   4   5
ENDBRANCH   3   4
ENDBRANCH   2   3
ENDBRANCH   1   2
BRANCH   1  27
ATOM     27  C   UNL A   1      31.969  30.535  26.573  1.00  0.00     0.188 C 
BRANCH  27  28
ATOM     28  O   UNL A   1      32.993  30.355  27.545  1.00  0.00    -0.377 OA
BRANCH  28  29
ATOM     29  C   UNL A   1      34.312  30.758  27.229  1.00  0.00     0.188 C 
BRANCH  29  30
ATOM     30  C   UNL A   1      34.877  32.007  27.948  1.00  0.00     0.188 C 
BRANCH  30  31
ATOM     31  O   UNL A   1      33.996  32.577  28.910  1.00  0.00    -0.376 OA
BRANCH  31  32
ATOM     32  C   UNL A   1      34.472  33.362  29.989  1.00  0.00     0.202 C 
BRANCH  32  33
ATOM     33  C   UNL A   1      34.772  32.661  31.318  1.00  0.00     0.261 C 
BRANCH  33  34
ATOM     34  O   UNL A   1      36.137  32.345  31.491  1.00  0.00    -0.460 OA
BRANCH  34  35
ATOM     35  C   UNL A   1      36.398  31.032  31.469  1.00  0.00     0.338 C 
ATOM     36  O   UNL A   1      36.060  30.198  32.305  1.00  0.00    -0.246 OA
BRANCH  35  37
ATOM     37  C   UNL A   1      37.214  30.729  30.293  1.00  0.00     0.060 A 
ATOM     38  C   UNL A   1      37.022  29.453  29.768  1.00  0.00     0.016 A 
ATOM     39  C   UNL A   1      38.399  31.457  30.120  1.00  0.00     0.016 A 
ATOM     40  C   UNL A   1      38.150  28.740  29.478  1.00  0.00     0.010 A 
ATOM     41  C   UNL A   1      39.529  30.743  29.841  1.00  0.00     0.010 A 
ATOM     42  C   UNL A   1      39.382  29.370  29.680  1.00  0.00    -0.014 A 
BRANCH  42  43
ATOM     43  C   UNL A   1      40.527  28.513  29.826  1.00  0.00     0.031 A 
ATOM     44  C   UNL A   1      40.970  28.389  31.219  1.00  0.00     0.074 A 
ATOM     45  C   UNL A   1      41.077  27.902  28.762  1.00  0.00     0.049 A 
ATOM     46  N   UNL A   1      42.055  28.847  31.745  1.00  0.00    -0.248 NA
ATOM     47  C   UNL A   1      39.994  27.860  32.181  1.00  0.00     0.031 C 
ATOM     48  C   UNL A   1      40.556  27.761  27.398  1.00  0.00     0.029 A 
ATOM     49  N   UNL A   1      42.224  27.184  28.725  1.00  0.00    -0.354 N 
ATOM     50  C   UNL A   1      41.974  28.515  33.091  1.00  0.00     0.074 A 
ATOM     51  C   UNL A   1      40.624  28.082  33.332  1.00  0.00     0.031 C 
ATOM     52  C   UNL A   1      41.268  26.809  26.749  1.00  0.00     0.029 A 
ATOM     53  C   UNL A   1      42.363  26.385  27.603  1.00  0.00     0.049 A 
ATOM     54  H   UNL A   1      42.902  27.226  29.438  1.00  0.00     0.167 HD
ATOM     55  C   UNL A   1      43.090  28.405  33.855  1.00  0.00     0.037 A 
ATOM     56  C   UNL A   1      43.258  25.372  27.493  1.00  0.00     0.037 A 
ATOM     57  C   UNL A   1      44.215  29.063  33.247  1.00  0.00     0.049 A 
ATOM     58  C   UNL A   1      44.311  25.604  28.523  1.00  0.00     0.074 A 
ATOM     59  C   UNL A   1      44.500  30.377  32.929  1.00  0.00     0.029 A 
ATOM     60  N   UNL A   1      45.098  28.301  32.519  1.00  0.00    -0.354 N 
ATOM     61  N   UNL A   1      45.160  26.596  28.478  1.00  0.00    -0.248 NA
ATOM     62  C   UNL A   1      44.100  25.029  29.847  1.00  0.00     0.031 C 
ATOM     63  C   UNL A   1      45.205  30.317  31.691  1.00  0.00     0.029 A 
ATOM     64  C   UNL A   1      45.352  28.973  31.349  1.00  0.00     0.049 A 
ATOM     65  H   UNL A   1      45.476  27.433  32.786  1.00  0.00     0.167 HD
ATOM     66  C   UNL A   1      45.283  27.028  29.794  1.00  0.00     0.074 A 
ATOM     67  C   UNL A   1      44.655  25.984  30.600  1.00  0.00     0.031 C 
ATOM     68  C   UNL A   1      45.614  28.319  30.087  1.00  0.00     0.037 A 
BRANCH  55  69
ATOM     69  C   UNL A   1      43.228  27.415  34.975  1.00  0.00     0.064 A 
ATOM     70  C   UNL A   1      43.585  27.875  36.255  1.00  0.00     0.173 A 
ATOM     71  C   UNL A   1      43.296  26.018  34.784  1.00  0.00     0.173 A 
ATOM     72  F   UNL A   1      43.576  29.187  36.537  1.00  0.00    -0.203 F 
ATOM     73  C   UNL A   1      44.041  27.003  37.245  1.00  0.00     0.198 A 
ATOM     74  C   UNL A   1      43.692  25.146  35.792  1.00  0.00     0.198 A 
ATOM     75  F   UNL A   1      43.095  25.448  33.589  1.00  0.00    -0.203 F 
ATOM     76  F   UNL A   1      44.488  27.497  38.408  1.00  0.00    -0.200 F 
ATOM     77  C   UNL A   1      44.097  25.641  37.013  1.00  0.00     0.200 A 
ATOM     78  F   UNL A   1      43.755  23.831  35.539  1.00  0.00    -0.200 F 
ATOM     79  F   UNL A   1      44.589  24.810  37.940  1.00  0.00    -0.200 F 
ENDBRANCH  55  69
BRANCH  56  80
ATOM     80  C   UNL A   1      43.033  24.056  26.852  1.00  0.00     0.064 A 
ATOM     81  C   UNL A   1      43.769  23.662  25.724  1.00  0.00     0.173 A 
ATOM     82  C   UNL A   1      42.274  23.052  27.486  1.00  0.00     0.173 A 
ATOM     83  F   UNL A   1      44.558  24.545  25.094  1.00  0.00    -0.203 F 
ATOM     84  C   UNL A   1      43.757  22.340  25.266  1.00  0.00     0.198 A 
ATOM     85  C   UNL A   1      42.255  21.735  27.024  1.00  0.00     0.198 A 
ATOM     86  F   UNL A   1      41.607  23.303  28.622  1.00  0.00    -0.203 F 
ATOM     87  F   UNL A   1      44.514  21.988  24.218  1.00  0.00    -0.200 F 
ATOM     88  C   UNL A   1      43.005  21.377  25.921  1.00  0.00     0.200 A 
ATOM     89  F   UNL A   1      41.554  20.807  27.691  1.00  0.00    -0.200 F 
ATOM     90  F   UNL A   1      43.035  20.100  25.515  1.00  0.00    -0.200 F 
ENDBRANCH  56  80
BRANCH  68  91
ATOM     91  C   UNL A   1      46.049  29.206  28.955  1.00  0.00     0.064 A 
ATOM     92  C   UNL A   1      45.155  29.962  28.176  1.00  0.00     0.173 A 
ATOM     93  C   UNL A   1      47.418  29.438  28.774  1.00  0.00     0.173 A 
ATOM     94  F   UNL A   1      43.833  29.871  28.366  1.00  0.00    -0.203 F 
ATOM     95  C   UNL A   1      45.616  30.883  27.236  1.00  0.00     0.198 A 
ATOM     96  C   UNL A   1      47.875  30.384  27.860  1.00  0.00     0.198 A 
ATOM     97  F   UNL A   1      48.315  28.788  29.532  1.00  0.00    -0.203 F 
ATOM     98  F   UNL A   1      44.742  31.592  26.506  1.00  0.00    -0.200 F 
ATOM     99  C   UNL A   1      46.975  31.100  27.086  1.00  0.00     0.200 A 
ATOM    100  F   UNL A   1      49.189  30.628  27.755  1.00  0.00    -0.200 F 
ATOM    101  F   UNL A   1      47.418  32.022  26.219  1.00  0.00    -0.200 F 
ENDBRANCH  68  91
ENDBRANCH  42  43
ENDBRANCH  35  37
ENDBRANCH  34  35
ENDBRANCH  33  34
ENDBRANCH  32  33
ENDBRANCH  31  32
ENDBRANCH  30  31
ENDBRANCH  29  30
ENDBRANCH  28  29
ENDBRANCH  27  28
ENDBRANCH   1  27
TORSDOF 25
ENDMDL
MODEL 2
REMARK VINA RESULT:     -10.2      4.155      8.759
REMARK SMILES CCCn1cc(Br)cc1C(=O)NC[C@H]1CC[C@@H](C(=O)OCCOCCOCCOCCOC(=O)c2ccc(-c3c4nc(c(-c5c(F)c(F)c(F)c(F)c5F)c5ccc([nH]5)c(-c5c(F)c(F)c(F)c(F)c5F)c5nc(c(-c6c(F)c(F)c(F)c(F)c6F)c6ccc3[nH]6)C=C5)C=C4)cc2)O1
REMARK SMILES IDX 24 1 23 2 22 3 21 4 20 5 18 6 19 7 17 8 14 9 15 10 98 11
REMARK SMILES IDX 16 12 13 13 12 14 10 15 11 16 9 18 4 19 5 20 6 21 8 22 7 23
REMARK SMILES IDX 3 24 2 25 1 26 25 27 26 28 27 29 28 30 29 31 30 32 31 33
REMARK SMILES IDX 32 34 33 35 34 36 35 37 36 38 97 39 37 40 96 41 38 42 39 43
REMARK SMILES IDX 40 44 90 45 41 46 95 47 89 48 91 49 42 50 94 51 88 52 87 53
REMARK SMILES IDX 43 55 75 56 55 57 74 58 56 59 59 60 73 61 92 62 57 63 58 64
REMARK SMILES IDX 72 66 93 67 60 68 44 69 45 70 53 71 46 72 47 73 51 74 54 75
REMARK SMILES IDX 48 76 49 77 52 78 50 79 76 80 77 81 85 82 78 83 79 84 83 85
REMARK SMILES IDX 86 86 80 87 81 88 84 89 82 90 61 91 62 92 70 93 63 94 64 95
REMARK SMILES IDX 68 96 71 97 65 98 66 99 69 100 67 101
REMARK H PARENT 12 17 91 54 59 65
REMARK Flexibility Score: inf
ROOT
ATOM      1  C   UNL A   1      38.682  21.784  25.868  1.00  0.00     0.188 C 
ENDROOT
BRANCH   1   2
ATOM      2  O   UNL A   1      37.274  21.881  25.746  1.00  0.00    -0.376 OA
BRANCH   2   3
ATOM      3  C   UNL A   1      36.653  21.052  24.779  1.00  0.00     0.202 C 
BRANCH   3   4
ATOM      4  C   UNL A   1      35.171  20.722  25.008  1.00  0.00     0.261 C 
BRANCH   4   5
ATOM      5  O   UNL A   1      34.374  21.870  25.356  1.00  0.00    -0.461 OA
BRANCH   5   6
ATOM      6  C   UNL A   1      33.472  21.738  26.358  1.00  0.00     0.335 C 
ATOM      7  O   UNL A   1      33.656  21.065  27.364  1.00  0.00    -0.249 OA
BRANCH   6   8
ATOM      8  C   UNL A   1      32.178  22.527  26.052  1.00  0.00     0.228 C 
ATOM      9  C   UNL A   1      32.224  24.713  25.233  1.00  0.00     0.138 C 
ATOM     10  C   UNL A   1      31.226  23.961  24.394  1.00  0.00     0.037 C 
ATOM     11  O   UNL A   1      32.423  23.913  26.400  1.00  0.00    -0.361 OA
ATOM     12  C   UNL A   1      31.696  22.548  24.593  1.00  0.00     0.047 C 
BRANCH   9  13
ATOM     13  C   UNL A   1      33.531  24.992  24.469  1.00  0.00     0.148 C 
BRANCH  13  14
ATOM     14  N   UNL A   1      33.443  25.483  23.104  1.00  0.00    -0.348 N 
ATOM     15  C   UNL A   1      32.963  26.588  22.454  1.00  0.00     0.268 C 
ATOM     16  O   UNL A   1      33.285  26.657  21.264  1.00  0.00    -0.268 OA
ATOM     17  H   UNL A   1      33.839  24.842  22.469  1.00  0.00     0.163 HD
BRANCH  15  18
ATOM     18  C   UNL A   1      32.039  27.571  23.002  1.00  0.00     0.108 A 
ATOM     19  N   UNL A   1      32.101  28.512  24.020  1.00  0.00    -0.342 N 
ATOM     20  C   UNL A   1      30.862  29.125  24.158  1.00  0.00     0.102 A 
ATOM     21  C   UNL A   1      30.084  28.749  23.104  1.00  0.00     0.036 A 
ATOM     22  C   UNL A   1      30.803  27.804  22.372  1.00  0.00     0.049 A 
ATOM     23  Br  UNL A   1      28.374  29.369  22.670  1.00  0.00    -0.049 Br
BRANCH  19  24
ATOM     24  C   UNL A   1      33.209  28.968  24.842  1.00  0.00     0.122 C 
BRANCH  24  25
ATOM     25  C   UNL A   1      33.216  28.601  26.325  1.00  0.00     0.018 C 
ATOM     26  C   UNL A   1      34.474  28.982  27.076  1.00  0.00     0.006 C 
ENDBRANCH  24  25
ENDBRANCH  19  24
ENDBRANCH  15  18
ENDBRANCH  13  14
ENDBRANCH   9  13
ENDBRANCH   6   8
ENDBRANCH   5   6
ENDBRANCH   4   5
ENDBRANCH   3   4
ENDBRANCH   2   3
ENDBRANCH   1   2
BRANCH   1  27
ATOM     27  C   UNL A   1      39.368  23.029  26.507  1.00  0.00     0.188 C 
BRANCH  27  28
ATOM     28  O   UNL A   1      40.644  22.988  27.136  1.00  0.00    -0.377 OA
BRANCH  28  29
ATOM     29  C   UNL A   1      41.371  21.774  27.126  1.00  0.00     0.188 C 
BRANCH  29  30
ATOM     30  C   UNL A   1      42.453  21.589  26.035  1.00  0.00     0.188 C 
BRANCH  30  31
ATOM     31  O   UNL A   1      43.712  22.173  26.353  1.00  0.00    -0.376 OA
BRANCH  31  32
ATOM     32  C   UNL A   1      43.896  23.576  26.398  1.00  0.00     0.202 C 
BRANCH  32  33
ATOM     33  C   UNL A   1      43.463  24.404  25.183  1.00  0.00     0.261 C 
BRANCH  33  34
ATOM     34  O   UNL A   1      42.330  25.210  25.428  1.00  0.00    -0.460 OA
BRANCH  34  35
ATOM     35  C   UNL A   1      42.609  26.513  25.560  1.00  0.00     0.338 C 
ATOM     36  O   UNL A   1      43.710  27.047  25.449  1.00  0.00    -0.246 OA
BRANCH  35  37
ATOM     37  C   UNL A   1      41.383  27.228  25.917  1.00  0.00     0.060 A 
ATOM     38  C   UNL A   1      41.474  28.615  25.822  1.00  0.00     0.016 A 
ATOM     39  C   UNL A   1      40.475  26.577  26.763  1.00  0.00     0.016 A 
ATOM     40  C   UNL A   1      40.994  29.329  26.882  1.00  0.00     0.010 A 
ATOM     41  C   UNL A   1      40.004  27.288  27.830  1.00  0.00     0.010 A 
ATOM     42  C   UNL A   1      40.411  28.613  27.932  1.00  0.00    -0.014 A 
BRANCH  42  43
ATOM     43  C   UNL A   1      40.338  29.281  29.204  1.00  0.00     0.031 A 
ATOM     44  C   UNL A   1      39.185  30.183  29.305  1.00  0.00     0.074 A 
ATOM     45  C   UNL A   1      41.248  29.046  30.164  1.00  0.00     0.049 A 
ATOM     46  N   UNL A   1      39.194  31.472  29.358  1.00  0.00    -0.248 NA
ATOM     47  C   UNL A   1      37.855  29.582  29.132  1.00  0.00     0.031 C 
ATOM     48  C   UNL A   1      42.263  27.990  30.247  1.00  0.00     0.029 A 
ATOM     49  N   UNL A   1      41.385  29.693  31.346  1.00  0.00    -0.354 N 
ATOM     50  C   UNL A   1      37.858  31.844  29.391  1.00  0.00     0.074 A 
ATOM     51  C   UNL A   1      37.091  30.670  29.066  1.00  0.00     0.031 C 
ATOM     52  C   UNL A   1      42.737  27.932  31.514  1.00  0.00     0.029 A 
ATOM     53  C   UNL A   1      42.161  29.025  32.277  1.00  0.00     0.049 A 
ATOM     54  H   UNL A   1      40.966  30.566  31.528  1.00  0.00     0.167 HD
ATOM     55  C   UNL A   1      37.473  33.037  29.908  1.00  0.00     0.037 A 
ATOM     56  C   UNL A   1      42.189  29.319  33.601  1.00  0.00     0.037 A 
ATOM     57  C   UNL A   1      38.575  33.959  29.988  1.00  0.00     0.049 A 
ATOM     58  C   UNL A   1      41.663  30.707  33.752  1.00  0.00     0.074 A 
ATOM     59  C   UNL A   1      39.385  34.568  29.048  1.00  0.00     0.029 A 
ATOM     60  N   UNL A   1      39.235  34.080  31.188  1.00  0.00    -0.354 N 
ATOM     61  N   UNL A   1      42.291  31.769  33.321  1.00  0.00    -0.248 NA
ATOM     62  C   UNL A   1      40.225  30.868  33.933  1.00  0.00     0.031 C 
ATOM     63  C   UNL A   1      40.682  34.601  29.639  1.00  0.00     0.029 A 
ATOM     64  C   UNL A   1      40.581  34.057  30.919  1.00  0.00     0.049 A 
ATOM     65  H   UNL A   1      38.819  34.166  32.075  1.00  0.00     0.167 HD
ATOM     66  C   UNL A   1      41.297  32.590  32.802  1.00  0.00     0.074 A 
ATOM     67  C   UNL A   1      40.040  32.011  33.265  1.00  0.00     0.031 C 
ATOM     68  C   UNL A   1      41.568  33.487  31.808  1.00  0.00     0.037 A 
BRANCH  55  69
ATOM     69  C   UNL A   1      36.182  33.239  30.648  1.00  0.00     0.064 A 
ATOM     70  C   UNL A   1      35.168  34.013  30.057  1.00  0.00     0.173 A 
ATOM     71  C   UNL A   1      36.008  32.939  32.017  1.00  0.00     0.173 A 
ATOM     72  F   UNL A   1      35.247  34.373  28.767  1.00  0.00    -0.203 F 
ATOM     73  C   UNL A   1      34.096  34.505  30.803  1.00  0.00     0.198 A 
ATOM     74  C   UNL A   1      34.906  33.380  32.742  1.00  0.00     0.198 A 
ATOM     75  F   UNL A   1      36.944  32.309  32.738  1.00  0.00    -0.203 F 
ATOM     76  F   UNL A   1      33.218  35.341  30.230  1.00  0.00    -0.200 F 
ATOM     77  C   UNL A   1      33.967  34.191  32.143  1.00  0.00     0.200 A 
ATOM     78  F   UNL A   1      34.810  33.077  34.044  1.00  0.00    -0.200 F 
ATOM     79  F   UNL A   1      32.971  34.710  32.873  1.00  0.00    -0.200 F 
ENDBRANCH  55  69
BRANCH  56  80
ATOM     80  C   UNL A   1      42.253  28.354  34.723  1.00  0.00     0.064 A 
ATOM     81  C   UNL A   1      41.434  27.215  34.748  1.00  0.00     0.173 A 
ATOM     82  C   UNL A   1      43.301  28.392  35.664  1.00  0.00     0.173 A 
ATOM     83  F   UNL A   1      40.447  27.077  33.851  1.00  0.00    -0.203 F 
ATOM     84  C   UNL A   1      41.657  26.172  35.653  1.00  0.00     0.198 A 
ATOM     85  C   UNL A   1      43.519  27.356  36.572  1.00  0.00     0.198 A 
ATOM     86  F   UNL A   1      44.194  29.393  35.664  1.00  0.00    -0.203 F 
ATOM     87  F   UNL A   1      40.888  25.076  35.613  1.00  0.00    -0.200 F 
ATOM     88  C   UNL A   1      42.704  26.240  36.559  1.00  0.00     0.200 A 
ATOM     89  F   UNL A   1      44.559  27.419  37.416  1.00  0.00    -0.200 F 
ATOM     90  F   UNL A   1      42.951  25.218  37.390  1.00  0.00    -0.200 F 
ENDBRANCH  56  80
BRANCH  68  91
ATOM     91  C   UNL A   1      43.006  33.710  31.438  1.00  0.00     0.064 A 
ATOM     92  C   UNL A   1      43.685  32.947  30.471  1.00  0.00     0.173 A 
ATOM     93  C   UNL A   1      43.659  34.842  31.940  1.00  0.00     0.173 A 
ATOM     94  F   UNL A   1      43.085  31.912  29.869  1.00  0.00    -0.203 F 
ATOM     95  C   UNL A   1      44.971  33.286  30.053  1.00  0.00     0.198 A 
ATOM     96  C   UNL A   1      44.930  35.199  31.496  1.00  0.00     0.198 A 
ATOM     97  F   UNL A   1      43.036  35.641  32.821  1.00  0.00    -0.203 F 
ATOM     98  F   UNL A   1      45.596  32.542  29.129  1.00  0.00    -0.200 F 
ATOM     99  C   UNL A   1      45.589  34.417  30.560  1.00  0.00     0.200 A 
ATOM    100  F   UNL A   1      45.502  36.323  31.949  1.00  0.00    -0.200 F 
ATOM    101  F   UNL A   1      46.805  34.774  30.122  1.00  0.00    -0.200 F 
ENDBRANCH  68  91
ENDBRANCH  42  43
ENDBRANCH  35  37
ENDBRANCH  34  35
ENDBRANCH  33  34
ENDBRANCH  32  33
ENDBRANCH  31  32
ENDBRANCH  30  31
ENDBRANCH  29  30
ENDBRANCH  28  29
ENDBRANCH  27  28
ENDBRANCH   1  27
TORSDOF 25
ENDMDL
MODEL 3
REMARK VINA RESULT:      -9.9      1.524      2.113
REMARK SMILES CCCn1cc(Br)cc1C(=O)NC[C@H]1CC[C@@H](C(=O)OCCOCCOCCOCCOC(=O)c2ccc(-c3c4nc(c(-c5c(F)c(F)c(F)c(F)c5F)c5ccc([nH]5)c(-c5c(F)c(F)c(F)c(F)c5F)c5nc(c(-c6c(F)c(F)c(F)c(F)c6F)c6ccc3[nH]6)C=C5)C=C4)cc2)O1
REMARK SMILES IDX 24 1 23 2 22 3 21 4 20 5 18 6 19 7 17 8 14 9 15 10 98 11
REMARK SMILES IDX 16 12 13 13 12 14 10 15 11 16 9 18 4 19 5 20 6 21 8 22 7 23
REMARK SMILES IDX 3 24 2 25 1 26 25 27 26 28 27 29 28 30 29 31 30 32 31 33
REMARK SMILES IDX 32 34 33 35 34 36 35 37 36 38 97 39 37 40 96 41 38 42 39 43
REMARK SMILES IDX 40 44 90 45 41 46 95 47 89 48 91 49 42 50 94 51 88 52 87 53
REMARK SMILES IDX 43 55 75 56 55 57 74 58 56 59 59 60 73 61 92 62 57 63 58 64
REMARK SMILES IDX 72 66 93 67 60 68 44 69 45 70 53 71 46 72 47 73 51 74 54 75
REMARK SMILES IDX 48 76 49 77 52 78 50 79 76 80 77 81 85 82 78 83 79 84 83 85
REMARK SMILES IDX 86 86 80 87 81 88 84 89 82 90 61 91 62 92 70 93 63 94 64 95
REMARK SMILES IDX 68 96 71 97 65 98 66 99 69 100 67 101
REMARK H PARENT 12 17 91 54 59 65
REMARK Flexibility Score: inf
ROOT
ATOM      1  C   UNL A   1      33.815  29.551  26.645  1.00  0.00     0.188 C 
ENDROOT
BRANCH   1   2
ATOM      2  O   UNL A   1      33.302  29.276  25.353  1.00  0.00    -0.376 OA
BRANCH   2   3
ATOM      3  C   UNL A   1      31.962  29.656  25.097  1.00  0.00     0.202 C 
BRANCH   3   4
ATOM      4  C   UNL A   1      31.041  28.575  24.513  1.00  0.00     0.261 C 
BRANCH   4   5
ATOM      5  O   UNL A   1      31.157  27.302  25.177  1.00  0.00    -0.461 OA
BRANCH   5   6
ATOM      6  C   UNL A   1      31.014  26.180  24.433  1.00  0.00     0.335 C 
ATOM      7  O   UNL A   1      30.038  25.442  24.483  1.00  0.00    -0.249 OA
BRANCH   6   8
ATOM      8  C   UNL A   1      32.249  25.944  23.534  1.00  0.00     0.228 C 
ATOM      9  C   UNL A   1      33.059  23.802  23.079  1.00  0.00     0.138 C 
ATOM     10  C   UNL A   1      33.013  24.532  21.763  1.00  0.00     0.037 C 
ATOM     11  O   UNL A   1      32.975  24.816  24.082  1.00  0.00    -0.361 OA
ATOM     12  C   UNL A   1      31.988  25.590  22.061  1.00  0.00     0.047 C 
BRANCH   9  13
ATOM     13  C   UNL A   1      31.942  22.750  23.197  1.00  0.00     0.148 C 
BRANCH  13  14
ATOM     14  N   UNL A   1      32.319  21.351  23.322  1.00  0.00    -0.348 N 
ATOM     15  C   UNL A   1      33.125  20.588  24.123  1.00  0.00     0.268 C 
ATOM     16  O   UNL A   1      32.985  19.370  23.970  1.00  0.00    -0.268 OA
ATOM     17  H   UNL A   1      31.870  20.799  22.641  1.00  0.00     0.163 HD
BRANCH  15  18
ATOM     18  C   UNL A   1      34.175  21.081  25.003  1.00  0.00     0.108 A 
ATOM     19  N   UNL A   1      34.225  21.513  26.320  1.00  0.00    -0.342 N 
ATOM     20  C   UNL A   1      35.507  21.963  26.611  1.00  0.00     0.102 A 
ATOM     21  C   UNL A   1      36.320  21.619  25.573  1.00  0.00     0.036 A 
ATOM     22  C   UNL A   1      35.516  21.059  24.581  1.00  0.00     0.049 A 
ATOM     23  Br  UNL A   1      38.176  21.826  25.462  1.00  0.00    -0.049 Br
BRANCH  19  24
ATOM     24  C   UNL A   1      33.230  21.487  27.379  1.00  0.00     0.122 C 
BRANCH  24  25
ATOM     25  C   UNL A   1      32.574  22.803  27.796  1.00  0.00     0.018 C 
ATOM     26  C   UNL A   1      31.493  23.307  26.864  1.00  0.00     0.006 C 
ENDBRANCH  24  25
ENDBRANCH  19  24
ENDBRANCH  15  18
ENDBRANCH  13  14
ENDBRANCH   9  13
ENDBRANCH   6   8
ENDBRANCH   5   6
ENDBRANCH   4   5
ENDBRANCH   3   4
ENDBRANCH   2   3
ENDBRANCH   1   2
BRANCH   1  27
ATOM     27  C   UNL A   1      33.347  30.905  27.258  1.00  0.00     0.188 C 
BRANCH  27  28
ATOM     28  O   UNL A   1      34.021  31.559  28.327  1.00  0.00    -0.377 OA
BRANCH  28  29
ATOM     29  C   UNL A   1      34.615  32.822  28.090  1.00  0.00     0.188 C 
BRANCH  29  30
ATOM     30  C   UNL A   1      34.087  34.031  28.898  1.00  0.00     0.188 C 
BRANCH  30  31
ATOM     31  O   UNL A   1      34.865  34.353  30.046  1.00  0.00    -0.376 OA
BRANCH  31  32
ATOM     32  C   UNL A   1      34.303  34.389  31.345  1.00  0.00     0.202 C 
BRANCH  32  33
ATOM     33  C   UNL A   1      34.628  33.241  32.307  1.00  0.00     0.261 C 
BRANCH  33  34
ATOM     34  O   UNL A   1      34.869  32.012  31.655  1.00  0.00    -0.460 OA
BRANCH  34  35
ATOM     35  C   UNL A   1      36.075  31.489  31.910  1.00  0.00     0.338 C 
ATOM     36  O   UNL A   1      36.611  31.370  33.009  1.00  0.00    -0.246 OA
BRANCH  35  37
ATOM     37  C   UNL A   1      36.707  31.114  30.645  1.00  0.00     0.060 A 
ATOM     38  C   UNL A   1      36.540  29.778  30.288  1.00  0.00     0.016 A 
ATOM     39  C   UNL A   1      37.782  31.897  30.199  1.00  0.00     0.016 A 
ATOM     40  C   UNL A   1      37.660  29.114  29.877  1.00  0.00     0.010 A 
ATOM     41  C   UNL A   1      38.906  31.233  29.799  1.00  0.00     0.010 A 
ATOM     42  C   UNL A   1      38.851  29.844  29.800  1.00  0.00    -0.014 A 
BRANCH  42  43
ATOM     43  C   UNL A   1      40.073  29.086  29.827  1.00  0.00     0.031 A 
ATOM     44  C   UNL A   1      40.640  28.972  31.176  1.00  0.00     0.074 A 
ATOM     45  C   UNL A   1      40.582  28.549  28.705  1.00  0.00     0.049 A 
ATOM     46  N   UNL A   1      41.722  29.510  31.625  1.00  0.00    -0.248 NA
ATOM     47  C   UNL A   1      39.796  28.339  32.199  1.00  0.00     0.031 C 
ATOM     48  C   UNL A   1      39.963  28.393  27.384  1.00  0.00     0.029 A 
ATOM     49  N   UNL A   1      41.778  27.934  28.555  1.00  0.00    -0.354 N 
ATOM     50  C   UNL A   1      41.783  29.144  32.963  1.00  0.00     0.074 A 
ATOM     51  C   UNL A   1      40.499  28.590  33.300  1.00  0.00     0.031 C 
ATOM     52  C   UNL A   1      40.697  27.521  26.653  1.00  0.00     0.029 A 
ATOM     53  C   UNL A   1      41.891  27.175  27.403  1.00  0.00     0.049 A 
ATOM     54  H   UNL A   1      42.508  28.019  29.211  1.00  0.00     0.167 HD
ATOM     55  C   UNL A   1      42.963  29.114  33.630  1.00  0.00     0.037 A 
ATOM     56  C   UNL A   1      42.856  26.246  27.191  1.00  0.00     0.037 A 
ATOM     57  C   UNL A   1      43.974  29.881  32.952  1.00  0.00     0.049 A 
ATOM     58  C   UNL A   1      43.969  26.546  28.139  1.00  0.00     0.074 A 
ATOM     59  C   UNL A   1      44.119  31.222  32.649  1.00  0.00     0.029 A 
ATOM     60  N   UNL A   1      44.854  29.214  32.133  1.00  0.00    -0.354 N 
ATOM     61  N   UNL A   1      44.724  27.609  28.053  1.00  0.00    -0.248 NA
ATOM     62  C   UNL A   1      43.917  25.927  29.458  1.00  0.00     0.031 C 
ATOM     63  C   UNL A   1      44.720  31.250  31.357  1.00  0.00     0.029 A 
ATOM     64  C   UNL A   1      44.952  29.931  30.966  1.00  0.00     0.049 A 
ATOM     65  H   UNL A   1      45.326  28.376  32.343  1.00  0.00     0.167 HD
ATOM     66  C   UNL A   1      44.918  28.021  29.366  1.00  0.00     0.074 A 
ATOM     67  C   UNL A   1      44.451  26.910  30.190  1.00  0.00     0.031 C 
ATOM     68  C   UNL A   1      45.162  29.330  29.669  1.00  0.00     0.037 A 
BRANCH  55  69
ATOM     69  C   UNL A   1      43.278  28.117  34.707  1.00  0.00     0.064 A 
ATOM     70  C   UNL A   1      43.636  28.579  35.985  1.00  0.00     0.173 A 
ATOM     71  C   UNL A   1      43.511  26.746  34.462  1.00  0.00     0.173 A 
ATOM     72  F   UNL A   1      43.477  29.870  36.315  1.00  0.00    -0.203 F 
ATOM     73  C   UNL A   1      44.245  27.742  36.922  1.00  0.00     0.198 A 
ATOM     74  C   UNL A   1      44.061  25.900  35.419  1.00  0.00     0.198 A 
ATOM     75  F   UNL A   1      43.324  26.191  33.257  1.00  0.00    -0.203 F 
ATOM     76  F   UNL A   1      44.683  28.252  38.081  1.00  0.00    -0.200 F 
ATOM     77  C   UNL A   1      44.459  26.406  36.638  1.00  0.00     0.200 A 
ATOM     78  F   UNL A   1      44.275  24.612  35.116  1.00  0.00    -0.200 F 
ATOM     79  F   UNL A   1      45.095  25.615  37.512  1.00  0.00    -0.200 F 
ENDBRANCH  55  69
BRANCH  56  80
ATOM     80  C   UNL A   1      42.691  24.929  26.533  1.00  0.00     0.064 A 
ATOM     81  C   UNL A   1      43.472  24.569  25.425  1.00  0.00     0.173 A 
ATOM     82  C   UNL A   1      41.944  23.897  27.136  1.00  0.00     0.173 A 
ATOM     83  F   UNL A   1      44.252  25.480  24.826  1.00  0.00    -0.203 F 
ATOM     84  C   UNL A   1      43.514  23.250  24.956  1.00  0.00     0.198 A 
ATOM     85  C   UNL A   1      41.979  22.585  26.663  1.00  0.00     0.198 A 
ATOM     86  F   UNL A   1      41.236  24.118  28.253  1.00  0.00    -0.203 F 
ATOM     87  F   UNL A   1      44.312  22.931  23.929  1.00  0.00    -0.200 F 
ATOM     88  C   UNL A   1      42.773  22.259  25.580  1.00  0.00     0.200 A 
ATOM     89  F   UNL A   1      41.288  21.630  27.301  1.00  0.00    -0.200 F 
ATOM     90  F   UNL A   1      42.854  20.988  25.165  1.00  0.00    -0.200 F 
ENDBRANCH  56  80
BRANCH  68  91
ATOM     91  C   UNL A   1      45.425  30.275  28.531  1.00  0.00     0.064 A 
ATOM     92  C   UNL A   1      44.409  30.979  27.859  1.00  0.00     0.173 A 
ATOM     93  C   UNL A   1      46.750  30.617  28.236  1.00  0.00     0.173 A 
ATOM     94  F   UNL A   1      43.121  30.781  28.163  1.00  0.00    -0.203 F 
ATOM     95  C   UNL A   1      44.711  31.956  26.912  1.00  0.00     0.198 A 
ATOM     96  C   UNL A   1      47.049  31.618  27.315  1.00  0.00     0.198 A 
ATOM     97  F   UNL A   1      47.759  30.020  28.890  1.00  0.00    -0.203 F 
ATOM     98  F   UNL A   1      43.725  32.613  26.285  1.00  0.00    -0.200 F 
ATOM     99  C   UNL A   1      46.031  32.281  26.647  1.00  0.00     0.200 A 
ATOM    100  F   UNL A   1      48.326  31.966  27.102  1.00  0.00    -0.200 F 
ATOM    101  F   UNL A   1      46.324  33.256  25.775  1.00  0.00    -0.200 F 
ENDBRANCH  68  91
ENDBRANCH  42  43
ENDBRANCH  35  37
ENDBRANCH  34  35
ENDBRANCH  33  34
ENDBRANCH  32  33
ENDBRANCH  31  32
ENDBRANCH  30  31
ENDBRANCH  29  30
ENDBRANCH  28  29
ENDBRANCH  27  28
ENDBRANCH   1  27
TORSDOF 25
ENDMDL
