MODEL 1
REMARK VINA RESULT:     -10.4      0.000      0.000
REMARK SMILES C[C@@H]1[NH2+]CC[C@@H]1C(=O)Nc1ccccc1CC(=O)OCCOCCOCCOCCOC(=O)c1ccc(-c2c3nc(c(-c4c(F)c(F)c(F)c(F)c4F)c4ccc([nH]4)c(-c4c(F)c(F)c(F)c(F)c4F)c4nc(c(-c5c(F)c(F)c(F)c(F)c5F)c5ccc2[nH]5)C=C4)C=C3)cc1
REMARK SMILES IDX 24 1 23 2 22 3 21 4 20 5 19 6 17 7 18 8 16 9 15 10 10 11
REMARK SMILES IDX 11 12 12 13 14 14 13 15 9 16 7 17 8 18 6 20 1 21 2 22 3 23
REMARK SMILES IDX 4 24 5 27 25 28 26 29 27 30 28 31 29 32 30 33 31 34 32 35
REMARK SMILES IDX 33 36 34 37 35 38 96 39 36 40 95 41 37 42 38 43 39 44 89 45
REMARK SMILES IDX 40 46 94 47 88 48 90 49 41 50 93 51 87 52 86 53 42 55 74 56
REMARK SMILES IDX 54 57 73 58 55 59 58 60 72 61 91 62 56 63 57 64 71 66 92 67
REMARK SMILES IDX 59 68 43 69 44 70 52 71 45 72 46 73 50 74 53 75 47 76 48 77
REMARK SMILES IDX 51 78 49 79 75 80 76 81 84 82 77 83 78 84 82 85 85 86 79 87
REMARK SMILES IDX 80 88 83 89 81 90 60 91 61 92 69 93 62 94 63 95 67 96 70 97
REMARK SMILES IDX 64 98 65 99 68 100 66 101
REMARK H PARENT 9 19 3 25 3 26 90 54 58 65
REMARK Flexibility Score: inf
ROOT
ATOM      1  C   UNL A   1      34.613  21.824  25.522  1.00  0.00     0.188 C 
ENDROOT
BRANCH   1   2
ATOM      2  C   UNL A   1      33.665  22.178  24.350  1.00  0.00     0.188 C 
BRANCH   2   3
ATOM      3  O   UNL A   1      32.304  22.509  24.605  1.00  0.00    -0.376 OA
BRANCH   3   4
ATOM      4  C   UNL A   1      31.621  21.919  25.697  1.00  0.00     0.202 C 
BRANCH   4   5
ATOM      5  C   UNL A   1      30.711  22.811  26.574  1.00  0.00     0.261 C 
BRANCH   5   6
ATOM      6  O   UNL A   1      31.309  23.974  27.207  1.00  0.00    -0.463 OA
BRANCH   6   7
ATOM      7  C   UNL A   1      31.052  25.184  26.638  1.00  0.00     0.310 C 
ATOM      8  O   UNL A   1      29.907  25.586  26.429  1.00  0.00    -0.252 OA
BRANCH   7   9
ATOM      9  C   UNL A   1      32.251  26.122  26.439  1.00  0.00     0.160 C 
BRANCH   9  10
ATOM     10  C   UNL A   1      32.214  27.658  26.198  1.00  0.00    -0.013 A 
ATOM     11  C   UNL A   1      31.834  28.534  25.124  1.00  0.00     0.044 A 
ATOM     12  C   UNL A   1      32.183  29.917  25.307  1.00  0.00     0.026 A 
ATOM     13  C   UNL A   1      32.672  30.473  26.491  1.00  0.00     0.002 A 
ATOM     14  C   UNL A   1      32.630  28.299  27.424  1.00  0.00     0.006 A 
ATOM     15  C   UNL A   1      32.845  29.661  27.580  1.00  0.00     0.000 A 
BRANCH  11  16
ATOM     16  N   UNL A   1      31.121  28.451  23.863  1.00  0.00    -0.325 N 
ATOM     17  C   UNL A   1      31.109  27.969  22.572  1.00  0.00     0.233 C 
ATOM     18  O   UNL A   1      30.082  28.210  21.924  1.00  0.00    -0.274 OA
ATOM     19  H   UNL A   1      30.287  28.960  23.980  1.00  0.00     0.169 HD
BRANCH  17  20
ATOM     20  C   UNL A   1      32.191  27.121  21.942  1.00  0.00     0.142 C 
ATOM     21  C   UNL A   1      30.879  25.297  23.051  1.00  0.00     0.076 C 
ATOM     22  C   UNL A   1      31.562  25.794  21.751  1.00  0.00     0.192 C 
ATOM     23  N   UNL A   1      32.650  24.954  21.293  1.00  0.00    -0.343 N 
ATOM     24  C   UNL A   1      33.659  25.185  22.316  1.00  0.00     0.261 C 
ATOM     25  H   UNL A   1      32.982  25.244  20.374  1.00  0.00     0.346 HD
ATOM     26  H   UNL A   1      32.394  23.972  21.183  1.00  0.00     0.346 HD
ATOM     27  C   UNL A   1      33.458  26.676  22.701  1.00  0.00     0.081 C 
ENDBRANCH  17  20
ENDBRANCH  11  16
ENDBRANCH   9  10
ENDBRANCH   7   9
ENDBRANCH   6   7
ENDBRANCH   5   6
ENDBRANCH   4   5
ENDBRANCH   3   4
ENDBRANCH   2   3
ENDBRANCH   1   2
BRANCH   1  28
ATOM     28  O   UNL A   1      34.952  22.941  26.311  1.00  0.00    -0.377 OA
BRANCH  28  29
ATOM     29  C   UNL A   1      35.816  23.868  25.700  1.00  0.00     0.188 C 
BRANCH  29  30
ATOM     30  C   UNL A   1      37.328  23.591  25.795  1.00  0.00     0.188 C 
BRANCH  30  31
ATOM     31  O   UNL A   1      37.800  22.576  24.921  1.00  0.00    -0.376 OA
BRANCH  31  32
ATOM     32  C   UNL A   1      38.258  21.319  25.381  1.00  0.00     0.202 C 
BRANCH  32  33
ATOM     33  C   UNL A   1      39.638  21.175  26.051  1.00  0.00     0.261 C 
BRANCH  33  34
ATOM     34  O   UNL A   1      40.096  19.850  26.325  1.00  0.00    -0.460 OA
BRANCH  34  35
ATOM     35  C   UNL A   1      41.422  19.628  26.154  1.00  0.00     0.338 C 
ATOM     36  O   UNL A   1      41.939  18.670  25.638  1.00  0.00    -0.246 OA
BRANCH  35  37
ATOM     37  C   UNL A   1      42.130  20.887  26.496  1.00  0.00     0.060 A 
ATOM     38  C   UNL A   1      42.251  21.206  27.854  1.00  0.00     0.016 A 
ATOM     39  C   UNL A   1      42.718  21.699  25.520  1.00  0.00     0.016 A 
ATOM     40  C   UNL A   1      42.930  22.352  28.244  1.00  0.00     0.010 A 
ATOM     41  C   UNL A   1      43.345  22.887  25.908  1.00  0.00     0.010 A 
ATOM     42  C   UNL A   1      43.407  23.234  27.268  1.00  0.00    -0.014 A 
BRANCH  42  43
ATOM     43  C   UNL A   1      43.634  24.631  27.698  1.00  0.00     0.031 A 
ATOM     44  C   UNL A   1      45.055  25.123  27.693  1.00  0.00     0.074 A 
ATOM     45  C   UNL A   1      42.617  25.470  27.951  1.00  0.00     0.049 A 
ATOM     46  N   UNL A   1      45.527  26.320  27.920  1.00  0.00    -0.248 NA
ATOM     47  C   UNL A   1      46.086  24.120  27.374  1.00  0.00     0.031 C 
ATOM     48  C   UNL A   1      41.201  25.116  27.925  1.00  0.00     0.029 A 
ATOM     49  N   UNL A   1      42.631  26.803  28.267  1.00  0.00    -0.354 N 
ATOM     50  C   UNL A   1      46.904  26.211  27.771  1.00  0.00     0.074 A 
ATOM     51  C   UNL A   1      47.197  24.830  27.468  1.00  0.00     0.031 C 
ATOM     52  C   UNL A   1      40.478  26.207  28.232  1.00  0.00     0.029 A 
ATOM     53  C   UNL A   1      41.383  27.326  28.491  1.00  0.00     0.049 A 
ATOM     54  H   UNL A   1      43.458  27.335  28.329  1.00  0.00     0.167 HD
ATOM     55  C   UNL A   1      47.842  27.181  27.870  1.00  0.00     0.037 A 
ATOM     56  C   UNL A   1      41.024  28.565  28.878  1.00  0.00     0.037 A 
ATOM     57  C   UNL A   1      47.541  28.552  28.185  1.00  0.00     0.049 A 
ATOM     58  C   UNL A   1      42.090  29.618  29.048  1.00  0.00     0.074 A 
ATOM     59  C   UNL A   1      48.409  29.621  28.299  1.00  0.00     0.029 A 
ATOM     60  N   UNL A   1      46.268  29.035  28.453  1.00  0.00    -0.354 N 
ATOM     61  N   UNL A   1      43.388  29.521  28.878  1.00  0.00    -0.248 NA
ATOM     62  C   UNL A   1      41.638  30.958  29.446  1.00  0.00     0.031 C 
ATOM     63  C   UNL A   1      47.671  30.736  28.709  1.00  0.00     0.029 A 
ATOM     64  C   UNL A   1      46.332  30.382  28.770  1.00  0.00     0.049 A 
ATOM     65  H   UNL A   1      45.442  28.500  28.422  1.00  0.00     0.167 HD
ATOM     66  C   UNL A   1      43.904  30.788  29.123  1.00  0.00     0.074 A 
ATOM     67  C   UNL A   1      42.775  31.639  29.435  1.00  0.00     0.031 C 
ATOM     68  C   UNL A   1      45.194  31.211  29.088  1.00  0.00     0.037 A 
BRANCH  55  69
ATOM     69  C   UNL A   1      49.276  26.767  27.702  1.00  0.00     0.064 A 
ATOM     70  C   UNL A   1      49.866  26.604  26.438  1.00  0.00     0.173 A 
ATOM     71  C   UNL A   1      50.066  26.505  28.832  1.00  0.00     0.173 A 
ATOM     72  F   UNL A   1      49.148  26.818  25.325  1.00  0.00    -0.203 F 
ATOM     73  C   UNL A   1      51.179  26.156  26.313  1.00  0.00     0.198 A 
ATOM     74  C   UNL A   1      51.389  26.093  28.703  1.00  0.00     0.198 A 
ATOM     75  F   UNL A   1      49.551  26.639  30.063  1.00  0.00    -0.203 F 
ATOM     76  F   UNL A   1      51.697  25.937  25.097  1.00  0.00    -0.200 F 
ATOM     77  C   UNL A   1      51.941  25.906  27.445  1.00  0.00     0.200 A 
ATOM     78  F   UNL A   1      52.126  25.861  29.798  1.00  0.00    -0.200 F 
ATOM     79  F   UNL A   1      53.203  25.472  27.323  1.00  0.00    -0.200 F 
ENDBRANCH  55  69
BRANCH  56  80
ATOM     80  C   UNL A   1      39.594  28.864  29.149  1.00  0.00     0.064 A 
ATOM     81  C   UNL A   1      39.033  28.691  30.421  1.00  0.00     0.173 A 
ATOM     82  C   UNL A   1      38.757  29.340  28.127  1.00  0.00     0.173 A 
ATOM     83  F   UNL A   1      39.784  28.215  31.425  1.00  0.00    -0.203 F 
ATOM     84  C   UNL A   1      37.688  28.967  30.658  1.00  0.00     0.198 A 
ATOM     85  C   UNL A   1      37.421  29.646  28.373  1.00  0.00     0.198 A 
ATOM     86  F   UNL A   1      39.244  29.521  26.891  1.00  0.00    -0.203 F 
ATOM     87  F   UNL A   1      37.166  28.753  31.874  1.00  0.00    -0.200 F 
ATOM     88  C   UNL A   1      36.885  29.453  29.636  1.00  0.00     0.200 A 
ATOM     89  F   UNL A   1      36.654  30.127  27.385  1.00  0.00    -0.200 F 
ATOM     90  F   UNL A   1      35.594  29.730  29.868  1.00  0.00    -0.200 F 
ENDBRANCH  56  80
BRANCH  68  91
ATOM     91  C   UNL A   1      45.449  32.668  29.360  1.00  0.00     0.064 A 
ATOM     92  C   UNL A   1      45.762  33.142  30.643  1.00  0.00     0.173 A 
ATOM     93  C   UNL A   1      45.405  33.601  28.312  1.00  0.00     0.173 A 
ATOM     94  F   UNL A   1      45.809  32.294  31.683  1.00  0.00    -0.203 F 
ATOM     95  C   UNL A   1      45.978  34.497  30.874  1.00  0.00     0.198 A 
ATOM     96  C   UNL A   1      45.662  34.951  28.539  1.00  0.00     0.198 A 
ATOM     97  F   UNL A   1      45.124  33.203  27.062  1.00  0.00    -0.203 F 
ATOM     98  F   UNL A   1      46.209  34.934  32.120  1.00  0.00    -0.200 F 
ATOM     99  C   UNL A   1      45.933  35.399  29.822  1.00  0.00     0.200 A 
ATOM    100  F   UNL A   1      45.638  35.817  27.517  1.00  0.00    -0.200 F 
ATOM    101  F   UNL A   1      46.145  36.704  30.046  1.00  0.00    -0.200 F 
ENDBRANCH  68  91
ENDBRANCH  42  43
ENDBRANCH  35  37
ENDBRANCH  34  35
ENDBRANCH  33  34
ENDBRANCH  32  33
ENDBRANCH  31  32
ENDBRANCH  30  31
ENDBRANCH  29  30
ENDBRANCH  28  29
ENDBRANCH   1  28
TORSDOF 23
ENDMDL
MODEL 2
REMARK VINA RESULT:     -10.4      4.828     10.334
REMARK SMILES C[C@@H]1[NH2+]CC[C@@H]1C(=O)Nc1ccccc1CC(=O)OCCOCCOCCOCCOC(=O)c1ccc(-c2c3nc(c(-c4c(F)c(F)c(F)c(F)c4F)c4ccc([nH]4)c(-c4c(F)c(F)c(F)c(F)c4F)c4nc(c(-c5c(F)c(F)c(F)c(F)c5F)c5ccc2[nH]5)C=C4)C=C3)cc1
REMARK SMILES IDX 24 1 23 2 22 3 21 4 20 5 19 6 17 7 18 8 16 9 15 10 10 11
REMARK SMILES IDX 11 12 12 13 14 14 13 15 9 16 7 17 8 18 6 20 1 21 2 22 3 23
REMARK SMILES IDX 4 24 5 27 25 28 26 29 27 30 28 31 29 32 30 33 31 34 32 35
REMARK SMILES IDX 33 36 34 37 35 38 96 39 36 40 95 41 37 42 38 43 39 44 89 45
REMARK SMILES IDX 40 46 94 47 88 48 90 49 41 50 93 51 87 52 86 53 42 55 74 56
REMARK SMILES IDX 54 57 73 58 55 59 58 60 72 61 91 62 56 63 57 64 71 66 92 67
REMARK SMILES IDX 59 68 43 69 44 70 52 71 45 72 46 73 50 74 53 75 47 76 48 77
REMARK SMILES IDX 51 78 49 79 75 80 76 81 84 82 77 83 78 84 82 85 85 86 79 87
REMARK SMILES IDX 80 88 83 89 81 90 60 91 61 92 69 93 62 94 63 95 67 96 70 97
REMARK SMILES IDX 64 98 65 99 68 100 66 101
REMARK H PARENT 9 19 3 25 3 26 90 54 58 65
REMARK Flexibility Score: inf
ROOT
ATOM      1  C   UNL A   1      32.632  27.560  24.008  1.00  0.00     0.188 C 
ENDROOT
BRANCH   1   2
ATOM      2  C   UNL A   1      31.627  26.606  23.319  1.00  0.00     0.188 C 
BRANCH   2   3
ATOM      3  O   UNL A   1      30.642  25.925  24.089  1.00  0.00    -0.376 OA
BRANCH   3   4
ATOM      4  C   UNL A   1      30.893  24.615  24.566  1.00  0.00     0.202 C 
BRANCH   4   5
ATOM      5  C   UNL A   1      30.902  24.369  26.093  1.00  0.00     0.261 C 
BRANCH   5   6
ATOM      6  O   UNL A   1      31.306  23.056  26.566  1.00  0.00    -0.463 OA
BRANCH   6   7
ATOM      7  C   UNL A   1      32.483  22.982  27.245  1.00  0.00     0.310 C 
ATOM      8  O   UNL A   1      32.564  22.498  28.375  1.00  0.00    -0.252 OA
BRANCH   7   9
ATOM      9  C   UNL A   1      33.754  23.352  26.467  1.00  0.00     0.160 C 
BRANCH   9  10
ATOM     10  C   UNL A   1      34.773  22.377  25.810  1.00  0.00    -0.013 A 
ATOM     11  C   UNL A   1      34.709  21.134  25.093  1.00  0.00     0.044 A 
ATOM     12  C   UNL A   1      35.976  20.495  24.858  1.00  0.00     0.026 A 
ATOM     13  C   UNL A   1      37.224  21.072  25.100  1.00  0.00     0.002 A 
ATOM     14  C   UNL A   1      36.086  22.963  25.951  1.00  0.00     0.006 A 
ATOM     15  C   UNL A   1      37.277  22.345  25.601  1.00  0.00     0.000 A 
BRANCH  11  16
ATOM     16  N   UNL A   1      33.704  20.305  24.456  1.00  0.00    -0.325 N 
ATOM     17  C   UNL A   1      33.089  19.073  24.398  1.00  0.00     0.233 C 
ATOM     18  O   UNL A   1      32.152  18.983  23.593  1.00  0.00    -0.274 OA
ATOM     19  H   UNL A   1      33.278  20.862  23.766  1.00  0.00     0.169 HD
BRANCH  17  20
ATOM     20  C   UNL A   1      33.411  17.889  25.282  1.00  0.00     0.142 C 
ATOM     21  C   UNL A   1      34.201  16.954  23.097  1.00  0.00     0.076 C 
ATOM     22  C   UNL A   1      34.525  17.199  24.593  1.00  0.00     0.192 C 
ATOM     23  N   UNL A   1      34.718  15.988  25.364  1.00  0.00    -0.343 N 
ATOM     24  C   UNL A   1      33.373  15.434  25.396  1.00  0.00     0.261 C 
ATOM     25  H   UNL A   1      35.054  16.197  26.304  1.00  0.00     0.346 HD
ATOM     26  H   UNL A   1      35.414  15.355  24.971  1.00  0.00     0.346 HD
ATOM     27  C   UNL A   1      32.460  16.688  25.457  1.00  0.00     0.081 C 
ENDBRANCH  17  20
ENDBRANCH  11  16
ENDBRANCH   9  10
ENDBRANCH   7   9
ENDBRANCH   6   7
ENDBRANCH   5   6
ENDBRANCH   4   5
ENDBRANCH   3   4
ENDBRANCH   2   3
ENDBRANCH   1   2
BRANCH   1  28
ATOM     28  O   UNL A   1      32.383  28.917  23.726  1.00  0.00    -0.377 OA
BRANCH  28  29
ATOM     29  C   UNL A   1      31.041  29.236  23.448  1.00  0.00     0.188 C 
BRANCH  29  30
ATOM     30  C   UNL A   1      30.409  30.388  24.250  1.00  0.00     0.188 C 
BRANCH  30  31
ATOM     31  O   UNL A   1      31.064  30.686  25.474  1.00  0.00    -0.376 OA
BRANCH  31  32
ATOM     32  C   UNL A   1      31.034  31.970  26.068  1.00  0.00     0.202 C 
BRANCH  32  33
ATOM     33  C   UNL A   1      31.845  32.272  27.342  1.00  0.00     0.261 C 
BRANCH  33  34
ATOM     34  O   UNL A   1      32.962  33.154  27.212  1.00  0.00    -0.460 OA
BRANCH  34  35
ATOM     35  C   UNL A   1      33.483  33.634  28.367  1.00  0.00     0.338 C 
ATOM     36  O   UNL A   1      32.932  34.330  29.180  1.00  0.00    -0.246 OA
BRANCH  35  37
ATOM     37  C   UNL A   1      34.783  32.952  28.584  1.00  0.00     0.060 A 
ATOM     38  C   UNL A   1      34.747  31.593  28.919  1.00  0.00     0.016 A 
ATOM     39  C   UNL A   1      36.007  33.606  28.397  1.00  0.00     0.016 A 
ATOM     40  C   UNL A   1      35.928  30.887  29.102  1.00  0.00     0.010 A 
ATOM     41  C   UNL A   1      37.196  32.913  28.645  1.00  0.00     0.010 A 
ATOM     42  C   UNL A   1      37.150  31.566  29.046  1.00  0.00    -0.014 A 
BRANCH  42  43
ATOM     43  C   UNL A   1      38.290  30.930  29.741  1.00  0.00     0.031 A 
ATOM     44  C   UNL A   1      38.482  31.276  31.192  1.00  0.00     0.074 A 
ATOM     45  C   UNL A   1      39.042  29.986  29.155  1.00  0.00     0.049 A 
ATOM     46  N   UNL A   1      39.327  30.792  32.063  1.00  0.00    -0.248 NA
ATOM     47  C   UNL A   1      37.582  32.307  31.736  1.00  0.00     0.031 C 
ATOM     48  C   UNL A   1      38.903  29.530  27.774  1.00  0.00     0.029 A 
ATOM     49  N   UNL A   1      40.066  29.231  29.664  1.00  0.00    -0.354 N 
ATOM     50  C   UNL A   1      39.059  31.458  33.252  1.00  0.00     0.074 A 
ATOM     51  C   UNL A   1      37.999  32.403  32.986  1.00  0.00     0.031 C 
ATOM     52  C   UNL A   1      39.826  28.581  27.539  1.00  0.00     0.029 A 
ATOM     53  C   UNL A   1      40.626  28.378  28.747  1.00  0.00     0.049 A 
ATOM     54  H   UNL A   1      40.372  29.295  30.598  1.00  0.00     0.167 HD
ATOM     55  C   UNL A   1      39.640  31.291  34.462  1.00  0.00     0.037 A 
ATOM     56  C   UNL A   1      41.677  27.545  28.873  1.00  0.00     0.037 A 
ATOM     57  C   UNL A   1      40.703  30.357  34.713  1.00  0.00     0.049 A 
ATOM     58  C   UNL A   1      42.355  27.419  30.214  1.00  0.00     0.074 A 
ATOM     59  C   UNL A   1      41.359  30.094  35.901  1.00  0.00     0.029 A 
ATOM     60  N   UNL A   1      41.279  29.543  33.747  1.00  0.00    -0.354 N 
ATOM     61  N   UNL A   1      42.081  28.028  31.343  1.00  0.00    -0.248 NA
ATOM     62  C   UNL A   1      43.479  26.477  30.300  1.00  0.00     0.031 C 
ATOM     63  C   UNL A   1      42.380  29.175  35.638  1.00  0.00     0.029 A 
ATOM     64  C   UNL A   1      42.308  28.803  34.305  1.00  0.00     0.049 A 
ATOM     65  H   UNL A   1      40.996  29.497  32.805  1.00  0.00     0.167 HD
ATOM     66  C   UNL A   1      42.978  27.526  32.279  1.00  0.00     0.074 A 
ATOM     67  C   UNL A   1      43.792  26.549  31.586  1.00  0.00     0.031 C 
ATOM     68  C   UNL A   1      43.114  27.840  33.593  1.00  0.00     0.037 A 
BRANCH  55  69
ATOM     69  C   UNL A   1      39.177  32.187  35.574  1.00  0.00     0.064 A 
ATOM     70  C   UNL A   1      39.640  33.505  35.718  1.00  0.00     0.173 A 
ATOM     71  C   UNL A   1      38.268  31.705  36.530  1.00  0.00     0.173 A 
ATOM     72  F   UNL A   1      40.528  34.008  34.848  1.00  0.00    -0.203 F 
ATOM     73  C   UNL A   1      39.243  34.290  36.798  1.00  0.00     0.198 A 
ATOM     74  C   UNL A   1      37.845  32.506  37.586  1.00  0.00     0.198 A 
ATOM     75  F   UNL A   1      37.799  30.452  36.444  1.00  0.00    -0.203 F 
ATOM     76  F   UNL A   1      39.755  35.519  36.955  1.00  0.00    -0.200 F 
ATOM     77  C   UNL A   1      38.342  33.793  37.728  1.00  0.00     0.200 A 
ATOM     78  F   UNL A   1      36.967  32.026  38.478  1.00  0.00    -0.200 F 
ATOM     79  F   UNL A   1      37.963  34.548  38.768  1.00  0.00    -0.200 F 
ENDBRANCH  55  69
BRANCH  56  80
ATOM     80  C   UNL A   1      42.157  26.785  27.691  1.00  0.00     0.064 A 
ATOM     81  C   UNL A   1      43.053  27.343  26.769  1.00  0.00     0.173 A 
ATOM     82  C   UNL A   1      41.726  25.468  27.464  1.00  0.00     0.173 A 
ATOM     83  F   UNL A   1      43.475  28.607  26.928  1.00  0.00    -0.203 F 
ATOM     84  C   UNL A   1      43.488  26.620  25.660  1.00  0.00     0.198 A 
ATOM     85  C   UNL A   1      42.187  24.736  26.372  1.00  0.00     0.198 A 
ATOM     86  F   UNL A   1      40.867  24.887  28.314  1.00  0.00    -0.203 F 
ATOM     87  F   UNL A   1      44.313  27.193  24.772  1.00  0.00    -0.200 F 
ATOM     88  C   UNL A   1      43.062  25.314  25.467  1.00  0.00     0.200 A 
ATOM     89  F   UNL A   1      41.781  23.470  26.198  1.00  0.00    -0.200 F 
ATOM     90  F   UNL A   1      43.491  24.616  24.407  1.00  0.00    -0.200 F 
ENDBRANCH  56  80
BRANCH  68  91
ATOM     91  C   UNL A   1      44.158  27.092  34.376  1.00  0.00     0.064 A 
ATOM     92  C   UNL A   1      45.464  27.584  34.532  1.00  0.00     0.173 A 
ATOM     93  C   UNL A   1      43.838  25.878  35.002  1.00  0.00     0.173 A 
ATOM     94  F   UNL A   1      45.826  28.736  33.947  1.00  0.00    -0.203 F 
ATOM     95  C   UNL A   1      46.419  26.866  35.247  1.00  0.00     0.198 A 
ATOM     96  C   UNL A   1      44.785  25.183  35.751  1.00  0.00     0.198 A 
ATOM     97  F   UNL A   1      42.602  25.368  34.898  1.00  0.00    -0.203 F 
ATOM     98  F   UNL A   1      47.677  27.323  35.326  1.00  0.00    -0.200 F 
ATOM     99  C   UNL A   1      46.077  25.670  35.861  1.00  0.00     0.200 A 
ATOM    100  F   UNL A   1      44.446  24.038  36.360  1.00  0.00    -0.200 F 
ATOM    101  F   UNL A   1      46.997  24.983  36.551  1.00  0.00    -0.200 F 
ENDBRANCH  68  91
ENDBRANCH  42  43
ENDBRANCH  35  37
ENDBRANCH  34  35
ENDBRANCH  33  34
ENDBRANCH  32  33
ENDBRANCH  31  32
ENDBRANCH  30  31
ENDBRANCH  29  30
ENDBRANCH  28  29
ENDBRANCH   1  28
TORSDOF 23
ENDMDL
MODEL 3
REMARK VINA RESULT:      -9.6      4.374      9.518
REMARK SMILES C[C@@H]1[NH2+]CC[C@@H]1C(=O)Nc1ccccc1CC(=O)OCCOCCOCCOCCOC(=O)c1ccc(-c2c3nc(c(-c4c(F)c(F)c(F)c(F)c4F)c4ccc([nH]4)c(-c4c(F)c(F)c(F)c(F)c4F)c4nc(c(-c5c(F)c(F)c(F)c(F)c5F)c5ccc2[nH]5)C=C4)C=C3)cc1
REMARK SMILES IDX 24 1 23 2 22 3 21 4 20 5 19 6 17 7 18 8 16 9 15 10 10 11
REMARK SMILES IDX 11 12 12 13 14 14 13 15 9 16 7 17 8 18 6 20 1 21 2 22 3 23
REMARK SMILES IDX 4 24 5 27 25 28 26 29 27 30 28 31 29 32 30 33 31 34 32 35
REMARK SMILES IDX 33 36 34 37 35 38 96 39 36 40 95 41 37 42 38 43 39 44 89 45
REMARK SMILES IDX 40 46 94 47 88 48 90 49 41 50 93 51 87 52 86 53 42 55 74 56
REMARK SMILES IDX 54 57 73 58 55 59 58 60 72 61 91 62 56 63 57 64 71 66 92 67
REMARK SMILES IDX 59 68 43 69 44 70 52 71 45 72 46 73 50 74 53 75 47 76 48 77
REMARK SMILES IDX 51 78 49 79 75 80 76 81 84 82 77 83 78 84 82 85 85 86 79 87
REMARK SMILES IDX 80 88 83 89 81 90 60 91 61 92 69 93 62 94 63 95 67 96 70 97
REMARK SMILES IDX 64 98 65 99 68 100 66 101
REMARK H PARENT 9 19 3 25 3 26 90 54 58 65
REMARK Flexibility Score: inf
ROOT
ATOM      1  C   UNL A   1      41.806  23.063  28.336  1.00  0.00     0.188 C 
ENDROOT
BRANCH   1   2
ATOM      2  C   UNL A   1      40.495  23.836  28.058  1.00  0.00     0.188 C 
BRANCH   2   3
ATOM      3  O   UNL A   1      39.381  23.170  27.470  1.00  0.00    -0.376 OA
BRANCH   3   4
ATOM      4  C   UNL A   1      39.152  23.266  26.076  1.00  0.00     0.202 C 
BRANCH   4   5
ATOM      5  C   UNL A   1      37.693  23.271  25.561  1.00  0.00     0.261 C 
BRANCH   5   6
ATOM      6  O   UNL A   1      37.351  22.357  24.485  1.00  0.00    -0.463 OA
BRANCH   6   7
ATOM      7  C   UNL A   1      36.168  22.575  23.846  1.00  0.00     0.310 C 
ATOM      8  O   UNL A   1      36.101  23.149  22.759  1.00  0.00    -0.252 OA
BRANCH   7   9
ATOM      9  C   UNL A   1      34.926  21.900  24.445  1.00  0.00     0.160 C 
BRANCH   9  10
ATOM     10  C   UNL A   1      33.466  22.439  24.438  1.00  0.00    -0.013 A 
ATOM     11  C   UNL A   1      32.734  23.449  23.726  1.00  0.00     0.044 A 
ATOM     12  C   UNL A   1      31.415  23.721  24.229  1.00  0.00     0.026 A 
ATOM     13  C   UNL A   1      30.755  22.967  25.201  1.00  0.00     0.002 A 
ATOM     14  C   UNL A   1      32.704  21.637  25.367  1.00  0.00     0.006 A 
ATOM     15  C   UNL A   1      31.389  21.877  25.735  1.00  0.00     0.000 A 
BRANCH  11  16
ATOM     16  N   UNL A   1      32.912  24.291  22.558  1.00  0.00    -0.325 N 
ATOM     17  C   UNL A   1      33.242  25.537  22.071  1.00  0.00     0.233 C 
ATOM     18  O   UNL A   1      33.275  25.635  20.837  1.00  0.00    -0.274 OA
ATOM     19  H   UNL A   1      32.707  23.731  21.775  1.00  0.00     0.169 HD
BRANCH  17  20
ATOM     20  C   UNL A   1      33.640  26.730  22.911  1.00  0.00     0.142 C 
ATOM     21  C   UNL A   1      31.214  27.275  22.607  1.00  0.00     0.076 C 
ATOM     22  C   UNL A   1      32.394  27.134  23.602  1.00  0.00     0.192 C 
ATOM     23  N   UNL A   1      32.752  28.365  24.278  1.00  0.00    -0.343 N 
ATOM     24  C   UNL A   1      33.317  29.151  23.192  1.00  0.00     0.261 C 
ATOM     25  H   UNL A   1      33.440  28.199  25.012  1.00  0.00     0.346 HD
ATOM     26  H   UNL A   1      31.969  28.818  24.750  1.00  0.00     0.346 HD
ATOM     27  C   UNL A   1      34.026  28.094  22.303  1.00  0.00     0.081 C 
ENDBRANCH  17  20
ENDBRANCH  11  16
ENDBRANCH   9  10
ENDBRANCH   7   9
ENDBRANCH   6   7
ENDBRANCH   5   6
ENDBRANCH   4   5
ENDBRANCH   3   4
ENDBRANCH   2   3
ENDBRANCH   1   2
BRANCH   1  28
ATOM     28  O   UNL A   1      41.828  21.787  27.738  1.00  0.00    -0.377 OA
BRANCH  28  29
ATOM     29  C   UNL A   1      42.836  21.592  26.776  1.00  0.00     0.188 C 
BRANCH  29  30
ATOM     30  C   UNL A   1      42.629  22.242  25.396  1.00  0.00     0.188 C 
BRANCH  30  31
ATOM     31  O   UNL A   1      43.728  22.107  24.507  1.00  0.00    -0.376 OA
BRANCH  31  32
ATOM     32  C   UNL A   1      45.051  22.454  24.865  1.00  0.00     0.202 C 
BRANCH  32  33
ATOM     33  C   UNL A   1      45.585  23.881  24.635  1.00  0.00     0.261 C 
BRANCH  33  34
ATOM     34  O   UNL A   1      44.669  24.960  24.829  1.00  0.00    -0.460 OA
BRANCH  34  35
ATOM     35  C   UNL A   1      45.215  26.156  25.160  1.00  0.00     0.338 C 
ATOM     36  O   UNL A   1      46.139  26.708  24.620  1.00  0.00    -0.246 OA
BRANCH  35  37
ATOM     37  C   UNL A   1      44.320  26.790  26.159  1.00  0.00     0.060 A 
ATOM     38  C   UNL A   1      44.328  28.189  26.231  1.00  0.00     0.016 A 
ATOM     39  C   UNL A   1      43.446  26.042  26.956  1.00  0.00     0.016 A 
ATOM     40  C   UNL A   1      43.490  28.847  27.121  1.00  0.00     0.010 A 
ATOM     41  C   UNL A   1      42.649  26.700  27.898  1.00  0.00     0.010 A 
ATOM     42  C   UNL A   1      42.710  28.100  28.011  1.00  0.00    -0.014 A 
BRANCH  42  43
ATOM     43  C   UNL A   1      42.264  28.795  29.239  1.00  0.00     0.031 A 
ATOM     44  C   UNL A   1      40.882  29.388  29.222  1.00  0.00     0.074 A 
ATOM     45  C   UNL A   1      42.994  28.785  30.364  1.00  0.00     0.049 A 
ATOM     46  N   UNL A   1      40.204  29.956  30.183  1.00  0.00    -0.248 NA
ATOM     47  C   UNL A   1      40.163  29.317  27.938  1.00  0.00     0.031 C 
ATOM     48  C   UNL A   1      44.318  28.187  30.509  1.00  0.00     0.029 A 
ATOM     49  N   UNL A   1      42.707  29.288  31.606  1.00  0.00    -0.354 N 
ATOM     50  C   UNL A   1      38.984  30.307  29.620  1.00  0.00     0.074 A 
ATOM     51  C   UNL A   1      39.025  29.921  28.229  1.00  0.00     0.031 C 
ATOM     52  C   UNL A   1      44.739  28.373  31.773  1.00  0.00     0.029 A 
ATOM     53  C   UNL A   1      43.721  29.117  32.514  1.00  0.00     0.049 A 
ATOM     54  H   UNL A   1      41.855  29.730  31.827  1.00  0.00     0.167 HD
ATOM     55  C   UNL A   1      37.919  30.893  30.214  1.00  0.00     0.037 A 
ATOM     56  C   UNL A   1      43.814  29.533  33.792  1.00  0.00     0.037 A 
ATOM     57  C   UNL A   1      37.892  31.284  31.597  1.00  0.00     0.049 A 
ATOM     58  C   UNL A   1      42.641  30.243  34.418  1.00  0.00     0.074 A 
ATOM     59  C   UNL A   1      36.864  31.874  32.308  1.00  0.00     0.029 A 
ATOM     60  N   UNL A   1      38.958  31.139  32.475  1.00  0.00    -0.354 N 
ATOM     61  N   UNL A   1      41.478  30.548  33.893  1.00  0.00    -0.248 NA
ATOM     62  C   UNL A   1      42.789  30.652  35.822  1.00  0.00     0.031 C 
ATOM     63  C   UNL A   1      37.332  32.153  33.595  1.00  0.00     0.029 A 
ATOM     64  C   UNL A   1      38.624  31.663  33.713  1.00  0.00     0.049 A 
ATOM     65  H   UNL A   1      39.822  30.725  32.251  1.00  0.00     0.167 HD
ATOM     66  C   UNL A   1      40.747  31.159  34.905  1.00  0.00     0.074 A 
ATOM     67  C   UNL A   1      41.594  31.164  36.080  1.00  0.00     0.031 C 
ATOM     68  C   UNL A   1      39.487  31.666  34.869  1.00  0.00     0.037 A 
BRANCH  55  69
ATOM     69  C   UNL A   1      36.733  31.199  29.345  1.00  0.00     0.064 A 
ATOM     70  C   UNL A   1      35.816  30.212  28.950  1.00  0.00     0.173 A 
ATOM     71  C   UNL A   1      36.526  32.507  28.877  1.00  0.00     0.173 A 
ATOM     72  F   UNL A   1      35.980  28.941  29.348  1.00  0.00    -0.203 F 
ATOM     73  C   UNL A   1      34.763  30.514  28.090  1.00  0.00     0.198 A 
ATOM     74  C   UNL A   1      35.451  32.812  28.048  1.00  0.00     0.198 A 
ATOM     75  F   UNL A   1      37.375  33.488  29.218  1.00  0.00    -0.203 F 
ATOM     76  F   UNL A   1      33.944  29.540  27.669  1.00  0.00    -0.200 F 
ATOM     77  C   UNL A   1      34.578  31.814  27.644  1.00  0.00     0.200 A 
ATOM     78  F   UNL A   1      35.270  34.071  27.626  1.00  0.00    -0.200 F 
ATOM     79  F   UNL A   1      33.566  32.102  26.814  1.00  0.00    -0.200 F 
ENDBRANCH  55  69
BRANCH  56  80
ATOM     80  C   UNL A   1      45.072  29.304  34.548  1.00  0.00     0.064 A 
ATOM     81  C   UNL A   1      45.296  28.121  35.265  1.00  0.00     0.173 A 
ATOM     82  C   UNL A   1      46.086  30.275  34.562  1.00  0.00     0.173 A 
ATOM     83  F   UNL A   1      44.348  27.172  35.304  1.00  0.00    -0.203 F 
ATOM     84  C   UNL A   1      46.478  27.924  35.977  1.00  0.00     0.198 A 
ATOM     85  C   UNL A   1      47.280  30.063  35.248  1.00  0.00     0.198 A 
ATOM     86  F   UNL A   1      45.921  31.426  33.894  1.00  0.00    -0.203 F 
ATOM     87  F   UNL A   1      46.649  26.800  36.688  1.00  0.00    -0.200 F 
ATOM     88  C   UNL A   1      47.472  28.890  35.960  1.00  0.00     0.200 A 
ATOM     89  F   UNL A   1      48.242  30.996  35.217  1.00  0.00    -0.200 F 
ATOM     90  F   UNL A   1      48.613  28.694  36.636  1.00  0.00    -0.200 F 
ENDBRANCH  56  80
BRANCH  68  91
ATOM     91  C   UNL A   1      38.937  32.235  36.148  1.00  0.00     0.064 A 
ATOM     92  C   UNL A   1      39.170  33.565  36.531  1.00  0.00     0.173 A 
ATOM     93  C   UNL A   1      38.139  31.444  36.989  1.00  0.00     0.173 A 
ATOM     94  F   UNL A   1      39.933  34.364  35.767  1.00  0.00    -0.203 F 
ATOM     95  C   UNL A   1      38.664  34.066  37.727  1.00  0.00     0.198 A 
ATOM     96  C   UNL A   1      37.601  31.960  38.165  1.00  0.00     0.198 A 
ATOM     97  F   UNL A   1      37.872  30.169  36.666  1.00  0.00    -0.203 F 
ATOM     98  F   UNL A   1      38.957  35.319  38.104  1.00  0.00    -0.200 F 
ATOM     99  C   UNL A   1      37.875  33.265  38.539  1.00  0.00     0.200 A 
ATOM    100  F   UNL A   1      36.822  31.190  38.937  1.00  0.00    -0.200 F 
ATOM    101  F   UNL A   1      37.386  33.750  39.689  1.00  0.00    -0.200 F 
ENDBRANCH  68  91
ENDBRANCH  42  43
ENDBRANCH  35  37
ENDBRANCH  34  35
ENDBRANCH  33  34
ENDBRANCH  32  33
ENDBRANCH  31  32
ENDBRANCH  30  31
ENDBRANCH  29  30
ENDBRANCH  28  29
ENDBRANCH   1  28
TORSDOF 23
ENDMDL
