MODEL 1
REMARK VINA RESULT:      -9.4      0.000      0.000
REMARK SMILES CCCC(O)(CCC)[C@@]1(C)CC[C@@H](C(=O)OCCOCCOCCOCCOC(=O)c2ccc(-c3c4nc(c(-c5c(F)c(F)c(F)c(F)c5F)c5ccc([nH]5)c(-c5c(F)c(F)c(F)c(F)c5F)c5nc(c(-c6c(F)c(F)c(F)c(F)c6F)c6ccc3[nH]6)C=C5)C=C4)cc2)C(C)(C)O1
REMARK SMILES IDX 21 1 20 2 19 3 18 4 17 5 16 6 14 7 15 8 13 9 9 10 10 11
REMARK SMILES IDX 11 12 97 13 12 14 94 15 95 16 96 17 4 18 3 19 2 20 1 21 5 22
REMARK SMILES IDX 6 24 7 25 8 26 22 27 23 28 24 29 25 30 26 31 27 32 28 33
REMARK SMILES IDX 29 34 30 35 31 36 32 37 93 38 33 39 92 40 34 41 35 42 36 43
REMARK SMILES IDX 86 44 37 45 91 46 85 47 87 48 38 49 90 50 84 51 83 52 39 54
REMARK SMILES IDX 71 55 51 56 70 57 52 58 55 59 69 60 88 61 53 62 54 63 68 65
REMARK SMILES IDX 89 66 56 67 40 68 41 69 49 70 42 71 43 72 47 73 50 74 44 75
REMARK SMILES IDX 45 76 48 77 46 78 72 79 73 80 81 81 74 82 75 83 79 84 82 85
REMARK SMILES IDX 76 86 77 87 80 88 78 89 57 90 58 91 66 92 59 93 60 94 64 95
REMARK SMILES IDX 67 96 61 97 62 98 65 99 63 100
REMARK H PARENT 5 23 87 53 55 64
REMARK Flexibility Score: inf
ROOT
ATOM      1  C   UNL A   1      39.561  23.713  26.718  1.00  0.00     0.188 C 
ENDROOT
BRANCH   1   2
ATOM      2  C   UNL A   1      38.183  23.532  26.076  1.00  0.00     0.188 C 
BRANCH   2   3
ATOM      3  O   UNL A   1      37.991  22.608  25.011  1.00  0.00    -0.376 OA
BRANCH   3   4
ATOM      4  C   UNL A   1      37.339  21.367  25.229  1.00  0.00     0.202 C 
BRANCH   4   5
ATOM      5  C   UNL A   1      35.804  21.342  25.306  1.00  0.00     0.261 C 
BRANCH   5   6
ATOM      6  O   UNL A   1      35.197  21.370  26.619  1.00  0.00    -0.463 OA
BRANCH   6   7
ATOM      7  C   UNL A   1      34.247  22.307  26.867  1.00  0.00     0.311 C 
ATOM      8  O   UNL A   1      33.827  22.560  27.993  1.00  0.00    -0.252 OA
BRANCH   7   9
ATOM      9  C   UNL A   1      33.581  22.892  25.608  1.00  0.00     0.131 C 
ATOM     10  C   UNL A   1      32.037  24.896  24.042  1.00  0.00     0.095 C 
ATOM     11  C   UNL A   1      32.119  25.289  22.522  1.00  0.00     0.045 C 
ATOM     12  C   UNL A   1      33.489  25.155  24.479  1.00  0.00     0.039 C 
ATOM     13  O   UNL A   1      31.766  23.485  23.977  1.00  0.00    -0.366 OA
ATOM     14  C   UNL A   1      33.973  24.367  25.661  1.00  0.00     0.021 C 
ATOM     15  C   UNL A   1      32.145  22.562  25.033  1.00  0.00     0.077 C 
ATOM     16  C   UNL A   1      30.880  22.448  25.888  1.00  0.00     0.043 C 
ATOM     17  C   UNL A   1      32.197  21.179  24.312  1.00  0.00     0.043 C 
BRANCH  10  18
ATOM     18  C   UNL A   1      30.906  25.836  24.747  1.00  0.00     0.093 C 
BRANCH  18  19
ATOM     19  C   UNL A   1      31.117  26.128  26.278  1.00  0.00     0.038 C 
BRANCH  19  20
ATOM     20  C   UNL A   1      32.110  27.206  26.751  1.00  0.00    -0.000 C 
ATOM     21  C   UNL A   1      31.512  28.302  27.625  1.00  0.00     0.004 C 
ENDBRANCH  19  20
ENDBRANCH  18  19
BRANCH  18  22
ATOM     22  O   UNL A   1      29.648  25.098  24.603  1.00  0.00    -0.387 OA
ATOM     23  H   UNL A   1      29.476  24.593  25.413  1.00  0.00     0.211 HD
ENDBRANCH  18  22
BRANCH  18  24
ATOM     24  C   UNL A   1      30.447  27.170  24.016  1.00  0.00     0.038 C 
BRANCH  24  25
ATOM     25  C   UNL A   1      31.297  28.449  23.920  1.00  0.00    -0.000 C 
ATOM     26  C   UNL A   1      31.351  29.018  22.520  1.00  0.00     0.004 C 
ENDBRANCH  24  25
ENDBRANCH  18  24
ENDBRANCH  10  18
ENDBRANCH   7   9
ENDBRANCH   6   7
ENDBRANCH   5   6
ENDBRANCH   4   5
ENDBRANCH   3   4
ENDBRANCH   2   3
ENDBRANCH   1   2
BRANCH   1  27
ATOM     27  O   UNL A   1      39.937  22.703  27.633  1.00  0.00    -0.377 OA
BRANCH  27  28
ATOM     28  C   UNL A   1      41.213  22.122  27.434  1.00  0.00     0.188 C 
BRANCH  28  29
ATOM     29  C   UNL A   1      41.430  21.440  26.078  1.00  0.00     0.188 C 
BRANCH  29  30
ATOM     30  O   UNL A   1      41.345  20.028  26.122  1.00  0.00    -0.376 OA
BRANCH  30  31
ATOM     31  C   UNL A   1      42.443  19.173  26.372  1.00  0.00     0.202 C 
BRANCH  31  32
ATOM     32  C   UNL A   1      43.369  18.541  25.316  1.00  0.00     0.261 C 
BRANCH  32  33
ATOM     33  O   UNL A   1      44.659  19.102  25.083  1.00  0.00    -0.460 OA
BRANCH  33  34
ATOM     34  C   UNL A   1      44.780  20.013  24.093  1.00  0.00     0.338 C 
ATOM     35  O   UNL A   1      44.725  19.818  22.903  1.00  0.00    -0.246 OA
BRANCH  34  36
ATOM     36  C   UNL A   1      44.813  21.343  24.745  1.00  0.00     0.060 A 
ATOM     37  C   UNL A   1      44.433  22.474  24.012  1.00  0.00     0.016 A 
ATOM     38  C   UNL A   1      45.220  21.466  26.076  1.00  0.00     0.016 A 
ATOM     39  C   UNL A   1      44.485  23.739  24.597  1.00  0.00     0.010 A 
ATOM     40  C   UNL A   1      45.302  22.736  26.652  1.00  0.00     0.010 A 
ATOM     41  C   UNL A   1      44.965  23.879  25.905  1.00  0.00    -0.014 A 
BRANCH  41  42
ATOM     42  C   UNL A   1      45.304  25.224  26.426  1.00  0.00     0.031 A 
ATOM     43  C   UNL A   1      44.200  26.053  27.017  1.00  0.00     0.074 A 
ATOM     44  C   UNL A   1      46.560  25.697  26.373  1.00  0.00     0.049 A 
ATOM     45  N   UNL A   1      44.220  27.292  27.436  1.00  0.00    -0.248 NA
ATOM     46  C   UNL A   1      42.890  25.393  27.150  1.00  0.00     0.031 C 
ATOM     47  C   UNL A   1      47.720  24.963  25.875  1.00  0.00     0.029 A 
ATOM     48  N   UNL A   1      47.062  26.923  26.732  1.00  0.00    -0.354 N 
ATOM     49  C   UNL A   1      42.928  27.564  27.865  1.00  0.00     0.074 A 
ATOM     50  C   UNL A   1      42.142  26.372  27.635  1.00  0.00     0.031 C 
ATOM     51  C   UNL A   1      48.798  25.763  25.934  1.00  0.00     0.029 A 
ATOM     52  C   UNL A   1      48.393  27.077  26.434  1.00  0.00     0.049 A 
ATOM     53  H   UNL A   1      46.519  27.625  27.160  1.00  0.00     0.167 HD
ATOM     54  C   UNL A   1      42.445  28.707  28.404  1.00  0.00     0.037 A 
ATOM     55  C   UNL A   1      49.180  28.168  26.521  1.00  0.00     0.037 A 
ATOM     56  C   UNL A   1      43.235  29.889  28.627  1.00  0.00     0.049 A 
ATOM     57  C   UNL A   1      48.595  29.459  27.040  1.00  0.00     0.074 A 
ATOM     58  C   UNL A   1      42.848  31.092  29.189  1.00  0.00     0.029 A 
ATOM     59  N   UNL A   1      44.573  30.018  28.285  1.00  0.00    -0.354 N 
ATOM     60  N   UNL A   1      47.380  29.707  27.468  1.00  0.00    -0.248 NA
ATOM     61  C   UNL A   1      49.491  30.623  27.087  1.00  0.00     0.031 C 
ATOM     62  C   UNL A   1      43.932  31.971  29.126  1.00  0.00     0.029 A 
ATOM     63  C   UNL A   1      45.017  31.295  28.590  1.00  0.00     0.049 A 
ATOM     64  H   UNL A   1      45.127  29.308  27.885  1.00  0.00     0.167 HD
ATOM     65  C   UNL A   1      47.375  31.040  27.861  1.00  0.00     0.074 A 
ATOM     66  C   UNL A   1      48.712  31.545  27.634  1.00  0.00     0.031 C 
ATOM     67  C   UNL A   1      46.356  31.779  28.365  1.00  0.00     0.037 A 
BRANCH  54  68
ATOM     68  C   UNL A   1      40.986  28.751  28.753  1.00  0.00     0.064 A 
ATOM     69  C   UNL A   1      40.522  28.455  30.043  1.00  0.00     0.173 A 
ATOM     70  C   UNL A   1      40.040  29.131  27.788  1.00  0.00     0.173 A 
ATOM     71  F   UNL A   1      41.381  28.070  30.999  1.00  0.00    -0.203 F 
ATOM     72  C   UNL A   1      39.164  28.513  30.347  1.00  0.00     0.198 A 
ATOM     73  C   UNL A   1      38.687  29.221  28.104  1.00  0.00     0.198 A 
ATOM     74  F   UNL A   1      40.429  29.427  26.539  1.00  0.00    -0.203 F 
ATOM     75  F   UNL A   1      38.738  28.179  31.573  1.00  0.00    -0.200 F 
ATOM     76  C   UNL A   1      38.250  28.905  29.381  1.00  0.00     0.200 A 
ATOM     77  F   UNL A   1      37.808  29.613  27.172  1.00  0.00    -0.200 F 
ATOM     78  F   UNL A   1      36.944  28.971  29.678  1.00  0.00    -0.200 F 
ENDBRANCH  54  68
BRANCH  55  79
ATOM     79  C   UNL A   1      50.598  28.103  26.076  1.00  0.00     0.064 A 
ATOM     80  C   UNL A   1      51.645  28.016  27.003  1.00  0.00     0.173 A 
ATOM     81  C   UNL A   1      50.937  28.155  24.715  1.00  0.00     0.173 A 
ATOM     82  F   UNL A   1      51.376  27.991  28.317  1.00  0.00    -0.203 F 
ATOM     83  C   UNL A   1      52.976  28.006  26.589  1.00  0.00     0.198 A 
ATOM     84  C   UNL A   1      52.266  28.111  24.300  1.00  0.00     0.198 A 
ATOM     85  F   UNL A   1      49.975  28.242  23.785  1.00  0.00    -0.203 F 
ATOM     86  F   UNL A   1      53.958  27.978  27.500  1.00  0.00    -0.200 F 
ATOM     87  C   UNL A   1      53.286  28.046  25.238  1.00  0.00     0.200 A 
ATOM     88  F   UNL A   1      52.558  28.137  22.993  1.00  0.00    -0.200 F 
ATOM     89  F   UNL A   1      54.564  28.035  24.841  1.00  0.00    -0.200 F 
ENDBRANCH  55  79
BRANCH  67  90
ATOM     90  C   UNL A   1      46.648  33.204  28.744  1.00  0.00     0.064 A 
ATOM     91  C   UNL A   1      47.171  33.542  30.000  1.00  0.00     0.173 A 
ATOM     92  C   UNL A   1      46.460  34.237  27.812  1.00  0.00     0.173 A 
ATOM     93  F   UNL A   1      47.358  32.595  30.931  1.00  0.00    -0.203 F 
ATOM     94  C   UNL A   1      47.476  34.864  30.316  1.00  0.00     0.198 A 
ATOM     95  C   UNL A   1      46.798  35.552  28.119  1.00  0.00     0.198 A 
ATOM     96  F   UNL A   1      45.970  33.967  26.592  1.00  0.00    -0.203 F 
ATOM     97  F   UNL A   1      47.934  35.170  31.538  1.00  0.00    -0.200 F 
ATOM     98  C   UNL A   1      47.299  35.865  29.372  1.00  0.00     0.200 A 
ATOM     99  F   UNL A   1      46.644  36.514  27.199  1.00  0.00    -0.200 F 
ATOM    100  F   UNL A   1      47.607  37.135  29.674  1.00  0.00    -0.200 F 
ENDBRANCH  67  90
ENDBRANCH  41  42
ENDBRANCH  34  36
ENDBRANCH  33  34
ENDBRANCH  32  33
ENDBRANCH  31  32
ENDBRANCH  30  31
ENDBRANCH  29  30
ENDBRANCH  28  29
ENDBRANCH  27  28
ENDBRANCH   1  27
TORSDOF 26
ENDMDL
MODEL 2
REMARK VINA RESULT:      -8.4      5.514      9.637
REMARK SMILES CCCC(O)(CCC)[C@@]1(C)CC[C@@H](C(=O)OCCOCCOCCOCCOC(=O)c2ccc(-c3c4nc(c(-c5c(F)c(F)c(F)c(F)c5F)c5ccc([nH]5)c(-c5c(F)c(F)c(F)c(F)c5F)c5nc(c(-c6c(F)c(F)c(F)c(F)c6F)c6ccc3[nH]6)C=C5)C=C4)cc2)C(C)(C)O1
REMARK SMILES IDX 21 1 20 2 19 3 18 4 17 5 16 6 14 7 15 8 13 9 9 10 10 11
REMARK SMILES IDX 11 12 97 13 12 14 94 15 95 16 96 17 4 18 3 19 2 20 1 21 5 22
REMARK SMILES IDX 6 24 7 25 8 26 22 27 23 28 24 29 25 30 26 31 27 32 28 33
REMARK SMILES IDX 29 34 30 35 31 36 32 37 93 38 33 39 92 40 34 41 35 42 36 43
REMARK SMILES IDX 86 44 37 45 91 46 85 47 87 48 38 49 90 50 84 51 83 52 39 54
REMARK SMILES IDX 71 55 51 56 70 57 52 58 55 59 69 60 88 61 53 62 54 63 68 65
REMARK SMILES IDX 89 66 56 67 40 68 41 69 49 70 42 71 43 72 47 73 50 74 44 75
REMARK SMILES IDX 45 76 48 77 46 78 72 79 73 80 81 81 74 82 75 83 79 84 82 85
REMARK SMILES IDX 76 86 77 87 80 88 78 89 57 90 58 91 66 92 59 93 60 94 64 95
REMARK SMILES IDX 67 96 61 97 62 98 65 99 63 100
REMARK H PARENT 5 23 87 53 55 64
REMARK Flexibility Score: inf
ROOT
ATOM      1  C   UNL A   1      40.666  26.729  28.751  1.00  0.00     0.188 C 
ENDROOT
BRANCH   1   2
ATOM      2  C   UNL A   1      39.257  27.279  28.516  1.00  0.00     0.188 C 
BRANCH   2   3
ATOM      3  O   UNL A   1      39.052  28.656  28.223  1.00  0.00    -0.376 OA
BRANCH   3   4
ATOM      4  C   UNL A   1      38.457  29.525  29.173  1.00  0.00     0.202 C 
BRANCH   4   5
ATOM      5  C   UNL A   1      38.552  31.042  28.948  1.00  0.00     0.261 C 
BRANCH   5   6
ATOM      6  O   UNL A   1      37.517  31.873  29.525  1.00  0.00    -0.463 OA
BRANCH   6   7
ATOM      7  C   UNL A   1      37.891  32.999  30.184  1.00  0.00     0.311 C 
ATOM      8  O   UNL A   1      38.750  33.770  29.766  1.00  0.00    -0.252 OA
BRANCH   7   9
ATOM      9  C   UNL A   1      37.305  33.137  31.601  1.00  0.00     0.131 C 
ATOM     10  C   UNL A   1      37.342  33.005  34.573  1.00  0.00     0.095 C 
ATOM     11  C   UNL A   1      36.569  33.856  35.644  1.00  0.00     0.045 C 
ATOM     12  C   UNL A   1      38.075  34.117  33.803  1.00  0.00     0.039 C 
ATOM     13  O   UNL A   1      36.269  32.460  33.786  1.00  0.00    -0.366 OA
ATOM     14  C   UNL A   1      38.434  33.807  32.380  1.00  0.00     0.021 C 
ATOM     15  C   UNL A   1      36.429  32.085  32.391  1.00  0.00     0.077 C 
ATOM     16  C   UNL A   1      36.730  30.585  32.450  1.00  0.00     0.043 C 
ATOM     17  C   UNL A   1      34.972  32.120  31.831  1.00  0.00     0.043 C 
BRANCH  10  18
ATOM     18  C   UNL A   1      38.294  31.943  35.364  1.00  0.00     0.093 C 
BRANCH  18  19
ATOM     19  C   UNL A   1      39.682  31.635  34.690  1.00  0.00     0.038 C 
BRANCH  19  20
ATOM     20  C   UNL A   1      39.886  30.372  33.833  1.00  0.00    -0.000 C 
ATOM     21  C   UNL A   1      40.374  30.622  32.411  1.00  0.00     0.004 C 
ENDBRANCH  19  20
ENDBRANCH  18  19
BRANCH  18  22
ATOM     22  O   UNL A   1      37.530  30.693  35.400  1.00  0.00    -0.387 OA
ATOM     23  H   UNL A   1      36.583  30.894  35.455  1.00  0.00     0.211 HD
ENDBRANCH  18  22
BRANCH  18  24
ATOM     24  C   UNL A   1      38.497  32.107  36.931  1.00  0.00     0.038 C 
BRANCH  24  25
ATOM     25  C   UNL A   1      39.355  33.201  37.591  1.00  0.00    -0.000 C 
ATOM     26  C   UNL A   1      38.564  34.086  38.527  1.00  0.00     0.004 C 
ENDBRANCH  24  25
ENDBRANCH  18  24
ENDBRANCH  10  18
ENDBRANCH   7   9
ENDBRANCH   6   7
ENDBRANCH   5   6
ENDBRANCH   4   5
ENDBRANCH   3   4
ENDBRANCH   2   3
ENDBRANCH   1   2
BRANCH   1  27
ATOM     27  O   UNL A   1      40.831  25.353  28.471  1.00  0.00    -0.377 OA
BRANCH  27  28
ATOM     28  C   UNL A   1      40.106  24.849  27.364  1.00  0.00     0.188 C 
BRANCH  28  29
ATOM     29  C   UNL A   1      40.054  23.321  27.242  1.00  0.00     0.188 C 
BRANCH  29  30
ATOM     30  O   UNL A   1      41.047  22.776  26.395  1.00  0.00    -0.376 OA
BRANCH  30  31
ATOM     31  C   UNL A   1      42.394  23.203  26.371  1.00  0.00     0.202 C 
BRANCH  31  32
ATOM     32  C   UNL A   1      43.173  23.705  25.139  1.00  0.00     0.261 C 
BRANCH  32  33
ATOM     33  O   UNL A   1      43.419  25.100  24.981  1.00  0.00    -0.460 OA
BRANCH  33  34
ATOM     34  C   UNL A   1      44.684  25.540  25.155  1.00  0.00     0.338 C 
ATOM     35  O   UNL A   1      45.679  25.156  24.591  1.00  0.00    -0.246 OA
BRANCH  34  36
ATOM     36  C   UNL A   1      44.602  26.721  26.046  1.00  0.00     0.060 A 
ATOM     37  C   UNL A   1      45.776  27.232  26.614  1.00  0.00     0.016 A 
ATOM     38  C   UNL A   1      43.367  27.317  26.316  1.00  0.00     0.016 A 
ATOM     39  C   UNL A   1      45.718  28.324  27.479  1.00  0.00     0.010 A 
ATOM     40  C   UNL A   1      43.306  28.391  27.208  1.00  0.00     0.010 A 
ATOM     41  C   UNL A   1      44.477  28.878  27.816  1.00  0.00    -0.014 A 
BRANCH  41  42
ATOM     42  C   UNL A   1      44.377  29.829  28.947  1.00  0.00     0.031 A 
ATOM     43  C   UNL A   1      44.194  29.269  30.329  1.00  0.00     0.074 A 
ATOM     44  C   UNL A   1      44.444  31.156  28.752  1.00  0.00     0.049 A 
ATOM     45  N   UNL A   1      43.972  29.891  31.459  1.00  0.00    -0.248 NA
ATOM     46  C   UNL A   1      44.268  27.803  30.453  1.00  0.00     0.031 C 
ATOM     47  C   UNL A   1      44.675  31.811  27.468  1.00  0.00     0.029 A 
ATOM     48  N   UNL A   1      44.305  32.192  29.642  1.00  0.00    -0.354 N 
ATOM     49  C   UNL A   1      43.864  28.895  32.420  1.00  0.00     0.074 A 
ATOM     50  C   UNL A   1      44.020  27.627  31.742  1.00  0.00     0.031 C 
ATOM     51  C   UNL A   1      44.637  33.142  27.647  1.00  0.00     0.029 A 
ATOM     52  C   UNL A   1      44.335  33.429  29.049  1.00  0.00     0.049 A 
ATOM     53  H   UNL A   1      44.195  32.060  30.612  1.00  0.00     0.167 HD
ATOM     54  C   UNL A   1      43.655  29.030  33.750  1.00  0.00     0.037 A 
ATOM     55  C   UNL A   1      44.107  34.649  29.575  1.00  0.00     0.037 A 
ATOM     56  C   UNL A   1      43.500  30.297  34.416  1.00  0.00     0.049 A 
ATOM     57  C   UNL A   1      43.785  34.768  31.045  1.00  0.00     0.074 A 
ATOM     58  C   UNL A   1      43.308  30.544  35.763  1.00  0.00     0.029 A 
ATOM     59  N   UNL A   1      43.506  31.528  33.778  1.00  0.00    -0.354 N 
ATOM     60  N   UNL A   1      43.708  33.827  31.957  1.00  0.00    -0.248 NA
ATOM     61  C   UNL A   1      43.517  36.118  31.560  1.00  0.00     0.031 C 
ATOM     62  C   UNL A   1      43.131  31.920  35.931  1.00  0.00     0.029 A 
ATOM     63  C   UNL A   1      43.283  32.538  34.699  1.00  0.00     0.049 A 
ATOM     64  H   UNL A   1      43.648  31.665  32.813  1.00  0.00     0.167 HD
ATOM     65  C   UNL A   1      43.413  34.473  33.152  1.00  0.00     0.074 A 
ATOM     66  C   UNL A   1      43.340  35.887  32.853  1.00  0.00     0.031 C 
ATOM     67  C   UNL A   1      43.222  33.943  34.386  1.00  0.00     0.037 A 
BRANCH  54  68
ATOM     68  C   UNL A   1      43.542  27.777  34.569  1.00  0.00     0.064 A 
ATOM     69  C   UNL A   1      42.351  27.040  34.637  1.00  0.00     0.173 A 
ATOM     70  C   UNL A   1      44.656  27.288  35.268  1.00  0.00     0.173 A 
ATOM     71  F   UNL A   1      41.251  27.471  34.001  1.00  0.00    -0.203 F 
ATOM     72  C   UNL A   1      42.273  25.873  35.394  1.00  0.00     0.198 A 
ATOM     73  C   UNL A   1      44.584  26.103  35.997  1.00  0.00     0.198 A 
ATOM     74  F   UNL A   1      45.821  27.953  35.236  1.00  0.00    -0.203 F 
ATOM     75  F   UNL A   1      41.110  25.211  35.484  1.00  0.00    -0.200 F 
ATOM     76  C   UNL A   1      43.391  25.402  36.065  1.00  0.00     0.200 A 
ATOM     77  F   UNL A   1      45.670  25.643  36.632  1.00  0.00    -0.200 F 
ATOM     78  F   UNL A   1      43.316  24.273  36.785  1.00  0.00    -0.200 F 
ENDBRANCH  54  68
BRANCH  55  79
ATOM     79  C   UNL A   1      44.139  35.856  28.707  1.00  0.00     0.064 A 
ATOM     80  C   UNL A   1      42.962  36.395  28.171  1.00  0.00     0.173 A 
ATOM     81  C   UNL A   1      45.351  36.479  28.371  1.00  0.00     0.173 A 
ATOM     82  F   UNL A   1      41.779  35.820  28.439  1.00  0.00    -0.203 F 
ATOM     83  C   UNL A   1      42.996  37.495  27.316  1.00  0.00     0.198 A 
ATOM     84  C   UNL A   1      45.382  37.599  27.543  1.00  0.00     0.198 A 
ATOM     85  F   UNL A   1      46.509  36.002  28.853  1.00  0.00    -0.203 F 
ATOM     86  F   UNL A   1      41.860  37.955  26.774  1.00  0.00    -0.200 F 
ATOM     87  C   UNL A   1      44.205  38.101  27.008  1.00  0.00     0.200 A 
ATOM     88  F   UNL A   1      46.552  38.188  27.261  1.00  0.00    -0.200 F 
ATOM     89  F   UNL A   1      44.237  39.159  26.189  1.00  0.00    -0.200 F 
ENDBRANCH  55  79
BRANCH  67  90
ATOM     90  C   UNL A   1      42.951  34.894  35.518  1.00  0.00     0.064 A 
ATOM     91  C   UNL A   1      43.988  35.439  36.289  1.00  0.00     0.173 A 
ATOM     92  C   UNL A   1      41.640  35.311  35.795  1.00  0.00     0.173 A 
ATOM     93  F   UNL A   1      45.258  35.064  36.074  1.00  0.00    -0.203 F 
ATOM     94  C   UNL A   1      43.720  36.351  37.306  1.00  0.00     0.198 A 
ATOM     95  C   UNL A   1      41.378  36.249  36.789  1.00  0.00     0.198 A 
ATOM     96  F   UNL A   1      40.611  34.826  35.082  1.00  0.00    -0.203 F 
ATOM     97  F   UNL A   1      44.722  36.827  38.059  1.00  0.00    -0.200 F 
ATOM     98  C   UNL A   1      42.418  36.763  37.549  1.00  0.00     0.200 A 
ATOM     99  F   UNL A   1      40.122  36.659  37.009  1.00  0.00    -0.200 F 
ATOM    100  F   UNL A   1      42.164  37.653  38.519  1.00  0.00    -0.200 F 
ENDBRANCH  67  90
ENDBRANCH  41  42
ENDBRANCH  34  36
ENDBRANCH  33  34
ENDBRANCH  32  33
ENDBRANCH  31  32
ENDBRANCH  30  31
ENDBRANCH  29  30
ENDBRANCH  28  29
ENDBRANCH  27  28
ENDBRANCH   1  27
TORSDOF 26
ENDMDL
MODEL 3
REMARK VINA RESULT:      -8.2      6.335      8.092
REMARK SMILES CCCC(O)(CCC)[C@@]1(C)CC[C@@H](C(=O)OCCOCCOCCOCCOC(=O)c2ccc(-c3c4nc(c(-c5c(F)c(F)c(F)c(F)c5F)c5ccc([nH]5)c(-c5c(F)c(F)c(F)c(F)c5F)c5nc(c(-c6c(F)c(F)c(F)c(F)c6F)c6ccc3[nH]6)C=C5)C=C4)cc2)C(C)(C)O1
REMARK SMILES IDX 21 1 20 2 19 3 18 4 17 5 16 6 14 7 15 8 13 9 9 10 10 11
REMARK SMILES IDX 11 12 97 13 12 14 94 15 95 16 96 17 4 18 3 19 2 20 1 21 5 22
REMARK SMILES IDX 6 24 7 25 8 26 22 27 23 28 24 29 25 30 26 31 27 32 28 33
REMARK SMILES IDX 29 34 30 35 31 36 32 37 93 38 33 39 92 40 34 41 35 42 36 43
REMARK SMILES IDX 86 44 37 45 91 46 85 47 87 48 38 49 90 50 84 51 83 52 39 54
REMARK SMILES IDX 71 55 51 56 70 57 52 58 55 59 69 60 88 61 53 62 54 63 68 65
REMARK SMILES IDX 89 66 56 67 40 68 41 69 49 70 42 71 43 72 47 73 50 74 44 75
REMARK SMILES IDX 45 76 48 77 46 78 72 79 73 80 81 81 74 82 75 83 79 84 82 85
REMARK SMILES IDX 76 86 77 87 80 88 78 89 57 90 58 91 66 92 59 93 60 94 64 95
REMARK SMILES IDX 67 96 61 97 62 98 65 99 63 100
REMARK H PARENT 5 23 87 53 55 64
REMARK Flexibility Score: inf
ROOT
ATOM      1  C   UNL A   1      38.543  24.086  26.166  1.00  0.00     0.188 C 
ENDROOT
BRANCH   1   2
ATOM      2  C   UNL A   1      37.106  23.695  25.811  1.00  0.00     0.188 C 
BRANCH   2   3
ATOM      3  O   UNL A   1      36.836  22.839  24.706  1.00  0.00    -0.376 OA
BRANCH   3   4
ATOM      4  C   UNL A   1      36.157  21.606  24.885  1.00  0.00     0.202 C 
BRANCH   4   5
ATOM      5  C   UNL A   1      34.642  21.554  24.632  1.00  0.00     0.261 C 
BRANCH   5   6
ATOM      6  O   UNL A   1      33.765  21.694  25.775  1.00  0.00    -0.463 OA
BRANCH   6   7
ATOM      7  C   UNL A   1      32.693  22.519  25.663  1.00  0.00     0.311 C 
ATOM      8  O   UNL A   1      31.557  22.197  26.000  1.00  0.00    -0.252 OA
BRANCH   7   9
ATOM      9  C   UNL A   1      32.964  23.822  24.887  1.00  0.00     0.131 C 
ATOM     10  C   UNL A   1      32.732  26.731  24.312  1.00  0.00     0.095 C 
ATOM     11  C   UNL A   1      33.751  27.727  23.648  1.00  0.00     0.045 C 
ATOM     12  C   UNL A   1      33.577  26.203  25.485  1.00  0.00     0.039 C 
ATOM     13  O   UNL A   1      32.583  25.725  23.296  1.00  0.00    -0.366 OA
ATOM     14  C   UNL A   1      33.215  24.840  25.997  1.00  0.00     0.021 C 
ATOM     15  C   UNL A   1      32.221  24.351  23.597  1.00  0.00     0.077 C 
ATOM     16  C   UNL A   1      30.702  24.324  23.406  1.00  0.00     0.043 C 
ATOM     17  C   UNL A   1      32.735  23.555  22.356  1.00  0.00     0.043 C 
BRANCH  10  18
ATOM     18  C   UNL A   1      31.398  27.574  24.724  1.00  0.00     0.093 C 
BRANCH  18  19
ATOM     19  C   UNL A   1      31.632  29.080  25.111  1.00  0.00     0.038 C 
BRANCH  19  20
ATOM     20  C   UNL A   1      31.780  29.508  26.582  1.00  0.00    -0.000 C 
ATOM     21  C   UNL A   1      33.100  29.124  27.242  1.00  0.00     0.004 C 
ENDBRANCH  19  20
ENDBRANCH  18  19
BRANCH  18  22
ATOM     22  O   UNL A   1      30.858  26.890  25.902  1.00  0.00    -0.387 OA
ATOM     23  H   UNL A   1      30.021  27.305  26.161  1.00  0.00     0.211 HD
ENDBRANCH  18  22
BRANCH  18  24
ATOM     24  C   UNL A   1      30.102  27.462  23.810  1.00  0.00     0.038 C 
BRANCH  24  25
ATOM     25  C   UNL A   1      29.723  28.467  22.708  1.00  0.00    -0.000 C 
ATOM     26  C   UNL A   1      28.498  29.283  23.050  1.00  0.00     0.004 C 
ENDBRANCH  24  25
ENDBRANCH  18  24
ENDBRANCH  10  18
ENDBRANCH   7   9
ENDBRANCH   6   7
ENDBRANCH   5   6
ENDBRANCH   4   5
ENDBRANCH   3   4
ENDBRANCH   2   3
ENDBRANCH   1   2
BRANCH   1  27
ATOM     27  O   UNL A   1      39.095  23.408  27.276  1.00  0.00    -0.377 OA
BRANCH  27  28
ATOM     28  C   UNL A   1      40.417  22.923  27.118  1.00  0.00     0.188 C 
BRANCH  28  29
ATOM     29  C   UNL A   1      40.576  21.718  26.184  1.00  0.00     0.188 C 
BRANCH  29  30
ATOM     30  O   UNL A   1      41.906  21.490  25.758  1.00  0.00    -0.376 OA
BRANCH  30  31
ATOM     31  C   UNL A   1      42.941  22.450  25.832  1.00  0.00     0.202 C 
BRANCH  31  32
ATOM     32  C   UNL A   1      43.145  23.650  24.887  1.00  0.00     0.261 C 
BRANCH  32  33
ATOM     33  O   UNL A   1      43.545  24.910  25.422  1.00  0.00    -0.460 OA
BRANCH  33  34
ATOM     34  C   UNL A   1      42.577  25.811  25.702  1.00  0.00     0.338 C 
ATOM     35  O   UNL A   1      41.652  26.136  25.000  1.00  0.00    -0.246 OA
BRANCH  34  36
ATOM     36  C   UNL A   1      42.759  26.200  27.120  1.00  0.00     0.060 A 
ATOM     37  C   UNL A   1      43.973  26.773  27.520  1.00  0.00     0.016 A 
ATOM     38  C   UNL A   1      41.732  25.996  28.046  1.00  0.00     0.016 A 
ATOM     39  C   UNL A   1      44.176  27.120  28.856  1.00  0.00     0.010 A 
ATOM     40  C   UNL A   1      41.949  26.314  29.388  1.00  0.00     0.010 A 
ATOM     41  C   UNL A   1      43.182  26.848  29.803  1.00  0.00    -0.014 A 
BRANCH  41  42
ATOM     42  C   UNL A   1      43.497  26.933  31.248  1.00  0.00     0.031 A 
ATOM     43  C   UNL A   1      43.051  28.154  32.000  1.00  0.00     0.074 A 
ATOM     44  C   UNL A   1      44.164  25.951  31.876  1.00  0.00     0.049 A 
ATOM     45  N   UNL A   1      43.299  28.511  33.234  1.00  0.00    -0.248 NA
ATOM     46  C   UNL A   1      42.212  29.107  31.253  1.00  0.00     0.031 C 
ATOM     47  C   UNL A   1      44.597  24.697  31.265  1.00  0.00     0.029 A 
ATOM     48  N   UNL A   1      44.609  25.868  33.172  1.00  0.00    -0.354 N 
ATOM     49  C   UNL A   1      42.662  29.733  33.406  1.00  0.00     0.074 A 
ATOM     50  C   UNL A   1      42.037  30.070  32.146  1.00  0.00     0.031 C 
ATOM     51  C   UNL A   1      45.270  23.978  32.180  1.00  0.00     0.029 A 
ATOM     52  C   UNL A   1      45.351  24.741  33.425  1.00  0.00     0.049 A 
ATOM     53  H   UNL A   1      44.415  26.551  33.855  1.00  0.00     0.167 HD
ATOM     54  C   UNL A   1      42.605  30.502  34.517  1.00  0.00     0.037 A 
ATOM     55  C   UNL A   1      46.046  24.389  34.525  1.00  0.00     0.037 A 
ATOM     56  C   UNL A   1      43.232  30.158  35.767  1.00  0.00     0.049 A 
ATOM     57  C   UNL A   1      46.042  25.307  35.723  1.00  0.00     0.074 A 
ATOM     58  C   UNL A   1      43.214  30.856  36.960  1.00  0.00     0.029 A 
ATOM     59  N   UNL A   1      44.001  29.023  35.976  1.00  0.00    -0.354 N 
ATOM     60  N   UNL A   1      45.420  26.450  35.892  1.00  0.00    -0.248 NA
ATOM     61  C   UNL A   1      46.839  24.887  36.885  1.00  0.00     0.031 C 
ATOM     62  C   UNL A   1      44.027  30.178  37.873  1.00  0.00     0.029 A 
ATOM     63  C   UNL A   1      44.495  29.020  37.271  1.00  0.00     0.049 A 
ATOM     64  H   UNL A   1      44.170  28.322  35.305  1.00  0.00     0.167 HD
ATOM     65  C   UNL A   1      45.725  26.868  37.182  1.00  0.00     0.074 A 
ATOM     66  C   UNL A   1      46.577  25.849  37.758  1.00  0.00     0.031 C 
ATOM     67  C   UNL A   1      45.335  27.992  37.831  1.00  0.00     0.037 A 
BRANCH  54  68
ATOM     68  C   UNL A   1      41.873  31.809  34.425  1.00  0.00     0.064 A 
ATOM     69  C   UNL A   1      42.512  32.991  34.021  1.00  0.00     0.173 A 
ATOM     70  C   UNL A   1      40.500  31.871  34.709  1.00  0.00     0.173 A 
ATOM     71  F   UNL A   1      43.827  32.990  33.752  1.00  0.00    -0.203 F 
ATOM     72  C   UNL A   1      41.810  34.190  33.931  1.00  0.00     0.198 A 
ATOM     73  C   UNL A   1      39.794  33.065  34.586  1.00  0.00     0.198 A 
ATOM     74  F   UNL A   1      39.839  30.771  35.098  1.00  0.00    -0.203 F 
ATOM     75  F   UNL A   1      42.452  35.316  33.591  1.00  0.00    -0.200 F 
ATOM     76  C   UNL A   1      40.451  34.224  34.204  1.00  0.00     0.200 A 
ATOM     77  F   UNL A   1      38.478  33.091  34.837  1.00  0.00    -0.200 F 
ATOM     78  F   UNL A   1      39.774  35.377  34.107  1.00  0.00    -0.200 F 
ENDBRANCH  54  68
BRANCH  55  79
ATOM     79  C   UNL A   1      46.833  23.127  34.539  1.00  0.00     0.064 A 
ATOM     80  C   UNL A   1      48.229  23.141  34.418  1.00  0.00     0.173 A 
ATOM     81  C   UNL A   1      46.202  21.878  34.646  1.00  0.00     0.173 A 
ATOM     82  F   UNL A   1      48.878  24.308  34.286  1.00  0.00    -0.203 F 
ATOM     83  C   UNL A   1      48.961  21.956  34.381  1.00  0.00     0.198 A 
ATOM     84  C   UNL A   1      46.938  20.695  34.643  1.00  0.00     0.198 A 
ATOM     85  F   UNL A   1      44.867  21.805  34.760  1.00  0.00    -0.203 F 
ATOM     86  F   UNL A   1      50.290  21.999  34.209  1.00  0.00    -0.200 F 
ATOM     87  C   UNL A   1      48.317  20.734  34.501  1.00  0.00     0.200 A 
ATOM     88  F   UNL A   1      46.311  19.518  34.772  1.00  0.00    -0.200 F 
ATOM     89  F   UNL A   1      49.022  19.597  34.467  1.00  0.00    -0.200 F 
ENDBRANCH  55  79
BRANCH  67  90
ATOM     90  C   UNL A   1      45.790  28.170  39.253  1.00  0.00     0.064 A 
ATOM     91  C   UNL A   1      46.843  29.033  39.589  1.00  0.00     0.173 A 
ATOM     92  C   UNL A   1      45.120  27.514  40.298  1.00  0.00     0.173 A 
ATOM     93  F   UNL A   1      47.524  29.674  38.628  1.00  0.00    -0.203 F 
ATOM     94  C   UNL A   1      47.222  29.216  40.917  1.00  0.00     0.198 A 
ATOM     95  C   UNL A   1      45.479  27.726  41.626  1.00  0.00     0.198 A 
ATOM     96  F   UNL A   1      44.100  26.684  40.033  1.00  0.00    -0.203 F 
ATOM     97  F   UNL A   1      48.260  30.011  41.212  1.00  0.00    -0.200 F 
ATOM     98  C   UNL A   1      46.533  28.572  41.934  1.00  0.00     0.200 A 
ATOM     99  F   UNL A   1      44.800  27.117  42.608  1.00  0.00    -0.200 F 
ATOM    100  F   UNL A   1      46.890  28.762  43.212  1.00  0.00    -0.200 F 
ENDBRANCH  67  90
ENDBRANCH  41  42
ENDBRANCH  34  36
ENDBRANCH  33  34
ENDBRANCH  32  33
ENDBRANCH  31  32
ENDBRANCH  30  31
ENDBRANCH  29  30
ENDBRANCH  28  29
ENDBRANCH  27  28
ENDBRANCH   1  27
TORSDOF 26
ENDMDL
