MODEL 1
REMARK VINA RESULT:      -8.6      0.000      0.000
REMARK SMILES CC[N@@H+]1CCC[C@@H]1C[N@@H+](C)C[C@H]([NH3+])C(=O)OCCOCCOCCOCCOC(=O)c1ccc(-c2c3nc(c(-c4c(F)c(F)c(F)c(F)c4F)c4ccc([nH]4)c(-c4c(F)c(F)c(F)c(F)c4F)c4nc(c(-c5c(F)c(F)c(F)c(F)c5F)c5ccc2[nH]5)C=C4)C=C3)cc1
REMARK SMILES IDX 20 1 19 2 18 3 17 4 16 5 14 6 15 7 12 8 11 9 9 10 10 11 8 13
REMARK SMILES IDX 7 14 3 15 4 16 5 18 6 19 2 20 1 21 13 22 21 26 22 27 23 28
REMARK SMILES IDX 24 29 25 30 26 31 27 32 28 33 29 34 30 35 31 36 32 37 93 38
REMARK SMILES IDX 33 39 92 40 34 41 35 42 36 43 86 44 37 45 91 46 85 47 87 48
REMARK SMILES IDX 38 49 90 50 84 51 83 52 39 54 71 55 51 56 70 57 52 58 55 59
REMARK SMILES IDX 69 60 88 61 53 62 54 63 68 65 89 66 56 67 40 68 41 69 49 70
REMARK SMILES IDX 42 71 43 72 47 73 50 74 44 75 45 76 48 77 46 78 72 79 73 80
REMARK SMILES IDX 81 81 74 82 75 83 79 84 82 85 76 86 77 87 80 88 78 89 57 90
REMARK SMILES IDX 58 91 66 92 59 93 60 94 64 95 67 96 61 97 62 98 65 99 63 100
REMARK H PARENT 9 12 3 17 13 23 13 24 13 25 87 53 55 64
REMARK Flexibility Score: inf
ROOT
ATOM      1  C   UNL A   1      38.286  20.553  25.534  1.00  0.00     0.188 C 
ENDROOT
BRANCH   1   2
ATOM      2  O   UNL A   1      38.006  21.937  25.666  1.00  0.00    -0.376 OA
BRANCH   2   3
ATOM      3  C   UNL A   1      36.654  22.321  25.840  1.00  0.00     0.202 C 
BRANCH   3   4
ATOM      4  C   UNL A   1      36.232  23.669  25.251  1.00  0.00     0.261 C 
BRANCH   4   5
ATOM      5  O   UNL A   1      34.989  23.659  24.536  1.00  0.00    -0.459 OA
BRANCH   5   6
ATOM      6  C   UNL A   1      35.043  23.336  23.216  1.00  0.00     0.370 C 
ATOM      7  O   UNL A   1      36.065  22.987  22.636  1.00  0.00    -0.245 OA
BRANCH   6   8
ATOM      8  C   UNL A   1      33.698  23.547  22.517  1.00  0.00     0.347 C 
BRANCH   8   9
ATOM      9  C   UNL A   1      33.008  24.855  22.993  1.00  0.00     0.340 C 
BRANCH   9  10
ATOM     10  N   UNL A   1      32.328  25.813  22.091  1.00  0.00    -0.327 N 
ATOM     11  C   UNL A   1      32.619  25.511  20.685  1.00  0.00     0.333 C 
ATOM     12  H   UNL A   1      31.344  25.652  22.306  1.00  0.00     0.348 HD
BRANCH  10  13
ATOM     13  C   UNL A   1      32.484  27.258  22.360  1.00  0.00     0.327 C 
BRANCH  13  14
ATOM     14  C   UNL A   1      31.570  27.896  23.452  1.00  0.00     0.239 C 
ATOM     15  N   UNL A   1      32.165  28.239  24.764  1.00  0.00    -0.328 N 
ATOM     16  C   UNL A   1      31.285  27.805  25.844  1.00  0.00     0.262 C 
ATOM     17  H   UNL A   1      32.210  29.255  24.678  1.00  0.00     0.348 HD
ATOM     18  C   UNL A   1      30.513  26.654  25.251  1.00  0.00     0.068 C 
ATOM     19  C   UNL A   1      30.310  27.098  23.817  1.00  0.00     0.077 C 
BRANCH  15  20
ATOM     20  C   UNL A   1      33.589  28.147  25.048  1.00  0.00     0.259 C 
ATOM     21  C   UNL A   1      34.028  27.332  26.258  1.00  0.00     0.071 C 
ENDBRANCH  15  20
ENDBRANCH  13  14
ENDBRANCH  10  13
ENDBRANCH   9  10
ENDBRANCH   8   9
BRANCH   8  22
ATOM     22  N   UNL A   1      32.834  22.345  22.522  1.00  0.00    -0.341 N 
ATOM     23  H   UNL A   1      32.045  22.495  23.150  1.00  0.00     0.345 HD
ATOM     24  H   UNL A   1      33.373  21.540  22.840  1.00  0.00     0.345 HD
ATOM     25  H   UNL A   1      32.488  22.171  21.578  1.00  0.00     0.345 HD
ENDBRANCH   8  22
ENDBRANCH   6   8
ENDBRANCH   5   6
ENDBRANCH   4   5
ENDBRANCH   3   4
ENDBRANCH   2   3
ENDBRANCH   1   2
BRANCH   1  26
ATOM     26  C   UNL A   1      39.710  20.144  25.959  1.00  0.00     0.188 C 
BRANCH  26  27
ATOM     27  O   UNL A   1      40.301  20.651  27.149  1.00  0.00    -0.377 OA
BRANCH  27  28
ATOM     28  C   UNL A   1      41.406  21.536  27.068  1.00  0.00     0.188 C 
BRANCH  28  29
ATOM     29  C   UNL A   1      41.637  22.372  25.792  1.00  0.00     0.188 C 
BRANCH  29  30
ATOM     30  O   UNL A   1      42.776  21.995  25.041  1.00  0.00    -0.376 OA
BRANCH  30  31
ATOM     31  C   UNL A   1      43.850  21.391  25.742  1.00  0.00     0.202 C 
BRANCH  31  32
ATOM     32  C   UNL A   1      45.144  22.202  25.915  1.00  0.00     0.261 C 
BRANCH  32  33
ATOM     33  O   UNL A   1      45.022  23.487  26.541  1.00  0.00    -0.460 OA
BRANCH  33  34
ATOM     34  C   UNL A   1      44.732  24.549  25.763  1.00  0.00     0.338 C 
ATOM     35  O   UNL A   1      44.933  24.676  24.568  1.00  0.00    -0.246 OA
BRANCH  34  36
ATOM     36  C   UNL A   1      43.980  25.501  26.599  1.00  0.00     0.060 A 
ATOM     37  C   UNL A   1      44.046  26.877  26.330  1.00  0.00     0.016 A 
ATOM     38  C   UNL A   1      43.193  25.016  27.644  1.00  0.00     0.016 A 
ATOM     39  C   UNL A   1      43.334  27.777  27.126  1.00  0.00     0.010 A 
ATOM     40  C   UNL A   1      42.509  25.917  28.457  1.00  0.00     0.010 A 
ATOM     41  C   UNL A   1      42.604  27.301  28.221  1.00  0.00    -0.014 A 
BRANCH  41  42
ATOM     42  C   UNL A   1      42.127  28.226  29.276  1.00  0.00     0.031 A 
ATOM     43  C   UNL A   1      42.885  28.245  30.573  1.00  0.00     0.074 A 
ATOM     44  C   UNL A   1      41.025  28.976  29.116  1.00  0.00     0.049 A 
ATOM     45  N   UNL A   1      42.570  28.793  31.716  1.00  0.00    -0.248 NA
ATOM     46  C   UNL A   1      44.171  27.527  30.580  1.00  0.00     0.031 C 
ATOM     47  C   UNL A   1      40.243  29.084  27.888  1.00  0.00     0.029 A 
ATOM     48  N   UNL A   1      40.355  29.767  30.018  1.00  0.00    -0.354 N 
ATOM     49  C   UNL A   1      43.606  28.467  32.583  1.00  0.00     0.074 A 
ATOM     50  C   UNL A   1      44.547  27.658  31.842  1.00  0.00     0.031 C 
ATOM     51  C   UNL A   1      39.178  29.872  28.122  1.00  0.00     0.029 A 
ATOM     52  C   UNL A   1      39.179  30.278  29.527  1.00  0.00     0.049 A 
ATOM     53  H   UNL A   1      40.687  29.950  30.926  1.00  0.00     0.167 HD
ATOM     54  C   UNL A   1      43.752  28.812  33.883  1.00  0.00     0.037 A 
ATOM     55  C   UNL A   1      38.200  30.956  30.159  1.00  0.00     0.037 A 
ATOM     56  C   UNL A   1      42.804  29.610  34.612  1.00  0.00     0.049 A 
ATOM     57  C   UNL A   1      38.340  31.251  31.634  1.00  0.00     0.074 A 
ATOM     58  C   UNL A   1      42.859  30.026  35.929  1.00  0.00     0.029 A 
ATOM     59  N   UNL A   1      41.619  30.102  34.083  1.00  0.00    -0.354 N 
ATOM     60  N   UNL A   1      39.321  30.953  32.451  1.00  0.00    -0.248 NA
ATOM     61  C   UNL A   1      37.232  31.974  32.276  1.00  0.00     0.031 C 
ATOM     62  C   UNL A   1      41.679  30.717  36.216  1.00  0.00     0.029 A 
ATOM     63  C   UNL A   1      40.922  30.797  35.056  1.00  0.00     0.049 A 
ATOM     64  H   UNL A   1      41.320  29.977  33.154  1.00  0.00     0.167 HD
ATOM     65  C   UNL A   1      38.972  31.486  33.686  1.00  0.00     0.074 A 
ATOM     66  C   UNL A   1      37.685  32.127  33.513  1.00  0.00     0.031 C 
ATOM     67  C   UNL A   1      39.656  31.454  34.856  1.00  0.00     0.037 A 
BRANCH  54  68
ATOM     68  C   UNL A   1      44.959  28.292  34.607  1.00  0.00     0.064 A 
ATOM     69  C   UNL A   1      44.955  27.049  35.258  1.00  0.00     0.173 A 
ATOM     70  C   UNL A   1      46.147  29.039  34.629  1.00  0.00     0.173 A 
ATOM     71  F   UNL A   1      43.840  26.303  35.283  1.00  0.00    -0.203 F 
ATOM     72  C   UNL A   1      46.086  26.587  35.928  1.00  0.00     0.198 A 
ATOM     73  C   UNL A   1      47.286  28.559  35.269  1.00  0.00     0.198 A 
ATOM     74  F   UNL A   1      46.205  30.234  34.022  1.00  0.00    -0.203 F 
ATOM     75  F   UNL A   1      46.042  25.423  36.589  1.00  0.00    -0.200 F 
ATOM     76  C   UNL A   1      47.252  27.338  35.925  1.00  0.00     0.200 A 
ATOM     77  F   UNL A   1      48.414  29.280  35.253  1.00  0.00    -0.200 F 
ATOM     78  F   UNL A   1      48.341  26.888  36.563  1.00  0.00    -0.200 F 
ENDBRANCH  54  68
BRANCH  55  79
ATOM     79  C   UNL A   1      36.985  31.381  29.415  1.00  0.00     0.064 A 
ATOM     80  C   UNL A   1      35.979  30.459  29.088  1.00  0.00     0.173 A 
ATOM     81  C   UNL A   1      36.812  32.707  28.990  1.00  0.00     0.173 A 
ATOM     82  F   UNL A   1      36.110  29.174  29.446  1.00  0.00    -0.203 F 
ATOM     83  C   UNL A   1      34.862  30.843  28.349  1.00  0.00     0.198 A 
ATOM     84  C   UNL A   1      35.679  33.096  28.279  1.00  0.00     0.198 A 
ATOM     85  F   UNL A   1      37.744  33.630  29.272  1.00  0.00    -0.203 F 
ATOM     86  F   UNL A   1      33.944  29.928  28.005  1.00  0.00    -0.200 F 
ATOM     87  C   UNL A   1      34.709  32.162  27.950  1.00  0.00     0.200 A 
ATOM     88  F   UNL A   1      35.529  34.374  27.907  1.00  0.00    -0.200 F 
ATOM     89  F   UNL A   1      33.633  32.529  27.242  1.00  0.00    -0.200 F 
ENDBRANCH  55  79
BRANCH  67  90
ATOM     90  C   UNL A   1      39.076  32.190  36.032  1.00  0.00     0.064 A 
ATOM     91  C   UNL A   1      38.185  31.580  36.926  1.00  0.00     0.173 A 
ATOM     92  C   UNL A   1      39.493  33.501  36.311  1.00  0.00     0.173 A 
ATOM     93  F   UNL A   1      37.747  30.332  36.697  1.00  0.00    -0.203 F 
ATOM     94  C   UNL A   1      37.724  32.261  38.050  1.00  0.00     0.198 A 
ATOM     95  C   UNL A   1      39.056  34.166  37.453  1.00  0.00     0.198 A 
ATOM     96  F   UNL A   1      40.351  34.127  35.492  1.00  0.00    -0.203 F 
ATOM     97  F   UNL A   1      36.847  31.671  38.874  1.00  0.00    -0.200 F 
ATOM     98  C   UNL A   1      38.167  33.547  38.319  1.00  0.00     0.200 A 
ATOM     99  F   UNL A   1      39.502  35.401  37.720  1.00  0.00    -0.200 F 
ATOM    100  F   UNL A   1      37.740  34.191  39.414  1.00  0.00    -0.200 F 
ENDBRANCH  67  90
ENDBRANCH  41  42
ENDBRANCH  34  36
ENDBRANCH  33  34
ENDBRANCH  32  33
ENDBRANCH  31  32
ENDBRANCH  30  31
ENDBRANCH  29  30
ENDBRANCH  28  29
ENDBRANCH  27  28
ENDBRANCH  26  27
ENDBRANCH   1  26
TORSDOF 26
ENDMDL
MODEL 2
REMARK VINA RESULT:      -8.4      1.764      7.544
REMARK SMILES CC[N@@H+]1CCC[C@@H]1C[N@@H+](C)C[C@H]([NH3+])C(=O)OCCOCCOCCOCCOC(=O)c1ccc(-c2c3nc(c(-c4c(F)c(F)c(F)c(F)c4F)c4ccc([nH]4)c(-c4c(F)c(F)c(F)c(F)c4F)c4nc(c(-c5c(F)c(F)c(F)c(F)c5F)c5ccc2[nH]5)C=C4)C=C3)cc1
REMARK SMILES IDX 20 1 19 2 18 3 17 4 16 5 14 6 15 7 12 8 11 9 9 10 10 11 8 13
REMARK SMILES IDX 7 14 3 15 4 16 5 18 6 19 2 20 1 21 13 22 21 26 22 27 23 28
REMARK SMILES IDX 24 29 25 30 26 31 27 32 28 33 29 34 30 35 31 36 32 37 93 38
REMARK SMILES IDX 33 39 92 40 34 41 35 42 36 43 86 44 37 45 91 46 85 47 87 48
REMARK SMILES IDX 38 49 90 50 84 51 83 52 39 54 71 55 51 56 70 57 52 58 55 59
REMARK SMILES IDX 69 60 88 61 53 62 54 63 68 65 89 66 56 67 40 68 41 69 49 70
REMARK SMILES IDX 42 71 43 72 47 73 50 74 44 75 45 76 48 77 46 78 72 79 73 80
REMARK SMILES IDX 81 81 74 82 75 83 79 84 82 85 76 86 77 87 80 88 78 89 57 90
REMARK SMILES IDX 58 91 66 92 59 93 60 94 64 95 67 96 61 97 62 98 65 99 63 100
REMARK H PARENT 9 12 3 17 13 23 13 24 13 25 87 53 55 64
REMARK Flexibility Score: inf
ROOT
ATOM      1  C   UNL A   1      39.208  23.283  26.667  1.00  0.00     0.188 C 
ENDROOT
BRANCH   1   2
ATOM      2  O   UNL A   1      38.046  23.110  25.874  1.00  0.00    -0.376 OA
BRANCH   2   3
ATOM      3  C   UNL A   1      37.572  21.790  25.679  1.00  0.00     0.202 C 
BRANCH   3   4
ATOM      4  C   UNL A   1      36.289  21.625  24.861  1.00  0.00     0.261 C 
BRANCH   4   5
ATOM      5  O   UNL A   1      35.231  20.920  25.524  1.00  0.00    -0.459 OA
BRANCH   5   6
ATOM      6  C   UNL A   1      34.435  21.647  26.354  1.00  0.00     0.370 C 
ATOM      7  O   UNL A   1      34.384  21.489  27.569  1.00  0.00    -0.245 OA
BRANCH   6   8
ATOM      8  C   UNL A   1      33.543  22.624  25.585  1.00  0.00     0.347 C 
BRANCH   8   9
ATOM      9  C   UNL A   1      33.658  24.067  26.150  1.00  0.00     0.340 C 
BRANCH   9  10
ATOM     10  N   UNL A   1      33.205  25.280  25.433  1.00  0.00    -0.327 N 
ATOM     11  C   UNL A   1      33.799  25.353  24.093  1.00  0.00     0.333 C 
ATOM     12  H   UNL A   1      32.196  25.138  25.381  1.00  0.00     0.348 HD
BRANCH  10  13
ATOM     13  C   UNL A   1      33.311  26.583  26.125  1.00  0.00     0.327 C 
BRANCH  13  14
ATOM     14  C   UNL A   1      32.103  27.563  26.016  1.00  0.00     0.239 C 
ATOM     15  N   UNL A   1      32.193  28.697  25.068  1.00  0.00    -0.328 N 
ATOM     16  C   UNL A   1      31.718  29.922  25.703  1.00  0.00     0.262 C 
ATOM     17  H   UNL A   1      31.564  28.366  24.336  1.00  0.00     0.348 HD
ATOM     18  C   UNL A   1      31.959  29.693  27.174  1.00  0.00     0.068 C 
ATOM     19  C   UNL A   1      31.654  28.218  27.331  1.00  0.00     0.077 C 
BRANCH  15  20
ATOM     20  C   UNL A   1      33.286  28.871  24.125  1.00  0.00     0.259 C 
ATOM     21  C   UNL A   1      32.949  28.957  22.642  1.00  0.00     0.071 C 
ENDBRANCH  15  20
ENDBRANCH  13  14
ENDBRANCH  10  13
ENDBRANCH   9  10
ENDBRANCH   8   9
BRANCH   8  22
ATOM     22  N   UNL A   1      32.159  22.135  25.392  1.00  0.00    -0.341 N 
ATOM     23  H   UNL A   1      32.125  21.131  25.565  1.00  0.00     0.345 HD
ATOM     24  H   UNL A   1      31.861  22.326  24.436  1.00  0.00     0.345 HD
ATOM     25  H   UNL A   1      31.536  22.612  26.045  1.00  0.00     0.345 HD
ENDBRANCH   8  22
ENDBRANCH   6   8
ENDBRANCH   5   6
ENDBRANCH   4   5
ENDBRANCH   3   4
ENDBRANCH   2   3
ENDBRANCH   1   2
BRANCH   1  26
ATOM     26  C   UNL A   1      39.328  24.666  27.338  1.00  0.00     0.188 C 
BRANCH  26  27
ATOM     27  O   UNL A   1      40.523  25.431  27.244  1.00  0.00    -0.377 OA
BRANCH  27  28
ATOM     28  C   UNL A   1      40.757  26.240  26.103  1.00  0.00     0.188 C 
BRANCH  28  29
ATOM     29  C   UNL A   1      42.164  26.812  25.834  1.00  0.00     0.188 C 
BRANCH  29  30
ATOM     30  O   UNL A   1      42.891  26.133  24.827  1.00  0.00    -0.376 OA
BRANCH  30  31
ATOM     31  C   UNL A   1      43.117  24.745  25.007  1.00  0.00     0.202 C 
BRANCH  31  32
ATOM     32  C   UNL A   1      44.570  24.246  25.009  1.00  0.00     0.261 C 
BRANCH  32  33
ATOM     33  O   UNL A   1      45.529  25.054  25.707  1.00  0.00    -0.460 OA
BRANCH  33  34
ATOM     34  C   UNL A   1      45.855  24.706  26.968  1.00  0.00     0.338 C 
ATOM     35  O   UNL A   1      46.746  23.956  27.330  1.00  0.00    -0.246 OA
BRANCH  34  36
ATOM     36  C   UNL A   1      45.022  25.523  27.868  1.00  0.00     0.060 A 
ATOM     37  C   UNL A   1      45.215  26.911  27.937  1.00  0.00     0.016 A 
ATOM     38  C   UNL A   1      44.033  24.902  28.631  1.00  0.00     0.016 A 
ATOM     39  C   UNL A   1      44.426  27.682  28.793  1.00  0.00     0.010 A 
ATOM     40  C   UNL A   1      43.268  25.668  29.508  1.00  0.00     0.010 A 
ATOM     41  C   UNL A   1      43.484  27.054  29.616  1.00  0.00    -0.014 A 
BRANCH  41  42
ATOM     42  C   UNL A   1      42.881  27.770  30.764  1.00  0.00     0.031 A 
ATOM     43  C   UNL A   1      41.587  28.493  30.525  1.00  0.00     0.074 A 
ATOM     44  C   UNL A   1      43.488  27.831  31.960  1.00  0.00     0.049 A 
ATOM     45  N   UNL A   1      40.959  29.354  31.281  1.00  0.00    -0.248 NA
ATOM     46  C   UNL A   1      40.919  28.215  29.242  1.00  0.00     0.031 C 
ATOM     47  C   UNL A   1      44.713  27.125  32.327  1.00  0.00     0.029 A 
ATOM     48  N   UNL A   1      43.164  28.556  33.081  1.00  0.00    -0.354 N 
ATOM     49  C   UNL A   1      39.838  29.738  30.557  1.00  0.00     0.074 A 
ATOM     50  C   UNL A   1      39.880  29.034  29.295  1.00  0.00     0.031 C 
ATOM     51  C   UNL A   1      45.056  27.477  33.579  1.00  0.00     0.029 A 
ATOM     52  C   UNL A   1      44.104  28.469  34.078  1.00  0.00     0.049 A 
ATOM     53  H   UNL A   1      42.338  29.084  33.161  1.00  0.00     0.167 HD
ATOM     54  C   UNL A   1      38.863  30.605  30.915  1.00  0.00     0.037 A 
ATOM     55  C   UNL A   1      44.202  29.152  35.237  1.00  0.00     0.037 A 
ATOM     56  C   UNL A   1      38.837  31.307  32.170  1.00  0.00     0.049 A 
ATOM     57  C   UNL A   1      43.151  30.183  35.577  1.00  0.00     0.074 A 
ATOM     58  C   UNL A   1      37.892  32.200  32.638  1.00  0.00     0.029 A 
ATOM     59  N   UNL A   1      39.812  31.200  33.151  1.00  0.00    -0.354 N 
ATOM     60  N   UNL A   1      42.087  30.539  34.898  1.00  0.00    -0.248 NA
ATOM     61  C   UNL A   1      43.320  30.912  36.843  1.00  0.00     0.031 C 
ATOM     62  C   UNL A   1      38.326  32.683  33.876  1.00  0.00     0.029 A 
ATOM     63  C   UNL A   1      39.504  32.033  34.213  1.00  0.00     0.049 A 
ATOM     64  H   UNL A   1      40.605  30.619  33.100  1.00  0.00     0.167 HD
ATOM     65  C   UNL A   1      41.439  31.496  35.670  1.00  0.00     0.074 A 
ATOM     66  C   UNL A   1      42.231  31.668  36.870  1.00  0.00     0.031 C 
ATOM     67  C   UNL A   1      40.289  32.168  35.413  1.00  0.00     0.037 A 
BRANCH  54  68
ATOM     68  C   UNL A   1      37.772  30.873  29.921  1.00  0.00     0.064 A 
ATOM     69  C   UNL A   1      37.702  32.074  29.200  1.00  0.00     0.173 A 
ATOM     70  C   UNL A   1      36.792  29.900  29.667  1.00  0.00     0.173 A 
ATOM     71  F   UNL A   1      38.604  33.045  29.416  1.00  0.00    -0.203 F 
ATOM     72  C   UNL A   1      36.678  32.303  28.284  1.00  0.00     0.198 A 
ATOM     73  C   UNL A   1      35.790  30.117  28.726  1.00  0.00     0.198 A 
ATOM     74  F   UNL A   1      36.811  28.733  30.329  1.00  0.00    -0.203 F 
ATOM     75  F   UNL A   1      36.601  33.479  27.648  1.00  0.00    -0.200 F 
ATOM     76  C   UNL A   1      35.729  31.321  28.042  1.00  0.00     0.200 A 
ATOM     77  F   UNL A   1      34.883  29.162  28.484  1.00  0.00    -0.200 F 
ATOM     78  F   UNL A   1      34.749  31.539  27.154  1.00  0.00    -0.200 F 
ENDBRANCH  54  68
BRANCH  55  79
ATOM     79  C   UNL A   1      45.347  28.908  36.153  1.00  0.00     0.064 A 
ATOM     80  C   UNL A   1      46.553  29.607  36.002  1.00  0.00     0.173 A 
ATOM     81  C   UNL A   1      45.273  27.955  37.181  1.00  0.00     0.173 A 
ATOM     82  F   UNL A   1      46.684  30.508  35.019  1.00  0.00    -0.203 F 
ATOM     83  C   UNL A   1      47.646  29.348  36.829  1.00  0.00     0.198 A 
ATOM     84  C   UNL A   1      46.355  27.720  38.026  1.00  0.00     0.198 A 
ATOM     85  F   UNL A   1      44.145  27.254  37.368  1.00  0.00    -0.203 F 
ATOM     86  F   UNL A   1      48.803  29.993  36.626  1.00  0.00    -0.200 F 
ATOM     87  C   UNL A   1      47.544  28.409  37.844  1.00  0.00     0.200 A 
ATOM     88  F   UNL A   1      46.249  26.821  39.014  1.00  0.00    -0.200 F 
ATOM     89  F   UNL A   1      48.594  28.163  38.639  1.00  0.00    -0.200 F 
ENDBRANCH  55  79
BRANCH  67  90
ATOM     90  C   UNL A   1      39.766  33.099  36.471  1.00  0.00     0.064 A 
ATOM     91  C   UNL A   1      38.807  32.695  37.410  1.00  0.00     0.173 A 
ATOM     92  C   UNL A   1      40.305  34.390  36.594  1.00  0.00     0.173 A 
ATOM     93  F   UNL A   1      38.253  31.476  37.328  1.00  0.00    -0.203 F 
ATOM     94  C   UNL A   1      38.397  33.555  38.426  1.00  0.00     0.198 A 
ATOM     95  C   UNL A   1      39.917  35.233  37.631  1.00  0.00     0.198 A 
ATOM     96  F   UNL A   1      41.232  34.822  35.726  1.00  0.00    -0.203 F 
ATOM     97  F   UNL A   1      37.454  33.161  39.293  1.00  0.00    -0.200 F 
ATOM     98  C   UNL A   1      38.960  34.817  38.543  1.00  0.00     0.200 A 
ATOM     99  F   UNL A   1      40.478  36.444  37.753  1.00  0.00    -0.200 F 
ATOM    100  F   UNL A   1      38.581  35.633  39.537  1.00  0.00    -0.200 F 
ENDBRANCH  67  90
ENDBRANCH  41  42
ENDBRANCH  34  36
ENDBRANCH  33  34
ENDBRANCH  32  33
ENDBRANCH  31  32
ENDBRANCH  30  31
ENDBRANCH  29  30
ENDBRANCH  28  29
ENDBRANCH  27  28
ENDBRANCH  26  27
ENDBRANCH   1  26
TORSDOF 26
ENDMDL
MODEL 3
REMARK VINA RESULT:      -7.5      7.167     12.253
REMARK SMILES CC[N@@H+]1CCC[C@@H]1C[N@@H+](C)C[C@H]([NH3+])C(=O)OCCOCCOCCOCCOC(=O)c1ccc(-c2c3nc(c(-c4c(F)c(F)c(F)c(F)c4F)c4ccc([nH]4)c(-c4c(F)c(F)c(F)c(F)c4F)c4nc(c(-c5c(F)c(F)c(F)c(F)c5F)c5ccc2[nH]5)C=C4)C=C3)cc1
REMARK SMILES IDX 20 1 19 2 18 3 17 4 16 5 14 6 15 7 12 8 11 9 9 10 10 11 8 13
REMARK SMILES IDX 7 14 3 15 4 16 5 18 6 19 2 20 1 21 13 22 21 26 22 27 23 28
REMARK SMILES IDX 24 29 25 30 26 31 27 32 28 33 29 34 30 35 31 36 32 37 93 38
REMARK SMILES IDX 33 39 92 40 34 41 35 42 36 43 86 44 37 45 91 46 85 47 87 48
REMARK SMILES IDX 38 49 90 50 84 51 83 52 39 54 71 55 51 56 70 57 52 58 55 59
REMARK SMILES IDX 69 60 88 61 53 62 54 63 68 65 89 66 56 67 40 68 41 69 49 70
REMARK SMILES IDX 42 71 43 72 47 73 50 74 44 75 45 76 48 77 46 78 72 79 73 80
REMARK SMILES IDX 81 81 74 82 75 83 79 84 82 85 76 86 77 87 80 88 78 89 57 90
REMARK SMILES IDX 58 91 66 92 59 93 60 94 64 95 67 96 61 97 62 98 65 99 63 100
REMARK H PARENT 9 12 3 17 13 23 13 24 13 25 87 53 55 64
REMARK Flexibility Score: inf
ROOT
ATOM      1  C   UNL A   1      36.189  29.996  28.929  1.00  0.00     0.188 C 
ENDROOT
BRANCH   1   2
ATOM      2  O   UNL A   1      35.369  29.531  27.870  1.00  0.00    -0.376 OA
BRANCH   2   3
ATOM      3  C   UNL A   1      34.472  30.453  27.278  1.00  0.00     0.202 C 
BRANCH   3   4
ATOM      4  C   UNL A   1      33.025  29.992  27.087  1.00  0.00     0.261 C 
BRANCH   4   5
ATOM      5  O   UNL A   1      32.504  30.153  25.761  1.00  0.00    -0.459 OA
BRANCH   5   6
ATOM      6  C   UNL A   1      32.589  29.076  24.933  1.00  0.00     0.370 C 
ATOM      7  O   UNL A   1      33.615  28.431  24.751  1.00  0.00    -0.245 OA
BRANCH   6   8
ATOM      8  C   UNL A   1      31.278  28.820  24.188  1.00  0.00     0.347 C 
BRANCH   8   9
ATOM      9  C   UNL A   1      31.461  27.770  23.057  1.00  0.00     0.340 C 
BRANCH   9  10
ATOM     10  N   UNL A   1      32.187  26.490  23.221  1.00  0.00    -0.327 N 
ATOM     11  C   UNL A   1      32.940  26.152  22.008  1.00  0.00     0.333 C 
ATOM     12  H   UNL A   1      32.813  26.694  23.999  1.00  0.00     0.348 HD
BRANCH  10  13
ATOM     13  C   UNL A   1      31.434  25.317  23.714  1.00  0.00     0.327 C 
BRANCH  13  14
ATOM     14  C   UNL A   1      31.828  24.733  25.105  1.00  0.00     0.239 C 
ATOM     15  N   UNL A   1      32.148  23.290  25.205  1.00  0.00    -0.328 N 
ATOM     16  C   UNL A   1      31.493  22.710  26.373  1.00  0.00     0.262 C 
ATOM     17  H   UNL A   1      33.162  23.340  25.308  1.00  0.00     0.348 HD
ATOM     18  C   UNL A   1      30.290  23.590  26.597  1.00  0.00     0.068 C 
ATOM     19  C   UNL A   1      30.817  24.964  26.237  1.00  0.00     0.077 C 
BRANCH  15  20
ATOM     20  C   UNL A   1      32.254  22.410  24.052  1.00  0.00     0.259 C 
ATOM     21  C   UNL A   1      33.585  21.711  23.802  1.00  0.00     0.071 C 
ENDBRANCH  15  20
ENDBRANCH  13  14
ENDBRANCH  10  13
ENDBRANCH   9  10
ENDBRANCH   8   9
BRANCH   8  22
ATOM     22  N   UNL A   1      30.575  30.059  23.784  1.00  0.00    -0.341 N 
ATOM     23  H   UNL A   1      31.212  30.656  23.257  1.00  0.00     0.345 HD
ATOM     24  H   UNL A   1      30.255  30.555  24.616  1.00  0.00     0.345 HD
ATOM     25  H   UNL A   1      29.773  29.820  23.200  1.00  0.00     0.345 HD
ENDBRANCH   8  22
ENDBRANCH   6   8
ENDBRANCH   5   6
ENDBRANCH   4   5
ENDBRANCH   3   4
ENDBRANCH   2   3
ENDBRANCH   1   2
BRANCH   1  26
ATOM     26  C   UNL A   1      37.567  30.528  28.488  1.00  0.00     0.188 C 
BRANCH  26  27
ATOM     27  O   UNL A   1      38.641  30.651  29.411  1.00  0.00    -0.377 OA
BRANCH  27  28
ATOM     28  C   UNL A   1      39.801  29.848  29.257  1.00  0.00     0.188 C 
BRANCH  28  29
ATOM     29  C   UNL A   1      40.094  28.710  30.256  1.00  0.00     0.188 C 
BRANCH  29  30
ATOM     30  O   UNL A   1      39.774  27.415  29.781  1.00  0.00    -0.376 OA
BRANCH  30  31
ATOM     31  C   UNL A   1      39.406  27.292  28.417  1.00  0.00     0.202 C 
BRANCH  31  32
ATOM     32  C   UNL A   1      40.267  26.391  27.519  1.00  0.00     0.261 C 
BRANCH  32  33
ATOM     33  O   UNL A   1      40.841  25.227  28.130  1.00  0.00    -0.460 OA
BRANCH  33  34
ATOM     34  C   UNL A   1      41.716  24.496  27.411  1.00  0.00     0.338 C 
ATOM     35  O   UNL A   1      41.491  23.489  26.762  1.00  0.00    -0.246 OA
BRANCH  34  36
ATOM     36  C   UNL A   1      42.997  25.224  27.425  1.00  0.00     0.060 A 
ATOM     37  C   UNL A   1      43.607  25.549  28.646  1.00  0.00     0.016 A 
ATOM     38  C   UNL A   1      43.599  25.566  26.214  1.00  0.00     0.016 A 
ATOM     39  C   UNL A   1      44.819  26.242  28.656  1.00  0.00     0.010 A 
ATOM     40  C   UNL A   1      44.793  26.285  26.226  1.00  0.00     0.010 A 
ATOM     41  C   UNL A   1      45.389  26.653  27.446  1.00  0.00    -0.014 A 
BRANCH  41  42
ATOM     42  C   UNL A   1      46.468  27.667  27.420  1.00  0.00     0.031 A 
ATOM     43  C   UNL A   1      46.059  29.111  27.366  1.00  0.00     0.074 A 
ATOM     44  C   UNL A   1      47.765  27.322  27.382  1.00  0.00     0.049 A 
ATOM     45  N   UNL A   1      46.779  30.176  27.131  1.00  0.00    -0.248 NA
ATOM     46  C   UNL A   1      44.630  29.386  27.594  1.00  0.00     0.031 C 
ATOM     47  C   UNL A   1      48.284  25.961  27.485  1.00  0.00     0.029 A 
ATOM     48  N   UNL A   1      48.883  28.101  27.208  1.00  0.00    -0.354 N 
ATOM     49  C   UNL A   1      45.888  31.241  27.158  1.00  0.00     0.074 A 
ATOM     50  C   UNL A   1      44.574  30.696  27.413  1.00  0.00     0.031 C 
ATOM     51  C   UNL A   1      49.621  25.997  27.342  1.00  0.00     0.029 A 
ATOM     52  C   UNL A   1      50.041  27.374  27.084  1.00  0.00     0.049 A 
ATOM     53  H   UNL A   1      48.856  29.084  27.176  1.00  0.00     0.167 HD
ATOM     54  C   UNL A   1      46.148  32.557  26.982  1.00  0.00     0.037 A 
ATOM     55  C   UNL A   1      51.285  27.777  26.756  1.00  0.00     0.037 A 
ATOM     56  C   UNL A   1      47.459  33.087  26.720  1.00  0.00     0.049 A 
ATOM     57  C   UNL A   1      51.536  29.240  26.473  1.00  0.00     0.074 A 
ATOM     58  C   UNL A   1      47.836  34.404  26.535  1.00  0.00     0.029 A 
ATOM     59  N   UNL A   1      48.607  32.318  26.593  1.00  0.00    -0.354 N 
ATOM     60  N   UNL A   1      50.699  30.248  26.508  1.00  0.00    -0.248 NA
ATOM     61  C   UNL A   1      52.907  29.619  26.098  1.00  0.00     0.031 C 
ATOM     62  C   UNL A   1      49.200  34.427  26.234  1.00  0.00     0.029 A 
ATOM     63  C   UNL A   1      49.689  33.131  26.306  1.00  0.00     0.049 A 
ATOM     64  H   UNL A   1      48.646  31.339  26.692  1.00  0.00     0.167 HD
ATOM     65  C   UNL A   1      51.445  31.381  26.205  1.00  0.00     0.074 A 
ATOM     66  C   UNL A   1      52.806  30.936  25.986  1.00  0.00     0.031 C 
ATOM     67  C   UNL A   1      51.043  32.673  26.122  1.00  0.00     0.037 A 
BRANCH  54  68
ATOM     68  C   UNL A   1      44.987  33.506  27.025  1.00  0.00     0.064 A 
ATOM     69  C   UNL A   1      44.648  34.212  28.189  1.00  0.00     0.173 A 
ATOM     70  C   UNL A   1      44.215  33.733  25.875  1.00  0.00     0.173 A 
ATOM     71  F   UNL A   1      45.342  34.019  29.322  1.00  0.00    -0.203 F 
ATOM     72  C   UNL A   1      43.563  35.085  28.209  1.00  0.00     0.198 A 
ATOM     73  C   UNL A   1      43.154  34.633  25.888  1.00  0.00     0.198 A 
ATOM     74  F   UNL A   1      44.496  33.084  24.734  1.00  0.00    -0.203 F 
ATOM     75  F   UNL A   1      43.225  35.706  29.347  1.00  0.00    -0.200 F 
ATOM     76  C   UNL A   1      42.823  35.301  27.056  1.00  0.00     0.200 A 
ATOM     77  F   UNL A   1      42.449  34.850  24.769  1.00  0.00    -0.200 F 
ATOM     78  F   UNL A   1      41.785  36.149  27.074  1.00  0.00    -0.200 F 
ENDBRANCH  54  68
BRANCH  55  79
ATOM     79  C   UNL A   1      52.388  26.785  26.647  1.00  0.00     0.064 A 
ATOM     80  C   UNL A   1      52.497  25.947  25.528  1.00  0.00     0.173 A 
ATOM     81  C   UNL A   1      53.339  26.633  27.668  1.00  0.00     0.173 A 
ATOM     82  F   UNL A   1      51.597  26.034  24.538  1.00  0.00    -0.203 F 
ATOM     83  C   UNL A   1      53.501  24.984  25.443  1.00  0.00     0.198 A 
ATOM     84  C   UNL A   1      54.361  25.691  27.567  1.00  0.00     0.198 A 
ATOM     85  F   UNL A   1      53.280  27.405  28.763  1.00  0.00    -0.203 F 
ATOM     86  F   UNL A   1      53.548  24.161  24.386  1.00  0.00    -0.200 F 
ATOM     87  C   UNL A   1      54.436  24.860  26.459  1.00  0.00     0.200 A 
ATOM     88  F   UNL A   1      55.270  25.583  28.546  1.00  0.00    -0.200 F 
ATOM     89  F   UNL A   1      55.401  23.935  26.376  1.00  0.00    -0.200 F 
ENDBRANCH  55  79
BRANCH  67  90
ATOM     90  C   UNL A   1      52.087  33.720  25.854  1.00  0.00     0.064 A 
ATOM     91  C   UNL A   1      52.749  34.394  26.889  1.00  0.00     0.173 A 
ATOM     92  C   UNL A   1      52.490  33.984  24.534  1.00  0.00     0.173 A 
ATOM     93  F   UNL A   1      52.393  34.187  28.166  1.00  0.00    -0.203 F 
ATOM     94  C   UNL A   1      53.767  35.304  26.612  1.00  0.00     0.198 A 
ATOM     95  C   UNL A   1      53.530  34.867  24.264  1.00  0.00     0.198 A 
ATOM     96  F   UNL A   1      51.895  33.359  23.508  1.00  0.00    -0.203 F 
ATOM     97  F   UNL A   1      54.364  35.963  27.615  1.00  0.00    -0.200 F 
ATOM     98  C   UNL A   1      54.165  35.531  25.303  1.00  0.00     0.200 A 
ATOM     99  F   UNL A   1      53.925  35.069  23.000  1.00  0.00    -0.200 F 
ATOM    100  F   UNL A   1      55.161  36.389  25.042  1.00  0.00    -0.200 F 
ENDBRANCH  67  90
ENDBRANCH  41  42
ENDBRANCH  34  36
ENDBRANCH  33  34
ENDBRANCH  32  33
ENDBRANCH  31  32
ENDBRANCH  30  31
ENDBRANCH  29  30
ENDBRANCH  28  29
ENDBRANCH  27  28
ENDBRANCH  26  27
ENDBRANCH   1  26
TORSDOF 26
ENDMDL
