MODEL 1
REMARK VINA RESULT:     -11.7      0.000      0.000
REMARK SMILES O=C(OCCOCCOCCOCCOC(=O)c1cc(S(=O)(=O)NNC(=O)[C@H]2C=C(c3ccccc3)N=N2)ccc1F)c1ccc(-c2c3nc(c(-c4c(F)c(F)c(F)c(F)c4F)c4ccc([nH]4)c(-c4c(F)c(F)c(F)c(F)c4F)c4nc(c(-c5c(F)c(F)c(F)c(F)c5F)c5ccc2[nH]5)C=C4)C=C3)cc1
REMARK SMILES IDX 10 1 9 2 8 3 7 4 6 5 5 6 4 7 3 8 2 9 1 10 43 11 44 12 105 13
REMARK SMILES IDX 45 14 104 15 46 16 47 17 48 18 98 19 49 20 103 21 97 22
REMARK SMILES IDX 99 23 50 24 102 25 96 26 95 27 51 29 83 30 63 31 82 32 64 33
REMARK SMILES IDX 67 34 81 35 100 36 65 37 66 38 80 40 101 41 68 42 52 43
REMARK SMILES IDX 53 44 61 45 54 46 55 47 59 48 62 49 56 50 57 51 60 52 58 53
REMARK SMILES IDX 84 54 85 55 93 56 86 57 87 58 91 59 94 60 88 61 89 62 92 63
REMARK SMILES IDX 90 64 69 65 70 66 78 67 71 68 72 69 76 70 79 71 73 72 74 73
REMARK SMILES IDX 77 74 75 75 11 76 12 77 13 78 14 79 15 80 16 81 17 82 18 83
REMARK SMILES IDX 19 84 41 85 20 86 40 87 42 88 39 89 21 90 22 91 23 92 24 93
REMARK SMILES IDX 25 95 26 96 27 98 28 99 29 100 38 101 30 102 37 103 31 104
REMARK SMILES IDX 32 105 36 106 33 107 35 108 34 109
REMARK H PARENT 99 28 67 39 24 94 25 97
REMARK Flexibility Score: inf
ROOT
ATOM      1  C   UNL A   1      35.100  23.782  24.990  1.00  0.00     0.188 C 
ENDROOT
BRANCH   1   2
ATOM      2  O   UNL A   1      35.751  23.125  23.928  1.00  0.00    -0.377 OA
BRANCH   2   3
ATOM      3  C   UNL A   1      37.107  22.812  24.185  1.00  0.00     0.188 C 
BRANCH   3   4
ATOM      4  C   UNL A   1      37.504  21.354  24.506  1.00  0.00     0.188 C 
BRANCH   4   5
ATOM      5  O   UNL A   1      38.590  20.882  25.293  1.00  0.00    -0.376 OA
BRANCH   5   6
ATOM      6  C   UNL A   1      39.574  21.576  26.026  1.00  0.00     0.202 C 
BRANCH   6   7
ATOM      7  C   UNL A   1      40.884  20.949  26.496  1.00  0.00     0.261 C 
BRANCH   7   8
ATOM      8  O   UNL A   1      42.030  21.778  26.394  1.00  0.00    -0.460 OA
BRANCH   8   9
ATOM      9  C   UNL A   1      42.091  23.060  25.991  1.00  0.00     0.338 C 
ATOM     10  O   UNL A   1      42.705  23.314  24.954  1.00  0.00    -0.246 OA
BRANCH   9  11
ATOM     11  C   UNL A   1      41.539  24.210  26.754  1.00  0.00     0.060 A 
ATOM     12  C   UNL A   1      40.588  25.129  26.306  1.00  0.00     0.016 A 
ATOM     13  C   UNL A   1      42.116  24.391  28.027  1.00  0.00     0.016 A 
ATOM     14  C   UNL A   1      40.419  26.319  26.979  1.00  0.00     0.010 A 
ATOM     15  C   UNL A   1      41.918  25.559  28.729  1.00  0.00     0.010 A 
ATOM     16  C   UNL A   1      41.171  26.557  28.125  1.00  0.00    -0.014 A 
BRANCH  16  17
ATOM     17  C   UNL A   1      41.159  27.903  28.651  1.00  0.00     0.031 A 
ATOM     18  C   UNL A   1      42.285  28.740  28.173  1.00  0.00     0.074 A 
ATOM     19  C   UNL A   1      40.180  28.282  29.495  1.00  0.00     0.049 A 
ATOM     20  N   UNL A   1      43.211  29.304  28.876  1.00  0.00    -0.248 NA
ATOM     21  C   UNL A   1      42.505  28.815  26.718  1.00  0.00     0.031 C 
ATOM     22  C   UNL A   1      38.954  27.556  29.855  1.00  0.00     0.029 A 
ATOM     23  N   UNL A   1      40.033  29.459  30.157  1.00  0.00    -0.354 N 
ATOM     24  C   UNL A   1      44.020  29.973  27.963  1.00  0.00     0.074 A 
ATOM     25  C   UNL A   1      43.641  29.508  26.656  1.00  0.00     0.031 C 
ATOM     26  C   UNL A   1      38.089  28.402  30.457  1.00  0.00     0.029 A 
ATOM     27  C   UNL A   1      38.752  29.674  30.658  1.00  0.00     0.049 A 
ATOM     28  H   UNL A   1      40.768  30.104  30.271  1.00  0.00     0.167 HD
ATOM     29  C   UNL A   1      44.751  31.053  28.348  1.00  0.00     0.037 A 
ATOM     30  C   UNL A   1      38.279  30.866  31.101  1.00  0.00     0.037 A 
ATOM     31  C   UNL A   1      45.037  31.004  29.759  1.00  0.00     0.049 A 
ATOM     32  C   UNL A   1      39.467  31.700  31.432  1.00  0.00     0.074 A 
ATOM     33  C   UNL A   1      45.736  30.127  30.566  1.00  0.00     0.029 A 
ATOM     34  N   UNL A   1      44.257  31.747  30.609  1.00  0.00    -0.354 N 
ATOM     35  N   UNL A   1      40.288  31.424  32.409  1.00  0.00    -0.248 NA
ATOM     36  C   UNL A   1      40.012  32.534  30.369  1.00  0.00     0.031 C 
ATOM     37  C   UNL A   1      44.979  30.050  31.771  1.00  0.00     0.029 A 
ATOM     38  C   UNL A   1      43.910  30.940  31.663  1.00  0.00     0.049 A 
ATOM     39  H   UNL A   1      43.995  32.689  30.485  1.00  0.00     0.167 HD
ATOM     40  C   UNL A   1      41.550  31.690  31.896  1.00  0.00     0.074 A 
ATOM     41  C   UNL A   1      41.312  32.415  30.650  1.00  0.00     0.031 C 
ATOM     42  C   UNL A   1      42.655  31.045  32.369  1.00  0.00     0.037 A 
BRANCH  29  43
ATOM     43  C   UNL A   1      44.830  32.322  27.532  1.00  0.00     0.064 A 
ATOM     44  C   UNL A   1      43.982  33.438  27.719  1.00  0.00     0.173 A 
ATOM     45  C   UNL A   1      45.979  32.563  26.752  1.00  0.00     0.173 A 
ATOM     46  F   UNL A   1      42.894  33.395  28.494  1.00  0.00    -0.203 F 
ATOM     47  C   UNL A   1      44.278  34.698  27.205  1.00  0.00     0.198 A 
ATOM     48  C   UNL A   1      46.296  33.840  26.279  1.00  0.00     0.198 A 
ATOM     49  F   UNL A   1      46.865  31.582  26.518  1.00  0.00    -0.203 F 
ATOM     50  F   UNL A   1      43.452  35.722  27.463  1.00  0.00    -0.200 F 
ATOM     51  C   UNL A   1      45.450  34.907  26.515  1.00  0.00     0.200 A 
ATOM     52  F   UNL A   1      47.464  34.045  25.656  1.00  0.00    -0.200 F 
ATOM     53  F   UNL A   1      45.785  36.144  26.124  1.00  0.00    -0.200 F 
ENDBRANCH  29  43
BRANCH  30  54
ATOM     54  C   UNL A   1      36.947  31.456  30.813  1.00  0.00     0.064 A 
ATOM     55  C   UNL A   1      36.625  31.976  29.544  1.00  0.00     0.173 A 
ATOM     56  C   UNL A   1      36.069  31.786  31.860  1.00  0.00     0.173 A 
ATOM     57  F   UNL A   1      37.434  31.784  28.493  1.00  0.00    -0.203 F 
ATOM     58  C   UNL A   1      35.514  32.796  29.338  1.00  0.00     0.198 A 
ATOM     59  C   UNL A   1      34.959  32.614  31.654  1.00  0.00     0.198 A 
ATOM     60  F   UNL A   1      36.325  31.369  33.109  1.00  0.00    -0.203 F 
ATOM     61  F   UNL A   1      35.287  33.316  28.123  1.00  0.00    -0.200 F 
ATOM     62  C   UNL A   1      34.690  33.127  30.397  1.00  0.00     0.200 A 
ATOM     63  F   UNL A   1      34.182  32.961  32.691  1.00  0.00    -0.200 F 
ATOM     64  F   UNL A   1      33.667  33.974  30.212  1.00  0.00    -0.200 F 
ENDBRANCH  30  54
BRANCH  42  65
ATOM     65  C   UNL A   1      42.506  30.194  33.600  1.00  0.00     0.064 A 
ATOM     66  C   UNL A   1      42.092  28.866  33.440  1.00  0.00     0.173 A 
ATOM     67  C   UNL A   1      42.579  30.696  34.912  1.00  0.00     0.173 A 
ATOM     68  F   UNL A   1      41.951  28.352  32.209  1.00  0.00    -0.203 F 
ATOM     69  C   UNL A   1      41.754  28.077  34.536  1.00  0.00     0.198 A 
ATOM     70  C   UNL A   1      42.273  29.891  36.012  1.00  0.00     0.198 A 
ATOM     71  F   UNL A   1      42.873  31.980  35.144  1.00  0.00    -0.203 F 
ATOM     72  F   UNL A   1      41.294  26.833  34.342  1.00  0.00    -0.200 F 
ATOM     73  C   UNL A   1      41.851  28.587  35.821  1.00  0.00     0.200 A 
ATOM     74  F   UNL A   1      42.344  30.394  37.254  1.00  0.00    -0.200 F 
ATOM     75  F   UNL A   1      41.503  27.830  36.872  1.00  0.00    -0.200 F 
ENDBRANCH  42  65
ENDBRANCH  16  17
ENDBRANCH   9  11
ENDBRANCH   8   9
ENDBRANCH   7   8
ENDBRANCH   6   7
ENDBRANCH   5   6
ENDBRANCH   4   5
ENDBRANCH   3   4
ENDBRANCH   2   3
ENDBRANCH   1   2
BRANCH   1  76
ATOM     76  C   UNL A   1      35.537  23.238  26.360  1.00  0.00     0.188 C 
BRANCH  76  77
ATOM     77  O   UNL A   1      34.572  22.625  27.188  1.00  0.00    -0.376 OA
BRANCH  77  78
ATOM     78  C   UNL A   1      34.081  21.322  26.905  1.00  0.00     0.202 C 
BRANCH  78  79
ATOM     79  C   UNL A   1      34.608  20.370  25.804  1.00  0.00     0.261 C 
BRANCH  79  80
ATOM     80  O   UNL A   1      34.034  20.431  24.494  1.00  0.00    -0.460 OA
BRANCH  80  81
ATOM     81  C   UNL A   1      32.718  20.143  24.387  1.00  0.00     0.341 C 
ATOM     82  O   UNL A   1      32.172  19.079  24.613  1.00  0.00    -0.246 OA
BRANCH  81  83
ATOM     83  C   UNL A   1      31.993  21.414  24.217  1.00  0.00     0.097 A 
ATOM     84  C   UNL A   1      31.511  22.064  25.356  1.00  0.00     0.040 A 
ATOM     85  C   UNL A   1      31.859  22.014  22.972  1.00  0.00     0.137 A 
ATOM     86  C   UNL A   1      30.976  23.351  25.253  1.00  0.00     0.085 A 
ATOM     87  C   UNL A   1      31.240  23.263  22.858  1.00  0.00     0.041 A 
ATOM     88  F   UNL A   1      32.309  21.408  21.866  1.00  0.00    -0.206 F 
ATOM     89  C   UNL A   1      30.812  23.950  24.003  1.00  0.00     0.025 A 
BRANCH  86  90
ATOM     90  S   UNL A   1      30.579  24.187  26.763  1.00  0.00     0.257 S 
ATOM     91  O   UNL A   1      29.194  23.894  27.080  1.00  0.00    -0.205 OA
ATOM     92  O   UNL A   1      31.643  23.916  27.697  1.00  0.00    -0.205 OA
BRANCH  90  93
ATOM     93  N   UNL A   1      30.643  25.832  26.402  1.00  0.00    -0.123 NA
ATOM     94  H   UNL A   1      30.007  26.297  27.049  1.00  0.00     0.167 HD
BRANCH  93  95
ATOM     95  N   UNL A   1      31.884  26.553  26.460  1.00  0.00    -0.275 N 
ATOM     96  C   UNL A   1      32.381  27.385  25.480  1.00  0.00     0.265 C 
ATOM     97  H   UNL A   1      32.429  26.443  27.274  1.00  0.00     0.186 HD
ATOM     98  O   UNL A   1      33.374  28.061  25.749  1.00  0.00    -0.271 OA
BRANCH  96  99
ATOM     99  C   UNL A   1      31.717  27.335  24.098  1.00  0.00     0.244 C 
ATOM    100  C   UNL A   1      30.471  28.129  24.013  1.00  0.00     0.042 C 
ATOM    101  N   UNL A   1      32.596  28.021  23.104  1.00  0.00    -0.171 NA
ATOM    102  C   UNL A   1      30.720  29.084  23.119  1.00  0.00     0.091 C 
ATOM    103  N   UNL A   1      31.974  28.991  22.578  1.00  0.00    -0.155 NA
BRANCH 102 104
ATOM    104  C   UNL A   1      29.739  30.096  22.739  1.00  0.00     0.002 A 
ATOM    105  C   UNL A   1      29.471  30.367  21.394  1.00  0.00     0.010 A 
ATOM    106  C   UNL A   1      29.026  30.785  23.733  1.00  0.00     0.010 A 
ATOM    107  C   UNL A   1      28.489  31.299  21.049  1.00  0.00     0.001 A 
ATOM    108  C   UNL A   1      28.051  31.719  23.387  1.00  0.00     0.001 A 
ATOM    109  C   UNL A   1      27.780  31.972  22.044  1.00  0.00     0.000 A 
ENDBRANCH 102 104
ENDBRANCH  96  99
ENDBRANCH  93  95
ENDBRANCH  90  93
ENDBRANCH  86  90
ENDBRANCH  81  83
ENDBRANCH  80  81
ENDBRANCH  79  80
ENDBRANCH  78  79
ENDBRANCH  77  78
ENDBRANCH  76  77
ENDBRANCH   1  76
TORSDOF 25
ENDMDL
MODEL 2
REMARK VINA RESULT:     -11.6      1.810      4.874
REMARK SMILES O=C(OCCOCCOCCOCCOC(=O)c1cc(S(=O)(=O)NNC(=O)[C@H]2C=C(c3ccccc3)N=N2)ccc1F)c1ccc(-c2c3nc(c(-c4c(F)c(F)c(F)c(F)c4F)c4ccc([nH]4)c(-c4c(F)c(F)c(F)c(F)c4F)c4nc(c(-c5c(F)c(F)c(F)c(F)c5F)c5ccc2[nH]5)C=C4)C=C3)cc1
REMARK SMILES IDX 10 1 9 2 8 3 7 4 6 5 5 6 4 7 3 8 2 9 1 10 43 11 44 12 105 13
REMARK SMILES IDX 45 14 104 15 46 16 47 17 48 18 98 19 49 20 103 21 97 22
REMARK SMILES IDX 99 23 50 24 102 25 96 26 95 27 51 29 83 30 63 31 82 32 64 33
REMARK SMILES IDX 67 34 81 35 100 36 65 37 66 38 80 40 101 41 68 42 52 43
REMARK SMILES IDX 53 44 61 45 54 46 55 47 59 48 62 49 56 50 57 51 60 52 58 53
REMARK SMILES IDX 84 54 85 55 93 56 86 57 87 58 91 59 94 60 88 61 89 62 92 63
REMARK SMILES IDX 90 64 69 65 70 66 78 67 71 68 72 69 76 70 79 71 73 72 74 73
REMARK SMILES IDX 77 74 75 75 11 76 12 77 13 78 14 79 15 80 16 81 17 82 18 83
REMARK SMILES IDX 19 84 41 85 20 86 40 87 42 88 39 89 21 90 22 91 23 92 24 93
REMARK SMILES IDX 25 95 26 96 27 98 28 99 29 100 38 101 30 102 37 103 31 104
REMARK SMILES IDX 32 105 36 106 33 107 35 108 34 109
REMARK H PARENT 99 28 67 39 24 94 25 97
REMARK Flexibility Score: inf
ROOT
ATOM      1  C   UNL A   1      35.694  24.177  24.774  1.00  0.00     0.188 C 
ENDROOT
BRANCH   1   2
ATOM      2  O   UNL A   1      36.862  24.070  25.553  1.00  0.00    -0.377 OA
BRANCH   2   3
ATOM      3  C   UNL A   1      37.651  22.931  25.262  1.00  0.00     0.188 C 
BRANCH   3   4
ATOM      4  C   UNL A   1      38.713  22.461  26.279  1.00  0.00     0.188 C 
BRANCH   4   5
ATOM      5  O   UNL A   1      39.627  21.377  26.171  1.00  0.00    -0.376 OA
BRANCH   5   6
ATOM      6  C   UNL A   1      40.813  21.089  26.876  1.00  0.00     0.202 C 
BRANCH   6   7
ATOM      7  C   UNL A   1      42.194  21.032  26.230  1.00  0.00     0.261 C 
BRANCH   7   8
ATOM      8  O   UNL A   1      42.969  22.215  26.335  1.00  0.00    -0.460 OA
BRANCH   8   9
ATOM      9  C   UNL A   1      42.711  23.423  25.803  1.00  0.00     0.338 C 
ATOM     10  O   UNL A   1      43.120  23.657  24.666  1.00  0.00    -0.246 OA
BRANCH   9  11
ATOM     11  C   UNL A   1      42.036  24.534  26.525  1.00  0.00     0.060 A 
ATOM     12  C   UNL A   1      41.207  25.509  25.968  1.00  0.00     0.016 A 
ATOM     13  C   UNL A   1      42.352  24.610  27.897  1.00  0.00     0.016 A 
ATOM     14  C   UNL A   1      40.925  26.654  26.680  1.00  0.00     0.010 A 
ATOM     15  C   UNL A   1      42.036  25.732  28.629  1.00  0.00     0.010 A 
ATOM     16  C   UNL A   1      41.439  26.791  27.965  1.00  0.00    -0.014 A 
BRANCH  16  17
ATOM     17  C   UNL A   1      41.343  28.097  28.576  1.00  0.00     0.031 A 
ATOM     18  C   UNL A   1      42.480  28.991  28.254  1.00  0.00     0.074 A 
ATOM     19  C   UNL A   1      40.285  28.395  29.355  1.00  0.00     0.049 A 
ATOM     20  N   UNL A   1      43.327  29.526  29.070  1.00  0.00    -0.248 NA
ATOM     21  C   UNL A   1      42.822  29.169  26.832  1.00  0.00     0.031 C 
ATOM     22  C   UNL A   1      39.055  27.617  29.559  1.00  0.00     0.029 A 
ATOM     23  N   UNL A   1      40.048  29.520  30.078  1.00  0.00    -0.354 N 
ATOM     24  C   UNL A   1      44.191  30.275  28.277  1.00  0.00     0.074 A 
ATOM     25  C   UNL A   1      43.938  29.892  26.915  1.00  0.00     0.031 C 
ATOM     26  C   UNL A   1      38.118  28.400  30.138  1.00  0.00     0.029 A 
ATOM     27  C   UNL A   1      38.724  29.671  30.479  1.00  0.00     0.049 A 
ATOM     28  H   UNL A   1      40.752  30.173  30.297  1.00  0.00     0.167 HD
ATOM     29  C   UNL A   1      44.855  31.343  28.795  1.00  0.00     0.037 A 
ATOM     30  C   UNL A   1      38.180  30.818  30.957  1.00  0.00     0.037 A 
ATOM     31  C   UNL A   1      45.021  31.205  30.218  1.00  0.00     0.049 A 
ATOM     32  C   UNL A   1      39.311  31.655  31.444  1.00  0.00     0.074 A 
ATOM     33  C   UNL A   1      45.674  30.291  31.023  1.00  0.00     0.029 A 
ATOM     34  N   UNL A   1      44.150  31.870  31.045  1.00  0.00    -0.354 N 
ATOM     35  N   UNL A   1      40.054  31.333  32.469  1.00  0.00    -0.248 NA
ATOM     36  C   UNL A   1      39.920  32.572  30.490  1.00  0.00     0.031 C 
ATOM     37  C   UNL A   1      44.820  30.115  32.151  1.00  0.00     0.029 A 
ATOM     38  C   UNL A   1      43.739  30.985  32.009  1.00  0.00     0.049 A 
ATOM     39  H   UNL A   1      43.872  32.811  30.962  1.00  0.00     0.167 HD
ATOM     40  C   UNL A   1      41.346  31.662  32.086  1.00  0.00     0.074 A 
ATOM     41  C   UNL A   1      41.194  32.464  30.874  1.00  0.00     0.031 C 
ATOM     42  C   UNL A   1      42.426  31.012  32.609  1.00  0.00     0.037 A 
BRANCH  29  43
ATOM     43  C   UNL A   1      44.966  32.666  28.074  1.00  0.00     0.064 A 
ATOM     44  C   UNL A   1      43.993  33.689  28.142  1.00  0.00     0.173 A 
ATOM     45  C   UNL A   1      46.215  33.058  27.552  1.00  0.00     0.173 A 
ATOM     46  F   UNL A   1      42.784  33.500  28.681  1.00  0.00    -0.203 F 
ATOM     47  C   UNL A   1      44.257  35.002  27.760  1.00  0.00     0.198 A 
ATOM     48  C   UNL A   1      46.491  34.387  27.215  1.00  0.00     0.198 A 
ATOM     49  F   UNL A   1      47.221  32.175  27.452  1.00  0.00    -0.203 F 
ATOM     50  F   UNL A   1      43.301  35.932  27.898  1.00  0.00    -0.200 F 
ATOM     51  C   UNL A   1      45.515  35.358  27.330  1.00  0.00     0.200 A 
ATOM     52  F   UNL A   1      47.732  34.733  26.848  1.00  0.00    -0.200 F 
ATOM     53  F   UNL A   1      45.796  36.643  27.074  1.00  0.00    -0.200 F 
ENDBRANCH  29  43
BRANCH  30  54
ATOM     54  C   UNL A   1      36.861  31.395  30.594  1.00  0.00     0.064 A 
ATOM     55  C   UNL A   1      36.583  31.848  29.289  1.00  0.00     0.173 A 
ATOM     56  C   UNL A   1      35.949  31.782  31.592  1.00  0.00     0.173 A 
ATOM     57  F   UNL A   1      37.426  31.600  28.277  1.00  0.00    -0.203 F 
ATOM     58  C   UNL A   1      35.483  32.659  29.004  1.00  0.00     0.198 A 
ATOM     59  C   UNL A   1      34.850  32.600  31.306  1.00  0.00     0.198 A 
ATOM     60  F   UNL A   1      36.162  31.431  32.869  1.00  0.00    -0.203 F 
ATOM     61  F   UNL A   1      35.299  33.115  27.756  1.00  0.00    -0.200 F 
ATOM     62  C   UNL A   1      34.626  33.047  30.015  1.00  0.00     0.200 A 
ATOM     63  F   UNL A   1      34.041  33.002  32.297  1.00  0.00    -0.200 F 
ATOM     64  F   UNL A   1      33.612  33.885  29.753  1.00  0.00    -0.200 F 
ENDBRANCH  30  54
BRANCH  42  65
ATOM     65  C   UNL A   1      42.197  30.076  33.764  1.00  0.00     0.064 A 
ATOM     66  C   UNL A   1      42.499  30.530  35.054  1.00  0.00     0.173 A 
ATOM     67  C   UNL A   1      41.872  28.716  33.616  1.00  0.00     0.173 A 
ATOM     68  F   UNL A   1      42.869  31.805  35.246  1.00  0.00    -0.203 F 
ATOM     69  C   UNL A   1      42.489  29.665  36.145  1.00  0.00     0.198 A 
ATOM     70  C   UNL A   1      41.828  27.858  34.718  1.00  0.00     0.198 A 
ATOM     71  F   UNL A   1      41.664  28.185  32.405  1.00  0.00    -0.203 F 
ATOM     72  F   UNL A   1      42.852  30.117  37.353  1.00  0.00    -0.200 F 
ATOM     73  C   UNL A   1      42.148  28.333  35.978  1.00  0.00     0.200 A 
ATOM     74  F   UNL A   1      41.522  26.563  34.550  1.00  0.00    -0.200 F 
ATOM     75  F   UNL A   1      42.162  27.499  37.028  1.00  0.00    -0.200 F 
ENDBRANCH  42  65
ENDBRANCH  16  17
ENDBRANCH   9  11
ENDBRANCH   8   9
ENDBRANCH   7   8
ENDBRANCH   6   7
ENDBRANCH   5   6
ENDBRANCH   4   5
ENDBRANCH   3   4
ENDBRANCH   2   3
ENDBRANCH   1   2
BRANCH   1  76
ATOM     76  C   UNL A   1      34.516  24.758  25.573  1.00  0.00     0.188 C 
BRANCH  76  77
ATOM     77  O   UNL A   1      34.082  26.071  25.288  1.00  0.00    -0.376 OA
BRANCH  77  78
ATOM     78  C   UNL A   1      33.726  26.969  26.329  1.00  0.00     0.202 C 
BRANCH  78  79
ATOM     79  C   UNL A   1      34.056  28.481  26.380  1.00  0.00     0.261 C 
BRANCH  79  80
ATOM     80  O   UNL A   1      33.549  29.342  25.355  1.00  0.00    -0.460 OA
BRANCH  80  81
ATOM     81  C   UNL A   1      32.248  29.700  25.442  1.00  0.00     0.341 C 
ATOM     82  O   UNL A   1      31.738  30.442  26.261  1.00  0.00    -0.246 OA
BRANCH  81  83
ATOM     83  C   UNL A   1      31.580  29.265  24.204  1.00  0.00     0.097 A 
ATOM     84  C   UNL A   1      32.143  28.214  23.475  1.00  0.00     0.040 A 
ATOM     85  C   UNL A   1      30.370  29.813  23.799  1.00  0.00     0.137 A 
ATOM     86  C   UNL A   1      31.448  27.659  22.398  1.00  0.00     0.085 A 
ATOM     87  C   UNL A   1      29.718  29.318  22.666  1.00  0.00     0.041 A 
ATOM     88  F   UNL A   1      29.814  30.825  24.479  1.00  0.00    -0.206 F 
ATOM     89  C   UNL A   1      30.245  28.221  21.967  1.00  0.00     0.025 A 
BRANCH  86  90
ATOM     90  S   UNL A   1      32.130  26.201  21.658  1.00  0.00     0.257 S 
ATOM     91  O   UNL A   1      31.491  26.020  20.368  1.00  0.00    -0.205 OA
ATOM     92  O   UNL A   1      33.562  26.283  21.788  1.00  0.00    -0.205 OA
BRANCH  90  93
ATOM     93  N   UNL A   1      31.615  24.919  22.624  1.00  0.00    -0.123 NA
ATOM     94  H   UNL A   1      32.334  24.199  22.559  1.00  0.00     0.167 HD
BRANCH  93  95
ATOM     95  N   UNL A   1      31.352  25.109  24.024  1.00  0.00    -0.275 N 
ATOM     96  C   UNL A   1      31.207  24.108  24.960  1.00  0.00     0.265 C 
ATOM     97  H   UNL A   1      31.267  26.037  24.342  1.00  0.00     0.186 HD
ATOM     98  O   UNL A   1      31.153  24.434  26.146  1.00  0.00    -0.271 OA
BRANCH  96  99
ATOM     99  C   UNL A   1      31.028  22.673  24.449  1.00  0.00     0.244 C 
ATOM    100  C   UNL A   1      32.291  22.047  23.995  1.00  0.00     0.042 C 
ATOM    101  N   UNL A   1      30.629  21.791  25.586  1.00  0.00    -0.171 NA
ATOM    102  C   UNL A   1      32.489  21.017  24.815  1.00  0.00     0.091 C 
ATOM    103  N   UNL A   1      31.486  20.870  25.736  1.00  0.00    -0.155 NA
BRANCH 102 104
ATOM    104  C   UNL A   1      33.641  20.127  24.712  1.00  0.00     0.002 A 
ATOM    105  C   UNL A   1      34.933  20.589  24.981  1.00  0.00     0.010 A 
ATOM    106  C   UNL A   1      33.453  18.778  24.371  1.00  0.00     0.010 A 
ATOM    107  C   UNL A   1      36.017  19.710  24.932  1.00  0.00     0.001 A 
ATOM    108  C   UNL A   1      34.537  17.903  24.316  1.00  0.00     0.001 A 
ATOM    109  C   UNL A   1      35.818  18.369  24.601  1.00  0.00     0.000 A 
ENDBRANCH 102 104
ENDBRANCH  96  99
ENDBRANCH  93  95
ENDBRANCH  90  93
ENDBRANCH  86  90
ENDBRANCH  81  83
ENDBRANCH  80  81
ENDBRANCH  79  80
ENDBRANCH  78  79
ENDBRANCH  77  78
ENDBRANCH  76  77
ENDBRANCH   1  76
TORSDOF 25
ENDMDL
MODEL 3
REMARK VINA RESULT:     -10.6      3.237      7.775
REMARK SMILES O=C(OCCOCCOCCOCCOC(=O)c1cc(S(=O)(=O)NNC(=O)[C@H]2C=C(c3ccccc3)N=N2)ccc1F)c1ccc(-c2c3nc(c(-c4c(F)c(F)c(F)c(F)c4F)c4ccc([nH]4)c(-c4c(F)c(F)c(F)c(F)c4F)c4nc(c(-c5c(F)c(F)c(F)c(F)c5F)c5ccc2[nH]5)C=C4)C=C3)cc1
REMARK SMILES IDX 10 1 9 2 8 3 7 4 6 5 5 6 4 7 3 8 2 9 1 10 43 11 44 12 105 13
REMARK SMILES IDX 45 14 104 15 46 16 47 17 48 18 98 19 49 20 103 21 97 22
REMARK SMILES IDX 99 23 50 24 102 25 96 26 95 27 51 29 83 30 63 31 82 32 64 33
REMARK SMILES IDX 67 34 81 35 100 36 65 37 66 38 80 40 101 41 68 42 52 43
REMARK SMILES IDX 53 44 61 45 54 46 55 47 59 48 62 49 56 50 57 51 60 52 58 53
REMARK SMILES IDX 84 54 85 55 93 56 86 57 87 58 91 59 94 60 88 61 89 62 92 63
REMARK SMILES IDX 90 64 69 65 70 66 78 67 71 68 72 69 76 70 79 71 73 72 74 73
REMARK SMILES IDX 77 74 75 75 11 76 12 77 13 78 14 79 15 80 16 81 17 82 18 83
REMARK SMILES IDX 19 84 41 85 20 86 40 87 42 88 39 89 21 90 22 91 23 92 24 93
REMARK SMILES IDX 25 95 26 96 27 98 28 99 29 100 38 101 30 102 37 103 31 104
REMARK SMILES IDX 32 105 36 106 33 107 35 108 34 109
REMARK H PARENT 99 28 67 39 24 94 25 97
REMARK Flexibility Score: inf
ROOT
ATOM      1  C   UNL A   1      40.081  20.288  26.052  1.00  0.00     0.188 C 
ENDROOT
BRANCH   1   2
ATOM      2  O   UNL A   1      40.694  19.926  27.267  1.00  0.00    -0.377 OA
BRANCH   2   3
ATOM      3  C   UNL A   1      42.088  19.700  27.168  1.00  0.00     0.188 C 
BRANCH   3   4
ATOM      4  C   UNL A   1      42.911  20.471  26.113  1.00  0.00     0.188 C 
BRANCH   4   5
ATOM      5  O   UNL A   1      43.879  19.968  25.201  1.00  0.00    -0.376 OA
BRANCH   5   6
ATOM      6  C   UNL A   1      45.248  20.263  25.044  1.00  0.00     0.202 C 
BRANCH   6   7
ATOM      7  C   UNL A   1      45.874  21.607  25.406  1.00  0.00     0.261 C 
BRANCH   7   8
ATOM      8  O   UNL A   1      45.447  22.712  24.627  1.00  0.00    -0.460 OA
BRANCH   8   9
ATOM      9  C   UNL A   1      44.258  23.340  24.666  1.00  0.00     0.338 C 
ATOM     10  O   UNL A   1      43.406  23.026  23.834  1.00  0.00    -0.246 OA
BRANCH   9  11
ATOM     11  C   UNL A   1      43.924  24.454  25.593  1.00  0.00     0.060 A 
ATOM     12  C   UNL A   1      44.556  25.696  25.668  1.00  0.00     0.016 A 
ATOM     13  C   UNL A   1      42.905  24.151  26.519  1.00  0.00     0.016 A 
ATOM     14  C   UNL A   1      44.370  26.491  26.777  1.00  0.00     0.010 A 
ATOM     15  C   UNL A   1      42.681  24.962  27.608  1.00  0.00     0.010 A 
ATOM     16  C   UNL A   1      43.513  26.056  27.782  1.00  0.00    -0.014 A 
BRANCH  16  17
ATOM     17  C   UNL A   1      43.543  26.781  29.031  1.00  0.00     0.031 A 
ATOM     18  C   UNL A   1      42.525  27.855  29.122  1.00  0.00     0.074 A 
ATOM     19  C   UNL A   1      44.445  26.450  29.975  1.00  0.00     0.049 A 
ATOM     20  N   UNL A   1      42.719  29.123  29.275  1.00  0.00    -0.248 NA
ATOM     21  C   UNL A   1      41.127  27.491  28.831  1.00  0.00     0.031 C 
ATOM     22  C   UNL A   1      45.347  25.291  30.008  1.00  0.00     0.029 A 
ATOM     23  N   UNL A   1      44.690  27.051  31.169  1.00  0.00    -0.354 N 
ATOM     24  C   UNL A   1      41.450  29.696  29.302  1.00  0.00     0.074 A 
ATOM     25  C   UNL A   1      40.530  28.682  28.864  1.00  0.00     0.031 C 
ATOM     26  C   UNL A   1      45.844  25.141  31.256  1.00  0.00     0.029 A 
ATOM     27  C   UNL A   1      45.420  26.270  32.060  1.00  0.00     0.049 A 
ATOM     28  H   UNL A   1      44.377  27.959  31.385  1.00  0.00     0.167 HD
ATOM     29  C   UNL A   1      41.239  30.879  29.938  1.00  0.00     0.037 A 
ATOM     30  C   UNL A   1      45.551  26.518  33.387  1.00  0.00     0.037 A 
ATOM     31  C   UNL A   1      42.450  31.655  29.998  1.00  0.00     0.049 A 
ATOM     32  C   UNL A   1      45.248  27.962  33.583  1.00  0.00     0.074 A 
ATOM     33  C   UNL A   1      43.280  32.211  29.044  1.00  0.00     0.029 A 
ATOM     34  N   UNL A   1      43.182  31.634  31.158  1.00  0.00    -0.354 N 
ATOM     35  N   UNL A   1      45.997  28.924  33.114  1.00  0.00    -0.248 NA
ATOM     36  C   UNL A   1      43.862  28.321  33.852  1.00  0.00     0.031 C 
ATOM     37  C   UNL A   1      44.599  32.030  29.551  1.00  0.00     0.029 A 
ATOM     38  C   UNL A   1      44.497  31.448  30.814  1.00  0.00     0.049 A 
ATOM     39  H   UNL A   1      42.828  31.736  32.072  1.00  0.00     0.167 HD
ATOM     40  C   UNL A   1      45.101  29.873  32.642  1.00  0.00     0.074 A 
ATOM     41  C   UNL A   1      43.800  29.465  33.167  1.00  0.00     0.031 C 
ATOM     42  C   UNL A   1      45.442  30.726  31.633  1.00  0.00     0.037 A 
BRANCH  29  43
ATOM     43  C   UNL A   1      40.057  31.117  30.850  1.00  0.00     0.064 A 
ATOM     44  C   UNL A   1      39.823  30.403  32.047  1.00  0.00     0.173 A 
ATOM     45  C   UNL A   1      39.304  32.298  30.697  1.00  0.00     0.173 A 
ATOM     46  F   UNL A   1      40.510  29.304  32.377  1.00  0.00    -0.203 F 
ATOM     47  C   UNL A   1      38.942  30.851  33.027  1.00  0.00     0.198 A 
ATOM     48  C   UNL A   1      38.457  32.770  31.705  1.00  0.00     0.198 A 
ATOM     49  F   UNL A   1      39.451  33.067  29.607  1.00  0.00    -0.203 F 
ATOM     50  F   UNL A   1      38.806  30.146  34.160  1.00  0.00    -0.200 F 
ATOM     51  C   UNL A   1      38.285  32.051  32.872  1.00  0.00     0.200 A 
ATOM     52  F   UNL A   1      37.864  33.963  31.568  1.00  0.00    -0.200 F 
ATOM     53  F   UNL A   1      37.529  32.533  33.867  1.00  0.00    -0.200 F 
ENDBRANCH  29  43
BRANCH  30  54
ATOM     54  C   UNL A   1      45.459  25.529  34.490  1.00  0.00     0.064 A 
ATOM     55  C   UNL A   1      46.539  25.287  35.363  1.00  0.00     0.173 A 
ATOM     56  C   UNL A   1      44.411  24.592  34.527  1.00  0.00     0.173 A 
ATOM     57  F   UNL A   1      47.622  26.076  35.356  1.00  0.00    -0.203 F 
ATOM     58  C   UNL A   1      46.583  24.169  36.196  1.00  0.00     0.198 A 
ATOM     59  C   UNL A   1      44.459  23.467  35.358  1.00  0.00     0.198 A 
ATOM     60  F   UNL A   1      43.365  24.722  33.697  1.00  0.00    -0.203 F 
ATOM     61  F   UNL A   1      47.663  23.953  36.962  1.00  0.00    -0.200 F 
ATOM     62  C   UNL A   1      45.551  23.251  36.182  1.00  0.00     0.200 A 
ATOM     63  F   UNL A   1      43.472  22.561  35.315  1.00  0.00    -0.200 F 
ATOM     64  F   UNL A   1      45.629  22.140  36.929  1.00  0.00    -0.200 F 
ENDBRANCH  30  54
BRANCH  42  65
ATOM     65  C   UNL A   1      46.877  30.756  31.185  1.00  0.00     0.064 A 
ATOM     66  C   UNL A   1      47.286  29.836  30.212  1.00  0.00     0.173 A 
ATOM     67  C   UNL A   1      47.877  31.524  31.810  1.00  0.00     0.173 A 
ATOM     68  F   UNL A   1      46.382  29.039  29.623  1.00  0.00    -0.203 F 
ATOM     69  C   UNL A   1      48.630  29.680  29.884  1.00  0.00     0.198 A 
ATOM     70  C   UNL A   1      49.220  31.390  31.454  1.00  0.00     0.198 A 
ATOM     71  F   UNL A   1      47.579  32.355  32.816  1.00  0.00    -0.203 F 
ATOM     72  F   UNL A   1      48.992  28.742  28.998  1.00  0.00    -0.200 F 
ATOM     73  C   UNL A   1      49.595  30.461  30.499  1.00  0.00     0.200 A 
ATOM     74  F   UNL A   1      50.156  32.129  32.069  1.00  0.00    -0.200 F 
ATOM     75  F   UNL A   1      50.890  30.290  30.196  1.00  0.00    -0.200 F 
ENDBRANCH  42  65
ENDBRANCH  16  17
ENDBRANCH   9  11
ENDBRANCH   8   9
ENDBRANCH   7   8
ENDBRANCH   6   7
ENDBRANCH   5   6
ENDBRANCH   4   5
ENDBRANCH   3   4
ENDBRANCH   2   3
ENDBRANCH   1   2
BRANCH   1  76
ATOM     76  C   UNL A   1      39.372  21.650  26.146  1.00  0.00     0.188 C 
BRANCH  76  77
ATOM     77  O   UNL A   1      38.201  21.860  25.386  1.00  0.00    -0.376 OA
BRANCH  77  78
ATOM     78  C   UNL A   1      37.268  22.872  25.739  1.00  0.00     0.202 C 
BRANCH  78  79
ATOM     79  C   UNL A   1      35.913  23.144  25.041  1.00  0.00     0.261 C 
BRANCH  79  80
ATOM     80  O   UNL A   1      35.101  24.233  25.493  1.00  0.00    -0.460 OA
BRANCH  80  81
ATOM     81  C   UNL A   1      34.036  23.923  26.266  1.00  0.00     0.341 C 
ATOM     82  O   UNL A   1      33.957  23.041  27.100  1.00  0.00    -0.246 OA
BRANCH  81  83
ATOM     83  C   UNL A   1      33.056  25.016  26.138  1.00  0.00     0.097 A 
ATOM     84  C   UNL A   1      33.498  26.255  25.666  1.00  0.00     0.040 A 
ATOM     85  C   UNL A   1      31.706  24.816  26.389  1.00  0.00     0.137 A 
ATOM     86  C   UNL A   1      32.572  27.258  25.364  1.00  0.00     0.085 A 
ATOM     87  C   UNL A   1      30.790  25.851  26.174  1.00  0.00     0.041 A 
ATOM     88  F   UNL A   1      31.261  23.638  26.846  1.00  0.00    -0.206 F 
ATOM     89  C   UNL A   1      31.217  27.076  25.640  1.00  0.00     0.025 A 
BRANCH  86  90
ATOM     90  S   UNL A   1      33.190  28.720  24.578  1.00  0.00     0.257 S 
ATOM     91  O   UNL A   1      34.397  28.359  23.857  1.00  0.00    -0.205 OA
ATOM     92  O   UNL A   1      32.078  29.357  23.920  1.00  0.00    -0.205 OA
BRANCH  90  93
ATOM     93  N   UNL A   1      33.676  29.738  25.831  1.00  0.00    -0.123 NA
ATOM     94  H   UNL A   1      32.908  29.761  26.502  1.00  0.00     0.167 HD
BRANCH  93  95
ATOM     95  N   UNL A   1      34.868  29.463  26.585  1.00  0.00    -0.275 N 
ATOM     96  C   UNL A   1      35.394  30.258  27.581  1.00  0.00     0.265 C 
ATOM     97  H   UNL A   1      35.354  28.634  26.369  1.00  0.00     0.186 HD
ATOM     98  O   UNL A   1      36.325  29.804  28.247  1.00  0.00    -0.271 OA
BRANCH  96  99
ATOM     99  C   UNL A   1      34.842  31.682  27.723  1.00  0.00     0.244 C 
ATOM    100  C   UNL A   1      34.243  31.953  29.050  1.00  0.00     0.042 C 
ATOM    101  N   UNL A   1      35.975  32.655  27.684  1.00  0.00    -0.171 NA
ATOM    102  C   UNL A   1      34.997  32.909  29.589  1.00  0.00     0.091 C 
ATOM    103  N   UNL A   1      36.003  33.325  28.758  1.00  0.00    -0.155 NA
BRANCH 102 104
ATOM    104  C   UNL A   1      34.746  33.469  30.913  1.00  0.00     0.002 A 
ATOM    105  C   UNL A   1      34.683  32.646  32.042  1.00  0.00     0.010 A 
ATOM    106  C   UNL A   1      34.597  34.857  31.068  1.00  0.00     0.010 A 
ATOM    107  C   UNL A   1      34.497  33.205  33.308  1.00  0.00     0.001 A 
ATOM    108  C   UNL A   1      34.406  35.412  32.332  1.00  0.00     0.001 A 
ATOM    109  C   UNL A   1      34.360  34.585  33.452  1.00  0.00     0.000 A 
ENDBRANCH 102 104
ENDBRANCH  96  99
ENDBRANCH  93  95
ENDBRANCH  90  93
ENDBRANCH  86  90
ENDBRANCH  81  83
ENDBRANCH  80  81
ENDBRANCH  79  80
ENDBRANCH  78  79
ENDBRANCH  77  78
ENDBRANCH  76  77
ENDBRANCH   1  76
TORSDOF 25
ENDMDL
