MODEL 1
REMARK VINA RESULT:     -11.4      0.000      0.000
REMARK SMILES Cc1ccc2oc(C(=O)N[C@@H]3C=C[C@H](C(=O)OCCOCCOCCOCCOC(=O)c4ccc(-c5c6nc(c(-c7c(F)c(F)c(F)c(F)c7F)c7ccc([nH]7)c(-c7c(F)c(F)c(F)c(F)c7F)c7nc(c(-c8c(F)c(F)c(F)c(F)c8F)c8ccc5[nH]8)C=C7)C=C6)cc4)C3)cc2c1
REMARK SMILES IDX 23 1 22 2 21 3 20 4 19 5 18 6 17 7 15 8 16 9 14 10 11 11
REMARK SMILES IDX 12 12 95 13 13 14 10 15 8 16 9 17 7 19 1 20 2 21 3 22 98 23
REMARK SMILES IDX 4 24 97 25 5 26 96 27 6 28 24 29 25 30 26 31 27 32 28 33
REMARK SMILES IDX 29 34 30 35 31 36 32 37 33 38 94 39 34 40 93 41 35 42 36 43
REMARK SMILES IDX 37 44 87 45 38 46 92 47 86 48 88 49 39 50 91 51 85 52 84 53
REMARK SMILES IDX 40 55 72 56 52 57 71 58 53 59 56 60 70 61 89 62 54 63 55 64
REMARK SMILES IDX 69 66 90 67 57 68 41 69 42 70 50 71 43 72 44 73 48 74 51 75
REMARK SMILES IDX 45 76 46 77 49 78 47 79 73 80 74 81 82 82 75 83 76 84 80 85
REMARK SMILES IDX 83 86 77 87 78 88 81 89 79 90 58 91 59 92 67 93 60 94 61 95
REMARK SMILES IDX 65 96 68 97 62 98 63 99 66 100 64 101
REMARK H PARENT 10 18 88 54 56 65
REMARK Flexibility Score: inf
ROOT
ATOM      1  O   UNL A   1      33.567  33.826  28.805  1.00  0.00    -0.377 OA
ENDROOT
BRANCH   1   2
ATOM      2  C   UNL A   1      34.883  33.411  28.496  1.00  0.00     0.188 C 
BRANCH   2   3
ATOM      3  C   UNL A   1      34.967  32.013  27.860  1.00  0.00     0.188 C 
BRANCH   3   4
ATOM      4  O   UNL A   1      33.698  31.393  27.725  1.00  0.00    -0.376 OA
BRANCH   4   5
ATOM      5  C   UNL A   1      33.558  30.190  26.983  1.00  0.00     0.202 C 
BRANCH   5   6
ATOM      6  C   UNL A   1      32.616  30.071  25.759  1.00  0.00     0.261 C 
BRANCH   6   7
ATOM      7  O   UNL A   1      33.035  29.221  24.678  1.00  0.00    -0.463 OA
BRANCH   7   8
ATOM      8  C   UNL A   1      32.079  28.381  24.222  1.00  0.00     0.312 C 
ATOM      9  O   UNL A   1      30.915  28.428  24.602  1.00  0.00    -0.252 OA
BRANCH   8  10
ATOM     10  C   UNL A   1      32.565  27.567  23.011  1.00  0.00     0.124 C 
ATOM     11  C   UNL A   1      31.455  25.424  23.067  1.00  0.00     0.106 C 
ATOM     12  C   UNL A   1      32.924  25.255  23.129  1.00  0.00    -0.006 C 
ATOM     13  C   UNL A   1      31.353  26.820  22.443  1.00  0.00     0.048 C 
ATOM     14  C   UNL A   1      33.543  26.446  23.140  1.00  0.00    -0.014 C 
BRANCH  11  15
ATOM     15  N   UNL A   1      30.768  25.226  24.350  1.00  0.00    -0.343 N 
ATOM     16  C   UNL A   1      30.818  24.419  25.482  1.00  0.00     0.287 C 
ATOM     17  O   UNL A   1      30.161  24.853  26.435  1.00  0.00    -0.266 OA
ATOM     18  H   UNL A   1      30.034  25.878  24.438  1.00  0.00     0.164 HD
BRANCH  16  19
ATOM     19  C   UNL A   1      31.572  23.175  25.570  1.00  0.00     0.192 A 
ATOM     20  C   UNL A   1      34.118  17.979  24.027  1.00  0.00     0.044 C 
ATOM     21  C   UNL A   1      33.886  19.340  24.619  1.00  0.00    -0.050 A 
ATOM     22  C   UNL A   1      34.953  20.181  24.973  1.00  0.00     0.007 A 
ATOM     23  C   UNL A   1      32.568  19.795  24.770  1.00  0.00     0.015 A 
ATOM     24  C   UNL A   1      34.747  21.518  25.365  1.00  0.00     0.048 A 
ATOM     25  C   UNL A   1      32.350  21.098  25.236  1.00  0.00     0.021 A 
ATOM     26  C   UNL A   1      33.424  21.951  25.418  1.00  0.00     0.135 A 
ATOM     27  C   UNL A   1      31.224  21.843  25.635  1.00  0.00     0.065 A 
ATOM     28  O   UNL A   1      32.962  23.227  25.613  1.00  0.00    -0.451 OA
ENDBRANCH  16  19
ENDBRANCH  11  15
ENDBRANCH   8  10
ENDBRANCH   7   8
ENDBRANCH   6   7
ENDBRANCH   5   6
ENDBRANCH   4   5
ENDBRANCH   3   4
ENDBRANCH   2   3
ENDBRANCH   1   2
BRANCH   1  29
ATOM     29  C   UNL A   1      33.380  35.179  29.210  1.00  0.00     0.188 C 
BRANCH  29  30
ATOM     30  C   UNL A   1      33.254  35.594  30.701  1.00  0.00     0.188 C 
BRANCH  30  31
ATOM     31  O   UNL A   1      34.360  35.278  31.532  1.00  0.00    -0.376 OA
BRANCH  31  32
ATOM     32  C   UNL A   1      34.142  34.653  32.784  1.00  0.00     0.202 C 
BRANCH  32  33
ATOM     33  C   UNL A   1      34.053  33.118  32.815  1.00  0.00     0.261 C 
BRANCH  33  34
ATOM     34  O   UNL A   1      35.143  32.415  32.206  1.00  0.00    -0.460 OA
BRANCH  34  35
ATOM     35  C   UNL A   1      36.192  32.106  33.002  1.00  0.00     0.338 C 
ATOM     36  O   UNL A   1      36.280  32.258  34.198  1.00  0.00    -0.246 OA
BRANCH  35  37
ATOM     37  C   UNL A   1      37.161  31.348  32.179  1.00  0.00     0.060 A 
ATOM     38  C   UNL A   1      38.084  30.512  32.823  1.00  0.00     0.016 A 
ATOM     39  C   UNL A   1      37.140  31.445  30.787  1.00  0.00     0.016 A 
ATOM     40  C   UNL A   1      39.021  29.802  32.076  1.00  0.00     0.010 A 
ATOM     41  C   UNL A   1      38.098  30.758  30.041  1.00  0.00     0.010 A 
ATOM     42  C   UNL A   1      39.067  29.967  30.686  1.00  0.00    -0.014 A 
BRANCH  42  43
ATOM     43  C   UNL A   1      40.262  29.514  29.940  1.00  0.00     0.031 A 
ATOM     44  C   UNL A   1      41.382  30.498  29.740  1.00  0.00     0.074 A 
ATOM     45  C   UNL A   1      40.367  28.260  29.471  1.00  0.00     0.049 A 
ATOM     46  N   UNL A   1      42.508  30.363  29.090  1.00  0.00    -0.248 NA
ATOM     47  C   UNL A   1      41.199  31.821  30.360  1.00  0.00     0.031 C 
ATOM     48  C   UNL A   1      39.378  27.202  29.654  1.00  0.00     0.029 A 
ATOM     49  N   UNL A   1      41.366  27.670  28.739  1.00  0.00    -0.354 N 
ATOM     50  C   UNL A   1      43.158  31.585  29.207  1.00  0.00     0.074 A 
ATOM     51  C   UNL A   1      42.287  32.458  29.964  1.00  0.00     0.031 C 
ATOM     52  C   UNL A   1      39.820  26.087  29.047  1.00  0.00     0.029 A 
ATOM     53  C   UNL A   1      41.102  26.366  28.402  1.00  0.00     0.049 A 
ATOM     54  H   UNL A   1      42.194  28.136  28.481  1.00  0.00     0.167 HD
ATOM     55  C   UNL A   1      44.372  31.945  28.730  1.00  0.00     0.037 A 
ATOM     56  C   UNL A   1      41.811  25.509  27.642  1.00  0.00     0.037 A 
ATOM     57  C   UNL A   1      45.230  31.069  27.976  1.00  0.00     0.049 A 
ATOM     58  C   UNL A   1      43.118  25.963  27.040  1.00  0.00     0.074 A 
ATOM     59  C   UNL A   1      46.493  31.324  27.471  1.00  0.00     0.029 A 
ATOM     60  N   UNL A   1      44.903  29.774  27.603  1.00  0.00    -0.354 N 
ATOM     61  N   UNL A   1      43.744  27.107  27.178  1.00  0.00    -0.248 NA
ATOM     62  C   UNL A   1      43.816  25.002  26.175  1.00  0.00     0.031 C 
ATOM     63  C   UNL A   1      46.897  30.209  26.729  1.00  0.00     0.029 A 
ATOM     64  C   UNL A   1      45.921  29.230  26.837  1.00  0.00     0.049 A 
ATOM     65  H   UNL A   1      44.070  29.308  27.846  1.00  0.00     0.167 HD
ATOM     66  C   UNL A   1      44.924  26.990  26.453  1.00  0.00     0.074 A 
ATOM     67  C   UNL A   1      44.930  25.659  25.883  1.00  0.00     0.031 C 
ATOM     68  C   UNL A   1      45.916  27.900  26.280  1.00  0.00     0.037 A 
BRANCH  55  69
ATOM     69  C   UNL A   1      44.812  33.362  28.964  1.00  0.00     0.064 A 
ATOM     70  C   UNL A   1      44.528  34.394  28.057  1.00  0.00     0.173 A 
ATOM     71  C   UNL A   1      45.538  33.690  30.120  1.00  0.00     0.173 A 
ATOM     72  F   UNL A   1      43.850  34.135  26.929  1.00  0.00    -0.203 F 
ATOM     73  C   UNL A   1      44.992  35.690  28.276  1.00  0.00     0.198 A 
ATOM     74  C   UNL A   1      45.967  34.994  30.354  1.00  0.00     0.198 A 
ATOM     75  F   UNL A   1      45.837  32.744  31.024  1.00  0.00    -0.203 F 
ATOM     76  F   UNL A   1      44.770  36.642  27.360  1.00  0.00    -0.200 F 
ATOM     77  C   UNL A   1      45.706  35.989  29.426  1.00  0.00     0.200 A 
ATOM     78  F   UNL A   1      46.644  35.282  31.474  1.00  0.00    -0.200 F 
ATOM     79  F   UNL A   1      46.152  37.235  29.634  1.00  0.00    -0.200 F 
ENDBRANCH  55  69
BRANCH  56  80
ATOM     80  C   UNL A   1      41.309  24.129  27.410  1.00  0.00     0.064 A 
ATOM     81  C   UNL A   1      41.959  23.023  27.975  1.00  0.00     0.173 A 
ATOM     82  C   UNL A   1      40.181  23.883  26.613  1.00  0.00     0.173 A 
ATOM     83  F   UNL A   1      43.058  23.204  28.724  1.00  0.00    -0.203 F 
ATOM     84  C   UNL A   1      41.512  21.725  27.741  1.00  0.00     0.198 A 
ATOM     85  C   UNL A   1      39.715  22.587  26.403  1.00  0.00     0.198 A 
ATOM     86  F   UNL A   1      39.524  24.905  26.043  1.00  0.00    -0.203 F 
ATOM     87  F   UNL A   1      42.180  20.685  28.256  1.00  0.00    -0.200 F 
ATOM     88  C   UNL A   1      40.386  21.508  26.961  1.00  0.00     0.200 A 
ATOM     89  F   UNL A   1      38.619  22.383  25.660  1.00  0.00    -0.200 F 
ATOM     90  F   UNL A   1      39.950  20.260  26.740  1.00  0.00    -0.200 F 
ENDBRANCH  56  80
BRANCH  68  91
ATOM     91  C   UNL A   1      47.117  27.475  25.481  1.00  0.00     0.064 A 
ATOM     92  C   UNL A   1      48.158  26.722  26.043  1.00  0.00     0.173 A 
ATOM     93  C   UNL A   1      47.205  27.792  24.115  1.00  0.00     0.173 A 
ATOM     94  F   UNL A   1      48.132  26.402  27.346  1.00  0.00    -0.203 F 
ATOM     95  C   UNL A   1      49.253  26.328  25.278  1.00  0.00     0.198 A 
ATOM     96  C   UNL A   1      48.283  27.364  23.345  1.00  0.00     0.198 A 
ATOM     97  F   UNL A   1      46.233  28.502  23.521  1.00  0.00    -0.203 F 
ATOM     98  F   UNL A   1      50.262  25.656  25.852  1.00  0.00    -0.200 F 
ATOM     99  C   UNL A   1      49.311  26.640  23.928  1.00  0.00     0.200 A 
ATOM    100  F   UNL A   1      48.325  27.651  22.036  1.00  0.00    -0.200 F 
ATOM    101  F   UNL A   1      50.361  26.252  23.192  1.00  0.00    -0.200 F 
ENDBRANCH  68  91
ENDBRANCH  42  43
ENDBRANCH  35  37
ENDBRANCH  34  35
ENDBRANCH  33  34
ENDBRANCH  32  33
ENDBRANCH  31  32
ENDBRANCH  30  31
ENDBRANCH  29  30
ENDBRANCH   1  29
TORSDOF 22
ENDMDL
MODEL 2
REMARK VINA RESULT:     -11.4      0.726      2.100
REMARK SMILES Cc1ccc2oc(C(=O)N[C@@H]3C=C[C@H](C(=O)OCCOCCOCCOCCOC(=O)c4ccc(-c5c6nc(c(-c7c(F)c(F)c(F)c(F)c7F)c7ccc([nH]7)c(-c7c(F)c(F)c(F)c(F)c7F)c7nc(c(-c8c(F)c(F)c(F)c(F)c8F)c8ccc5[nH]8)C=C7)C=C6)cc4)C3)cc2c1
REMARK SMILES IDX 23 1 22 2 21 3 20 4 19 5 18 6 17 7 15 8 16 9 14 10 11 11
REMARK SMILES IDX 12 12 95 13 13 14 10 15 8 16 9 17 7 19 1 20 2 21 3 22 98 23
REMARK SMILES IDX 4 24 97 25 5 26 96 27 6 28 24 29 25 30 26 31 27 32 28 33
REMARK SMILES IDX 29 34 30 35 31 36 32 37 33 38 94 39 34 40 93 41 35 42 36 43
REMARK SMILES IDX 37 44 87 45 38 46 92 47 86 48 88 49 39 50 91 51 85 52 84 53
REMARK SMILES IDX 40 55 72 56 52 57 71 58 53 59 56 60 70 61 89 62 54 63 55 64
REMARK SMILES IDX 69 66 90 67 57 68 41 69 42 70 50 71 43 72 44 73 48 74 51 75
REMARK SMILES IDX 45 76 46 77 49 78 47 79 73 80 74 81 82 82 75 83 76 84 80 85
REMARK SMILES IDX 83 86 77 87 78 88 81 89 79 90 58 91 59 92 67 93 60 94 61 95
REMARK SMILES IDX 65 96 68 97 62 98 63 99 66 100 64 101
REMARK H PARENT 10 18 88 54 56 65
REMARK Flexibility Score: inf
ROOT
ATOM      1  O   UNL A   1      33.599  33.696  28.421  1.00  0.00    -0.377 OA
ENDROOT
BRANCH   1   2
ATOM      2  C   UNL A   1      34.962  33.550  28.078  1.00  0.00     0.188 C 
BRANCH   2   3
ATOM      3  C   UNL A   1      35.411  32.089  27.902  1.00  0.00     0.188 C 
BRANCH   3   4
ATOM      4  O   UNL A   1      34.323  31.198  27.715  1.00  0.00    -0.376 OA
BRANCH   4   5
ATOM      5  C   UNL A   1      34.552  29.852  27.325  1.00  0.00     0.202 C 
BRANCH   5   6
ATOM      6  C   UNL A   1      33.432  28.782  27.325  1.00  0.00     0.261 C 
BRANCH   6   7
ATOM      7  O   UNL A   1      33.304  27.953  26.157  1.00  0.00    -0.463 OA
BRANCH   7   8
ATOM      8  C   UNL A   1      32.081  27.399  25.996  1.00  0.00     0.312 C 
ATOM      9  O   UNL A   1      31.299  27.231  26.923  1.00  0.00    -0.252 OA
BRANCH   8  10
ATOM     10  C   UNL A   1      31.710  27.262  24.510  1.00  0.00     0.124 C 
ATOM     11  C   UNL A   1      30.218  25.376  24.291  1.00  0.00     0.106 C 
ATOM     12  C   UNL A   1      31.441  25.175  23.481  1.00  0.00    -0.006 C 
ATOM     13  C   UNL A   1      30.221  26.901  24.439  1.00  0.00     0.048 C 
ATOM     14  C   UNL A   1      32.291  26.203  23.633  1.00  0.00    -0.014 C 
BRANCH  11  15
ATOM     15  N   UNL A   1      30.180  24.596  25.534  1.00  0.00    -0.343 N 
ATOM     16  C   UNL A   1      30.895  23.610  26.205  1.00  0.00     0.287 C 
ATOM     17  O   UNL A   1      30.578  23.483  27.394  1.00  0.00    -0.266 OA
ATOM     18  H   UNL A   1      29.393  24.855  26.066  1.00  0.00     0.164 HD
BRANCH  16  19
ATOM     19  C   UNL A   1      31.934  22.790  25.595  1.00  0.00     0.192 A 
ATOM     20  C   UNL A   1      36.954  19.597  24.913  1.00  0.00     0.044 C 
ATOM     21  C   UNL A   1      35.521  20.043  24.850  1.00  0.00    -0.050 A 
ATOM     22  C   UNL A   1      34.474  19.131  24.641  1.00  0.00     0.007 A 
ATOM     23  C   UNL A   1      35.225  21.397  25.060  1.00  0.00     0.015 A 
ATOM     24  C   UNL A   1      33.123  19.512  24.753  1.00  0.00     0.048 A 
ATOM     25  C   UNL A   1      33.884  21.801  25.094  1.00  0.00     0.021 A 
ATOM     26  C   UNL A   1      32.879  20.851  25.048  1.00  0.00     0.135 A 
ATOM     27  C   UNL A   1      33.211  23.037  25.142  1.00  0.00     0.065 A 
ATOM     28  O   UNL A   1      31.682  21.441  25.362  1.00  0.00    -0.451 OA
ENDBRANCH  16  19
ENDBRANCH  11  15
ENDBRANCH   8  10
ENDBRANCH   7   8
ENDBRANCH   6   7
ENDBRANCH   5   6
ENDBRANCH   4   5
ENDBRANCH   3   4
ENDBRANCH   2   3
ENDBRANCH   1   2
BRANCH   1  29
ATOM     29  C   UNL A   1      33.168  34.973  28.886  1.00  0.00     0.188 C 
BRANCH  29  30
ATOM     30  C   UNL A   1      33.074  35.322  30.396  1.00  0.00     0.188 C 
BRANCH  30  31
ATOM     31  O   UNL A   1      34.304  35.365  31.103  1.00  0.00    -0.376 OA
BRANCH  31  32
ATOM     32  C   UNL A   1      34.381  34.826  32.412  1.00  0.00     0.202 C 
BRANCH  32  33
ATOM     33  C   UNL A   1      34.128  33.320  32.584  1.00  0.00     0.261 C 
BRANCH  33  34
ATOM     34  O   UNL A   1      35.151  32.451  32.080  1.00  0.00    -0.460 OA
BRANCH  34  35
ATOM     35  C   UNL A   1      36.161  32.141  32.924  1.00  0.00     0.338 C 
ATOM     36  O   UNL A   1      36.201  32.314  34.120  1.00  0.00    -0.246 OA
BRANCH  35  37
ATOM     37  C   UNL A   1      37.151  31.353  32.157  1.00  0.00     0.060 A 
ATOM     38  C   UNL A   1      38.187  30.713  32.850  1.00  0.00     0.016 A 
ATOM     39  C   UNL A   1      37.040  31.229  30.771  1.00  0.00     0.016 A 
ATOM     40  C   UNL A   1      39.145  29.982  32.152  1.00  0.00     0.010 A 
ATOM     41  C   UNL A   1      38.017  30.522  30.069  1.00  0.00     0.010 A 
ATOM     42  C   UNL A   1      39.094  29.931  30.753  1.00  0.00    -0.014 A 
BRANCH  42  43
ATOM     43  C   UNL A   1      40.283  29.474  29.999  1.00  0.00     0.031 A 
ATOM     44  C   UNL A   1      41.413  30.449  29.810  1.00  0.00     0.074 A 
ATOM     45  C   UNL A   1      40.374  28.226  29.514  1.00  0.00     0.049 A 
ATOM     46  N   UNL A   1      42.536  30.310  29.156  1.00  0.00    -0.248 NA
ATOM     47  C   UNL A   1      41.245  31.765  30.448  1.00  0.00     0.031 C 
ATOM     48  C   UNL A   1      39.374  27.176  29.684  1.00  0.00     0.029 A 
ATOM     49  N   UNL A   1      41.365  27.634  28.772  1.00  0.00    -0.354 N 
ATOM     50  C   UNL A   1      43.199  31.524  29.289  1.00  0.00     0.074 A 
ATOM     51  C   UNL A   1      42.339  32.396  30.058  1.00  0.00     0.031 C 
ATOM     52  C   UNL A   1      39.802  26.064  29.062  1.00  0.00     0.029 A 
ATOM     53  C   UNL A   1      41.086  26.338  28.418  1.00  0.00     0.049 A 
ATOM     54  H   UNL A   1      42.197  28.095  28.519  1.00  0.00     0.167 HD
ATOM     55  C   UNL A   1      44.417  31.877  28.814  1.00  0.00     0.037 A 
ATOM     56  C   UNL A   1      41.785  25.483  27.646  1.00  0.00     0.037 A 
ATOM     57  C   UNL A   1      45.264  31.002  28.047  1.00  0.00     0.049 A 
ATOM     58  C   UNL A   1      43.096  25.931  27.048  1.00  0.00     0.074 A 
ATOM     59  C   UNL A   1      46.529  31.250  27.543  1.00  0.00     0.029 A 
ATOM     60  N   UNL A   1      44.922  29.715  27.658  1.00  0.00    -0.354 N 
ATOM     61  N   UNL A   1      43.734  27.067  27.200  1.00  0.00    -0.248 NA
ATOM     62  C   UNL A   1      43.782  24.975  26.169  1.00  0.00     0.031 C 
ATOM     63  C   UNL A   1      46.919  30.141  26.786  1.00  0.00     0.029 A 
ATOM     64  C   UNL A   1      45.933  29.171  26.882  1.00  0.00     0.049 A 
ATOM     65  H   UNL A   1      44.084  29.256  27.896  1.00  0.00     0.167 HD
ATOM     66  C   UNL A   1      44.912  26.946  26.471  1.00  0.00     0.074 A 
ATOM     67  C   UNL A   1      44.902  25.624  25.883  1.00  0.00     0.031 C 
ATOM     68  C   UNL A   1      45.913  27.848  26.308  1.00  0.00     0.037 A 
BRANCH  55  69
ATOM     69  C   UNL A   1      44.872  33.286  29.066  1.00  0.00     0.064 A 
ATOM     70  C   UNL A   1      45.539  33.658  30.243  1.00  0.00     0.173 A 
ATOM     71  C   UNL A   1      44.630  34.285  28.110  1.00  0.00     0.173 A 
ATOM     72  F   UNL A   1      45.783  32.747  31.198  1.00  0.00    -0.203 F 
ATOM     73  C   UNL A   1      45.906  34.982  30.474  1.00  0.00     0.198 A 
ATOM     74  C   UNL A   1      45.032  35.600  28.326  1.00  0.00     0.198 A 
ATOM     75  F   UNL A   1      43.998  33.987  26.964  1.00  0.00    -0.203 F 
ATOM     76  F   UNL A   1      46.476  35.325  31.636  1.00  0.00    -0.200 F 
ATOM     77  C   UNL A   1      45.657  35.950  29.513  1.00  0.00     0.200 A 
ATOM     78  F   UNL A   1      44.803  36.530  27.389  1.00  0.00    -0.200 F 
ATOM     79  F   UNL A   1      46.009  37.224  29.735  1.00  0.00    -0.200 F 
ENDBRANCH  55  69
BRANCH  56  80
ATOM     80  C   UNL A   1      41.267  24.112  27.397  1.00  0.00     0.064 A 
ATOM     81  C   UNL A   1      40.142  23.905  26.586  1.00  0.00     0.173 A 
ATOM     82  C   UNL A   1      41.873  22.984  27.970  1.00  0.00     0.173 A 
ATOM     83  F   UNL A   1      39.512  24.954  26.037  1.00  0.00    -0.203 F 
ATOM     84  C   UNL A   1      39.634  22.626  26.371  1.00  0.00     0.198 A 
ATOM     85  C   UNL A   1      41.383  21.702  27.729  1.00  0.00     0.198 A 
ATOM     86  F   UNL A   1      42.950  23.126  28.758  1.00  0.00    -0.203 F 
ATOM     87  F   UNL A   1      38.531  22.462  25.629  1.00  0.00    -0.200 F 
ATOM     88  C   UNL A   1      40.260  21.525  26.936  1.00  0.00     0.200 A 
ATOM     89  F   UNL A   1      41.999  20.640  28.267  1.00  0.00    -0.200 F 
ATOM     90  F   UNL A   1      39.776  20.293  26.723  1.00  0.00    -0.200 F 
ENDBRANCH  56  80
BRANCH  68  91
ATOM     91  C   UNL A   1      47.108  27.421  25.501  1.00  0.00     0.064 A 
ATOM     92  C   UNL A   1      47.230  27.718  24.136  1.00  0.00     0.173 A 
ATOM     93  C   UNL A   1      48.170  26.738  26.118  1.00  0.00     0.173 A 
ATOM     94  F   UNL A   1      46.240  28.356  23.493  1.00  0.00    -0.203 F 
ATOM     95  C   UNL A   1      48.353  27.323  23.413  1.00  0.00     0.198 A 
ATOM     96  C   UNL A   1      49.307  26.379  25.400  1.00  0.00     0.198 A 
ATOM     97  F   UNL A   1      48.113  26.436  27.424  1.00  0.00    -0.203 F 
ATOM     98  F   UNL A   1      48.421  27.570  22.097  1.00  0.00    -0.200 F 
ATOM     99  C   UNL A   1      49.395  26.663  24.047  1.00  0.00     0.200 A 
ATOM    100  F   UNL A   1      50.321  25.758  26.021  1.00  0.00    -0.200 F 
ATOM    101  F   UNL A   1      50.479  26.292  23.351  1.00  0.00    -0.200 F 
ENDBRANCH  68  91
ENDBRANCH  42  43
ENDBRANCH  35  37
ENDBRANCH  34  35
ENDBRANCH  33  34
ENDBRANCH  32  33
ENDBRANCH  31  32
ENDBRANCH  30  31
ENDBRANCH  29  30
ENDBRANCH   1  29
TORSDOF 22
ENDMDL
MODEL 3
REMARK VINA RESULT:     -11.2      1.228      2.210
REMARK SMILES Cc1ccc2oc(C(=O)N[C@@H]3C=C[C@H](C(=O)OCCOCCOCCOCCOC(=O)c4ccc(-c5c6nc(c(-c7c(F)c(F)c(F)c(F)c7F)c7ccc([nH]7)c(-c7c(F)c(F)c(F)c(F)c7F)c7nc(c(-c8c(F)c(F)c(F)c(F)c8F)c8ccc5[nH]8)C=C7)C=C6)cc4)C3)cc2c1
REMARK SMILES IDX 23 1 22 2 21 3 20 4 19 5 18 6 17 7 15 8 16 9 14 10 11 11
REMARK SMILES IDX 12 12 95 13 13 14 10 15 8 16 9 17 7 19 1 20 2 21 3 22 98 23
REMARK SMILES IDX 4 24 97 25 5 26 96 27 6 28 24 29 25 30 26 31 27 32 28 33
REMARK SMILES IDX 29 34 30 35 31 36 32 37 33 38 94 39 34 40 93 41 35 42 36 43
REMARK SMILES IDX 37 44 87 45 38 46 92 47 86 48 88 49 39 50 91 51 85 52 84 53
REMARK SMILES IDX 40 55 72 56 52 57 71 58 53 59 56 60 70 61 89 62 54 63 55 64
REMARK SMILES IDX 69 66 90 67 57 68 41 69 42 70 50 71 43 72 44 73 48 74 51 75
REMARK SMILES IDX 45 76 46 77 49 78 47 79 73 80 74 81 82 82 75 83 76 84 80 85
REMARK SMILES IDX 83 86 77 87 78 88 81 89 79 90 58 91 59 92 67 93 60 94 61 95
REMARK SMILES IDX 65 96 68 97 62 98 63 99 66 100 64 101
REMARK H PARENT 10 18 88 54 56 65
REMARK Flexibility Score: inf
ROOT
ATOM      1  O   UNL A   1      33.622  34.128  29.683  1.00  0.00    -0.377 OA
ENDROOT
BRANCH   1   2
ATOM      2  C   UNL A   1      34.813  33.765  29.013  1.00  0.00     0.188 C 
BRANCH   2   3
ATOM      3  C   UNL A   1      35.113  32.257  29.041  1.00  0.00     0.188 C 
BRANCH   3   4
ATOM      4  O   UNL A   1      34.014  31.468  28.615  1.00  0.00    -0.376 OA
BRANCH   4   5
ATOM      5  C   UNL A   1      33.781  31.243  27.231  1.00  0.00     0.202 C 
BRANCH   5   6
ATOM      6  C   UNL A   1      32.976  30.027  26.709  1.00  0.00     0.261 C 
BRANCH   6   7
ATOM      7  O   UNL A   1      33.004  29.768  25.295  1.00  0.00    -0.463 OA
BRANCH   7   8
ATOM      8  C   UNL A   1      32.548  28.546  24.940  1.00  0.00     0.312 C 
ATOM      9  O   UNL A   1      33.237  27.535  25.001  1.00  0.00    -0.252 OA
BRANCH   8  10
ATOM     10  C   UNL A   1      31.026  28.549  24.717  1.00  0.00     0.124 C 
ATOM     11  C   UNL A   1      30.565  27.216  22.758  1.00  0.00     0.106 C 
ATOM     12  C   UNL A   1      30.083  28.604  22.573  1.00  0.00    -0.006 C 
ATOM     13  C   UNL A   1      30.622  27.134  24.287  1.00  0.00     0.048 C 
ATOM     14  C   UNL A   1      30.376  29.359  23.644  1.00  0.00    -0.014 C 
BRANCH  11  15
ATOM     15  N   UNL A   1      31.805  26.904  22.036  1.00  0.00    -0.343 N 
ATOM     16  C   UNL A   1      32.720  25.870  21.870  1.00  0.00     0.287 C 
ATOM     17  O   UNL A   1      33.477  26.022  20.904  1.00  0.00    -0.266 OA
ATOM     18  H   UNL A   1      32.077  27.679  21.492  1.00  0.00     0.164 HD
BRANCH  16  19
ATOM     19  C   UNL A   1      32.800  24.699  22.734  1.00  0.00     0.192 A 
ATOM     20  C   UNL A   1      32.766  18.993  24.551  1.00  0.00     0.044 C 
ATOM     21  C   UNL A   1      33.143  20.436  24.369  1.00  0.00    -0.050 A 
ATOM     22  C   UNL A   1      34.445  20.895  24.627  1.00  0.00     0.007 A 
ATOM     23  C   UNL A   1      32.179  21.329  23.881  1.00  0.00     0.015 A 
ATOM     24  C   UNL A   1      34.850  22.203  24.296  1.00  0.00     0.048 A 
ATOM     25  C   UNL A   1      32.552  22.655  23.623  1.00  0.00     0.021 A 
ATOM     26  C   UNL A   1      33.880  23.029  23.733  1.00  0.00     0.135 A 
ATOM     27  C   UNL A   1      31.871  23.837  23.273  1.00  0.00     0.065 A 
ATOM     28  O   UNL A   1      34.048  24.274  23.183  1.00  0.00    -0.451 OA
ENDBRANCH  16  19
ENDBRANCH  11  15
ENDBRANCH   8  10
ENDBRANCH   7   8
ENDBRANCH   6   7
ENDBRANCH   5   6
ENDBRANCH   4   5
ENDBRANCH   3   4
ENDBRANCH   2   3
ENDBRANCH   1   2
BRANCH   1  29
ATOM     29  C   UNL A   1      33.574  35.415  30.294  1.00  0.00     0.188 C 
BRANCH  29  30
ATOM     30  C   UNL A   1      32.924  35.656  31.683  1.00  0.00     0.188 C 
BRANCH  30  31
ATOM     31  O   UNL A   1      32.897  34.541  32.560  1.00  0.00    -0.376 OA
BRANCH  31  32
ATOM     32  C   UNL A   1      34.078  34.152  33.240  1.00  0.00     0.202 C 
BRANCH  32  33
ATOM     33  C   UNL A   1      34.737  32.824  32.834  1.00  0.00     0.261 C 
BRANCH  33  34
ATOM     34  O   UNL A   1      36.022  32.560  33.411  1.00  0.00    -0.460 OA
BRANCH  34  35
ATOM     35  C   UNL A   1      37.048  33.341  33.002  1.00  0.00     0.338 C 
ATOM     36  O   UNL A   1      37.310  34.465  33.365  1.00  0.00    -0.246 OA
BRANCH  35  37
ATOM     37  C   UNL A   1      37.936  32.501  32.168  1.00  0.00     0.060 A 
ATOM     38  C   UNL A   1      38.776  31.574  32.799  1.00  0.00     0.016 A 
ATOM     39  C   UNL A   1      37.920  32.614  30.777  1.00  0.00     0.016 A 
ATOM     40  C   UNL A   1      39.638  30.784  32.041  1.00  0.00     0.010 A 
ATOM     41  C   UNL A   1      38.804  31.845  30.019  1.00  0.00     0.010 A 
ATOM     42  C   UNL A   1      39.694  30.958  30.652  1.00  0.00    -0.014 A 
BRANCH  42  43
ATOM     43  C   UNL A   1      40.837  30.399  29.896  1.00  0.00     0.031 A 
ATOM     44  C   UNL A   1      42.011  31.300  29.628  1.00  0.00     0.074 A 
ATOM     45  C   UNL A   1      40.850  29.123  29.478  1.00  0.00     0.049 A 
ATOM     46  N   UNL A   1      43.108  31.066  28.956  1.00  0.00    -0.248 NA
ATOM     47  C   UNL A   1      41.930  32.655  30.196  1.00  0.00     0.031 C 
ATOM     48  C   UNL A   1      39.800  28.140  29.729  1.00  0.00     0.029 A 
ATOM     49  N   UNL A   1      41.788  28.441  28.747  1.00  0.00    -0.354 N 
ATOM     50  C   UNL A   1      43.837  32.247  29.006  1.00  0.00     0.074 A 
ATOM     51  C   UNL A   1      43.045  33.205  29.746  1.00  0.00     0.031 C 
ATOM     52  C   UNL A   1      40.153  26.974  29.159  1.00  0.00     0.029 A 
ATOM     53  C   UNL A   1      41.432  27.144  28.471  1.00  0.00     0.049 A 
ATOM     54  H   UNL A   1      42.637  28.842  28.449  1.00  0.00     0.167 HD
ATOM     55  C   UNL A   1      45.058  32.509  28.484  1.00  0.00     0.037 A 
ATOM     56  C   UNL A   1      42.065  26.213  27.730  1.00  0.00     0.037 A 
ATOM     57  C   UNL A   1      45.838  31.550  27.746  1.00  0.00     0.049 A 
ATOM     58  C   UNL A   1      43.381  26.557  27.077  1.00  0.00     0.074 A 
ATOM     59  C   UNL A   1      47.100  31.702  27.200  1.00  0.00     0.029 A 
ATOM     60  N   UNL A   1      45.419  30.264  27.436  1.00  0.00    -0.354 N 
ATOM     61  N   UNL A   1      44.082  27.663  27.152  1.00  0.00    -0.248 NA
ATOM     62  C   UNL A   1      43.992  25.519  26.236  1.00  0.00     0.031 C 
ATOM     63  C   UNL A   1      47.412  30.535  26.495  1.00  0.00     0.029 A 
ATOM     64  C   UNL A   1      46.379  29.626  26.668  1.00  0.00     0.049 A 
ATOM     65  H   UNL A   1      44.565  29.864  27.719  1.00  0.00     0.167 HD
ATOM     66  C   UNL A   1      45.232  27.441  26.403  1.00  0.00     0.074 A 
ATOM     67  C   UNL A   1      45.137  26.091  25.889  1.00  0.00     0.031 C 
ATOM     68  C   UNL A   1      46.275  28.278  26.168  1.00  0.00     0.037 A 
BRANCH  55  69
ATOM     69  C   UNL A   1      45.594  33.903  28.648  1.00  0.00     0.064 A 
ATOM     70  C   UNL A   1      46.304  34.302  29.790  1.00  0.00     0.173 A 
ATOM     71  C   UNL A   1      45.384  34.859  27.641  1.00  0.00     0.173 A 
ATOM     72  F   UNL A   1      46.519  33.434  30.790  1.00  0.00    -0.203 F 
ATOM     73  C   UNL A   1      46.746  35.616  29.938  1.00  0.00     0.198 A 
ATOM     74  C   UNL A   1      45.861  36.160  27.776  1.00  0.00     0.198 A 
ATOM     75  F   UNL A   1      44.713  34.533  26.526  1.00  0.00    -0.203 F 
ATOM     76  F   UNL A   1      47.358  35.991  31.069  1.00  0.00    -0.200 F 
ATOM     77  C   UNL A   1      46.529  36.541  28.929  1.00  0.00     0.200 A 
ATOM     78  F   UNL A   1      45.662  37.048  26.791  1.00  0.00    -0.200 F 
ATOM     79  F   UNL A   1      46.952  37.804  29.072  1.00  0.00    -0.200 F 
ENDBRANCH  55  69
BRANCH  56  80
ATOM     80  C   UNL A   1      41.470  24.860  27.569  1.00  0.00     0.064 A 
ATOM     81  C   UNL A   1      42.030  23.747  28.211  1.00  0.00     0.173 A 
ATOM     82  C   UNL A   1      40.341  24.647  26.764  1.00  0.00     0.173 A 
ATOM     83  F   UNL A   1      43.126  23.896  28.971  1.00  0.00    -0.203 F 
ATOM     84  C   UNL A   1      41.496  22.472  28.044  1.00  0.00     0.198 A 
ATOM     85  C   UNL A   1      39.788  23.376  26.621  1.00  0.00     0.198 A 
ATOM     86  F   UNL A   1      39.768  25.676  26.122  1.00  0.00    -0.203 F 
ATOM     87  F   UNL A   1      42.079  21.420  28.633  1.00  0.00    -0.200 F 
ATOM     88  C   UNL A   1      40.370  22.289  27.254  1.00  0.00     0.200 A 
ATOM     89  F   UNL A   1      38.692  23.205  25.868  1.00  0.00    -0.200 F 
ATOM     90  F   UNL A   1      39.851  21.063  27.098  1.00  0.00    -0.200 F 
ENDBRANCH  56  80
BRANCH  68  91
ATOM     91  C   UNL A   1      47.423  27.744  25.357  1.00  0.00     0.064 A 
ATOM     92  C   UNL A   1      47.455  27.838  23.958  1.00  0.00     0.173 A 
ATOM     93  C   UNL A   1      48.533  27.167  25.998  1.00  0.00     0.173 A 
ATOM     94  F   UNL A   1      46.417  28.368  23.293  1.00  0.00    -0.203 F 
ATOM     95  C   UNL A   1      48.537  27.348  23.230  1.00  0.00     0.198 A 
ATOM     96  C   UNL A   1      49.629  26.714  25.270  1.00  0.00     0.198 A 
ATOM     97  F   UNL A   1      48.562  27.060  27.335  1.00  0.00    -0.203 F 
ATOM     98  F   UNL A   1      48.519  27.399  21.890  1.00  0.00    -0.200 F 
ATOM     99  C   UNL A   1      49.627  26.796  23.886  1.00  0.00     0.200 A 
ATOM    100  F   UNL A   1      50.688  26.198  25.908  1.00  0.00    -0.200 F 
ATOM    101  F   UNL A   1      50.671  26.334  23.184  1.00  0.00    -0.200 F 
ENDBRANCH  68  91
ENDBRANCH  42  43
ENDBRANCH  35  37
ENDBRANCH  34  35
ENDBRANCH  33  34
ENDBRANCH  32  33
ENDBRANCH  31  32
ENDBRANCH  30  31
ENDBRANCH  29  30
ENDBRANCH   1  29
TORSDOF 22
ENDMDL
