MODEL 1
REMARK VINA RESULT:      -8.2      0.000      0.000
REMARK SMILES O=C(CSc1nc2cnccc2n1CCC1CC1)OCCOCCOCCOCCOC(=O)c1ccc(-c2c3nc(c(-c4c(F)c(F)c(F)c(F)c4F)c4ccc([nH]4)c(-c4c(F)c(F)c(F)c(F)c4F)c4nc(c(-c5c(F)c(F)c(F)c(F)c5F)c5ccc2[nH]5)C=C4)C=C3)cc1
REMARK SMILES IDX 23 1 22 2 21 3 20 4 19 5 2 6 1 7 3 8 4 9 5 10 6 11 13 12
REMARK SMILES IDX 7 13 12 14 8 15 11 16 9 17 10 18 14 19 15 20 16 21 17 22
REMARK SMILES IDX 18 23 24 24 25 25 26 26 27 27 28 28 29 29 30 30 31 31 32 32
REMARK SMILES IDX 33 33 34 34 35 35 96 36 36 37 95 38 37 39 38 40 39 41 89 42
REMARK SMILES IDX 40 43 94 44 88 45 90 46 41 47 93 48 87 49 86 50 42 52 74 53
REMARK SMILES IDX 54 54 73 55 55 56 58 57 72 58 91 59 56 60 57 61 71 63 92 64
REMARK SMILES IDX 59 65 43 66 44 67 52 68 45 69 46 70 50 71 53 72 47 73 48 74
REMARK SMILES IDX 51 75 49 76 75 77 76 78 84 79 77 80 78 81 82 82 85 83 79 84
REMARK SMILES IDX 80 85 83 86 81 87 60 88 61 89 69 90 62 91 63 92 67 93 70 94
REMARK SMILES IDX 64 95 65 96 68 97 66 98
REMARK H PARENT 90 51 58 62
REMARK Flexibility Score: inf
ROOT
ATOM      1  C   UNL A   1      49.575  29.476  27.166  1.00  0.00     0.188 C 
ENDROOT
BRANCH   1   2
ATOM      2  O   UNL A   1      48.606  28.987  26.255  1.00  0.00    -0.376 OA
BRANCH   2   3
ATOM      3  C   UNL A   1      48.553  27.813  25.477  1.00  0.00     0.202 C 
BRANCH   3   4
ATOM      4  C   UNL A   1      47.259  27.117  24.998  1.00  0.00     0.261 C 
BRANCH   4   5
ATOM      5  O   UNL A   1      46.716  26.027  25.746  1.00  0.00    -0.463 OA
BRANCH   5   6
ATOM      6  C   UNL A   1      46.057  25.040  25.098  1.00  0.00     0.316 C 
ATOM      7  O   UNL A   1      46.608  24.326  24.263  1.00  0.00    -0.251 OA
BRANCH   6   8
ATOM      8  C   UNL A   1      44.581  25.080  25.256  1.00  0.00     0.200 C 
BRANCH   8   9
ATOM      9  S   UNL A   1      43.682  23.789  24.480  1.00  0.00    -0.076 SA
BRANCH   9  10
ATOM     10  C   UNL A   1      43.926  22.373  25.423  1.00  0.00     0.169 A 
ATOM     11  N   UNL A   1      44.465  21.305  24.872  1.00  0.00    -0.221 NA
ATOM     12  N   UNL A   1      43.366  22.044  26.626  1.00  0.00    -0.319 N 
ATOM     13  C   UNL A   1      43.780  20.265  25.435  1.00  0.00     0.108 A 
ATOM     14  C   UNL A   1      42.957  20.731  26.455  1.00  0.00     0.072 A 
ATOM     15  C   UNL A   1      43.729  18.914  25.095  1.00  0.00     0.141 A 
ATOM     16  C   UNL A   1      41.983  19.935  27.054  1.00  0.00     0.049 A 
ATOM     17  N   UNL A   1      42.805  18.102  25.674  1.00  0.00    -0.262 NA
ATOM     18  C   UNL A   1      41.950  18.631  26.584  1.00  0.00     0.113 A 
BRANCH  12  19
ATOM     19  C   UNL A   1      43.068  22.792  27.815  1.00  0.00     0.125 C 
BRANCH  19  20
ATOM     20  C   UNL A   1      41.833  23.686  28.045  1.00  0.00     0.025 C 
BRANCH  20  21
ATOM     21  C   UNL A   1      40.838  24.231  27.061  1.00  0.00    -0.009 C 
ATOM     22  C   UNL A   1      39.775  25.283  27.229  1.00  0.00     0.004 C 
ATOM     23  C   UNL A   1      40.957  25.560  26.351  1.00  0.00     0.004 C 
ENDBRANCH  20  21
ENDBRANCH  19  20
ENDBRANCH  12  19
ENDBRANCH   9  10
ENDBRANCH   8   9
ENDBRANCH   6   8
ENDBRANCH   5   6
ENDBRANCH   4   5
ENDBRANCH   3   4
ENDBRANCH   2   3
ENDBRANCH   1   2
BRANCH   1  24
ATOM     24  C   UNL A   1      49.761  30.985  27.181  1.00  0.00     0.188 C 
BRANCH  24  25
ATOM     25  O   UNL A   1      50.624  31.429  26.155  1.00  0.00    -0.377 OA
BRANCH  25  26
ATOM     26  C   UNL A   1      50.545  32.824  25.891  1.00  0.00     0.188 C 
BRANCH  26  27
ATOM     27  C   UNL A   1      49.300  33.514  26.514  1.00  0.00     0.188 C 
BRANCH  27  28
ATOM     28  O   UNL A   1      48.242  33.900  25.651  1.00  0.00    -0.376 OA
BRANCH  28  29
ATOM     29  C   UNL A   1      48.051  35.296  25.487  1.00  0.00     0.202 C 
BRANCH  29  30
ATOM     30  C   UNL A   1      48.701  36.223  26.539  1.00  0.00     0.261 C 
BRANCH  30  31
ATOM     31  O   UNL A   1      47.924  36.381  27.753  1.00  0.00    -0.460 OA
BRANCH  31  32
ATOM     32  C   UNL A   1      46.622  36.759  27.644  1.00  0.00     0.338 C 
ATOM     33  O   UNL A   1      46.190  37.652  26.935  1.00  0.00    -0.246 OA
BRANCH  32  34
ATOM     34  C   UNL A   1      45.749  35.703  28.257  1.00  0.00     0.060 A 
ATOM     35  C   UNL A   1      44.733  35.052  27.555  1.00  0.00     0.016 A 
ATOM     36  C   UNL A   1      45.813  35.555  29.657  1.00  0.00     0.016 A 
ATOM     37  C   UNL A   1      43.762  34.332  28.268  1.00  0.00     0.010 A 
ATOM     38  C   UNL A   1      44.825  34.853  30.368  1.00  0.00     0.010 A 
ATOM     39  C   UNL A   1      43.774  34.249  29.683  1.00  0.00    -0.014 A 
BRANCH  39  40
ATOM     40  C   UNL A   1      42.812  33.309  30.321  1.00  0.00     0.031 A 
ATOM     41  C   UNL A   1      43.155  31.891  30.008  1.00  0.00     0.074 A 
ATOM     42  C   UNL A   1      41.803  33.519  31.204  1.00  0.00     0.049 A 
ATOM     43  N   UNL A   1      42.446  30.995  29.402  1.00  0.00    -0.248 NA
ATOM     44  C   UNL A   1      44.531  31.476  30.323  1.00  0.00     0.031 C 
ATOM     45  C   UNL A   1      41.493  34.736  31.952  1.00  0.00     0.029 A 
ATOM     46  N   UNL A   1      40.849  32.631  31.666  1.00  0.00    -0.354 N 
ATOM     47  C   UNL A   1      43.243  29.851  29.380  1.00  0.00     0.074 A 
ATOM     48  C   UNL A   1      44.553  30.243  29.827  1.00  0.00     0.031 C 
ATOM     49  C   UNL A   1      40.527  34.478  32.865  1.00  0.00     0.029 A 
ATOM     50  C   UNL A   1      40.105  33.092  32.753  1.00  0.00     0.049 A 
ATOM     51  H   UNL A   1      40.706  31.745  31.261  1.00  0.00     0.167 HD
ATOM     52  C   UNL A   1      42.727  28.609  29.194  1.00  0.00     0.037 A 
ATOM     53  C   UNL A   1      39.270  32.384  33.562  1.00  0.00     0.037 A 
ATOM     54  C   UNL A   1      41.441  28.650  28.560  1.00  0.00     0.049 A 
ATOM     55  C   UNL A   1      38.911  31.115  32.886  1.00  0.00     0.074 A 
ATOM     56  C   UNL A   1      40.963  29.082  27.341  1.00  0.00     0.029 A 
ATOM     57  N   UNL A   1      40.342  28.423  29.342  1.00  0.00    -0.354 N 
ATOM     58  N   UNL A   1      38.073  30.990  31.898  1.00  0.00    -0.248 NA
ATOM     59  C   UNL A   1      39.727  29.944  33.165  1.00  0.00     0.031 C 
ATOM     60  C   UNL A   1      39.623  29.496  27.585  1.00  0.00     0.029 A 
ATOM     61  C   UNL A   1      39.345  29.264  28.931  1.00  0.00     0.049 A 
ATOM     62  H   UNL A   1      40.278  27.766  30.073  1.00  0.00     0.167 HD
ATOM     63  C   UNL A   1      38.544  29.910  31.175  1.00  0.00     0.074 A 
ATOM     64  C   UNL A   1      39.470  29.229  32.070  1.00  0.00     0.031 C 
ATOM     65  C   UNL A   1      38.363  29.834  29.826  1.00  0.00     0.037 A 
BRANCH  52  66
ATOM     66  C   UNL A   1      43.239  27.383  29.912  1.00  0.00     0.064 A 
ATOM     67  C   UNL A   1      43.214  27.342  31.320  1.00  0.00     0.173 A 
ATOM     68  C   UNL A   1      44.020  26.384  29.289  1.00  0.00     0.173 A 
ATOM     69  F   UNL A   1      42.537  28.266  32.018  1.00  0.00    -0.203 F 
ATOM     70  C   UNL A   1      43.962  26.411  32.044  1.00  0.00     0.198 A 
ATOM     71  C   UNL A   1      44.717  25.419  30.013  1.00  0.00     0.198 A 
ATOM     72  F   UNL A   1      44.237  26.368  27.968  1.00  0.00    -0.203 F 
ATOM     73  F   UNL A   1      44.009  26.492  33.381  1.00  0.00    -0.200 F 
ATOM     74  C   UNL A   1      44.714  25.451  31.391  1.00  0.00     0.200 A 
ATOM     75  F   UNL A   1      45.456  24.512  29.360  1.00  0.00    -0.200 F 
ATOM     76  F   UNL A   1      45.475  24.594  32.082  1.00  0.00    -0.200 F 
ENDBRANCH  52  66
BRANCH  53  77
ATOM     77  C   UNL A   1      38.931  32.581  35.004  1.00  0.00     0.064 A 
ATOM     78  C   UNL A   1      39.939  32.747  35.978  1.00  0.00     0.173 A 
ATOM     79  C   UNL A   1      37.626  32.906  35.416  1.00  0.00     0.173 A 
ATOM     80  F   UNL A   1      41.223  32.503  35.677  1.00  0.00    -0.203 F 
ATOM     81  C   UNL A   1      39.660  33.246  37.258  1.00  0.00     0.198 A 
ATOM     82  C   UNL A   1      37.346  33.388  36.698  1.00  0.00     0.198 A 
ATOM     83  F   UNL A   1      36.600  32.862  34.554  1.00  0.00    -0.203 F 
ATOM     84  F   UNL A   1      40.658  33.467  38.125  1.00  0.00    -0.200 F 
ATOM     85  C   UNL A   1      38.364  33.578  37.612  1.00  0.00     0.200 A 
ATOM     86  F   UNL A   1      36.090  33.735  37.014  1.00  0.00    -0.200 F 
ATOM     87  F   UNL A   1      38.102  34.120  38.809  1.00  0.00    -0.200 F 
ENDBRANCH  53  77
BRANCH  65  88
ATOM     88  C   UNL A   1      37.217  30.573  29.194  1.00  0.00     0.064 A 
ATOM     89  C   UNL A   1      37.191  31.940  28.891  1.00  0.00     0.173 A 
ATOM     90  C   UNL A   1      36.113  29.802  28.783  1.00  0.00     0.173 A 
ATOM     91  F   UNL A   1      38.247  32.734  29.126  1.00  0.00    -0.203 F 
ATOM     92  C   UNL A   1      36.074  32.503  28.273  1.00  0.00     0.198 A 
ATOM     93  C   UNL A   1      35.053  30.358  28.075  1.00  0.00     0.198 A 
ATOM     94  F   UNL A   1      36.080  28.483  29.035  1.00  0.00    -0.203 F 
ATOM     95  F   UNL A   1      35.989  33.823  28.105  1.00  0.00    -0.200 F 
ATOM     96  C   UNL A   1      35.029  31.714  27.829  1.00  0.00     0.200 A 
ATOM     97  F   UNL A   1      34.061  29.576  27.629  1.00  0.00    -0.200 F 
ATOM     98  F   UNL A   1      34.010  32.263  27.155  1.00  0.00    -0.200 F 
ENDBRANCH  65  88
ENDBRANCH  39  40
ENDBRANCH  32  34
ENDBRANCH  31  32
ENDBRANCH  30  31
ENDBRANCH  29  30
ENDBRANCH  28  29
ENDBRANCH  27  28
ENDBRANCH  26  27
ENDBRANCH  25  26
ENDBRANCH  24  25
ENDBRANCH   1  24
TORSDOF 25
ENDMDL
MODEL 2
REMARK VINA RESULT:      -8.2      4.670      8.770
REMARK SMILES O=C(CSc1nc2cnccc2n1CCC1CC1)OCCOCCOCCOCCOC(=O)c1ccc(-c2c3nc(c(-c4c(F)c(F)c(F)c(F)c4F)c4ccc([nH]4)c(-c4c(F)c(F)c(F)c(F)c4F)c4nc(c(-c5c(F)c(F)c(F)c(F)c5F)c5ccc2[nH]5)C=C4)C=C3)cc1
REMARK SMILES IDX 23 1 22 2 21 3 20 4 19 5 2 6 1 7 3 8 4 9 5 10 6 11 13 12
REMARK SMILES IDX 7 13 12 14 8 15 11 16 9 17 10 18 14 19 15 20 16 21 17 22
REMARK SMILES IDX 18 23 24 24 25 25 26 26 27 27 28 28 29 29 30 30 31 31 32 32
REMARK SMILES IDX 33 33 34 34 35 35 96 36 36 37 95 38 37 39 38 40 39 41 89 42
REMARK SMILES IDX 40 43 94 44 88 45 90 46 41 47 93 48 87 49 86 50 42 52 74 53
REMARK SMILES IDX 54 54 73 55 55 56 58 57 72 58 91 59 56 60 57 61 71 63 92 64
REMARK SMILES IDX 59 65 43 66 44 67 52 68 45 69 46 70 50 71 53 72 47 73 48 74
REMARK SMILES IDX 51 75 49 76 75 77 76 78 84 79 77 80 78 81 82 82 85 83 79 84
REMARK SMILES IDX 80 85 83 86 81 87 60 88 61 89 69 90 62 91 63 92 67 93 70 94
REMARK SMILES IDX 64 95 65 96 68 97 66 98
REMARK H PARENT 90 51 58 62
REMARK Flexibility Score: inf
ROOT
ATOM      1  C   UNL A   1      39.305  21.513  26.078  1.00  0.00     0.188 C 
ENDROOT
BRANCH   1   2
ATOM      2  O   UNL A   1      38.035  21.927  25.603  1.00  0.00    -0.376 OA
BRANCH   2   3
ATOM      3  C   UNL A   1      37.386  23.178  25.620  1.00  0.00     0.202 C 
BRANCH   3   4
ATOM      4  C   UNL A   1      35.934  23.436  25.155  1.00  0.00     0.261 C 
BRANCH   4   5
ATOM      5  O   UNL A   1      35.046  22.337  24.944  1.00  0.00    -0.463 OA
BRANCH   5   6
ATOM      6  C   UNL A   1      34.260  21.914  25.960  1.00  0.00     0.316 C 
ATOM      7  O   UNL A   1      33.776  20.784  25.983  1.00  0.00    -0.251 OA
BRANCH   6   8
ATOM      8  C   UNL A   1      33.801  22.992  26.872  1.00  0.00     0.200 C 
BRANCH   8   9
ATOM      9  S   UNL A   1      32.079  23.324  26.877  1.00  0.00    -0.076 SA
BRANCH   9  10
ATOM     10  C   UNL A   1      31.730  24.178  25.426  1.00  0.00     0.169 A 
ATOM     11  N   UNL A   1      31.816  23.559  24.267  1.00  0.00    -0.221 NA
ATOM     12  N   UNL A   1      31.658  25.529  25.229  1.00  0.00    -0.319 N 
ATOM     13  C   UNL A   1      32.340  24.504  23.430  1.00  0.00     0.108 A 
ATOM     14  C   UNL A   1      32.392  25.736  24.072  1.00  0.00     0.072 A 
ATOM     15  C   UNL A   1      32.874  24.392  22.146  1.00  0.00     0.141 A 
ATOM     16  C   UNL A   1      33.081  26.827  23.546  1.00  0.00     0.049 A 
ATOM     17  N   UNL A   1      33.534  25.443  21.592  1.00  0.00    -0.262 NA
ATOM     18  C   UNL A   1      33.654  26.589  22.305  1.00  0.00     0.113 A 
BRANCH  12  19
ATOM     19  C   UNL A   1      31.123  26.613  26.003  1.00  0.00     0.125 C 
BRANCH  19  20
ATOM     20  C   UNL A   1      31.929  27.593  26.881  1.00  0.00     0.025 C 
BRANCH  20  21
ATOM     21  C   UNL A   1      33.231  28.288  26.607  1.00  0.00    -0.009 C 
ATOM     22  C   UNL A   1      33.533  29.746  26.387  1.00  0.00     0.004 C 
ATOM     23  C   UNL A   1      34.030  29.067  27.626  1.00  0.00     0.004 C 
ENDBRANCH  20  21
ENDBRANCH  19  20
ENDBRANCH  12  19
ENDBRANCH   9  10
ENDBRANCH   8   9
ENDBRANCH   6   8
ENDBRANCH   5   6
ENDBRANCH   4   5
ENDBRANCH   3   4
ENDBRANCH   2   3
ENDBRANCH   1   2
BRANCH   1  24
ATOM     24  C   UNL A   1      39.622  20.036  25.903  1.00  0.00     0.188 C 
BRANCH  24  25
ATOM     25  O   UNL A   1      40.990  19.754  26.113  1.00  0.00    -0.377 OA
BRANCH  25  26
ATOM     26  C   UNL A   1      41.699  20.784  26.788  1.00  0.00     0.188 C 
BRANCH  26  27
ATOM     27  C   UNL A   1      42.714  21.545  25.890  1.00  0.00     0.188 C 
BRANCH  27  28
ATOM     28  O   UNL A   1      44.049  21.066  25.829  1.00  0.00    -0.376 OA
BRANCH  28  29
ATOM     29  C   UNL A   1      45.002  21.952  25.265  1.00  0.00     0.202 C 
BRANCH  29  30
ATOM     30  C   UNL A   1      44.482  22.982  24.237  1.00  0.00     0.261 C 
BRANCH  30  31
ATOM     31  O   UNL A   1      44.215  24.295  24.792  1.00  0.00    -0.460 OA
BRANCH  31  32
ATOM     32  C   UNL A   1      45.265  25.028  25.252  1.00  0.00     0.338 C 
ATOM     33  O   UNL A   1      46.353  25.141  24.715  1.00  0.00    -0.246 OA
BRANCH  32  34
ATOM     34  C   UNL A   1      44.783  25.952  26.334  1.00  0.00     0.060 A 
ATOM     35  C   UNL A   1      43.493  25.900  26.861  1.00  0.00     0.016 A 
ATOM     36  C   UNL A   1      45.600  27.060  26.637  1.00  0.00     0.016 A 
ATOM     37  C   UNL A   1      43.018  26.984  27.616  1.00  0.00     0.010 A 
ATOM     38  C   UNL A   1      45.112  28.154  27.372  1.00  0.00     0.010 A 
ATOM     39  C   UNL A   1      43.806  28.138  27.855  1.00  0.00    -0.014 A 
BRANCH  39  40
ATOM     40  C   UNL A   1      43.277  29.140  28.819  1.00  0.00     0.031 A 
ATOM     41  C   UNL A   1      43.028  28.525  30.156  1.00  0.00     0.074 A 
ATOM     42  C   UNL A   1      43.116  30.484  28.721  1.00  0.00     0.049 A 
ATOM     43  N   UNL A   1      41.923  28.435  30.821  1.00  0.00    -0.248 NA
ATOM     44  C   UNL A   1      44.167  27.814  30.759  1.00  0.00     0.031 C 
ATOM     45  C   UNL A   1      43.615  31.382  27.681  1.00  0.00     0.029 A 
ATOM     46  N   UNL A   1      42.493  31.355  29.596  1.00  0.00    -0.354 N 
ATOM     47  C   UNL A   1      42.257  27.770  32.000  1.00  0.00     0.074 A 
ATOM     48  C   UNL A   1      43.605  27.291  31.845  1.00  0.00     0.031 C 
ATOM     49  C   UNL A   1      43.403  32.668  28.046  1.00  0.00     0.029 A 
ATOM     50  C   UNL A   1      42.714  32.706  29.325  1.00  0.00     0.049 A 
ATOM     51  H   UNL A   1      41.940  31.047  30.350  1.00  0.00     0.167 HD
ATOM     52  C   UNL A   1      41.482  27.830  33.113  1.00  0.00     0.037 A 
ATOM     53  C   UNL A   1      42.437  33.779  30.116  1.00  0.00     0.037 A 
ATOM     54  C   UNL A   1      40.131  28.202  32.809  1.00  0.00     0.049 A 
ATOM     55  C   UNL A   1      41.468  33.367  31.160  1.00  0.00     0.074 A 
ATOM     56  C   UNL A   1      39.107  27.650  32.069  1.00  0.00     0.029 A 
ATOM     57  N   UNL A   1      39.744  29.481  33.102  1.00  0.00    -0.354 N 
ATOM     58  N   UNL A   1      40.196  33.162  30.978  1.00  0.00    -0.248 NA
ATOM     59  C   UNL A   1      41.999  32.912  32.435  1.00  0.00     0.031 C 
ATOM     60  C   UNL A   1      38.343  28.755  31.597  1.00  0.00     0.029 A 
ATOM     61  C   UNL A   1      38.924  29.919  32.100  1.00  0.00     0.049 A 
ATOM     62  H   UNL A   1      40.009  29.996  33.899  1.00  0.00     0.167 HD
ATOM     63  C   UNL A   1      39.862  32.193  31.906  1.00  0.00     0.074 A 
ATOM     64  C   UNL A   1      40.967  32.182  32.856  1.00  0.00     0.031 C 
ATOM     65  C   UNL A   1      38.869  31.294  31.657  1.00  0.00     0.037 A 
BRANCH  52  66
ATOM     66  C   UNL A   1      42.047  27.896  34.513  1.00  0.00     0.064 A 
ATOM     67  C   UNL A   1      42.952  28.922  34.848  1.00  0.00     0.173 A 
ATOM     68  C   UNL A   1      41.966  26.831  35.437  1.00  0.00     0.173 A 
ATOM     69  F   UNL A   1      43.141  29.964  34.024  1.00  0.00    -0.203 F 
ATOM     70  C   UNL A   1      43.756  28.853  35.989  1.00  0.00     0.198 A 
ATOM     71  C   UNL A   1      42.725  26.795  36.605  1.00  0.00     0.198 A 
ATOM     72  F   UNL A   1      41.242  25.731  35.196  1.00  0.00    -0.203 F 
ATOM     73  F   UNL A   1      44.694  29.786  36.199  1.00  0.00    -0.200 F 
ATOM     74  C   UNL A   1      43.642  27.789  36.865  1.00  0.00     0.200 A 
ATOM     75  F   UNL A   1      42.615  25.744  37.429  1.00  0.00    -0.200 F 
ATOM     76  F   UNL A   1      44.451  27.692  37.929  1.00  0.00    -0.200 F 
ENDBRANCH  52  66
BRANCH  53  77
ATOM     77  C   UNL A   1      43.125  35.101  30.220  1.00  0.00     0.064 A 
ATOM     78  C   UNL A   1      44.383  35.227  30.847  1.00  0.00     0.173 A 
ATOM     79  C   UNL A   1      42.712  36.208  29.455  1.00  0.00     0.173 A 
ATOM     80  F   UNL A   1      44.888  34.214  31.567  1.00  0.00    -0.203 F 
ATOM     81  C   UNL A   1      45.187  36.364  30.679  1.00  0.00     0.198 A 
ATOM     82  C   UNL A   1      43.506  37.348  29.302  1.00  0.00     0.198 A 
ATOM     83  F   UNL A   1      41.572  36.173  28.751  1.00  0.00    -0.203 F 
ATOM     84  F   UNL A   1      46.410  36.406  31.225  1.00  0.00    -0.200 F 
ATOM     85  C   UNL A   1      44.751  37.418  29.896  1.00  0.00     0.200 A 
ATOM     86  F   UNL A   1      43.084  38.347  28.515  1.00  0.00    -0.200 F 
ATOM     87  F   UNL A   1      45.545  38.475  29.677  1.00  0.00    -0.200 F 
ENDBRANCH  53  77
BRANCH  65  88
ATOM     88  C   UNL A   1      37.777  31.652  30.690  1.00  0.00     0.064 A 
ATOM     89  C   UNL A   1      37.706  31.255  29.348  1.00  0.00     0.173 A 
ATOM     90  C   UNL A   1      36.680  32.369  31.206  1.00  0.00     0.173 A 
ATOM     91  F   UNL A   1      38.638  30.460  28.799  1.00  0.00    -0.203 F 
ATOM     92  C   UNL A   1      36.618  31.630  28.559  1.00  0.00     0.198 A 
ATOM     93  C   UNL A   1      35.556  32.645  30.435  1.00  0.00     0.198 A 
ATOM     94  F   UNL A   1      36.681  32.772  32.487  1.00  0.00    -0.203 F 
ATOM     95  F   UNL A   1      36.612  31.369  27.252  1.00  0.00    -0.200 F 
ATOM     96  C   UNL A   1      35.530  32.284  29.106  1.00  0.00     0.200 A 
ATOM     97  F   UNL A   1      34.499  33.257  30.986  1.00  0.00    -0.200 F 
ATOM     98  F   UNL A   1      34.456  32.551  28.351  1.00  0.00    -0.200 F 
ENDBRANCH  65  88
ENDBRANCH  39  40
ENDBRANCH  32  34
ENDBRANCH  31  32
ENDBRANCH  30  31
ENDBRANCH  29  30
ENDBRANCH  28  29
ENDBRANCH  27  28
ENDBRANCH  26  27
ENDBRANCH  25  26
ENDBRANCH  24  25
ENDBRANCH   1  24
TORSDOF 25
ENDMDL
MODEL 3
REMARK VINA RESULT:      -7.7      4.895     10.283
REMARK SMILES O=C(CSc1nc2cnccc2n1CCC1CC1)OCCOCCOCCOCCOC(=O)c1ccc(-c2c3nc(c(-c4c(F)c(F)c(F)c(F)c4F)c4ccc([nH]4)c(-c4c(F)c(F)c(F)c(F)c4F)c4nc(c(-c5c(F)c(F)c(F)c(F)c5F)c5ccc2[nH]5)C=C4)C=C3)cc1
REMARK SMILES IDX 23 1 22 2 21 3 20 4 19 5 2 6 1 7 3 8 4 9 5 10 6 11 13 12
REMARK SMILES IDX 7 13 12 14 8 15 11 16 9 17 10 18 14 19 15 20 16 21 17 22
REMARK SMILES IDX 18 23 24 24 25 25 26 26 27 27 28 28 29 29 30 30 31 31 32 32
REMARK SMILES IDX 33 33 34 34 35 35 96 36 36 37 95 38 37 39 38 40 39 41 89 42
REMARK SMILES IDX 40 43 94 44 88 45 90 46 41 47 93 48 87 49 86 50 42 52 74 53
REMARK SMILES IDX 54 54 73 55 55 56 58 57 72 58 91 59 56 60 57 61 71 63 92 64
REMARK SMILES IDX 59 65 43 66 44 67 52 68 45 69 46 70 50 71 53 72 47 73 48 74
REMARK SMILES IDX 51 75 49 76 75 77 76 78 84 79 77 80 78 81 82 82 85 83 79 84
REMARK SMILES IDX 80 85 83 86 81 87 60 88 61 89 69 90 62 91 63 92 67 93 70 94
REMARK SMILES IDX 64 95 65 96 68 97 66 98
REMARK H PARENT 90 51 58 62
REMARK Flexibility Score: inf
ROOT
ATOM      1  C   UNL A   1      40.206  21.332  25.955  1.00  0.00     0.188 C 
ENDROOT
BRANCH   1   2
ATOM      2  O   UNL A   1      38.825  21.648  25.985  1.00  0.00    -0.376 OA
BRANCH   2   3
ATOM      3  C   UNL A   1      37.730  21.156  25.245  1.00  0.00     0.202 C 
BRANCH   3   4
ATOM      4  C   UNL A   1      36.902  21.973  24.227  1.00  0.00     0.261 C 
BRANCH   4   5
ATOM      5  O   UNL A   1      35.874  22.853  24.686  1.00  0.00    -0.463 OA
BRANCH   5   6
ATOM      6  C   UNL A   1      34.930  23.281  23.818  1.00  0.00     0.316 C 
ATOM      7  O   UNL A   1      35.200  23.582  22.658  1.00  0.00    -0.251 OA
BRANCH   6   8
ATOM      8  C   UNL A   1      33.630  23.628  24.446  1.00  0.00     0.200 C 
BRANCH   8   9
ATOM      9  S   UNL A   1      32.519  24.563  23.463  1.00  0.00    -0.076 SA
BRANCH   9  10
ATOM     10  C   UNL A   1      32.662  26.201  23.967  1.00  0.00     0.169 A 
ATOM     11  N   UNL A   1      33.836  26.674  24.329  1.00  0.00    -0.221 NA
ATOM     12  N   UNL A   1      31.672  27.061  24.355  1.00  0.00    -0.319 N 
ATOM     13  C   UNL A   1      33.546  27.497  25.381  1.00  0.00     0.108 A 
ATOM     14  C   UNL A   1      32.169  27.639  25.513  1.00  0.00     0.072 A 
ATOM     15  C   UNL A   1      34.377  28.100  26.324  1.00  0.00     0.141 A 
ATOM     16  C   UNL A   1      31.581  28.235  26.625  1.00  0.00     0.049 A 
ATOM     17  N   UNL A   1      33.837  28.710  27.413  1.00  0.00    -0.262 NA
ATOM     18  C   UNL A   1      32.489  28.724  27.552  1.00  0.00     0.113 A 
BRANCH  12  19
ATOM     19  C   UNL A   1      30.342  27.317  23.880  1.00  0.00     0.125 C 
BRANCH  19  20
ATOM     20  C   UNL A   1      29.794  28.672  23.388  1.00  0.00     0.025 C 
BRANCH  20  21
ATOM     21  C   UNL A   1      28.507  28.995  22.683  1.00  0.00    -0.009 C 
ATOM     22  C   UNL A   1      27.080  28.796  23.117  1.00  0.00     0.004 C 
ATOM     23  C   UNL A   1      27.626  30.185  22.987  1.00  0.00     0.004 C 
ENDBRANCH  20  21
ENDBRANCH  19  20
ENDBRANCH  12  19
ENDBRANCH   9  10
ENDBRANCH   8   9
ENDBRANCH   6   8
ENDBRANCH   5   6
ENDBRANCH   4   5
ENDBRANCH   3   4
ENDBRANCH   2   3
ENDBRANCH   1   2
BRANCH   1  24
ATOM     24  C   UNL A   1      40.738  20.599  27.177  1.00  0.00     0.188 C 
BRANCH  24  25
ATOM     25  O   UNL A   1      42.149  20.626  27.245  1.00  0.00    -0.377 OA
BRANCH  25  26
ATOM     26  C   UNL A   1      42.795  20.398  25.999  1.00  0.00     0.188 C 
BRANCH  26  27
ATOM     27  C   UNL A   1      43.817  21.500  25.606  1.00  0.00     0.188 C 
BRANCH  27  28
ATOM     28  O   UNL A   1      43.696  22.777  26.213  1.00  0.00    -0.376 OA
BRANCH  28  29
ATOM     29  C   UNL A   1      43.707  23.889  25.332  1.00  0.00     0.202 C 
BRANCH  29  30
ATOM     30  C   UNL A   1      42.508  24.862  25.414  1.00  0.00     0.261 C 
BRANCH  30  31
ATOM     31  O   UNL A   1      41.507  24.491  26.394  1.00  0.00    -0.460 OA
BRANCH  31  32
ATOM     32  C   UNL A   1      40.346  25.198  26.433  1.00  0.00     0.338 C 
ATOM     33  O   UNL A   1      39.277  24.850  25.962  1.00  0.00    -0.246 OA
BRANCH  32  34
ATOM     34  C   UNL A   1      40.480  26.312  27.431  1.00  0.00     0.060 A 
ATOM     35  C   UNL A   1      40.277  27.654  27.108  1.00  0.00     0.016 A 
ATOM     36  C   UNL A   1      41.071  25.992  28.670  1.00  0.00     0.016 A 
ATOM     37  C   UNL A   1      40.734  28.647  27.988  1.00  0.00     0.010 A 
ATOM     38  C   UNL A   1      41.549  26.989  29.537  1.00  0.00     0.010 A 
ATOM     39  C   UNL A   1      41.404  28.331  29.197  1.00  0.00    -0.014 A 
BRANCH  39  40
ATOM     40  C   UNL A   1      41.676  29.450  30.140  1.00  0.00     0.031 A 
ATOM     41  C   UNL A   1      40.419  30.165  30.508  1.00  0.00     0.074 A 
ATOM     42  C   UNL A   1      42.809  29.823  30.788  1.00  0.00     0.049 A 
ATOM     43  N   UNL A   1      40.104  31.406  30.331  1.00  0.00    -0.248 NA
ATOM     44  C   UNL A   1      39.333  29.325  31.039  1.00  0.00     0.031 C 
ATOM     45  C   UNL A   1      44.070  29.093  30.901  1.00  0.00     0.029 A 
ATOM     46  N   UNL A   1      43.046  30.952  31.551  1.00  0.00    -0.354 N 
ATOM     47  C   UNL A   1      38.820  31.537  30.858  1.00  0.00     0.074 A 
ATOM     48  C   UNL A   1      38.346  30.210  31.145  1.00  0.00     0.031 C 
ATOM     49  C   UNL A   1      44.883  29.716  31.785  1.00  0.00     0.029 A 
ATOM     50  C   UNL A   1      44.234  30.918  32.282  1.00  0.00     0.049 A 
ATOM     51  H   UNL A   1      42.427  31.717  31.576  1.00  0.00     0.167 HD
ATOM     52  C   UNL A   1      38.301  32.739  31.220  1.00  0.00     0.037 A 
ATOM     53  C   UNL A   1      44.631  31.753  33.282  1.00  0.00     0.037 A 
ATOM     54  C   UNL A   1      38.971  33.830  30.575  1.00  0.00     0.049 A 
ATOM     55  C   UNL A   1      43.814  32.989  33.225  1.00  0.00     0.074 A 
ATOM     56  C   UNL A   1      39.138  34.242  29.269  1.00  0.00     0.029 A 
ATOM     57  N   UNL A   1      39.847  34.568  31.323  1.00  0.00    -0.354 N 
ATOM     58  N   UNL A   1      43.947  33.950  32.358  1.00  0.00    -0.248 NA
ATOM     59  C   UNL A   1      42.607  33.041  34.035  1.00  0.00     0.031 C 
ATOM     60  C   UNL A   1      40.397  34.905  29.239  1.00  0.00     0.029 A 
ATOM     61  C   UNL A   1      40.917  34.889  30.533  1.00  0.00     0.049 A 
ATOM     62  H   UNL A   1      39.728  34.825  32.266  1.00  0.00     0.167 HD
ATOM     63  C   UNL A   1      42.675  34.470  32.214  1.00  0.00     0.074 A 
ATOM     64  C   UNL A   1      41.930  33.970  33.362  1.00  0.00     0.031 C 
ATOM     65  C   UNL A   1      42.268  35.015  31.033  1.00  0.00     0.037 A 
BRANCH  52  66
ATOM     66  C   UNL A   1      37.421  32.930  32.433  1.00  0.00     0.064 A 
ATOM     67  C   UNL A   1      36.173  33.567  32.291  1.00  0.00     0.173 A 
ATOM     68  C   UNL A   1      37.880  32.782  33.761  1.00  0.00     0.173 A 
ATOM     69  F   UNL A   1      35.657  33.796  31.074  1.00  0.00    -0.203 F 
ATOM     70  C   UNL A   1      35.472  34.070  33.390  1.00  0.00     0.198 A 
ATOM     71  C   UNL A   1      37.151  33.231  34.859  1.00  0.00     0.198 A 
ATOM     72  F   UNL A   1      39.100  32.307  34.045  1.00  0.00    -0.203 F 
ATOM     73  F   UNL A   1      34.354  34.782  33.196  1.00  0.00    -0.200 F 
ATOM     74  C   UNL A   1      35.962  33.902  34.673  1.00  0.00     0.200 A 
ATOM     75  F   UNL A   1      37.655  33.078  36.091  1.00  0.00    -0.200 F 
ATOM     76  F   UNL A   1      35.321  34.433  35.722  1.00  0.00    -0.200 F 
ENDBRANCH  52  66
BRANCH  53  77
ATOM     77  C   UNL A   1      45.501  31.490  34.467  1.00  0.00     0.064 A 
ATOM     78  C   UNL A   1      45.060  30.682  35.537  1.00  0.00     0.173 A 
ATOM     79  C   UNL A   1      46.879  31.774  34.447  1.00  0.00     0.173 A 
ATOM     80  F   UNL A   1      43.772  30.319  35.628  1.00  0.00    -0.203 F 
ATOM     81  C   UNL A   1      45.947  30.160  36.489  1.00  0.00     0.198 A 
ATOM     82  C   UNL A   1      47.761  31.268  35.406  1.00  0.00     0.198 A 
ATOM     83  F   UNL A   1      47.425  32.467  33.437  1.00  0.00    -0.203 F 
ATOM     84  F   UNL A   1      45.497  29.329  37.440  1.00  0.00    -0.200 F 
ATOM     85  C   UNL A   1      47.299  30.445  36.415  1.00  0.00     0.200 A 
ATOM     86  F   UNL A   1      49.071  31.527  35.302  1.00  0.00    -0.200 F 
ATOM     87  F   UNL A   1      48.159  29.893  37.281  1.00  0.00    -0.200 F 
ENDBRANCH  53  77
BRANCH  65  88
ATOM     88  C   UNL A   1      43.293  35.569  30.085  1.00  0.00     0.064 A 
ATOM     89  C   UNL A   1      43.832  36.862  30.123  1.00  0.00     0.173 A 
ATOM     90  C   UNL A   1      43.828  34.678  29.135  1.00  0.00     0.173 A 
ATOM     91  F   UNL A   1      43.480  37.743  31.072  1.00  0.00    -0.203 F 
ATOM     92  C   UNL A   1      44.804  37.246  29.200  1.00  0.00     0.198 A 
ATOM     93  C   UNL A   1      44.871  35.044  28.291  1.00  0.00     0.198 A 
ATOM     94  F   UNL A   1      43.362  33.421  29.053  1.00  0.00    -0.203 F 
ATOM     95  F   UNL A   1      45.221  38.512  29.147  1.00  0.00    -0.200 F 
ATOM     96  C   UNL A   1      45.352  36.335  28.316  1.00  0.00     0.200 A 
ATOM     97  F   UNL A   1      45.408  34.142  27.459  1.00  0.00    -0.200 F 
ATOM     98  F   UNL A   1      46.351  36.702  27.503  1.00  0.00    -0.200 F 
ENDBRANCH  65  88
ENDBRANCH  39  40
ENDBRANCH  32  34
ENDBRANCH  31  32
ENDBRANCH  30  31
ENDBRANCH  29  30
ENDBRANCH  28  29
ENDBRANCH  27  28
ENDBRANCH  26  27
ENDBRANCH  25  26
ENDBRANCH  24  25
ENDBRANCH   1  24
TORSDOF 25
ENDMDL
