MODEL 1
REMARK VINA RESULT:      -9.6      0.000      0.000
REMARK SMILES CC(C)CN(C)c1cc2c(cc1Cl)C=C(C(=O)OCCOCCOCCOCCOC(=O)c1ccc(-c3c4nc(c(-c5c(F)c(F)c(F)c(F)c5F)c5ccc([nH]5)c(-c5c(F)c(F)c(F)c(F)c5F)c5nc(c(-c6c(F)c(F)c(F)c(F)c6F)c6ccc3[nH]6)C=C5)C=C4)cc1)[C@H](C(F)(F)F)O2
REMARK SMILES IDX 23 1 22 2 21 3 20 4 19 5 18 6 16 7 17 8 15 9 7 10 8 11 12 12
REMARK SMILES IDX 9 13 11 14 13 15 10 16 101 17 14 18 96 19 5 20 6 21 4 22
REMARK SMILES IDX 2 23 1 24 3 25 97 26 98 27 99 28 100 29 24 30 25 31 26 32
REMARK SMILES IDX 27 33 28 34 29 35 30 36 31 37 32 38 33 39 34 40 95 41 35 42
REMARK SMILES IDX 94 43 36 44 37 45 38 46 88 47 39 48 93 49 87 50 89 51 40 52
REMARK SMILES IDX 92 53 86 54 85 55 41 57 73 58 53 59 72 60 54 61 57 62 71 63
REMARK SMILES IDX 90 64 55 65 56 66 70 68 91 69 58 70 42 71 43 72 51 73 44 74
REMARK SMILES IDX 45 75 49 76 52 77 46 78 47 79 50 80 48 81 74 82 75 83 83 84
REMARK SMILES IDX 76 85 77 86 81 87 84 88 78 89 79 90 82 91 80 92 59 93 60 94
REMARK SMILES IDX 68 95 61 96 62 97 66 98 69 99 63 100 64 101 67 102 65 103
REMARK H PARENT 89 56 57 67
REMARK Flexibility Score: inf
ROOT
ATOM      1  C   UNL A   1      40.843  21.481  27.629  1.00  0.00     0.188 C 
ENDROOT
BRANCH   1   2
ATOM      2  C   UNL A   1      40.321  20.803  26.351  1.00  0.00     0.188 C 
BRANCH   2   3
ATOM      3  O   UNL A   1      39.431  21.605  25.583  1.00  0.00    -0.376 OA
BRANCH   3   4
ATOM      4  C   UNL A   1      38.621  22.507  26.326  1.00  0.00     0.202 C 
BRANCH   4   5
ATOM      5  C   UNL A   1      37.464  23.132  25.533  1.00  0.00     0.261 C 
BRANCH   5   6
ATOM      6  O   UNL A   1      37.066  22.347  24.397  1.00  0.00    -0.460 OA
BRANCH   6   7
ATOM      7  C   UNL A   1      35.965  21.594  24.543  1.00  0.00     0.338 C 
ATOM      8  O   UNL A   1      35.937  20.433  24.917  1.00  0.00    -0.246 OA
BRANCH   7   9
ATOM      9  C   UNL A   1      34.752  22.415  24.357  1.00  0.00     0.087 C 
ATOM     10  C   UNL A   1      32.124  26.651  23.564  1.00  0.00     0.059 A 
ATOM     11  C   UNL A   1      31.874  25.445  24.253  1.00  0.00     0.074 A 
ATOM     12  C   UNL A   1      33.349  26.743  22.868  1.00  0.00     0.065 A 
ATOM     13  C   UNL A   1      32.800  24.393  24.253  1.00  0.00     0.130 A 
ATOM     14  C   UNL A   1      34.212  25.650  22.767  1.00  0.00     0.034 A 
ATOM     15  Cl  UNL A   1      33.956  28.230  22.219  1.00  0.00    -0.082 Cl
ATOM     16  C   UNL A   1      33.946  24.479  23.472  1.00  0.00     0.019 A 
ATOM     17  O   UNL A   1      32.536  23.335  25.076  1.00  0.00    -0.475 OA
ATOM     18  C   UNL A   1      34.931  23.420  23.491  1.00  0.00     0.027 C 
ATOM     19  C   UNL A   1      33.543  22.281  25.249  1.00  0.00     0.316 C 
BRANCH  10  20
ATOM     20  N   UNL A   1      31.215  27.718  23.629  1.00  0.00    -0.373 N 
ATOM     21  C   UNL A   1      30.196  27.747  22.579  1.00  0.00     0.143 C 
BRANCH  20  22
ATOM     22  C   UNL A   1      31.703  29.034  24.102  1.00  0.00     0.119 C 
BRANCH  22  23
ATOM     23  C   UNL A   1      31.434  29.278  25.601  1.00  0.00     0.002 C 
ATOM     24  C   UNL A   1      32.317  28.393  26.485  1.00  0.00     0.009 C 
ATOM     25  C   UNL A   1      31.647  30.743  25.993  1.00  0.00     0.009 C 
ENDBRANCH  22  23
ENDBRANCH  20  22
ENDBRANCH  10  20
BRANCH  19  26
ATOM     26  C   UNL A   1      32.774  20.948  25.189  1.00  0.00     0.430 C 
ATOM     27  F   UNL A   1      33.281  20.028  26.035  1.00  0.00    -0.167 F 
ATOM     28  F   UNL A   1      31.453  21.084  25.429  1.00  0.00    -0.167 F 
ATOM     29  F   UNL A   1      32.863  20.420  23.937  1.00  0.00    -0.167 F 
ENDBRANCH  19  26
ENDBRANCH   7   9
ENDBRANCH   6   7
ENDBRANCH   5   6
ENDBRANCH   4   5
ENDBRANCH   3   4
ENDBRANCH   2   3
ENDBRANCH   1   2
BRANCH   1  30
ATOM     30  O   UNL A   1      42.235  21.442  27.892  1.00  0.00    -0.377 OA
BRANCH  30  31
ATOM     31  C   UNL A   1      43.104  22.368  27.250  1.00  0.00     0.188 C 
BRANCH  31  32
ATOM     32  C   UNL A   1      43.901  23.416  28.055  1.00  0.00     0.188 C 
BRANCH  32  33
ATOM     33  O   UNL A   1      45.313  23.309  27.957  1.00  0.00    -0.376 OA
BRANCH  33  34
ATOM     34  C   UNL A   1      45.989  24.427  27.398  1.00  0.00     0.202 C 
BRANCH  34  35
ATOM     35  C   UNL A   1      45.646  24.708  25.931  1.00  0.00     0.261 C 
BRANCH  35  36
ATOM     36  O   UNL A   1      44.515  25.570  25.720  1.00  0.00    -0.460 OA
BRANCH  36  37
ATOM     37  C   UNL A   1      44.740  26.892  25.554  1.00  0.00     0.338 C 
ATOM     38  O   UNL A   1      45.308  27.444  24.629  1.00  0.00    -0.246 OA
BRANCH  37  39
ATOM     39  C   UNL A   1      44.004  27.590  26.626  1.00  0.00     0.060 A 
ATOM     40  C   UNL A   1      42.994  26.925  27.323  1.00  0.00     0.016 A 
ATOM     41  C   UNL A   1      44.305  28.929  26.908  1.00  0.00     0.016 A 
ATOM     42  C   UNL A   1      42.298  27.596  28.328  1.00  0.00     0.010 A 
ATOM     43  C   UNL A   1      43.602  29.600  27.911  1.00  0.00     0.010 A 
ATOM     44  C   UNL A   1      42.608  28.930  28.642  1.00  0.00    -0.014 A 
BRANCH  44  45
ATOM     45  C   UNL A   1      42.017  29.545  29.853  1.00  0.00     0.031 A 
ATOM     46  C   UNL A   1      40.672  30.202  29.839  1.00  0.00     0.074 A 
ATOM     47  C   UNL A   1      42.733  29.484  30.993  1.00  0.00     0.049 A 
ATOM     48  N   UNL A   1      39.998  30.704  30.844  1.00  0.00    -0.248 NA
ATOM     49  C   UNL A   1      39.994  30.317  28.541  1.00  0.00     0.031 C 
ATOM     50  C   UNL A   1      44.068  28.896  31.110  1.00  0.00     0.029 A 
ATOM     51  N   UNL A   1      42.442  29.912  32.263  1.00  0.00    -0.354 N 
ATOM     52  C   UNL A   1      38.810  31.179  30.306  1.00  0.00     0.074 A 
ATOM     53  C   UNL A   1      38.870  30.941  28.879  1.00  0.00     0.031 C 
ATOM     54  C   UNL A   1      44.476  28.987  32.385  1.00  0.00     0.029 A 
ATOM     55  C   UNL A   1      43.441  29.655  33.168  1.00  0.00     0.049 A 
ATOM     56  H   UNL A   1      41.599  30.360  32.502  1.00  0.00     0.167 HD
ATOM     57  C   UNL A   1      37.765  31.743  30.958  1.00  0.00     0.037 A 
ATOM     58  C   UNL A   1      43.517  29.926  34.484  1.00  0.00     0.037 A 
ATOM     59  C   UNL A   1      37.713  31.973  32.381  1.00  0.00     0.049 A 
ATOM     60  C   UNL A   1      42.348  30.576  35.169  1.00  0.00     0.074 A 
ATOM     61  C   UNL A   1      36.666  32.483  33.132  1.00  0.00     0.029 A 
ATOM     62  N   UNL A   1      38.751  31.721  33.266  1.00  0.00    -0.354 N 
ATOM     63  N   UNL A   1      41.192  30.934  34.666  1.00  0.00    -0.248 NA
ATOM     64  C   UNL A   1      42.488  30.847  36.607  1.00  0.00     0.031 C 
ATOM     65  C   UNL A   1      37.088  32.588  34.460  1.00  0.00     0.029 A 
ATOM     66  C   UNL A   1      38.379  32.096  34.548  1.00  0.00     0.049 A 
ATOM     67  H   UNL A   1      39.621  31.333  33.020  1.00  0.00     0.167 HD
ATOM     68  C   UNL A   1      40.463  31.456  35.724  1.00  0.00     0.074 A 
ATOM     69  C   UNL A   1      41.295  31.346  36.903  1.00  0.00     0.031 C 
ATOM     70  C   UNL A   1      39.214  31.984  35.716  1.00  0.00     0.037 A 
BRANCH  57  71
ATOM     71  C   UNL A   1      36.557  32.142  30.163  1.00  0.00     0.064 A 
ATOM     72  C   UNL A   1      36.334  33.480  29.808  1.00  0.00     0.173 A 
ATOM     73  C   UNL A   1      35.708  31.166  29.620  1.00  0.00     0.173 A 
ATOM     74  F   UNL A   1      37.120  34.450  30.299  1.00  0.00    -0.203 F 
ATOM     75  C   UNL A   1      35.307  33.826  28.931  1.00  0.00     0.198 A 
ATOM     76  C   UNL A   1      34.695  31.513  28.728  1.00  0.00     0.198 A 
ATOM     77  F   UNL A   1      35.888  29.871  29.918  1.00  0.00    -0.203 F 
ATOM     78  F   UNL A   1      35.110  35.112  28.606  1.00  0.00    -0.200 F 
ATOM     79  C   UNL A   1      34.498  32.843  28.383  1.00  0.00     0.200 A 
ATOM     80  F   UNL A   1      33.926  30.560  28.184  1.00  0.00    -0.200 F 
ATOM     81  F   UNL A   1      33.533  33.174  27.513  1.00  0.00    -0.200 F 
ENDBRANCH  57  71
BRANCH  58  82
ATOM     82  C   UNL A   1      44.741  29.563  35.241  1.00  0.00     0.064 A 
ATOM     83  C   UNL A   1      45.858  30.408  35.255  1.00  0.00     0.173 A 
ATOM     84  C   UNL A   1      44.819  28.364  35.965  1.00  0.00     0.173 A 
ATOM     85  F   UNL A   1      45.838  31.557  34.563  1.00  0.00    -0.203 F 
ATOM     86  C   UNL A   1      47.015  30.058  35.948  1.00  0.00     0.198 A 
ATOM     87  C   UNL A   1      45.964  28.030  36.682  1.00  0.00     0.198 A 
ATOM     88  F   UNL A   1      43.773  27.525  35.988  1.00  0.00    -0.203 F 
ATOM     89  F   UNL A   1      48.087  30.863  35.905  1.00  0.00    -0.200 F 
ATOM     90  C   UNL A   1      47.065  28.872  36.664  1.00  0.00     0.200 A 
ATOM     91  F   UNL A   1      46.003  26.890  37.385  1.00  0.00    -0.200 F 
ATOM     92  F   UNL A   1      48.178  28.538  37.333  1.00  0.00    -0.200 F 
ENDBRANCH  58  82
BRANCH  70  93
ATOM     93  C   UNL A   1      38.664  32.481  37.020  1.00  0.00     0.064 A 
ATOM     94  C   UNL A   1      37.851  31.670  37.827  1.00  0.00     0.173 A 
ATOM     95  C   UNL A   1      38.999  33.756  37.498  1.00  0.00     0.173 A 
ATOM     96  F   UNL A   1      37.490  30.447  37.407  1.00  0.00    -0.203 F 
ATOM     97  C   UNL A   1      37.383  32.124  39.057  1.00  0.00     0.198 A 
ATOM     98  C   UNL A   1      38.553  34.197  38.741  1.00  0.00     0.198 A 
ATOM     99  F   UNL A   1      39.778  34.569  36.768  1.00  0.00    -0.203 F 
ATOM    100  F   UNL A   1      36.577  31.346  39.792  1.00  0.00    -0.200 F 
ATOM    101  C   UNL A   1      37.741  33.382  39.517  1.00  0.00     0.200 A 
ATOM    102  F   UNL A   1      38.913  35.406  39.191  1.00  0.00    -0.200 F 
ATOM    103  F   UNL A   1      37.301  33.811  40.707  1.00  0.00    -0.200 F 
ENDBRANCH  70  93
ENDBRANCH  44  45
ENDBRANCH  37  39
ENDBRANCH  36  37
ENDBRANCH  35  36
ENDBRANCH  34  35
ENDBRANCH  33  34
ENDBRANCH  32  33
ENDBRANCH  31  32
ENDBRANCH  30  31
ENDBRANCH   1  30
TORSDOF 24
ENDMDL
MODEL 2
REMARK VINA RESULT:      -9.4      5.124      9.887
REMARK SMILES CC(C)CN(C)c1cc2c(cc1Cl)C=C(C(=O)OCCOCCOCCOCCOC(=O)c1ccc(-c3c4nc(c(-c5c(F)c(F)c(F)c(F)c5F)c5ccc([nH]5)c(-c5c(F)c(F)c(F)c(F)c5F)c5nc(c(-c6c(F)c(F)c(F)c(F)c6F)c6ccc3[nH]6)C=C5)C=C4)cc1)[C@H](C(F)(F)F)O2
REMARK SMILES IDX 23 1 22 2 21 3 20 4 19 5 18 6 16 7 17 8 15 9 7 10 8 11 12 12
REMARK SMILES IDX 9 13 11 14 13 15 10 16 101 17 14 18 96 19 5 20 6 21 4 22
REMARK SMILES IDX 2 23 1 24 3 25 97 26 98 27 99 28 100 29 24 30 25 31 26 32
REMARK SMILES IDX 27 33 28 34 29 35 30 36 31 37 32 38 33 39 34 40 95 41 35 42
REMARK SMILES IDX 94 43 36 44 37 45 38 46 88 47 39 48 93 49 87 50 89 51 40 52
REMARK SMILES IDX 92 53 86 54 85 55 41 57 73 58 53 59 72 60 54 61 57 62 71 63
REMARK SMILES IDX 90 64 55 65 56 66 70 68 91 69 58 70 42 71 43 72 51 73 44 74
REMARK SMILES IDX 45 75 49 76 52 77 46 78 47 79 50 80 48 81 74 82 75 83 83 84
REMARK SMILES IDX 76 85 77 86 81 87 84 88 78 89 79 90 82 91 80 92 59 93 60 94
REMARK SMILES IDX 68 95 61 96 62 97 66 98 69 99 63 100 64 101 67 102 65 103
REMARK H PARENT 89 56 57 67
REMARK Flexibility Score: inf
ROOT
ATOM      1  C   UNL A   1      37.633  29.870  28.690  1.00  0.00     0.188 C 
ENDROOT
BRANCH   1   2
ATOM      2  C   UNL A   1      36.741  29.977  27.441  1.00  0.00     0.188 C 
BRANCH   2   3
ATOM      3  O   UNL A   1      35.537  30.709  27.641  1.00  0.00    -0.376 OA
BRANCH   3   4
ATOM      4  C   UNL A   1      34.347  29.931  27.683  1.00  0.00     0.202 C 
BRANCH   4   5
ATOM      5  C   UNL A   1      33.213  30.447  26.785  1.00  0.00     0.261 C 
BRANCH   5   6
ATOM      6  O   UNL A   1      33.212  29.855  25.475  1.00  0.00    -0.460 OA
BRANCH   6   7
ATOM      7  C   UNL A   1      32.157  29.089  25.163  1.00  0.00     0.338 C 
ATOM      8  O   UNL A   1      31.002  29.469  25.062  1.00  0.00    -0.246 OA
BRANCH   7   9
ATOM      9  C   UNL A   1      32.600  27.733  24.780  1.00  0.00     0.087 C 
ATOM     10  C   UNL A   1      34.045  22.959  25.561  1.00  0.00     0.059 A 
ATOM     11  C   UNL A   1      34.322  23.930  24.574  1.00  0.00     0.074 A 
ATOM     12  C   UNL A   1      33.115  23.319  26.561  1.00  0.00     0.065 A 
ATOM     13  C   UNL A   1      33.712  25.192  24.591  1.00  0.00     0.130 A 
ATOM     14  C   UNL A   1      32.417  24.527  26.505  1.00  0.00     0.034 A 
ATOM     15  Cl  UNL A   1      32.872  22.387  28.001  1.00  0.00    -0.082 Cl
ATOM     16  C   UNL A   1      32.726  25.470  25.529  1.00  0.00     0.019 A 
ATOM     17  O   UNL A   1      34.165  26.110  23.688  1.00  0.00    -0.475 OA
ATOM     18  C   UNL A   1      32.114  26.780  25.585  1.00  0.00     0.027 C 
ATOM     19  C   UNL A   1      33.687  27.496  23.762  1.00  0.00     0.316 C 
BRANCH  10  20
ATOM     20  N   UNL A   1      34.714  21.727  25.566  1.00  0.00    -0.373 N 
ATOM     21  C   UNL A   1      36.126  21.775  25.949  1.00  0.00     0.143 C 
BRANCH  20  22
ATOM     22  C   UNL A   1      34.348  20.720  24.543  1.00  0.00     0.119 C 
BRANCH  22  23
ATOM     23  C   UNL A   1      32.834  20.435  24.486  1.00  0.00     0.002 C 
ATOM     24  C   UNL A   1      32.200  21.001  23.213  1.00  0.00     0.009 C 
ATOM     25  C   UNL A   1      32.526  18.937  24.572  1.00  0.00     0.009 C 
ENDBRANCH  22  23
ENDBRANCH  20  22
ENDBRANCH  10  20
BRANCH  19  26
ATOM     26  C   UNL A   1      33.389  27.919  22.311  1.00  0.00     0.430 C 
ATOM     27  F   UNL A   1      34.430  28.566  21.744  1.00  0.00    -0.167 F 
ATOM     28  F   UNL A   1      33.031  26.887  21.519  1.00  0.00    -0.167 F 
ATOM     29  F   UNL A   1      32.334  28.779  22.288  1.00  0.00    -0.167 F 
ENDBRANCH  19  26
ENDBRANCH   7   9
ENDBRANCH   6   7
ENDBRANCH   5   6
ENDBRANCH   4   5
ENDBRANCH   3   4
ENDBRANCH   2   3
ENDBRANCH   1   2
BRANCH   1  30
ATOM     30  O   UNL A   1      37.505  30.860  29.695  1.00  0.00    -0.377 OA
BRANCH  30  31
ATOM     31  C   UNL A   1      37.722  32.229  29.373  1.00  0.00     0.188 C 
BRANCH  31  32
ATOM     32  C   UNL A   1      37.082  33.364  30.203  1.00  0.00     0.188 C 
BRANCH  32  33
ATOM     33  O   UNL A   1      35.665  33.426  30.152  1.00  0.00    -0.376 OA
BRANCH  33  34
ATOM     34  C   UNL A   1      34.967  32.567  31.044  1.00  0.00     0.202 C 
BRANCH  34  35
ATOM     35  C   UNL A   1      35.365  32.721  32.516  1.00  0.00     0.261 C 
BRANCH  35  36
ATOM     36  O   UNL A   1      36.157  31.648  33.053  1.00  0.00    -0.460 OA
BRANCH  36  37
ATOM     37  C   UNL A   1      37.054  31.938  34.021  1.00  0.00     0.338 C 
ATOM     38  O   UNL A   1      36.845  32.448  35.106  1.00  0.00    -0.246 OA
BRANCH  37  39
ATOM     39  C   UNL A   1      38.341  31.351  33.602  1.00  0.00     0.060 A 
ATOM     40  C   UNL A   1      38.359  30.274  32.713  1.00  0.00     0.016 A 
ATOM     41  C   UNL A   1      39.535  31.861  34.129  1.00  0.00     0.016 A 
ATOM     42  C   UNL A   1      39.580  29.721  32.329  1.00  0.00     0.010 A 
ATOM     43  C   UNL A   1      40.756  31.301  33.748  1.00  0.00     0.010 A 
ATOM     44  C   UNL A   1      40.787  30.241  32.828  1.00  0.00    -0.014 A 
BRANCH  44  45
ATOM     45  C   UNL A   1      42.069  29.790  32.238  1.00  0.00     0.031 A 
ATOM     46  C   UNL A   1      42.709  30.496  31.084  1.00  0.00     0.074 A 
ATOM     47  C   UNL A   1      42.660  28.712  32.790  1.00  0.00     0.049 A 
ATOM     48  N   UNL A   1      43.869  30.260  30.524  1.00  0.00    -0.248 NA
ATOM     49  C   UNL A   1      41.959  31.601  30.473  1.00  0.00     0.031 C 
ATOM     50  C   UNL A   1      42.106  27.930  33.896  1.00  0.00     0.029 A 
ATOM     51  N   UNL A   1      43.849  28.092  32.503  1.00  0.00    -0.354 N 
ATOM     52  C   UNL A   1      44.000  31.197  29.509  1.00  0.00     0.074 A 
ATOM     53  C   UNL A   1      42.783  31.982  29.502  1.00  0.00     0.031 C 
ATOM     54  C   UNL A   1      42.961  26.944  34.205  1.00  0.00     0.029 A 
ATOM     55  C   UNL A   1      44.110  27.012  33.308  1.00  0.00     0.049 A 
ATOM     56  H   UNL A   1      44.456  28.393  31.789  1.00  0.00     0.167 HD
ATOM     57  C   UNL A   1      45.053  31.385  28.677  1.00  0.00     0.037 A 
ATOM     58  C   UNL A   1      45.159  26.169  33.324  1.00  0.00     0.037 A 
ATOM     59  C   UNL A   1      46.262  30.600  28.694  1.00  0.00     0.049 A 
ATOM     60  C   UNL A   1      46.297  26.394  32.369  1.00  0.00     0.074 A 
ATOM     61  C   UNL A   1      47.404  30.764  27.926  1.00  0.00     0.029 A 
ATOM     62  N   UNL A   1      46.485  29.499  29.507  1.00  0.00    -0.354 N 
ATOM     63  N   UNL A   1      46.450  27.341  31.476  1.00  0.00    -0.248 NA
ATOM     64  C   UNL A   1      47.415  25.441  32.432  1.00  0.00     0.031 C 
ATOM     65  C   UNL A   1      48.295  29.734  28.238  1.00  0.00     0.029 A 
ATOM     66  C   UNL A   1      47.732  28.957  29.236  1.00  0.00     0.049 A 
ATOM     67  H   UNL A   1      45.852  29.155  30.178  1.00  0.00     0.167 HD
ATOM     68  C   UNL A   1      47.683  27.110  30.885  1.00  0.00     0.074 A 
ATOM     69  C   UNL A   1      48.250  25.948  31.536  1.00  0.00     0.031 C 
ATOM     70  C   UNL A   1      48.288  27.799  29.888  1.00  0.00     0.037 A 
BRANCH  57  71
ATOM     71  C   UNL A   1      44.982  32.501  27.676  1.00  0.00     0.064 A 
ATOM     72  C   UNL A   1      44.279  32.350  26.472  1.00  0.00     0.173 A 
ATOM     73  C   UNL A   1      45.482  33.773  27.992  1.00  0.00     0.173 A 
ATOM     74  F   UNL A   1      43.780  31.153  26.127  1.00  0.00    -0.203 F 
ATOM     75  C   UNL A   1      44.074  33.435  25.623  1.00  0.00     0.198 A 
ATOM     76  C   UNL A   1      45.257  34.861  27.150  1.00  0.00     0.198 A 
ATOM     77  F   UNL A   1      46.150  33.973  29.138  1.00  0.00    -0.203 F 
ATOM     78  F   UNL A   1      43.400  33.269  24.476  1.00  0.00    -0.200 F 
ATOM     79  C   UNL A   1      44.551  34.691  25.969  1.00  0.00     0.200 A 
ATOM     80  F   UNL A   1      45.702  36.077  27.495  1.00  0.00    -0.200 F 
ATOM     81  F   UNL A   1      44.322  35.741  25.167  1.00  0.00    -0.200 F 
ENDBRANCH  57  71
BRANCH  58  82
ATOM     82  C   UNL A   1      45.184  25.044  34.292  1.00  0.00     0.064 A 
ATOM     83  C   UNL A   1      45.655  25.226  35.599  1.00  0.00     0.173 A 
ATOM     84  C   UNL A   1      44.737  23.764  33.930  1.00  0.00     0.173 A 
ATOM     85  F   UNL A   1      46.111  26.427  35.986  1.00  0.00    -0.203 F 
ATOM     86  C   UNL A   1      45.699  24.165  36.501  1.00  0.00     0.198 A 
ATOM     87  C   UNL A   1      44.752  22.713  34.842  1.00  0.00     0.198 A 
ATOM     88  F   UNL A   1      44.270  23.542  32.693  1.00  0.00    -0.203 F 
ATOM     89  F   UNL A   1      46.200  24.355  37.730  1.00  0.00    -0.200 F 
ATOM     90  C   UNL A   1      45.243  22.911  36.123  1.00  0.00     0.200 A 
ATOM     91  F   UNL A   1      44.297  21.506  34.478  1.00  0.00    -0.200 F 
ATOM     92  F   UNL A   1      45.283  21.893  36.993  1.00  0.00    -0.200 F 
ENDBRANCH  58  82
BRANCH  70  93
ATOM     93  C   UNL A   1      49.637  27.323  29.436  1.00  0.00     0.064 A 
ATOM     94  C   UNL A   1      50.813  27.748  30.072  1.00  0.00     0.173 A 
ATOM     95  C   UNL A   1      49.754  26.388  28.397  1.00  0.00     0.173 A 
ATOM     96  F   UNL A   1      50.755  28.653  31.062  1.00  0.00    -0.203 F 
ATOM     97  C   UNL A   1      52.057  27.264  29.675  1.00  0.00     0.198 A 
ATOM     98  C   UNL A   1      50.997  25.885  28.021  1.00  0.00     0.198 A 
ATOM     99  F   UNL A   1      48.660  25.945  27.758  1.00  0.00    -0.203 F 
ATOM    100  F   UNL A   1      53.169  27.714  30.273  1.00  0.00    -0.200 F 
ATOM    101  C   UNL A   1      52.147  26.328  28.657  1.00  0.00     0.200 A 
ATOM    102  F   UNL A   1      51.081  24.968  27.047  1.00  0.00    -0.200 F 
ATOM    103  F   UNL A   1      53.344  25.853  28.287  1.00  0.00    -0.200 F 
ENDBRANCH  70  93
ENDBRANCH  44  45
ENDBRANCH  37  39
ENDBRANCH  36  37
ENDBRANCH  35  36
ENDBRANCH  34  35
ENDBRANCH  33  34
ENDBRANCH  32  33
ENDBRANCH  31  32
ENDBRANCH  30  31
ENDBRANCH   1  30
TORSDOF 24
ENDMDL
MODEL 3
REMARK VINA RESULT:      -9.2      5.075     11.092
REMARK SMILES CC(C)CN(C)c1cc2c(cc1Cl)C=C(C(=O)OCCOCCOCCOCCOC(=O)c1ccc(-c3c4nc(c(-c5c(F)c(F)c(F)c(F)c5F)c5ccc([nH]5)c(-c5c(F)c(F)c(F)c(F)c5F)c5nc(c(-c6c(F)c(F)c(F)c(F)c6F)c6ccc3[nH]6)C=C5)C=C4)cc1)[C@H](C(F)(F)F)O2
REMARK SMILES IDX 23 1 22 2 21 3 20 4 19 5 18 6 16 7 17 8 15 9 7 10 8 11 12 12
REMARK SMILES IDX 9 13 11 14 13 15 10 16 101 17 14 18 96 19 5 20 6 21 4 22
REMARK SMILES IDX 2 23 1 24 3 25 97 26 98 27 99 28 100 29 24 30 25 31 26 32
REMARK SMILES IDX 27 33 28 34 29 35 30 36 31 37 32 38 33 39 34 40 95 41 35 42
REMARK SMILES IDX 94 43 36 44 37 45 38 46 88 47 39 48 93 49 87 50 89 51 40 52
REMARK SMILES IDX 92 53 86 54 85 55 41 57 73 58 53 59 72 60 54 61 57 62 71 63
REMARK SMILES IDX 90 64 55 65 56 66 70 68 91 69 58 70 42 71 43 72 51 73 44 74
REMARK SMILES IDX 45 75 49 76 52 77 46 78 47 79 50 80 48 81 74 82 75 83 83 84
REMARK SMILES IDX 76 85 77 86 81 87 84 88 78 89 79 90 82 91 80 92 59 93 60 94
REMARK SMILES IDX 68 95 61 96 62 97 66 98 69 99 63 100 64 101 67 102 65 103
REMARK H PARENT 89 56 57 67
REMARK Flexibility Score: inf
ROOT
ATOM      1  C   UNL A   1      37.941  30.006  29.037  1.00  0.00     0.188 C 
ENDROOT
BRANCH   1   2
ATOM      2  C   UNL A   1      37.205  30.078  27.688  1.00  0.00     0.188 C 
BRANCH   2   3
ATOM      3  O   UNL A   1      35.812  30.354  27.793  1.00  0.00    -0.376 OA
BRANCH   3   4
ATOM      4  C   UNL A   1      34.946  29.296  27.400  1.00  0.00     0.202 C 
BRANCH   4   5
ATOM      5  C   UNL A   1      33.501  29.726  27.111  1.00  0.00     0.261 C 
BRANCH   5   6
ATOM      6  O   UNL A   1      33.210  29.829  25.706  1.00  0.00    -0.460 OA
BRANCH   6   7
ATOM      7  C   UNL A   1      32.140  29.151  25.264  1.00  0.00     0.338 C 
ATOM      8  O   UNL A   1      31.026  29.614  25.081  1.00  0.00    -0.246 OA
BRANCH   7   9
ATOM      9  C   UNL A   1      32.528  27.787  24.854  1.00  0.00     0.087 C 
ATOM     10  C   UNL A   1      33.769  22.941  25.537  1.00  0.00     0.059 A 
ATOM     11  C   UNL A   1      34.092  23.921  24.573  1.00  0.00     0.074 A 
ATOM     12  C   UNL A   1      32.849  23.318  26.541  1.00  0.00     0.065 A 
ATOM     13  C   UNL A   1      33.535  25.206  24.614  1.00  0.00     0.130 A 
ATOM     14  C   UNL A   1      32.203  24.555  26.508  1.00  0.00     0.034 A 
ATOM     15  Cl  UNL A   1      32.559  22.366  27.958  1.00  0.00    -0.082 Cl
ATOM     16  C   UNL A   1      32.556  25.505  25.554  1.00  0.00     0.019 A 
ATOM     17  O   UNL A   1      34.031  26.124  23.734  1.00  0.00    -0.475 OA
ATOM     18  C   UNL A   1      31.999  26.838  25.636  1.00  0.00     0.027 C 
ATOM     19  C   UNL A   1      33.610  27.527  23.836  1.00  0.00     0.316 C 
BRANCH  10  20
ATOM     20  N   UNL A   1      34.387  21.682  25.518  1.00  0.00    -0.373 N 
ATOM     21  C   UNL A   1      35.735  21.630  26.083  1.00  0.00     0.143 C 
BRANCH  20  22
ATOM     22  C   UNL A   1      34.123  20.783  24.371  1.00  0.00     0.119 C 
BRANCH  22  23
ATOM     23  C   UNL A   1      32.822  19.971  24.522  1.00  0.00     0.002 C 
ATOM     24  C   UNL A   1      32.476  19.213  23.238  1.00  0.00     0.009 C 
ATOM     25  C   UNL A   1      32.896  18.974  25.683  1.00  0.00     0.009 C 
ENDBRANCH  22  23
ENDBRANCH  20  22
ENDBRANCH  10  20
BRANCH  19  26
ATOM     26  C   UNL A   1      33.339  27.993  22.393  1.00  0.00     0.430 C 
ATOM     27  F   UNL A   1      32.321  28.877  22.325  1.00  0.00    -0.167 F 
ATOM     28  F   UNL A   1      34.423  28.526  21.793  1.00  0.00    -0.167 F 
ATOM     29  F   UNL A   1      32.985  26.927  21.623  1.00  0.00    -0.167 F 
ENDBRANCH  19  26
ENDBRANCH   7   9
ENDBRANCH   6   7
ENDBRANCH   5   6
ENDBRANCH   4   5
ENDBRANCH   3   4
ENDBRANCH   2   3
ENDBRANCH   1   2
BRANCH   1  30
ATOM     30  O   UNL A   1      37.695  31.022  29.993  1.00  0.00    -0.377 OA
BRANCH  30  31
ATOM     31  C   UNL A   1      37.729  32.389  29.599  1.00  0.00     0.188 C 
BRANCH  31  32
ATOM     32  C   UNL A   1      37.176  33.505  30.512  1.00  0.00     0.188 C 
BRANCH  32  33
ATOM     33  O   UNL A   1      35.763  33.632  30.525  1.00  0.00    -0.376 OA
BRANCH  33  34
ATOM     34  C   UNL A   1      35.074  32.864  31.503  1.00  0.00     0.202 C 
BRANCH  34  35
ATOM     35  C   UNL A   1      35.456  33.189  32.951  1.00  0.00     0.261 C 
BRANCH  35  36
ATOM     36  O   UNL A   1      36.047  32.105  33.687  1.00  0.00    -0.460 OA
BRANCH  36  37
ATOM     37  C   UNL A   1      36.973  32.399  34.626  1.00  0.00     0.338 C 
ATOM     38  O   UNL A   1      36.803  32.953  35.697  1.00  0.00    -0.246 OA
BRANCH  37  39
ATOM     39  C   UNL A   1      38.233  31.758  34.202  1.00  0.00     0.060 A 
ATOM     40  C   UNL A   1      38.205  30.712  33.277  1.00  0.00     0.016 A 
ATOM     41  C   UNL A   1      39.444  32.185  34.761  1.00  0.00     0.016 A 
ATOM     42  C   UNL A   1      39.400  30.107  32.889  1.00  0.00     0.010 A 
ATOM     43  C   UNL A   1      40.639  31.572  34.376  1.00  0.00     0.010 A 
ATOM     44  C   UNL A   1      40.626  30.544  33.420  1.00  0.00    -0.014 A 
BRANCH  44  45
ATOM     45  C   UNL A   1      41.889  30.044  32.830  1.00  0.00     0.031 A 
ATOM     46  C   UNL A   1      42.585  28.824  33.350  1.00  0.00     0.074 A 
ATOM     47  C   UNL A   1      42.397  30.723  31.784  1.00  0.00     0.049 A 
ATOM     48  N   UNL A   1      43.650  28.227  32.875  1.00  0.00    -0.248 NA
ATOM     49  C   UNL A   1      42.025  28.193  34.552  1.00  0.00     0.031 C 
ATOM     50  C   UNL A   1      41.818  31.943  31.219  1.00  0.00     0.029 A 
ATOM     51  N   UNL A   1      43.504  30.489  31.010  1.00  0.00    -0.354 N 
ATOM     52  C   UNL A   1      43.879  27.140  33.707  1.00  0.00     0.074 A 
ATOM     53  C   UNL A   1      42.866  27.181  34.741  1.00  0.00     0.031 C 
ATOM     54  C   UNL A   1      42.565  32.342  30.179  1.00  0.00     0.029 A 
ATOM     55  C   UNL A   1      43.684  31.419  30.017  1.00  0.00     0.049 A 
ATOM     56  H   UNL A   1      44.111  29.727  31.152  1.00  0.00     0.167 HD
ATOM     57  C   UNL A   1      44.841  26.192  33.596  1.00  0.00     0.037 A 
ATOM     58  C   UNL A   1      44.644  31.519  29.078  1.00  0.00     0.037 A 
ATOM     59  C   UNL A   1      45.844  26.158  32.560  1.00  0.00     0.049 A 
ATOM     60  C   UNL A   1      45.709  30.462  29.001  1.00  0.00     0.074 A 
ATOM     61  C   UNL A   1      46.818  25.198  32.337  1.00  0.00     0.029 A 
ATOM     62  N   UNL A   1      46.011  27.128  31.583  1.00  0.00    -0.354 N 
ATOM     63  N   UNL A   1      45.861  29.388  29.736  1.00  0.00    -0.248 NA
ATOM     64  C   UNL A   1      46.730  30.624  27.956  1.00  0.00     0.031 C 
ATOM     65  C   UNL A   1      47.605  25.613  31.260  1.00  0.00     0.029 A 
ATOM     66  C   UNL A   1      47.092  26.804  30.777  1.00  0.00     0.049 A 
ATOM     67  H   UNL A   1      45.446  27.927  31.477  1.00  0.00     0.167 HD
ATOM     68  C   UNL A   1      46.978  28.739  29.234  1.00  0.00     0.074 A 
ATOM     69  C   UNL A   1      47.455  29.525  28.117  1.00  0.00     0.031 C 
ATOM     70  C   UNL A   1      47.560  27.594  29.667  1.00  0.00     0.037 A 
BRANCH  57  71
ATOM     71  C   UNL A   1      44.865  25.077  34.599  1.00  0.00     0.064 A 
ATOM     72  C   UNL A   1      44.413  23.793  34.266  1.00  0.00     0.173 A 
ATOM     73  C   UNL A   1      45.488  25.254  35.844  1.00  0.00     0.173 A 
ATOM     74  F   UNL A   1      43.812  23.573  33.087  1.00  0.00    -0.203 F 
ATOM     75  C   UNL A   1      44.589  22.722  35.141  1.00  0.00     0.198 A 
ATOM     76  C   UNL A   1      45.682  24.177  36.707  1.00  0.00     0.198 A 
ATOM     77  F   UNL A   1      45.950  26.460  36.205  1.00  0.00    -0.203 F 
ATOM     78  F   UNL A   1      44.148  21.503  34.803  1.00  0.00    -0.200 F 
ATOM     79  C   UNL A   1      45.235  22.913  36.353  1.00  0.00     0.200 A 
ATOM     80  F   UNL A   1      46.323  24.359  37.870  1.00  0.00    -0.200 F 
ATOM     81  F   UNL A   1      45.435  21.875  37.178  1.00  0.00    -0.200 F 
ENDBRANCH  57  71
BRANCH  58  82
ATOM     82  C   UNL A   1      44.625  32.657  28.126  1.00  0.00     0.064 A 
ATOM     83  C   UNL A   1      44.133  32.501  26.823  1.00  0.00     0.173 A 
ATOM     84  C   UNL A   1      45.099  33.924  28.499  1.00  0.00     0.173 A 
ATOM     85  F   UNL A   1      43.687  31.305  26.414  1.00  0.00    -0.203 F 
ATOM     86  C   UNL A   1      44.136  33.564  25.923  1.00  0.00     0.198 A 
ATOM     87  C   UNL A   1      45.072  34.993  27.608  1.00  0.00     0.198 A 
ATOM     88  F   UNL A   1      45.572  34.125  29.737  1.00  0.00    -0.203 F 
ATOM     89  F   UNL A   1      43.704  33.375  24.668  1.00  0.00    -0.200 F 
ATOM     90  C   UNL A   1      44.600  34.810  26.317  1.00  0.00     0.200 A 
ATOM     91  F   UNL A   1      45.508  36.199  27.998  1.00  0.00    -0.200 F 
ATOM     92  F   UNL A   1      44.599  35.832  25.451  1.00  0.00    -0.200 F 
ENDBRANCH  58  82
BRANCH  70  93
ATOM     93  C   UNL A   1      48.775  27.113  28.930  1.00  0.00     0.064 A 
ATOM     94  C   UNL A   1      48.666  26.370  27.745  1.00  0.00     0.173 A 
ATOM     95  C   UNL A   1      50.062  27.448  29.378  1.00  0.00     0.173 A 
ATOM     96  F   UNL A   1      47.457  26.010  27.284  1.00  0.00    -0.203 F 
ATOM     97  C   UNL A   1      49.799  25.968  27.045  1.00  0.00     0.198 A 
ATOM     98  C   UNL A   1      51.192  27.070  28.660  1.00  0.00     0.198 A 
ATOM     99  F   UNL A   1      50.223  28.163  30.502  1.00  0.00    -0.203 F 
ATOM    100  F   UNL A   1      49.670  25.226  25.936  1.00  0.00    -0.200 F 
ATOM    101  C   UNL A   1      51.061  26.325  27.497  1.00  0.00     0.200 A 
ATOM    102  F   UNL A   1      52.410  27.429  29.089  1.00  0.00    -0.200 F 
ATOM    103  F   UNL A   1      52.149  25.949  26.813  1.00  0.00    -0.200 F 
ENDBRANCH  70  93
ENDBRANCH  44  45
ENDBRANCH  37  39
ENDBRANCH  36  37
ENDBRANCH  35  36
ENDBRANCH  34  35
ENDBRANCH  33  34
ENDBRANCH  32  33
ENDBRANCH  31  32
ENDBRANCH  30  31
ENDBRANCH   1  30
TORSDOF 24
ENDMDL
