MODEL 1
REMARK VINA RESULT:     -12.4      0.000      0.000
REMARK SMILES Cc1c(NC(=O)c2cccc(-c3cc4ccccc4oc3=O)c2)cccc1C(=O)OCCOCCOCCOCCOC(=O)c1ccc(-c2c3nc(c(-c4c(F)c(F)c(F)c(F)c4F)c4ccc([nH]4)c(-c4c(F)c(F)c(F)c(F)c4F)c4nc(c(-c5c(F)c(F)c(F)c(F)c5F)c5ccc2[nH]5)C=C4)C=C3)cc1
REMARK SMILES IDX 35 1 34 2 33 3 32 4 31 5 30 6 28 7 29 8 27 9 1 10 2 11 3 12
REMARK SMILES IDX 24 13 26 14 25 15 4 16 5 17 6 19 7 20 8 21 23 22 9 23 11 24
REMARK SMILES IDX 10 25 12 26 13 27 21 28 14 29 20 30 22 31 15 32 19 33 16 34
REMARK SMILES IDX 18 35 17 36 36 37 37 38 38 39 39 40 40 41 41 42 42 43 43 44
REMARK SMILES IDX 44 45 45 46 46 47 107 48 47 49 106 50 48 51 49 52 50 53
REMARK SMILES IDX 100 54 51 55 105 56 99 57 101 58 52 59 104 60 98 61 97 62
REMARK SMILES IDX 53 64 85 65 65 66 84 67 66 68 69 69 83 70 102 71 67 72 68 73
REMARK SMILES IDX 82 75 103 76 70 77 54 78 55 79 63 80 56 81 57 82 61 83 64 84
REMARK SMILES IDX 58 85 59 86 62 87 60 88 86 89 87 90 95 91 88 92 89 93 93 94
REMARK SMILES IDX 96 95 90 96 91 97 94 98 92 99 71 100 72 101 80 102 73 103
REMARK SMILES IDX 74 104 78 105 81 106 75 107 76 108 79 109 77 110
REMARK H PARENT 4 18 101 63 69 74
REMARK Flexibility Score: inf
ROOT
ATOM      1  C   UNL A   1      34.834  32.683  27.998  1.00  0.00     0.188 C 
ENDROOT
BRANCH   1   2
ATOM      2  C   UNL A   1      34.008  31.459  27.628  1.00  0.00     0.188 C 
BRANCH   2   3
ATOM      3  O   UNL A   1      34.853  30.351  27.310  1.00  0.00    -0.376 OA
BRANCH   3   4
ATOM      4  C   UNL A   1      34.124  29.149  27.085  1.00  0.00     0.202 C 
BRANCH   4   5
ATOM      5  C   UNL A   1      32.633  29.416  27.013  1.00  0.00     0.261 C 
BRANCH   5   6
ATOM      6  O   UNL A   1      31.991  28.706  25.941  1.00  0.00    -0.460 OA
BRANCH   6   7
ATOM      7  C   UNL A   1      31.764  27.401  26.238  1.00  0.00     0.338 C 
ATOM      8  O   UNL A   1      31.648  26.918  27.337  1.00  0.00    -0.246 OA
BRANCH   7   9
ATOM      9  C   UNL A   1      31.312  26.668  25.031  1.00  0.00     0.065 A 
ATOM     10  C   UNL A   1      33.606  26.322  23.993  1.00  0.00     0.047 C 
ATOM     11  C   UNL A   1      32.109  26.143  23.984  1.00  0.00    -0.013 A 
ATOM     12  C   UNL A   1      31.446  25.457  22.930  1.00  0.00     0.045 A 
ATOM     13  C   UNL A   1      30.060  25.256  23.009  1.00  0.00     0.026 A 
ATOM     14  C   UNL A   1      29.915  26.536  25.018  1.00  0.00     0.016 A 
ATOM     15  C   UNL A   1      29.291  25.823  24.016  1.00  0.00     0.003 A 
BRANCH  12  16
ATOM     16  N   UNL A   1      32.165  24.971  21.808  1.00  0.00    -0.322 N 
ATOM     17  C   UNL A   1      32.876  23.792  21.605  1.00  0.00     0.255 C 
ATOM     18  H   UNL A   1      32.161  25.577  21.032  1.00  0.00     0.170 HD
ATOM     19  O   UNL A   1      33.625  23.702  20.632  1.00  0.00    -0.269 OA
BRANCH  17  20
ATOM     20  C   UNL A   1      32.682  22.579  22.452  1.00  0.00     0.040 A 
ATOM     21  C   UNL A   1      32.155  21.401  21.937  1.00  0.00     0.014 A 
ATOM     22  C   UNL A   1      32.947  22.639  23.819  1.00  0.00     0.022 A 
ATOM     23  C   UNL A   1      31.992  20.291  22.778  1.00  0.00     0.001 A 
ATOM     24  C   UNL A   1      32.791  21.548  24.694  1.00  0.00    -0.010 A 
ATOM     25  C   UNL A   1      32.320  20.359  24.141  1.00  0.00     0.009 A 
BRANCH  24  26
ATOM     26  C   UNL A   1      33.037  21.614  26.171  1.00  0.00     0.068 A 
ATOM     27  C   UNL A   1      34.131  21.094  26.775  1.00  0.00     0.028 A 
ATOM     28  C   UNL A   1      32.802  22.957  26.813  1.00  0.00     0.344 A 
ATOM     29  C   UNL A   1      35.303  21.880  26.353  1.00  0.00     0.018 A 
ATOM     30  O   UNL A   1      33.909  23.823  26.727  1.00  0.00    -0.422 OA
ATOM     31  O   UNL A   1      31.747  23.262  27.349  1.00  0.00    -0.246 OA
ATOM     32  C   UNL A   1      36.392  21.284  25.750  1.00  0.00     0.012 A 
ATOM     33  C   UNL A   1      35.129  23.272  26.270  1.00  0.00     0.138 A 
ATOM     34  C   UNL A   1      37.299  22.089  25.056  1.00  0.00     0.001 A 
ATOM     35  C   UNL A   1      36.036  24.078  25.593  1.00  0.00     0.048 A 
ATOM     36  C   UNL A   1      37.126  23.472  24.970  1.00  0.00     0.004 A 
ENDBRANCH  24  26
ENDBRANCH  17  20
ENDBRANCH  12  16
ENDBRANCH   7   9
ENDBRANCH   6   7
ENDBRANCH   5   6
ENDBRANCH   4   5
ENDBRANCH   3   4
ENDBRANCH   2   3
ENDBRANCH   1   2
BRANCH   1  37
ATOM     37  O   UNL A   1      34.105  33.898  27.854  1.00  0.00    -0.377 OA
BRANCH  37  38
ATOM     38  C   UNL A   1      34.686  35.095  28.365  1.00  0.00     0.188 C 
BRANCH  38  39
ATOM     39  C   UNL A   1      34.022  36.425  28.038  1.00  0.00     0.188 C 
BRANCH  39  40
ATOM     40  O   UNL A   1      33.523  36.921  29.271  1.00  0.00    -0.376 OA
BRANCH  40  41
ATOM     41  C   UNL A   1      32.579  36.109  29.950  1.00  0.00     0.202 C 
BRANCH  41  42
ATOM     42  C   UNL A   1      32.414  36.625  31.368  1.00  0.00     0.261 C 
BRANCH  42  43
ATOM     43  O   UNL A   1      32.831  35.567  32.265  1.00  0.00    -0.460 OA
BRANCH  43  44
ATOM     44  C   UNL A   1      34.154  35.583  32.587  1.00  0.00     0.338 C 
ATOM     45  O   UNL A   1      34.778  36.587  32.891  1.00  0.00    -0.246 OA
BRANCH  44  46
ATOM     46  C   UNL A   1      34.808  34.269  32.283  1.00  0.00     0.060 A 
ATOM     47  C   UNL A   1      34.647  33.192  33.172  1.00  0.00     0.016 A 
ATOM     48  C   UNL A   1      35.815  34.206  31.324  1.00  0.00     0.016 A 
ATOM     49  C   UNL A   1      35.585  32.143  33.205  1.00  0.00     0.010 A 
ATOM     50  C   UNL A   1      36.805  33.243  31.454  1.00  0.00     0.010 A 
ATOM     51  C   UNL A   1      36.729  32.213  32.410  1.00  0.00    -0.014 A 
BRANCH  51  52
ATOM     52  C   UNL A   1      37.976  31.431  32.615  1.00  0.00     0.031 A 
ATOM     53  C   UNL A   1      38.198  30.174  31.808  1.00  0.00     0.074 A 
ATOM     54  C   UNL A   1      39.020  32.045  33.233  1.00  0.00     0.049 A 
ATOM     55  N   UNL A   1      39.307  29.516  31.732  1.00  0.00    -0.248 NA
ATOM     56  C   UNL A   1      37.160  29.554  30.979  1.00  0.00     0.031 C 
ATOM     57  C   UNL A   1      40.445  31.847  32.970  1.00  0.00     0.029 A 
ATOM     58  N   UNL A   1      39.035  33.056  34.198  1.00  0.00    -0.354 N 
ATOM     59  C   UNL A   1      39.234  28.611  30.683  1.00  0.00     0.074 A 
ATOM     60  C   UNL A   1      37.850  28.636  30.290  1.00  0.00     0.031 C 
ATOM     61  C   UNL A   1      41.195  32.635  33.749  1.00  0.00     0.029 A 
ATOM     62  C   UNL A   1      40.319  33.144  34.760  1.00  0.00     0.049 A 
ATOM     63  H   UNL A   1      38.264  33.618  34.445  1.00  0.00     0.167 HD
ATOM     64  C   UNL A   1      40.385  28.034  30.211  1.00  0.00     0.037 A 
ATOM     65  C   UNL A   1      40.526  32.820  36.070  1.00  0.00     0.037 A 
ATOM     66  C   UNL A   1      41.514  28.273  31.133  1.00  0.00     0.049 A 
ATOM     67  C   UNL A   1      41.244  31.479  36.201  1.00  0.00     0.074 A 
ATOM     68  C   UNL A   1      42.816  28.722  30.995  1.00  0.00     0.029 A 
ATOM     69  N   UNL A   1      41.300  28.188  32.511  1.00  0.00    -0.354 N 
ATOM     70  N   UNL A   1      41.128  30.518  35.306  1.00  0.00    -0.248 NA
ATOM     71  C   UNL A   1      42.308  31.201  37.166  1.00  0.00     0.031 C 
ATOM     72  C   UNL A   1      43.286  29.120  32.282  1.00  0.00     0.029 A 
ATOM     73  C   UNL A   1      42.339  28.743  33.224  1.00  0.00     0.049 A 
ATOM     74  H   UNL A   1      40.504  27.781  32.923  1.00  0.00     0.167 HD
ATOM     75  C   UNL A   1      42.117  29.590  35.499  1.00  0.00     0.074 A 
ATOM     76  C   UNL A   1      42.806  30.041  36.696  1.00  0.00     0.031 C 
ATOM     77  C   UNL A   1      42.422  28.554  34.660  1.00  0.00     0.037 A 
BRANCH  64  78
ATOM     78  C   UNL A   1      40.579  27.390  28.826  1.00  0.00     0.064 A 
ATOM     79  C   UNL A   1      41.256  28.087  27.793  1.00  0.00     0.173 A 
ATOM     80  C   UNL A   1      40.024  26.160  28.407  1.00  0.00     0.173 A 
ATOM     81  F   UNL A   1      41.872  29.253  28.031  1.00  0.00    -0.203 F 
ATOM     82  C   UNL A   1      41.336  27.618  26.472  1.00  0.00     0.198 A 
ATOM     83  C   UNL A   1      40.164  25.659  27.100  1.00  0.00     0.198 A 
ATOM     84  F   UNL A   1      39.280  25.406  29.223  1.00  0.00    -0.203 F 
ATOM     85  F   UNL A   1      41.936  28.365  25.532  1.00  0.00    -0.200 F 
ATOM     86  C   UNL A   1      40.803  26.396  26.127  1.00  0.00     0.200 A 
ATOM     87  F   UNL A   1      39.653  24.457  26.789  1.00  0.00    -0.200 F 
ATOM     88  F   UNL A   1      40.899  25.934  24.872  1.00  0.00    -0.200 F 
ENDBRANCH  64  78
BRANCH  65  89
ATOM     89  C   UNL A   1      39.631  33.650  36.943  1.00  0.00     0.064 A 
ATOM     90  C   UNL A   1      38.626  32.850  37.549  1.00  0.00     0.173 A 
ATOM     91  C   UNL A   1      40.203  34.652  37.748  1.00  0.00     0.173 A 
ATOM     92  F   UNL A   1      38.015  31.900  36.823  1.00  0.00    -0.203 F 
ATOM     93  C   UNL A   1      38.492  32.799  38.938  1.00  0.00     0.198 A 
ATOM     94  C   UNL A   1      40.018  34.633  39.141  1.00  0.00     0.198 A 
ATOM     95  F   UNL A   1      41.122  35.483  37.237  1.00  0.00    -0.203 F 
ATOM     96  F   UNL A   1      37.782  31.809  39.502  1.00  0.00    -0.200 F 
ATOM     97  C   UNL A   1      39.231  33.654  39.734  1.00  0.00     0.200 A 
ATOM     98  F   UNL A   1      40.734  35.456  39.922  1.00  0.00    -0.200 F 
ATOM     99  F   UNL A   1      39.266  33.471  41.062  1.00  0.00    -0.200 F 
ENDBRANCH  65  89
BRANCH  77 100
ATOM    100  C   UNL A   1      42.851  27.185  35.150  1.00  0.00     0.064 A 
ATOM    101  C   UNL A   1      41.973  26.091  35.189  1.00  0.00     0.173 A 
ATOM    102  C   UNL A   1      44.223  26.868  35.349  1.00  0.00     0.173 A 
ATOM    103  F   UNL A   1      40.670  26.230  34.911  1.00  0.00    -0.203 F 
ATOM    104  C   UNL A   1      42.419  24.797  35.451  1.00  0.00     0.198 A 
ATOM    105  C   UNL A   1      44.669  25.567  35.552  1.00  0.00     0.198 A 
ATOM    106  F   UNL A   1      45.188  27.797  35.305  1.00  0.00    -0.203 F 
ATOM    107  F   UNL A   1      41.531  23.795  35.501  1.00  0.00    -0.200 F 
ATOM    108  C   UNL A   1      43.765  24.531  35.618  1.00  0.00     0.200 A 
ATOM    109  F   UNL A   1      45.984  25.322  35.650  1.00  0.00    -0.200 F 
ATOM    110  F   UNL A   1      44.189  23.278  35.819  1.00  0.00    -0.200 F 
ENDBRANCH  77 100
ENDBRANCH  51  52
ENDBRANCH  44  46
ENDBRANCH  43  44
ENDBRANCH  42  43
ENDBRANCH  41  42
ENDBRANCH  40  41
ENDBRANCH  39  40
ENDBRANCH  38  39
ENDBRANCH  37  38
ENDBRANCH   1  37
TORSDOF 23
ENDMDL
MODEL 2
REMARK VINA RESULT:     -11.4      1.407      2.169
REMARK SMILES Cc1c(NC(=O)c2cccc(-c3cc4ccccc4oc3=O)c2)cccc1C(=O)OCCOCCOCCOCCOC(=O)c1ccc(-c2c3nc(c(-c4c(F)c(F)c(F)c(F)c4F)c4ccc([nH]4)c(-c4c(F)c(F)c(F)c(F)c4F)c4nc(c(-c5c(F)c(F)c(F)c(F)c5F)c5ccc2[nH]5)C=C4)C=C3)cc1
REMARK SMILES IDX 35 1 34 2 33 3 32 4 31 5 30 6 28 7 29 8 27 9 1 10 2 11 3 12
REMARK SMILES IDX 24 13 26 14 25 15 4 16 5 17 6 19 7 20 8 21 23 22 9 23 11 24
REMARK SMILES IDX 10 25 12 26 13 27 21 28 14 29 20 30 22 31 15 32 19 33 16 34
REMARK SMILES IDX 18 35 17 36 36 37 37 38 38 39 39 40 40 41 41 42 42 43 43 44
REMARK SMILES IDX 44 45 45 46 46 47 107 48 47 49 106 50 48 51 49 52 50 53
REMARK SMILES IDX 100 54 51 55 105 56 99 57 101 58 52 59 104 60 98 61 97 62
REMARK SMILES IDX 53 64 85 65 65 66 84 67 66 68 69 69 83 70 102 71 67 72 68 73
REMARK SMILES IDX 82 75 103 76 70 77 54 78 55 79 63 80 56 81 57 82 61 83 64 84
REMARK SMILES IDX 58 85 59 86 62 87 60 88 86 89 87 90 95 91 88 92 89 93 93 94
REMARK SMILES IDX 96 95 90 96 91 97 94 98 92 99 71 100 72 101 80 102 73 103
REMARK SMILES IDX 74 104 78 105 81 106 75 107 76 108 79 109 77 110
REMARK H PARENT 4 18 101 63 69 74
REMARK Flexibility Score: inf
ROOT
ATOM      1  C   UNL A   1      35.470  32.822  28.181  1.00  0.00     0.188 C 
ENDROOT
BRANCH   1   2
ATOM      2  C   UNL A   1      35.301  31.349  28.526  1.00  0.00     0.188 C 
BRANCH   2   3
ATOM      3  O   UNL A   1      35.806  30.519  27.477  1.00  0.00    -0.376 OA
BRANCH   3   4
ATOM      4  C   UNL A   1      34.994  29.373  27.241  1.00  0.00     0.202 C 
BRANCH   4   5
ATOM      5  C   UNL A   1      33.526  29.746  27.167  1.00  0.00     0.261 C 
BRANCH   5   6
ATOM      6  O   UNL A   1      32.809  28.990  26.178  1.00  0.00    -0.460 OA
BRANCH   6   7
ATOM      7  C   UNL A   1      32.188  27.902  26.700  1.00  0.00     0.338 C 
ATOM      8  O   UNL A   1      31.853  27.739  27.847  1.00  0.00    -0.246 OA
BRANCH   7   9
ATOM      9  C   UNL A   1      31.632  27.055  25.616  1.00  0.00     0.065 A 
ATOM     10  C   UNL A   1      33.622  27.209  24.043  1.00  0.00     0.047 C 
ATOM     11  C   UNL A   1      32.247  26.697  24.391  1.00  0.00    -0.013 A 
ATOM     12  C   UNL A   1      31.520  25.853  23.508  1.00  0.00     0.045 A 
ATOM     13  C   UNL A   1      30.275  25.347  23.915  1.00  0.00     0.026 A 
ATOM     14  C   UNL A   1      30.340  26.612  25.938  1.00  0.00     0.016 A 
ATOM     15  C   UNL A   1      29.667  25.752  25.095  1.00  0.00     0.003 A 
BRANCH  12  16
ATOM     16  N   UNL A   1      32.034  25.514  22.231  1.00  0.00    -0.322 N 
ATOM     17  C   UNL A   1      32.671  24.367  21.766  1.00  0.00     0.255 C 
ATOM     18  H   UNL A   1      31.920  26.215  21.551  1.00  0.00     0.170 HD
ATOM     19  O   UNL A   1      33.251  24.400  20.680  1.00  0.00    -0.269 OA
BRANCH  17  20
ATOM     20  C   UNL A   1      32.585  23.055  22.472  1.00  0.00     0.040 A 
ATOM     21  C   UNL A   1      32.177  21.897  21.821  1.00  0.00     0.014 A 
ATOM     22  C   UNL A   1      32.830  22.989  23.843  1.00  0.00     0.022 A 
ATOM     23  C   UNL A   1      32.111  20.691  22.533  1.00  0.00     0.001 A 
ATOM     24  C   UNL A   1      32.769  21.798  24.590  1.00  0.00    -0.010 A 
ATOM     25  C   UNL A   1      32.418  20.639  23.902  1.00  0.00     0.009 A 
BRANCH  24  26
ATOM     26  C   UNL A   1      32.994  21.723  26.071  1.00  0.00     0.068 A 
ATOM     27  C   UNL A   1      34.017  21.046  26.643  1.00  0.00     0.028 A 
ATOM     28  C   UNL A   1      32.887  23.030  26.814  1.00  0.00     0.344 A 
ATOM     29  C   UNL A   1      35.272  21.736  26.296  1.00  0.00     0.018 A 
ATOM     30  O   UNL A   1      34.079  23.779  26.807  1.00  0.00    -0.422 OA
ATOM     31  O   UNL A   1      31.859  23.401  27.362  1.00  0.00    -0.246 OA
ATOM     32  C   UNL A   1      36.304  21.078  25.658  1.00  0.00     0.012 A 
ATOM     33  C   UNL A   1      35.244  23.140  26.320  1.00  0.00     0.138 A 
ATOM     34  C   UNL A   1      37.302  21.834  25.039  1.00  0.00     0.001 A 
ATOM     35  C   UNL A   1      36.242  23.897  25.719  1.00  0.00     0.048 A 
ATOM     36  C   UNL A   1      37.274  23.231  25.062  1.00  0.00     0.004 A 
ENDBRANCH  24  26
ENDBRANCH  17  20
ENDBRANCH  12  16
ENDBRANCH   7   9
ENDBRANCH   6   7
ENDBRANCH   5   6
ENDBRANCH   4   5
ENDBRANCH   3   4
ENDBRANCH   2   3
ENDBRANCH   1   2
BRANCH   1  37
ATOM     37  O   UNL A   1      34.260  33.558  28.326  1.00  0.00    -0.377 OA
BRANCH  37  38
ATOM     38  C   UNL A   1      34.325  34.846  28.934  1.00  0.00     0.188 C 
BRANCH  38  39
ATOM     39  C   UNL A   1      33.149  35.796  28.758  1.00  0.00     0.188 C 
BRANCH  39  40
ATOM     40  O   UNL A   1      33.074  36.545  29.962  1.00  0.00    -0.376 OA
BRANCH  40  41
ATOM     41  C   UNL A   1      32.530  35.883  31.092  1.00  0.00     0.202 C 
BRANCH  41  42
ATOM     42  C   UNL A   1      33.517  35.976  32.242  1.00  0.00     0.261 C 
BRANCH  42  43
ATOM     43  O   UNL A   1      34.058  34.649  32.456  1.00  0.00    -0.460 OA
BRANCH  43  44
ATOM     44  C   UNL A   1      35.362  34.623  32.849  1.00  0.00     0.338 C 
ATOM     45  O   UNL A   1      35.948  35.565  33.359  1.00  0.00    -0.246 OA
BRANCH  44  46
ATOM     46  C   UNL A   1      36.059  33.391  32.353  1.00  0.00     0.060 A 
ATOM     47  C   UNL A   1      35.901  32.179  33.048  1.00  0.00     0.016 A 
ATOM     48  C   UNL A   1      37.093  33.509  31.430  1.00  0.00     0.016 A 
ATOM     49  C   UNL A   1      36.864  31.159  32.938  1.00  0.00     0.010 A 
ATOM     50  C   UNL A   1      38.104  32.558  31.431  1.00  0.00     0.010 A 
ATOM     51  C   UNL A   1      38.028  31.384  32.201  1.00  0.00    -0.014 A 
BRANCH  51  52
ATOM     52  C   UNL A   1      39.288  30.604  32.314  1.00  0.00     0.031 A 
ATOM     53  C   UNL A   1      39.501  29.413  31.412  1.00  0.00     0.074 A 
ATOM     54  C   UNL A   1      40.343  31.185  32.948  1.00  0.00     0.049 A 
ATOM     55  N   UNL A   1      40.615  28.777  31.257  1.00  0.00    -0.248 NA
ATOM     56  C   UNL A   1      38.447  28.843  30.568  1.00  0.00     0.031 C 
ATOM     57  C   UNL A   1      41.762  31.026  32.632  1.00  0.00     0.029 A 
ATOM     58  N   UNL A   1      40.373  32.123  33.984  1.00  0.00    -0.354 N 
ATOM     59  C   UNL A   1      40.522  27.951  30.147  1.00  0.00     0.074 A 
ATOM     60  C   UNL A   1      39.127  27.986  29.794  1.00  0.00     0.031 C 
ATOM     61  C   UNL A   1      42.525  31.764  33.447  1.00  0.00     0.029 A 
ATOM     62  C   UNL A   1      41.671  32.187  34.516  1.00  0.00     0.049 A 
ATOM     63  H   UNL A   1      39.604  32.655  34.293  1.00  0.00     0.167 HD
ATOM     64  C   UNL A   1      41.666  27.424  29.603  1.00  0.00     0.037 A 
ATOM     65  C   UNL A   1      41.918  31.770  35.793  1.00  0.00     0.037 A 
ATOM     66  C   UNL A   1      42.818  27.610  30.509  1.00  0.00     0.049 A 
ATOM     67  C   UNL A   1      42.655  30.433  35.805  1.00  0.00     0.074 A 
ATOM     68  C   UNL A   1      44.110  28.084  30.369  1.00  0.00     0.029 A 
ATOM     69  N   UNL A   1      42.643  27.422  31.882  1.00  0.00    -0.354 N 
ATOM     70  N   UNL A   1      42.524  29.538  34.845  1.00  0.00    -0.248 NA
ATOM     71  C   UNL A   1      43.748  30.098  36.717  1.00  0.00     0.031 C 
ATOM     72  C   UNL A   1      44.612  28.393  31.669  1.00  0.00     0.029 A 
ATOM     73  C   UNL A   1      43.696  27.936  32.606  1.00  0.00     0.049 A 
ATOM     74  H   UNL A   1      41.864  26.975  32.285  1.00  0.00     0.167 HD
ATOM     75  C   UNL A   1      43.528  28.611  34.942  1.00  0.00     0.074 A 
ATOM     76  C   UNL A   1      44.245  28.982  36.150  1.00  0.00     0.031 C 
ATOM     77  C   UNL A   1      43.821  27.643  34.021  1.00  0.00     0.037 A 
BRANCH  64  78
ATOM     78  C   UNL A   1      41.828  26.887  28.170  1.00  0.00     0.064 A 
ATOM     79  C   UNL A   1      41.564  25.525  27.872  1.00  0.00     0.173 A 
ATOM     80  C   UNL A   1      42.356  27.611  27.076  1.00  0.00     0.173 A 
ATOM     81  F   UNL A   1      41.025  24.708  28.788  1.00  0.00    -0.203 F 
ATOM     82  C   UNL A   1      41.833  24.943  26.623  1.00  0.00     0.198 A 
ATOM     83  C   UNL A   1      42.561  27.042  25.806  1.00  0.00     0.198 A 
ATOM     84  F   UNL A   1      42.744  28.885  27.193  1.00  0.00    -0.203 F 
ATOM     85  F   UNL A   1      41.618  23.631  26.436  1.00  0.00    -0.200 F 
ATOM     86  C   UNL A   1      42.318  25.704  25.584  1.00  0.00     0.200 A 
ATOM     87  F   UNL A   1      43.017  27.806  24.800  1.00  0.00    -0.200 F 
ATOM     88  F   UNL A   1      42.553  25.157  24.383  1.00  0.00    -0.200 F 
ENDBRANCH  64  78
BRANCH  65  89
ATOM     89  C   UNL A   1      41.039  32.521  36.748  1.00  0.00     0.064 A 
ATOM     90  C   UNL A   1      41.604  33.782  37.075  1.00  0.00     0.173 A 
ATOM     91  C   UNL A   1      39.645  32.491  36.559  1.00  0.00     0.173 A 
ATOM     92  F   UNL A   1      42.924  33.872  37.304  1.00  0.00    -0.203 F 
ATOM     93  C   UNL A   1      40.898  34.965  36.846  1.00  0.00     0.198 A 
ATOM     94  C   UNL A   1      38.927  33.686  36.387  1.00  0.00     0.198 A 
ATOM     95  F   UNL A   1      39.027  31.330  36.297  1.00  0.00    -0.203 F 
ATOM     96  F   UNL A   1      41.549  36.139  36.842  1.00  0.00    -0.200 F 
ATOM     97  C   UNL A   1      39.575  34.913  36.447  1.00  0.00     0.200 A 
ATOM     98  F   UNL A   1      37.644  33.645  35.995  1.00  0.00    -0.200 F 
ATOM     99  F   UNL A   1      38.958  36.026  36.024  1.00  0.00    -0.200 F 
ENDBRANCH  65  89
BRANCH  77 100
ATOM    100  C   UNL A   1      44.278  26.247  34.397  1.00  0.00     0.064 A 
ATOM    101  C   UNL A   1      43.376  25.213  34.684  1.00  0.00     0.173 A 
ATOM    102  C   UNL A   1      45.631  25.843  34.226  1.00  0.00     0.173 A 
ATOM    103  F   UNL A   1      42.057  25.436  34.764  1.00  0.00    -0.203 F 
ATOM    104  C   UNL A   1      43.793  23.891  34.835  1.00  0.00     0.198 A 
ATOM    105  C   UNL A   1      46.033  24.515  34.321  1.00  0.00     0.198 A 
ATOM    106  F   UNL A   1      46.605  26.708  33.913  1.00  0.00    -0.203 F 
ATOM    107  F   UNL A   1      42.890  22.948  35.135  1.00  0.00    -0.200 F 
ATOM    108  C   UNL A   1      45.115  23.539  34.640  1.00  0.00     0.200 A 
ATOM    109  F   UNL A   1      47.307  24.185  34.066  1.00  0.00    -0.200 F 
ATOM    110  F   UNL A   1      45.499  22.261  34.738  1.00  0.00    -0.200 F 
ENDBRANCH  77 100
ENDBRANCH  51  52
ENDBRANCH  44  46
ENDBRANCH  43  44
ENDBRANCH  42  43
ENDBRANCH  41  42
ENDBRANCH  40  41
ENDBRANCH  39  40
ENDBRANCH  38  39
ENDBRANCH  37  38
ENDBRANCH   1  37
TORSDOF 23
ENDMDL
MODEL 3
REMARK VINA RESULT:     -10.9      4.671      7.415
REMARK SMILES Cc1c(NC(=O)c2cccc(-c3cc4ccccc4oc3=O)c2)cccc1C(=O)OCCOCCOCCOCCOC(=O)c1ccc(-c2c3nc(c(-c4c(F)c(F)c(F)c(F)c4F)c4ccc([nH]4)c(-c4c(F)c(F)c(F)c(F)c4F)c4nc(c(-c5c(F)c(F)c(F)c(F)c5F)c5ccc2[nH]5)C=C4)C=C3)cc1
REMARK SMILES IDX 35 1 34 2 33 3 32 4 31 5 30 6 28 7 29 8 27 9 1 10 2 11 3 12
REMARK SMILES IDX 24 13 26 14 25 15 4 16 5 17 6 19 7 20 8 21 23 22 9 23 11 24
REMARK SMILES IDX 10 25 12 26 13 27 21 28 14 29 20 30 22 31 15 32 19 33 16 34
REMARK SMILES IDX 18 35 17 36 36 37 37 38 38 39 39 40 40 41 41 42 42 43 43 44
REMARK SMILES IDX 44 45 45 46 46 47 107 48 47 49 106 50 48 51 49 52 50 53
REMARK SMILES IDX 100 54 51 55 105 56 99 57 101 58 52 59 104 60 98 61 97 62
REMARK SMILES IDX 53 64 85 65 65 66 84 67 66 68 69 69 83 70 102 71 67 72 68 73
REMARK SMILES IDX 82 75 103 76 70 77 54 78 55 79 63 80 56 81 57 82 61 83 64 84
REMARK SMILES IDX 58 85 59 86 62 87 60 88 86 89 87 90 95 91 88 92 89 93 93 94
REMARK SMILES IDX 96 95 90 96 91 97 94 98 92 99 71 100 72 101 80 102 73 103
REMARK SMILES IDX 74 104 78 105 81 106 75 107 76 108 79 109 77 110
REMARK H PARENT 4 18 101 63 69 74
REMARK Flexibility Score: inf
ROOT
ATOM      1  C   UNL A   1      34.436  33.854  31.422  1.00  0.00     0.188 C 
ENDROOT
BRANCH   1   2
ATOM      2  C   UNL A   1      34.374  34.385  29.996  1.00  0.00     0.188 C 
BRANCH   2   3
ATOM      3  O   UNL A   1      34.006  33.350  29.082  1.00  0.00    -0.376 OA
BRANCH   3   4
ATOM      4  C   UNL A   1      34.845  32.204  29.181  1.00  0.00     0.202 C 
BRANCH   4   5
ATOM      5  C   UNL A   1      35.115  31.602  27.815  1.00  0.00     0.261 C 
BRANCH   5   6
ATOM      6  O   UNL A   1      34.000  30.852  27.306  1.00  0.00    -0.460 OA
BRANCH   6   7
ATOM      7  C   UNL A   1      34.316  29.560  27.039  1.00  0.00     0.338 C 
ATOM      8  O   UNL A   1      35.313  28.973  27.380  1.00  0.00    -0.246 OA
BRANCH   7   9
ATOM      9  C   UNL A   1      33.117  28.821  26.574  1.00  0.00     0.065 A 
ATOM     10  C   UNL A   1      33.353  29.364  24.101  1.00  0.00     0.047 C 
ATOM     11  C   UNL A   1      32.640  28.688  25.246  1.00  0.00    -0.013 A 
ATOM     12  C   UNL A   1      31.469  27.909  25.040  1.00  0.00     0.045 A 
ATOM     13  C   UNL A   1      30.889  27.243  26.130  1.00  0.00     0.026 A 
ATOM     14  C   UNL A   1      32.446  28.224  27.651  1.00  0.00     0.016 A 
ATOM     15  C   UNL A   1      31.340  27.429  27.430  1.00  0.00     0.003 A 
BRANCH  12  16
ATOM     16  N   UNL A   1      30.885  27.793  23.752  1.00  0.00    -0.322 N 
ATOM     17  C   UNL A   1      31.109  26.895  22.714  1.00  0.00     0.255 C 
ATOM     18  H   UNL A   1      30.198  28.470  23.558  1.00  0.00     0.170 HD
ATOM     19  O   UNL A   1      30.657  27.143  21.596  1.00  0.00    -0.269 OA
BRANCH  17  20
ATOM     20  C   UNL A   1      31.776  25.575  22.919  1.00  0.00     0.040 A 
ATOM     21  C   UNL A   1      32.757  25.106  22.055  1.00  0.00     0.014 A 
ATOM     22  C   UNL A   1      31.349  24.737  23.948  1.00  0.00     0.022 A 
ATOM     23  C   UNL A   1      33.349  23.858  22.293  1.00  0.00     0.001 A 
ATOM     24  C   UNL A   1      31.916  23.477  24.214  1.00  0.00    -0.010 A 
ATOM     25  C   UNL A   1      32.943  23.056  23.371  1.00  0.00     0.009 A 
BRANCH  24  26
ATOM     26  C   UNL A   1      31.441  22.553  25.295  1.00  0.00     0.068 A 
ATOM     27  C   UNL A   1      31.791  21.248  25.377  1.00  0.00     0.028 A 
ATOM     28  C   UNL A   1      31.516  23.096  26.699  1.00  0.00     0.344 A 
ATOM     29  C   UNL A   1      33.229  21.179  25.689  1.00  0.00     0.018 A 
ATOM     30  O   UNL A   1      32.780  22.929  27.299  1.00  0.00    -0.422 OA
ATOM     31  O   UNL A   1      30.571  23.636  27.255  1.00  0.00    -0.246 OA
ATOM     32  C   UNL A   1      34.111  20.494  24.878  1.00  0.00     0.012 A 
ATOM     33  C   UNL A   1      33.714  22.107  26.626  1.00  0.00     0.138 A 
ATOM     34  C   UNL A   1      35.478  20.750  25.006  1.00  0.00     0.001 A 
ATOM     35  C   UNL A   1      35.073  22.354  26.767  1.00  0.00     0.048 A 
ATOM     36  C   UNL A   1      35.961  21.674  25.936  1.00  0.00     0.004 A 
ENDBRANCH  24  26
ENDBRANCH  17  20
ENDBRANCH  12  16
ENDBRANCH   7   9
ENDBRANCH   6   7
ENDBRANCH   5   6
ENDBRANCH   4   5
ENDBRANCH   3   4
ENDBRANCH   2   3
ENDBRANCH   1   2
BRANCH   1  37
ATOM     37  O   UNL A   1      34.704  34.878  32.375  1.00  0.00    -0.377 OA
BRANCH  37  38
ATOM     38  C   UNL A   1      36.012  34.949  32.936  1.00  0.00     0.188 C 
BRANCH  38  39
ATOM     39  C   UNL A   1      37.075  33.984  32.433  1.00  0.00     0.188 C 
BRANCH  39  40
ATOM     40  O   UNL A   1      37.571  33.320  33.586  1.00  0.00    -0.376 OA
BRANCH  40  41
ATOM     41  C   UNL A   1      38.526  32.294  33.370  1.00  0.00     0.202 C 
BRANCH  41  42
ATOM     42  C   UNL A   1      38.188  31.570  32.079  1.00  0.00     0.261 C 
BRANCH  42  43
ATOM     43  O   UNL A   1      37.854  30.204  32.424  1.00  0.00    -0.460 OA
BRANCH  43  44
ATOM     44  C   UNL A   1      37.515  29.416  31.366  1.00  0.00     0.338 C 
ATOM     45  O   UNL A   1      36.400  29.366  30.872  1.00  0.00    -0.246 OA
BRANCH  44  46
ATOM     46  C   UNL A   1      38.602  28.435  31.043  1.00  0.00     0.060 A 
ATOM     47  C   UNL A   1      39.781  28.430  31.808  1.00  0.00     0.016 A 
ATOM     48  C   UNL A   1      38.590  27.773  29.819  1.00  0.00     0.016 A 
ATOM     49  C   UNL A   1      40.977  27.909  31.280  1.00  0.00     0.010 A 
ATOM     50  C   UNL A   1      39.798  27.385  29.255  1.00  0.00     0.010 A 
ATOM     51  C   UNL A   1      41.014  27.471  29.956  1.00  0.00    -0.014 A 
BRANCH  51  52
ATOM     52  C   UNL A   1      42.242  27.284  29.140  1.00  0.00     0.031 A 
ATOM     53  C   UNL A   1      42.793  25.892  28.945  1.00  0.00     0.074 A 
ATOM     54  C   UNL A   1      42.616  28.294  28.309  1.00  0.00     0.049 A 
ATOM     55  N   UNL A   1      43.718  25.561  28.106  1.00  0.00    -0.248 NA
ATOM     56  C   UNL A   1      42.312  24.724  29.688  1.00  0.00     0.031 C 
ATOM     57  C   UNL A   1      43.256  28.173  26.999  1.00  0.00     0.029 A 
ATOM     58  N   UNL A   1      42.432  29.675  28.422  1.00  0.00    -0.354 N 
ATOM     59  C   UNL A   1      43.754  24.179  27.985  1.00  0.00     0.074 A 
ATOM     60  C   UNL A   1      42.898  23.708  29.041  1.00  0.00     0.031 C 
ATOM     61  C   UNL A   1      43.462  29.374  26.448  1.00  0.00     0.029 A 
ATOM     62  C   UNL A   1      43.255  30.332  27.492  1.00  0.00     0.049 A 
ATOM     63  H   UNL A   1      41.821  30.119  29.055  1.00  0.00     0.167 HD
ATOM     64  C   UNL A   1      44.426  23.614  26.931  1.00  0.00     0.037 A 
ATOM     65  C   UNL A   1      44.290  31.116  27.914  1.00  0.00     0.037 A 
ATOM     66  C   UNL A   1      45.268  24.613  26.242  1.00  0.00     0.049 A 
ATOM     67  C   UNL A   1      45.634  30.431  27.677  1.00  0.00     0.074 A 
ATOM     68  C   UNL A   1      45.464  24.992  24.925  1.00  0.00     0.029 A 
ATOM     69  N   UNL A   1      45.981  25.545  27.001  1.00  0.00    -0.354 N 
ATOM     70  N   UNL A   1      45.776  29.120  27.669  1.00  0.00    -0.248 NA
ATOM     71  C   UNL A   1      46.837  31.112  27.195  1.00  0.00     0.031 C 
ATOM     72  C   UNL A   1      46.094  26.272  24.922  1.00  0.00     0.029 A 
ATOM     73  C   UNL A   1      46.445  26.585  26.228  1.00  0.00     0.049 A 
ATOM     74  H   UNL A   1      46.134  25.468  27.971  1.00  0.00     0.167 HD
ATOM     75  C   UNL A   1      46.983  28.792  27.113  1.00  0.00     0.074 A 
ATOM     76  C   UNL A   1      47.627  30.071  26.868  1.00  0.00     0.031 C 
ATOM     77  C   UNL A   1      47.398  27.533  26.776  1.00  0.00     0.037 A 
BRANCH  64  78
ATOM     78  C   UNL A   1      44.216  22.195  26.373  1.00  0.00     0.064 A 
ATOM     79  C   UNL A   1      45.280  21.499  25.743  1.00  0.00     0.173 A 
ATOM     80  C   UNL A   1      42.979  21.513  26.308  1.00  0.00     0.173 A 
ATOM     81  F   UNL A   1      46.527  21.990  25.747  1.00  0.00    -0.203 F 
ATOM     82  C   UNL A   1      45.114  20.269  25.087  1.00  0.00     0.198 A 
ATOM     83  C   UNL A   1      42.830  20.248  25.710  1.00  0.00     0.198 A 
ATOM     84  F   UNL A   1      41.849  22.053  26.774  1.00  0.00    -0.203 F 
ATOM     85  F   UNL A   1      46.154  19.702  24.456  1.00  0.00    -0.200 F 
ATOM     86  C   UNL A   1      43.892  19.635  25.082  1.00  0.00     0.200 A 
ATOM     87  F   UNL A   1      41.633  19.639  25.732  1.00  0.00    -0.200 F 
ATOM     88  F   UNL A   1      43.736  18.448  24.478  1.00  0.00    -0.200 F 
ENDBRANCH  64  78
BRANCH  65  89
ATOM     89  C   UNL A   1      43.774  32.179  28.837  1.00  0.00     0.064 A 
ATOM     90  C   UNL A   1      44.196  31.944  30.173  1.00  0.00     0.173 A 
ATOM     91  C   UNL A   1      43.781  33.519  28.406  1.00  0.00     0.173 A 
ATOM     92  F   UNL A   1      44.177  30.692  30.657  1.00  0.00    -0.203 F 
ATOM     93  C   UNL A   1      44.928  32.905  30.873  1.00  0.00     0.198 A 
ATOM     94  C   UNL A   1      44.470  34.496  29.143  1.00  0.00     0.198 A 
ATOM     95  F   UNL A   1      43.350  33.832  27.176  1.00  0.00    -0.203 F 
ATOM     96  F   UNL A   1      45.597  32.554  31.982  1.00  0.00    -0.200 F 
ATOM     97  C   UNL A   1      45.111  34.163  30.329  1.00  0.00     0.200 A 
ATOM     98  F   UNL A   1      44.657  35.718  28.623  1.00  0.00    -0.200 F 
ATOM     99  F   UNL A   1      45.981  35.016  30.891  1.00  0.00    -0.200 F 
ENDBRANCH  65  89
BRANCH  77 100
ATOM    100  C   UNL A   1      48.826  27.054  26.943  1.00  0.00     0.064 A 
ATOM    101  C   UNL A   1      49.235  26.280  28.039  1.00  0.00     0.173 A 
ATOM    102  C   UNL A   1      49.764  27.140  25.878  1.00  0.00     0.173 A 
ATOM    103  F   UNL A   1      48.410  26.026  29.064  1.00  0.00    -0.203 F 
ATOM    104  C   UNL A   1      50.493  25.680  28.089  1.00  0.00     0.198 A 
ATOM    105  C   UNL A   1      50.994  26.492  25.908  1.00  0.00     0.198 A 
ATOM    106  F   UNL A   1      49.507  27.813  24.747  1.00  0.00    -0.203 F 
ATOM    107  F   UNL A   1      50.839  24.973  29.173  1.00  0.00    -0.200 F 
ATOM    108  C   UNL A   1      51.365  25.772  27.021  1.00  0.00     0.200 A 
ATOM    109  F   UNL A   1      51.800  26.542  24.838  1.00  0.00    -0.200 F 
ATOM    110  F   UNL A   1      52.550  25.152  27.058  1.00  0.00    -0.200 F 
ENDBRANCH  77 100
ENDBRANCH  51  52
ENDBRANCH  44  46
ENDBRANCH  43  44
ENDBRANCH  42  43
ENDBRANCH  41  42
ENDBRANCH  40  41
ENDBRANCH  39  40
ENDBRANCH  38  39
ENDBRANCH  37  38
ENDBRANCH   1  37
TORSDOF 23
ENDMDL
