MODEL 1
REMARK VINA RESULT:      -8.5      0.000      0.000
REMARK SMILES O=C(OCCOCCOCCOCCOC(=O)[C@H]1C[C@H]2CCCC[C@@H]2[N@@H+]1C1CCS(=O)(=O)CC1)c1ccc(-c2c3nc(c(-c4c(F)c(F)c(F)c(F)c4F)c4ccc([nH]4)c(-c4c(F)c(F)c(F)c(F)c4F)c4nc(c(-c5c(F)c(F)c(F)c(F)c5F)c5ccc2[nH]5)C=C4)C=C3)cc1
REMARK SMILES IDX 8 1 7 2 6 3 5 4 4 5 3 6 2 7 1 8 35 9 36 10 97 11 37 12 96 13
REMARK SMILES IDX 38 14 39 15 40 16 90 17 41 18 95 19 89 20 91 21 42 22 94 23
REMARK SMILES IDX 88 24 87 25 43 27 75 28 55 29 74 30 56 31 59 32 73 33 92 34
REMARK SMILES IDX 57 35 58 36 72 38 93 39 60 40 44 41 45 42 53 43 46 44 47 45
REMARK SMILES IDX 51 46 54 47 48 48 49 49 52 50 50 51 76 52 77 53 85 54 78 55
REMARK SMILES IDX 79 56 83 57 86 58 80 59 81 60 84 61 82 62 61 63 62 64 70 65
REMARK SMILES IDX 63 66 64 67 68 68 71 69 65 70 66 71 69 72 67 73 9 74 10 75
REMARK SMILES IDX 11 76 12 77 13 78 14 79 15 80 16 81 17 82 18 83 19 84 26 85
REMARK SMILES IDX 20 86 25 87 21 89 24 90 22 91 23 92 27 93 28 94 34 95 29 96
REMARK SMILES IDX 33 97 30 98 31 99 32 100
REMARK H PARENT 91 26 59 37 26 88
REMARK Flexibility Score: inf
ROOT
ATOM      1  C   UNL A   1      39.178  31.993  41.855  1.00  0.00     0.188 C 
ENDROOT
BRANCH   1   2
ATOM      2  C   UNL A   1      40.673  32.269  41.953  1.00  0.00     0.188 C 
BRANCH   2   3
ATOM      3  O   UNL A   1      41.142  32.739  40.706  1.00  0.00    -0.376 OA
BRANCH   3   4
ATOM      4  C   UNL A   1      41.647  34.050  40.535  1.00  0.00     0.202 C 
BRANCH   4   5
ATOM      5  C   UNL A   1      40.642  35.185  40.587  1.00  0.00     0.261 C 
BRANCH   5   6
ATOM      6  O   UNL A   1      39.798  35.369  39.426  1.00  0.00    -0.460 OA
BRANCH   6   7
ATOM      7  C   UNL A   1      39.966  36.037  38.260  1.00  0.00     0.338 C 
ATOM      8  O   UNL A   1      39.653  37.222  38.189  1.00  0.00    -0.246 OA
BRANCH   7   9
ATOM      9  C   UNL A   1      40.559  35.401  37.064  1.00  0.00     0.060 A 
ATOM     10  C   UNL A   1      39.819  35.077  35.947  1.00  0.00     0.016 A 
ATOM     11  C   UNL A   1      41.940  35.224  36.982  1.00  0.00     0.016 A 
ATOM     12  C   UNL A   1      40.296  34.270  34.954  1.00  0.00     0.010 A 
ATOM     13  C   UNL A   1      42.498  34.607  35.855  1.00  0.00     0.010 A 
ATOM     14  C   UNL A   1      41.656  34.062  34.874  1.00  0.00    -0.014 A 
BRANCH  14  15
ATOM     15  C   UNL A   1      42.092  33.145  33.813  1.00  0.00     0.031 A 
ATOM     16  C   UNL A   1      42.522  33.759  32.521  1.00  0.00     0.074 A 
ATOM     17  C   UNL A   1      42.327  31.850  34.109  1.00  0.00     0.049 A 
ATOM     18  N   UNL A   1      42.894  33.180  31.417  1.00  0.00    -0.248 NA
ATOM     19  C   UNL A   1      42.552  35.234  32.470  1.00  0.00     0.031 C 
ATOM     20  C   UNL A   1      42.126  31.225  35.425  1.00  0.00     0.029 A 
ATOM     21  N   UNL A   1      42.844  30.841  33.347  1.00  0.00    -0.354 N 
ATOM     22  C   UNL A   1      43.158  34.214  30.531  1.00  0.00     0.074 A 
ATOM     23  C   UNL A   1      42.897  35.457  31.214  1.00  0.00     0.031 C 
ATOM     24  C   UNL A   1      42.555  29.956  35.384  1.00  0.00     0.029 A 
ATOM     25  C   UNL A   1      42.940  29.644  34.017  1.00  0.00     0.049 A 
ATOM     26  H   UNL A   1      43.122  30.959  32.410  1.00  0.00     0.167 HD
ATOM     27  C   UNL A   1      43.580  34.112  29.253  1.00  0.00     0.037 A 
ATOM     28  C   UNL A   1      43.243  28.423  33.545  1.00  0.00     0.037 A 
ATOM     29  C   UNL A   1      43.838  32.849  28.624  1.00  0.00     0.049 A 
ATOM     30  C   UNL A   1      43.566  28.323  32.078  1.00  0.00     0.074 A 
ATOM     31  C   UNL A   1      44.156  32.580  27.309  1.00  0.00     0.029 A 
ATOM     32  N   UNL A   1      43.812  31.630  29.294  1.00  0.00    -0.354 N 
ATOM     33  N   UNL A   1      43.681  29.285  31.191  1.00  0.00    -0.248 NA
ATOM     34  C   UNL A   1      43.781  26.978  31.542  1.00  0.00     0.031 C 
ATOM     35  C   UNL A   1      44.276  31.194  27.172  1.00  0.00     0.029 A 
ATOM     36  C   UNL A   1      44.095  30.602  28.415  1.00  0.00     0.049 A 
ATOM     37  H   UNL A   1      43.619  31.516  30.253  1.00  0.00     0.167 HD
ATOM     38  C   UNL A   1      43.996  28.665  29.993  1.00  0.00     0.074 A 
ATOM     39  C   UNL A   1      44.090  27.245  30.282  1.00  0.00     0.031 C 
ATOM     40  C   UNL A   1      44.182  29.205  28.762  1.00  0.00     0.037 A 
BRANCH  27  41
ATOM     41  C   UNL A   1      43.688  35.382  28.469  1.00  0.00     0.064 A 
ATOM     42  C   UNL A   1      44.904  36.069  28.321  1.00  0.00     0.173 A 
ATOM     43  C   UNL A   1      42.540  35.953  27.902  1.00  0.00     0.173 A 
ATOM     44  F   UNL A   1      46.023  35.590  28.886  1.00  0.00    -0.203 F 
ATOM     45  C   UNL A   1      44.959  37.289  27.652  1.00  0.00     0.198 A 
ATOM     46  C   UNL A   1      42.604  37.158  27.208  1.00  0.00     0.198 A 
ATOM     47  F   UNL A   1      41.349  35.350  28.037  1.00  0.00    -0.203 F 
ATOM     48  F   UNL A   1      46.118  37.960  27.577  1.00  0.00    -0.200 F 
ATOM     49  C   UNL A   1      43.811  37.828  27.090  1.00  0.00     0.200 A 
ATOM     50  F   UNL A   1      41.492  37.678  26.670  1.00  0.00    -0.200 F 
ATOM     51  F   UNL A   1      43.865  39.005  26.449  1.00  0.00    -0.200 F 
ENDBRANCH  27  41
BRANCH  28  52
ATOM     52  C   UNL A   1      43.143  27.217  34.414  1.00  0.00     0.064 A 
ATOM     53  C   UNL A   1      44.280  26.608  34.962  1.00  0.00     0.173 A 
ATOM     54  C   UNL A   1      41.902  26.609  34.669  1.00  0.00     0.173 A 
ATOM     55  F   UNL A   1      45.493  27.133  34.740  1.00  0.00    -0.203 F 
ATOM     56  C   UNL A   1      44.185  25.423  35.693  1.00  0.00     0.198 A 
ATOM     57  C   UNL A   1      41.803  25.449  35.433  1.00  0.00     0.198 A 
ATOM     58  F   UNL A   1      40.775  27.141  34.172  1.00  0.00    -0.203 F 
ATOM     59  F   UNL A   1      45.297  24.825  36.142  1.00  0.00    -0.200 F 
ATOM     60  C   UNL A   1      42.946  24.845  35.930  1.00  0.00     0.200 A 
ATOM     61  F   UNL A   1      40.601  24.907  35.674  1.00  0.00    -0.200 F 
ATOM     62  F   UNL A   1      42.857  23.703  36.623  1.00  0.00    -0.200 F 
ENDBRANCH  28  52
BRANCH  40  63
ATOM     63  C   UNL A   1      44.541  28.251  27.665  1.00  0.00     0.064 A 
ATOM     64  C   UNL A   1      45.865  27.844  27.447  1.00  0.00     0.173 A 
ATOM     65  C   UNL A   1      43.539  27.720  26.841  1.00  0.00     0.173 A 
ATOM     66  F   UNL A   1      46.858  28.341  28.201  1.00  0.00    -0.203 F 
ATOM     67  C   UNL A   1      46.178  26.968  26.414  1.00  0.00     0.198 A 
ATOM     68  C   UNL A   1      43.851  26.811  25.836  1.00  0.00     0.198 A 
ATOM     69  F   UNL A   1      42.257  28.072  27.020  1.00  0.00    -0.203 F 
ATOM     70  F   UNL A   1      47.457  26.644  26.178  1.00  0.00    -0.200 F 
ATOM     71  C   UNL A   1      45.170  26.447  25.616  1.00  0.00     0.200 A 
ATOM     72  F   UNL A   1      42.875  26.293  25.079  1.00  0.00    -0.200 F 
ATOM     73  F   UNL A   1      45.473  25.597  24.624  1.00  0.00    -0.200 F 
ENDBRANCH  40  63
ENDBRANCH  14  15
ENDBRANCH   7   9
ENDBRANCH   6   7
ENDBRANCH   5   6
ENDBRANCH   4   5
ENDBRANCH   3   4
ENDBRANCH   2   3
ENDBRANCH   1   2
BRANCH   1  74
ATOM     74  O   UNL A   1      38.712  31.832  40.519  1.00  0.00    -0.377 OA
BRANCH  74  75
ATOM     75  C   UNL A   1      37.697  32.727  40.067  1.00  0.00     0.188 C 
BRANCH  75  76
ATOM     76  C   UNL A   1      36.606  32.193  39.112  1.00  0.00     0.188 C 
BRANCH  76  77
ATOM     77  O   UNL A   1      36.841  32.509  37.754  1.00  0.00    -0.376 OA
BRANCH  77  78
ATOM     78  C   UNL A   1      38.112  32.204  37.190  1.00  0.00     0.202 C 
BRANCH  78  79
ATOM     79  C   UNL A   1      38.319  31.086  36.137  1.00  0.00     0.261 C 
BRANCH  79  80
ATOM     80  O   UNL A   1      37.777  31.352  34.839  1.00  0.00    -0.459 OA
BRANCH  80  81
ATOM     81  C   UNL A   1      38.178  30.555  33.805  1.00  0.00     0.365 C 
ATOM     82  O   UNL A   1      38.151  29.331  33.835  1.00  0.00    -0.245 OA
BRANCH  81  83
ATOM     83  C   UNL A   1      38.404  31.400  32.527  1.00  0.00     0.296 C 
ATOM     84  C   UNL A   1      39.598  30.977  31.651  1.00  0.00     0.087 C 
ATOM     85  N   UNL A   1      37.212  31.410  31.655  1.00  0.00    -0.318 N 
ATOM     86  C   UNL A   1      39.023  30.881  30.261  1.00  0.00     0.054 C 
ATOM     87  C   UNL A   1      37.583  30.500  30.563  1.00  0.00     0.188 C 
ATOM     88  H   UNL A   1      36.368  31.066  32.117  1.00  0.00     0.349 HD
ATOM     89  C   UNL A   1      39.742  29.919  29.333  1.00  0.00     0.010 C 
ATOM     90  C   UNL A   1      36.767  30.353  29.292  1.00  0.00     0.065 C 
ATOM     91  C   UNL A   1      38.914  29.701  28.069  1.00  0.00     0.001 C 
ATOM     92  C   UNL A   1      37.463  29.320  28.389  1.00  0.00     0.006 C 
BRANCH  85  93
ATOM     93  C   UNL A   1      36.548  32.702  31.385  1.00  0.00     0.186 C 
ATOM     94  C   UNL A   1      35.039  32.751  31.785  1.00  0.00     0.081 C 
ATOM     95  C   UNL A   1      37.227  34.027  31.801  1.00  0.00     0.081 C 
ATOM     96  C   UNL A   1      34.655  33.143  33.210  1.00  0.00     0.143 C 
ATOM     97  C   UNL A   1      37.173  34.369  33.277  1.00  0.00     0.143 C 
ATOM     98  S   UNL A   1      35.503  34.564  33.849  1.00  0.00     0.150 S 
ATOM     99  O   UNL A   1      35.528  34.432  35.302  1.00  0.00    -0.229 OA
ATOM    100  O   UNL A   1      34.948  35.739  33.225  1.00  0.00    -0.229 OA
ENDBRANCH  85  93
ENDBRANCH  81  83
ENDBRANCH  80  81
ENDBRANCH  79  80
ENDBRANCH  78  79
ENDBRANCH  77  78
ENDBRANCH  76  77
ENDBRANCH  75  76
ENDBRANCH  74  75
ENDBRANCH   1  74
TORSDOF 21
ENDMDL
MODEL 2
REMARK VINA RESULT:      -8.5      3.688      9.397
REMARK SMILES O=C(OCCOCCOCCOCCOC(=O)[C@H]1C[C@H]2CCCC[C@@H]2[N@@H+]1C1CCS(=O)(=O)CC1)c1ccc(-c2c3nc(c(-c4c(F)c(F)c(F)c(F)c4F)c4ccc([nH]4)c(-c4c(F)c(F)c(F)c(F)c4F)c4nc(c(-c5c(F)c(F)c(F)c(F)c5F)c5ccc2[nH]5)C=C4)C=C3)cc1
REMARK SMILES IDX 8 1 7 2 6 3 5 4 4 5 3 6 2 7 1 8 35 9 36 10 97 11 37 12 96 13
REMARK SMILES IDX 38 14 39 15 40 16 90 17 41 18 95 19 89 20 91 21 42 22 94 23
REMARK SMILES IDX 88 24 87 25 43 27 75 28 55 29 74 30 56 31 59 32 73 33 92 34
REMARK SMILES IDX 57 35 58 36 72 38 93 39 60 40 44 41 45 42 53 43 46 44 47 45
REMARK SMILES IDX 51 46 54 47 48 48 49 49 52 50 50 51 76 52 77 53 85 54 78 55
REMARK SMILES IDX 79 56 83 57 86 58 80 59 81 60 84 61 82 62 61 63 62 64 70 65
REMARK SMILES IDX 63 66 64 67 68 68 71 69 65 70 66 71 69 72 67 73 9 74 10 75
REMARK SMILES IDX 11 76 12 77 13 78 14 79 15 80 16 81 17 82 18 83 19 84 26 85
REMARK SMILES IDX 20 86 25 87 21 89 24 90 22 91 23 92 27 93 28 94 34 95 29 96
REMARK SMILES IDX 33 97 30 98 31 99 32 100
REMARK H PARENT 91 26 59 37 26 88
REMARK Flexibility Score: inf
ROOT
ATOM      1  C   UNL A   1      33.459  35.442  30.811  1.00  0.00     0.188 C 
ENDROOT
BRANCH   1   2
ATOM      2  C   UNL A   1      33.840  35.264  29.347  1.00  0.00     0.188 C 
BRANCH   2   3
ATOM      3  O   UNL A   1      33.373  34.009  28.895  1.00  0.00    -0.376 OA
BRANCH   3   4
ATOM      4  C   UNL A   1      34.250  33.000  28.431  1.00  0.00     0.202 C 
BRANCH   4   5
ATOM      5  C   UNL A   1      34.981  32.190  29.485  1.00  0.00     0.261 C 
BRANCH   5   6
ATOM      6  O   UNL A   1      35.599  30.955  29.053  1.00  0.00    -0.460 OA
BRANCH   6   7
ATOM      7  C   UNL A   1      36.189  29.935  29.721  1.00  0.00     0.338 C 
ATOM      8  O   UNL A   1      35.559  29.333  30.586  1.00  0.00    -0.246 OA
BRANCH   7   9
ATOM      9  C   UNL A   1      37.563  29.482  29.419  1.00  0.00     0.060 A 
ATOM     10  C   UNL A   1      38.256  28.610  30.232  1.00  0.00     0.016 A 
ATOM     11  C   UNL A   1      38.163  29.833  28.210  1.00  0.00     0.016 A 
ATOM     12  C   UNL A   1      39.597  28.387  30.102  1.00  0.00     0.010 A 
ATOM     13  C   UNL A   1      39.471  29.415  27.933  1.00  0.00     0.010 A 
ATOM     14  C   UNL A   1      40.212  28.753  28.923  1.00  0.00    -0.014 A 
BRANCH  14  15
ATOM     15  C   UNL A   1      41.662  28.529  28.873  1.00  0.00     0.031 A 
ATOM     16  C   UNL A   1      42.129  27.235  28.293  1.00  0.00     0.074 A 
ATOM     17  C   UNL A   1      42.502  29.559  29.105  1.00  0.00     0.049 A 
ATOM     18  N   UNL A   1      43.339  26.768  28.184  1.00  0.00    -0.248 NA
ATOM     19  C   UNL A   1      41.087  26.345  27.743  1.00  0.00     0.031 C 
ATOM     20  C   UNL A   1      42.097  30.924  29.475  1.00  0.00     0.029 A 
ATOM     21  N   UNL A   1      43.862  29.642  29.002  1.00  0.00    -0.354 N 
ATOM     22  C   UNL A   1      43.200  25.520  27.597  1.00  0.00     0.074 A 
ATOM     23  C   UNL A   1      41.793  25.289  27.379  1.00  0.00     0.031 C 
ATOM     24  C   UNL A   1      43.182  31.710  29.526  1.00  0.00     0.029 A 
ATOM     25  C   UNL A   1      44.360  30.884  29.317  1.00  0.00     0.049 A 
ATOM     26  H   UNL A   1      44.430  28.885  28.729  1.00  0.00     0.167 HD
ATOM     27  C   UNL A   1      44.181  24.649  27.277  1.00  0.00     0.037 A 
ATOM     28  C   UNL A   1      45.634  31.276  29.482  1.00  0.00     0.037 A 
ATOM     29  C   UNL A   1      45.569  24.934  27.503  1.00  0.00     0.049 A 
ATOM     30  C   UNL A   1      46.699  30.236  29.260  1.00  0.00     0.074 A 
ATOM     31  C   UNL A   1      46.663  24.110  27.341  1.00  0.00     0.029 A 
ATOM     32  N   UNL A   1      46.046  26.165  27.940  1.00  0.00    -0.354 N 
ATOM     33  N   UNL A   1      46.570  28.999  28.838  1.00  0.00    -0.248 NA
ATOM     34  C   UNL A   1      48.078  30.633  29.552  1.00  0.00     0.031 C 
ATOM     35  C   UNL A   1      47.800  24.828  27.725  1.00  0.00     0.029 A 
ATOM     36  C   UNL A   1      47.421  26.120  28.067  1.00  0.00     0.049 A 
ATOM     37  H   UNL A   1      45.487  26.952  28.132  1.00  0.00     0.167 HD
ATOM     38  C   UNL A   1      47.849  28.472  28.799  1.00  0.00     0.074 A 
ATOM     39  C   UNL A   1      48.743  29.541  29.207  1.00  0.00     0.031 C 
ATOM     40  C   UNL A   1      48.260  27.221  28.471  1.00  0.00     0.037 A 
BRANCH  27  41
ATOM     41  C   UNL A   1      43.759  23.314  26.749  1.00  0.00     0.064 A 
ATOM     42  C   UNL A   1      43.061  22.384  27.536  1.00  0.00     0.173 A 
ATOM     43  C   UNL A   1      44.111  22.936  25.445  1.00  0.00     0.173 A 
ATOM     44  F   UNL A   1      42.743  22.678  28.806  1.00  0.00    -0.203 F 
ATOM     45  C   UNL A   1      42.750  21.120  27.041  1.00  0.00     0.198 A 
ATOM     46  C   UNL A   1      43.773  21.683  24.944  1.00  0.00     0.198 A 
ATOM     47  F   UNL A   1      44.802  23.777  24.660  1.00  0.00    -0.203 F 
ATOM     48  F   UNL A   1      42.139  20.224  27.831  1.00  0.00    -0.200 F 
ATOM     49  C   UNL A   1      43.099  20.773  25.744  1.00  0.00     0.200 A 
ATOM     50  F   UNL A   1      44.115  21.349  23.692  1.00  0.00    -0.200 F 
ATOM     51  F   UNL A   1      42.802  19.554  25.271  1.00  0.00    -0.200 F 
ENDBRANCH  27  41
BRANCH  28  52
ATOM     52  C   UNL A   1      45.959  32.643  29.977  1.00  0.00     0.064 A 
ATOM     53  C   UNL A   1      46.274  33.689  29.099  1.00  0.00     0.173 A 
ATOM     54  C   UNL A   1      46.018  32.920  31.355  1.00  0.00     0.173 A 
ATOM     55  F   UNL A   1      46.250  33.482  27.775  1.00  0.00    -0.203 F 
ATOM     56  C   UNL A   1      46.672  34.939  29.576  1.00  0.00     0.198 A 
ATOM     57  C   UNL A   1      46.375  34.180  31.829  1.00  0.00     0.198 A 
ATOM     58  F   UNL A   1      45.729  31.962  32.248  1.00  0.00    -0.203 F 
ATOM     59  F   UNL A   1      47.037  35.897  28.713  1.00  0.00    -0.200 F 
ATOM     60  C   UNL A   1      46.720  35.184  30.940  1.00  0.00     0.200 A 
ATOM     61  F   UNL A   1      46.401  34.414  33.149  1.00  0.00    -0.200 F 
ATOM     62  F   UNL A   1      47.112  36.381  31.397  1.00  0.00    -0.200 F 
ENDBRANCH  28  52
BRANCH  40  63
ATOM     63  C   UNL A   1      49.737  26.975  28.507  1.00  0.00     0.064 A 
ATOM     64  C   UNL A   1      50.548  27.197  27.385  1.00  0.00     0.173 A 
ATOM     65  C   UNL A   1      50.347  26.537  29.691  1.00  0.00     0.173 A 
ATOM     66  F   UNL A   1      50.004  27.600  26.226  1.00  0.00    -0.203 F 
ATOM     67  C   UNL A   1      51.915  26.949  27.436  1.00  0.00     0.198 A 
ATOM     68  C   UNL A   1      51.720  26.331  29.750  1.00  0.00     0.198 A 
ATOM     69  F   UNL A   1      49.612  26.322  30.793  1.00  0.00    -0.203 F 
ATOM     70  F   UNL A   1      52.663  27.102  26.335  1.00  0.00    -0.200 F 
ATOM     71  C   UNL A   1      52.500  26.525  28.621  1.00  0.00     0.200 A 
ATOM     72  F   UNL A   1      52.287  25.940  30.899  1.00  0.00    -0.200 F 
ATOM     73  F   UNL A   1      53.819  26.293  28.670  1.00  0.00    -0.200 F 
ENDBRANCH  40  63
ENDBRANCH  14  15
ENDBRANCH   7   9
ENDBRANCH   6   7
ENDBRANCH   5   6
ENDBRANCH   4   5
ENDBRANCH   3   4
ENDBRANCH   2   3
ENDBRANCH   1   2
BRANCH   1  74
ATOM     74  O   UNL A   1      34.405  34.891  31.721  1.00  0.00    -0.377 OA
BRANCH  74  75
ATOM     75  C   UNL A   1      33.913  33.998  32.719  1.00  0.00     0.188 C 
BRANCH  75  76
ATOM     76  C   UNL A   1      34.877  33.511  33.823  1.00  0.00     0.188 C 
BRANCH  76  77
ATOM     77  O   UNL A   1      35.789  34.503  34.255  1.00  0.00    -0.376 OA
BRANCH  77  78
ATOM     78  C   UNL A   1      37.145  34.134  34.484  1.00  0.00     0.202 C 
BRANCH  78  79
ATOM     79  C   UNL A   1      37.564  33.093  35.554  1.00  0.00     0.261 C 
BRANCH  79  80
ATOM     80  O   UNL A   1      37.415  31.721  35.172  1.00  0.00    -0.459 OA
BRANCH  80  81
ATOM     81  C   UNL A   1      38.473  30.884  35.380  1.00  0.00     0.365 C 
ATOM     82  O   UNL A   1      38.683  30.298  36.435  1.00  0.00    -0.245 OA
BRANCH  81  83
ATOM     83  C   UNL A   1      39.190  30.575  34.043  1.00  0.00     0.296 C 
ATOM     84  C   UNL A   1      38.377  30.869  32.769  1.00  0.00     0.087 C 
ATOM     85  N   UNL A   1      40.466  31.308  33.920  1.00  0.00    -0.318 N 
ATOM     86  C   UNL A   1      39.312  31.683  31.911  1.00  0.00     0.054 C 
ATOM     87  C   UNL A   1      40.148  32.383  32.970  1.00  0.00     0.188 C 
ATOM     88  H   UNL A   1      40.789  31.712  34.800  1.00  0.00     0.349 HD
ATOM     89  C   UNL A   1      38.633  32.621  30.930  1.00  0.00     0.010 C 
ATOM     90  C   UNL A   1      41.204  33.276  32.346  1.00  0.00     0.065 C 
ATOM     91  C   UNL A   1      39.662  33.577  30.330  1.00  0.00     0.001 C 
ATOM     92  C   UNL A   1      40.500  34.274  31.410  1.00  0.00     0.006 C 
BRANCH  85  93
ATOM     93  C   UNL A   1      41.716  30.530  33.807  1.00  0.00     0.186 C 
ATOM     94  C   UNL A   1      42.527  30.410  35.137  1.00  0.00     0.081 C 
ATOM     95  C   UNL A   1      41.719  29.162  33.087  1.00  0.00     0.081 C 
ATOM     96  C   UNL A   1      42.209  29.276  36.109  1.00  0.00     0.143 C 
ATOM     97  C   UNL A   1      41.128  28.000  33.861  1.00  0.00     0.143 C 
ATOM     98  S   UNL A   1      42.027  27.679  35.359  1.00  0.00     0.150 S 
ATOM     99  O   UNL A   1      41.153  26.894  36.226  1.00  0.00    -0.229 OA
ATOM    100  O   UNL A   1      43.338  27.196  35.002  1.00  0.00    -0.229 OA
ENDBRANCH  85  93
ENDBRANCH  81  83
ENDBRANCH  80  81
ENDBRANCH  79  80
ENDBRANCH  78  79
ENDBRANCH  77  78
ENDBRANCH  76  77
ENDBRANCH  75  76
ENDBRANCH  74  75
ENDBRANCH   1  74
TORSDOF 21
ENDMDL
MODEL 3
REMARK VINA RESULT:      -8.4      3.714      7.859
REMARK SMILES O=C(OCCOCCOCCOCCOC(=O)[C@H]1C[C@H]2CCCC[C@@H]2[N@@H+]1C1CCS(=O)(=O)CC1)c1ccc(-c2c3nc(c(-c4c(F)c(F)c(F)c(F)c4F)c4ccc([nH]4)c(-c4c(F)c(F)c(F)c(F)c4F)c4nc(c(-c5c(F)c(F)c(F)c(F)c5F)c5ccc2[nH]5)C=C4)C=C3)cc1
REMARK SMILES IDX 8 1 7 2 6 3 5 4 4 5 3 6 2 7 1 8 35 9 36 10 97 11 37 12 96 13
REMARK SMILES IDX 38 14 39 15 40 16 90 17 41 18 95 19 89 20 91 21 42 22 94 23
REMARK SMILES IDX 88 24 87 25 43 27 75 28 55 29 74 30 56 31 59 32 73 33 92 34
REMARK SMILES IDX 57 35 58 36 72 38 93 39 60 40 44 41 45 42 53 43 46 44 47 45
REMARK SMILES IDX 51 46 54 47 48 48 49 49 52 50 50 51 76 52 77 53 85 54 78 55
REMARK SMILES IDX 79 56 83 57 86 58 80 59 81 60 84 61 82 62 61 63 62 64 70 65
REMARK SMILES IDX 63 66 64 67 68 68 71 69 65 70 66 71 69 72 67 73 9 74 10 75
REMARK SMILES IDX 11 76 12 77 13 78 14 79 15 80 16 81 17 82 18 83 19 84 26 85
REMARK SMILES IDX 20 86 25 87 21 89 24 90 22 91 23 92 27 93 28 94 34 95 29 96
REMARK SMILES IDX 33 97 30 98 31 99 32 100
REMARK H PARENT 91 26 59 37 26 88
REMARK Flexibility Score: inf
ROOT
ATOM      1  C   UNL A   1      33.186  35.552  30.084  1.00  0.00     0.188 C 
ENDROOT
BRANCH   1   2
ATOM      2  C   UNL A   1      33.717  35.135  28.718  1.00  0.00     0.188 C 
BRANCH   2   3
ATOM      3  O   UNL A   1      33.172  33.877  28.373  1.00  0.00    -0.376 OA
BRANCH   3   4
ATOM      4  C   UNL A   1      33.985  32.769  28.034  1.00  0.00     0.202 C 
BRANCH   4   5
ATOM      5  C   UNL A   1      34.662  32.040  29.179  1.00  0.00     0.261 C 
BRANCH   5   6
ATOM      6  O   UNL A   1      35.609  31.004  28.830  1.00  0.00    -0.460 OA
BRANCH   6   7
ATOM      7  C   UNL A   1      36.275  30.078  29.561  1.00  0.00     0.338 C 
ATOM      8  O   UNL A   1      35.786  29.667  30.610  1.00  0.00    -0.246 OA
BRANCH   7   9
ATOM      9  C   UNL A   1      37.564  29.502  29.122  1.00  0.00     0.060 A 
ATOM     10  C   UNL A   1      38.268  28.588  29.877  1.00  0.00     0.016 A 
ATOM     11  C   UNL A   1      38.051  29.778  27.845  1.00  0.00     0.016 A 
ATOM     12  C   UNL A   1      39.562  28.247  29.606  1.00  0.00     0.010 A 
ATOM     13  C   UNL A   1      39.280  29.243  27.437  1.00  0.00     0.010 A 
ATOM     14  C   UNL A   1      40.069  28.537  28.357  1.00  0.00    -0.014 A 
BRANCH  14  15
ATOM     15  C   UNL A   1      41.480  28.186  28.153  1.00  0.00     0.031 A 
ATOM     16  C   UNL A   1      42.497  29.204  28.554  1.00  0.00     0.074 A 
ATOM     17  C   UNL A   1      41.813  26.912  27.864  1.00  0.00     0.049 A 
ATOM     18  N   UNL A   1      43.792  29.170  28.430  1.00  0.00    -0.248 NA
ATOM     19  C   UNL A   1      41.984  30.429  29.200  1.00  0.00     0.031 C 
ATOM     20  C   UNL A   1      40.864  25.805  27.666  1.00  0.00     0.029 A 
ATOM     21  N   UNL A   1      43.036  26.313  27.749  1.00  0.00    -0.354 N 
ATOM     22  C   UNL A   1      44.242  30.379  28.938  1.00  0.00     0.074 A 
ATOM     23  C   UNL A   1      43.089  31.134  29.365  1.00  0.00     0.031 C 
ATOM     24  C   UNL A   1      41.544  24.662  27.496  1.00  0.00     0.029 A 
ATOM     25  C   UNL A   1      42.964  24.973  27.449  1.00  0.00     0.049 A 
ATOM     26  H   UNL A   1      43.887  26.794  27.870  1.00  0.00     0.167 HD
ATOM     27  C   UNL A   1      45.519  30.808  29.029  1.00  0.00     0.037 A 
ATOM     28  C   UNL A   1      43.944  24.120  27.107  1.00  0.00     0.037 A 
ATOM     29  C   UNL A   1      46.631  30.010  28.601  1.00  0.00     0.049 A 
ATOM     30  C   UNL A   1      45.343  24.672  27.076  1.00  0.00     0.074 A 
ATOM     31  C   UNL A   1      47.966  30.351  28.522  1.00  0.00     0.029 A 
ATOM     32  N   UNL A   1      46.523  28.688  28.183  1.00  0.00    -0.354 N 
ATOM     33  N   UNL A   1      45.768  25.866  27.422  1.00  0.00    -0.248 NA
ATOM     34  C   UNL A   1      46.394  23.774  26.593  1.00  0.00     0.031 C 
ATOM     35  C   UNL A   1      48.659  29.249  28.011  1.00  0.00     0.029 A 
ATOM     36  C   UNL A   1      47.767  28.200  27.831  1.00  0.00     0.049 A 
ATOM     37  H   UNL A   1      45.684  28.175  28.144  1.00  0.00     0.167 HD
ATOM     38  C   UNL A   1      47.137  25.861  27.213  1.00  0.00     0.074 A 
ATOM     39  C   UNL A   1      47.473  24.528  26.745  1.00  0.00     0.031 C 
ATOM     40  C   UNL A   1      48.041  26.860  27.377  1.00  0.00     0.037 A 
BRANCH  27  41
ATOM     41  C   UNL A   1      45.734  32.205  29.520  1.00  0.00     0.064 A 
ATOM     42  C   UNL A   1      45.934  32.498  30.878  1.00  0.00     0.173 A 
ATOM     43  C   UNL A   1      45.682  33.277  28.619  1.00  0.00     0.173 A 
ATOM     44  F   UNL A   1      45.943  31.512  31.788  1.00  0.00    -0.203 F 
ATOM     45  C   UNL A   1      46.055  33.815  31.315  1.00  0.00     0.198 A 
ATOM     46  C   UNL A   1      45.832  34.590  29.055  1.00  0.00     0.198 A 
ATOM     47  F   UNL A   1      45.467  33.054  27.313  1.00  0.00    -0.203 F 
ATOM     48  F   UNL A   1      46.181  34.077  32.625  1.00  0.00    -0.200 F 
ATOM     49  C   UNL A   1      46.011  34.859  30.403  1.00  0.00     0.200 A 
ATOM     50  F   UNL A   1      45.786  35.597  28.171  1.00  0.00    -0.200 F 
ATOM     51  F   UNL A   1      46.123  36.126  30.826  1.00  0.00    -0.200 F 
ENDBRANCH  27  41
BRANCH  28  52
ATOM     52  C   UNL A   1      43.634  22.731  26.668  1.00  0.00     0.064 A 
ATOM     53  C   UNL A   1      43.001  21.813  27.516  1.00  0.00     0.173 A 
ATOM     54  C   UNL A   1      44.022  22.270  25.397  1.00  0.00     0.173 A 
ATOM     55  F   UNL A   1      42.621  22.190  28.746  1.00  0.00    -0.203 F 
ATOM     56  C   UNL A   1      42.804  20.486  27.130  1.00  0.00     0.198 A 
ATOM     57  C   UNL A   1      43.788  20.957  24.997  1.00  0.00     0.198 A 
ATOM     58  F   UNL A   1      44.634  23.097  24.537  1.00  0.00    -0.203 F 
ATOM     59  F   UNL A   1      42.261  19.615  27.991  1.00  0.00    -0.200 F 
ATOM     60  C   UNL A   1      43.195  20.060  25.870  1.00  0.00     0.200 A 
ATOM     61  F   UNL A   1      44.153  20.557  23.770  1.00  0.00    -0.200 F 
ATOM     62  F   UNL A   1      43.015  18.784  25.504  1.00  0.00    -0.200 F 
ENDBRANCH  28  52
BRANCH  40  63
ATOM     63  C   UNL A   1      49.469  26.519  27.083  1.00  0.00     0.064 A 
ATOM     64  C   UNL A   1      49.965  26.494  25.771  1.00  0.00     0.173 A 
ATOM     65  C   UNL A   1      50.355  26.238  28.133  1.00  0.00     0.173 A 
ATOM     66  F   UNL A   1      49.149  26.739  24.735  1.00  0.00    -0.203 F 
ATOM     67  C   UNL A   1      51.291  26.161  25.519  1.00  0.00     0.198 A 
ATOM     68  C   UNL A   1      51.691  25.948  27.879  1.00  0.00     0.198 A 
ATOM     69  F   UNL A   1      49.928  26.261  29.405  1.00  0.00    -0.203 F 
ATOM     70  F   UNL A   1      51.729  26.077  24.256  1.00  0.00    -0.200 F 
ATOM     71  C   UNL A   1      52.154  25.897  26.574  1.00  0.00     0.200 A 
ATOM     72  F   UNL A   1      52.527  25.712  28.899  1.00  0.00    -0.200 F 
ATOM     73  F   UNL A   1      53.433  25.583  26.329  1.00  0.00    -0.200 F 
ENDBRANCH  40  63
ENDBRANCH  14  15
ENDBRANCH   7   9
ENDBRANCH   6   7
ENDBRANCH   5   6
ENDBRANCH   4   5
ENDBRANCH   3   4
ENDBRANCH   2   3
ENDBRANCH   1   2
BRANCH   1  74
ATOM     74  O   UNL A   1      34.129  35.390  31.139  1.00  0.00    -0.377 OA
BRANCH  74  75
ATOM     75  C   UNL A   1      33.644  35.506  32.475  1.00  0.00     0.188 C 
BRANCH  75  76
ATOM     76  C   UNL A   1      34.578  35.117  33.643  1.00  0.00     0.188 C 
BRANCH  76  77
ATOM     77  O   UNL A   1      35.951  35.275  33.344  1.00  0.00    -0.376 OA
BRANCH  77  78
ATOM     78  C   UNL A   1      36.827  34.169  33.541  1.00  0.00     0.202 C 
BRANCH  78  79
ATOM     79  C   UNL A   1      36.877  33.361  34.862  1.00  0.00     0.261 C 
BRANCH  79  80
ATOM     80  O   UNL A   1      37.090  31.953  34.716  1.00  0.00    -0.459 OA
BRANCH  80  81
ATOM     81  C   UNL A   1      38.269  31.436  35.171  1.00  0.00     0.365 C 
ATOM     82  O   UNL A   1      38.497  31.186  36.348  1.00  0.00    -0.245 OA
BRANCH  81  83
ATOM     83  C   UNL A   1      39.147  30.967  33.985  1.00  0.00     0.296 C 
ATOM     84  C   UNL A   1      38.464  30.983  32.604  1.00  0.00     0.087 C 
ATOM     85  N   UNL A   1      40.383  31.765  33.864  1.00  0.00    -0.318 N 
ATOM     86  C   UNL A   1      39.440  31.713  31.717  1.00  0.00     0.054 C 
ATOM     87  C   UNL A   1      40.110  32.641  32.717  1.00  0.00     0.188 C 
ATOM     88  H   UNL A   1      40.582  32.332  34.690  1.00  0.00     0.349 HD
ATOM     89  C   UNL A   1      38.819  32.421  30.526  1.00  0.00     0.010 C 
ATOM     90  C   UNL A   1      41.174  33.497  32.056  1.00  0.00     0.065 C 
ATOM     91  C   UNL A   1      39.851  33.341  29.875  1.00  0.00     0.001 C 
ATOM     92  C   UNL A   1      40.521  34.270  30.896  1.00  0.00     0.006 C 
BRANCH  85  93
ATOM     93  C   UNL A   1      41.682  31.077  34.012  1.00  0.00     0.186 C 
ATOM     94  C   UNL A   1      41.949  30.497  35.437  1.00  0.00     0.081 C 
ATOM     95  C   UNL A   1      42.145  30.052  32.952  1.00  0.00     0.081 C 
ATOM     96  C   UNL A   1      41.456  29.093  35.778  1.00  0.00     0.143 C 
ATOM     97  C   UNL A   1      41.479  28.691  33.006  1.00  0.00     0.143 C 
ATOM     98  S   UNL A   1      41.793  27.862  34.546  1.00  0.00     0.150 S 
ATOM     99  O   UNL A   1      40.779  26.822  34.688  1.00  0.00    -0.229 OA
ATOM    100  O   UNL A   1      43.197  27.537  34.604  1.00  0.00    -0.229 OA
ENDBRANCH  85  93
ENDBRANCH  81  83
ENDBRANCH  80  81
ENDBRANCH  79  80
ENDBRANCH  78  79
ENDBRANCH  77  78
ENDBRANCH  76  77
ENDBRANCH  75  76
ENDBRANCH  74  75
ENDBRANCH   1  74
TORSDOF 21
ENDMDL
