MODEL 1
REMARK VINA RESULT:     -10.8      0.000      0.000
REMARK SMILES COc1cccc([C@H]2CC(c3ccc(S(C)(=O)=O)cc3)=NN2c2ccc(C(=O)OCCOCCOCCOCCOC(=O)c3ccc(-c4c5nc(c(-c6c(F)c(F)c(F)c(F)c6F)c6ccc([nH]6)c(-c6c(F)c(F)c(F)c(F)c6F)c6nc(c(-c7c(F)c(F)c(F)c(F)c7F)c7ccc4[nH]7)C=C6)C=C5)cc3)cc2)c1
REMARK SMILES IDX 34 1 33 2 32 3 31 4 30 5 29 6 27 7 28 8 26 9 23 10 24 11
REMARK SMILES IDX 108 12 25 13 107 14 22 15 8 16 9 17 10 18 21 19 7 20 3 21
REMARK SMILES IDX 4 22 109 23 5 24 6 25 2 26 1 27 11 28 12 29 20 30 13 31
REMARK SMILES IDX 19 32 14 33 15 34 16 35 17 36 18 37 35 38 36 39 37 40 38 41
REMARK SMILES IDX 39 42 40 43 41 44 42 45 43 46 44 47 45 48 106 49 46 50
REMARK SMILES IDX 105 51 47 52 48 53 49 54 99 55 50 56 104 57 98 58 100 59
REMARK SMILES IDX 51 60 103 61 97 62 96 63 52 65 84 66 64 67 83 68 65 69 68 70
REMARK SMILES IDX 82 71 101 72 66 73 67 74 81 76 102 77 69 78 53 79 54 80
REMARK SMILES IDX 62 81 55 82 56 83 60 84 63 85 57 86 58 87 61 88 59 89 85 90
REMARK SMILES IDX 86 91 94 92 87 93 88 94 92 95 95 96 89 97 90 98 93 99 91 100
REMARK SMILES IDX 70 101 71 102 79 103 72 104 73 105 77 106 80 107 74 108
REMARK SMILES IDX 75 109 78 110 76 111
REMARK H PARENT 100 64 68 75
REMARK Flexibility Score: inf
ROOT
ATOM      1  C   UNL A   1      34.404  31.651  28.724  1.00  0.00     0.188 C 
ENDROOT
BRANCH   1   2
ATOM      2  C   UNL A   1      34.569  30.634  27.572  1.00  0.00     0.188 C 
BRANCH   2   3
ATOM      3  O   UNL A   1      33.613  30.776  26.536  1.00  0.00    -0.376 OA
BRANCH   3   4
ATOM      4  C   UNL A   1      32.254  30.505  26.817  1.00  0.00     0.202 C 
BRANCH   4   5
ATOM      5  C   UNL A   1      31.393  29.864  25.718  1.00  0.00     0.261 C 
BRANCH   5   6
ATOM      6  O   UNL A   1      31.589  28.462  25.500  1.00  0.00    -0.460 OA
BRANCH   6   7
ATOM      7  C   UNL A   1      31.621  27.676  26.600  1.00  0.00     0.338 C 
ATOM      8  O   UNL A   1      30.953  27.813  27.608  1.00  0.00    -0.246 OA
BRANCH   7   9
ATOM      9  C   UNL A   1      32.467  26.497  26.300  1.00  0.00     0.060 A 
ATOM     10  C   UNL A   1      34.060  24.228  25.834  1.00  0.00     0.060 A 
ATOM     11  C   UNL A   1      32.802  24.102  26.435  1.00  0.00     0.029 A 
ATOM     12  C   UNL A   1      34.460  25.496  25.382  1.00  0.00     0.029 A 
ATOM     13  C   UNL A   1      32.024  25.232  26.702  1.00  0.00     0.018 A 
ATOM     14  C   UNL A   1      33.665  26.624  25.593  1.00  0.00     0.018 A 
BRANCH  10  15
ATOM     15  N   UNL A   1      34.945  23.155  25.798  1.00  0.00    -0.257 N 
ATOM     16  C   UNL A   1      34.519  21.823  25.356  1.00  0.00     0.144 C 
ATOM     17  C   UNL A   1      35.842  21.063  25.250  1.00  0.00     0.091 C 
ATOM     18  C   UNL A   1      36.803  22.142  25.666  1.00  0.00     0.071 C 
ATOM     19  N   UNL A   1      36.290  23.305  25.924  1.00  0.00    -0.176 NA
BRANCH  16  20
ATOM     20  C   UNL A   1      33.737  21.865  24.049  1.00  0.00    -0.019 A 
ATOM     21  C   UNL A   1      33.110  22.968  21.964  1.00  0.00     0.119 A 
ATOM     22  C   UNL A   1      32.168  21.969  21.725  1.00  0.00     0.046 A 
ATOM     23  C   UNL A   1      33.881  22.923  23.128  1.00  0.00     0.052 A 
ATOM     24  C   UNL A   1      32.009  20.917  22.625  1.00  0.00     0.004 A 
ATOM     25  C   UNL A   1      32.789  20.864  23.778  1.00  0.00     0.006 A 
BRANCH  21  26
ATOM     26  O   UNL A   1      33.146  23.965  21.027  1.00  0.00    -0.497 OA
ATOM     27  C   UNL A   1      33.011  25.291  21.526  1.00  0.00     0.278 C 
ENDBRANCH  21  26
ENDBRANCH  16  20
BRANCH  18  28
ATOM     28  C   UNL A   1      38.229  21.827  25.826  1.00  0.00    -0.002 A 
ATOM     29  C   UNL A   1      39.086  22.831  26.292  1.00  0.00     0.011 A 
ATOM     30  C   UNL A   1      38.701  20.533  25.595  1.00  0.00     0.011 A 
ATOM     31  C   UNL A   1      40.424  22.532  26.550  1.00  0.00     0.021 A 
ATOM     32  C   UNL A   1      40.046  20.238  25.829  1.00  0.00     0.021 A 
ATOM     33  C   UNL A   1      40.900  21.238  26.309  1.00  0.00     0.067 A 
BRANCH  33  34
ATOM     34  S   UNL A   1      42.596  20.853  26.684  1.00  0.00     0.175 S 
ATOM     35  C   UNL A   1      43.539  21.910  25.617  1.00  0.00     0.163 C 
ATOM     36  O   UNL A   1      42.822  21.265  28.055  1.00  0.00    -0.224 OA
ATOM     37  O   UNL A   1      42.836  19.484  26.265  1.00  0.00    -0.224 OA
ENDBRANCH  33  34
ENDBRANCH  18  28
ENDBRANCH  10  15
ENDBRANCH   7   9
ENDBRANCH   6   7
ENDBRANCH   5   6
ENDBRANCH   4   5
ENDBRANCH   3   4
ENDBRANCH   2   3
ENDBRANCH   1   2
BRANCH   1  38
ATOM     38  O   UNL A   1      35.492  32.495  29.078  1.00  0.00    -0.377 OA
BRANCH  38  39
ATOM     39  C   UNL A   1      35.573  33.818  28.556  1.00  0.00     0.188 C 
BRANCH  39  40
ATOM     40  C   UNL A   1      34.348  34.509  27.912  1.00  0.00     0.188 C 
BRANCH  40  41
ATOM     41  O   UNL A   1      33.111  34.213  28.533  1.00  0.00    -0.376 OA
BRANCH  41  42
ATOM     42  C   UNL A   1      32.481  35.235  29.280  1.00  0.00     0.202 C 
BRANCH  42  43
ATOM     43  C   UNL A   1      33.362  36.381  29.798  1.00  0.00     0.261 C 
BRANCH  43  44
ATOM     44  O   UNL A   1      33.196  36.740  31.179  1.00  0.00    -0.460 OA
BRANCH  44  45
ATOM     45  C   UNL A   1      32.881  35.756  32.045  1.00  0.00     0.338 C 
ATOM     46  O   UNL A   1      31.788  35.523  32.539  1.00  0.00    -0.246 OA
BRANCH  45  47
ATOM     47  C   UNL A   1      34.062  34.876  32.166  1.00  0.00     0.060 A 
ATOM     48  C   UNL A   1      33.899  33.566  32.635  1.00  0.00     0.016 A 
ATOM     49  C   UNL A   1      35.325  35.346  31.799  1.00  0.00     0.016 A 
ATOM     50  C   UNL A   1      35.009  32.731  32.771  1.00  0.00     0.010 A 
ATOM     51  C   UNL A   1      36.438  34.517  31.956  1.00  0.00     0.010 A 
ATOM     52  C   UNL A   1      36.289  33.219  32.474  1.00  0.00    -0.014 A 
BRANCH  52  53
ATOM     53  C   UNL A   1      37.488  32.451  32.892  1.00  0.00     0.031 A 
ATOM     54  C   UNL A   1      38.139  32.807  34.198  1.00  0.00     0.074 A 
ATOM     55  C   UNL A   1      37.983  31.454  32.137  1.00  0.00     0.049 A 
ATOM     56  N   UNL A   1      39.229  32.333  34.745  1.00  0.00    -0.248 NA
ATOM     57  C   UNL A   1      37.470  33.848  34.995  1.00  0.00     0.031 C 
ATOM     58  C   UNL A   1      37.415  30.987  30.876  1.00  0.00     0.029 A 
ATOM     59  N   UNL A   1      39.090  30.663  32.325  1.00  0.00    -0.354 N 
ATOM     60  C   UNL A   1      39.379  33.022  35.942  1.00  0.00     0.074 A 
ATOM     61  C   UNL A   1      38.291  33.971  36.027  1.00  0.00     0.031 C 
ATOM     62  C   UNL A   1      38.186  29.996  30.393  1.00  0.00     0.029 A 
ATOM     63  C   UNL A   1      39.321  29.788  31.293  1.00  0.00     0.049 A 
ATOM     64  H   UNL A   1      39.662  30.718  33.125  1.00  0.00     0.167 HD
ATOM     65  C   UNL A   1      40.336  32.871  36.888  1.00  0.00     0.037 A 
ATOM     66  C   UNL A   1      40.348  28.938  31.090  1.00  0.00     0.037 A 
ATOM     67  C   UNL A   1      41.420  31.929  36.797  1.00  0.00     0.049 A 
ATOM     68  C   UNL A   1      41.447  28.849  32.119  1.00  0.00     0.074 A 
ATOM     69  C   UNL A   1      42.430  31.687  37.709  1.00  0.00     0.029 A 
ATOM     70  N   UNL A   1      41.639  31.081  35.720  1.00  0.00    -0.354 N 
ATOM     71  N   UNL A   1      41.572  29.482  33.261  1.00  0.00    -0.248 NA
ATOM     72  C   UNL A   1      42.550  27.919  31.832  1.00  0.00     0.031 C 
ATOM     73  C   UNL A   1      43.299  30.740  37.156  1.00  0.00     0.029 A 
ATOM     74  C   UNL A   1      42.789  30.337  35.933  1.00  0.00     0.049 A 
ATOM     75  H   UNL A   1      41.064  31.018  34.924  1.00  0.00     0.167 HD
ATOM     76  C   UNL A   1      42.740  29.004  33.842  1.00  0.00     0.074 A 
ATOM     77  C   UNL A   1      43.282  28.018  32.933  1.00  0.00     0.031 C 
ATOM     78  C   UNL A   1      43.312  29.349  35.023  1.00  0.00     0.037 A 
BRANCH  65  79
ATOM     79  C   UNL A   1      40.269  33.769  38.090  1.00  0.00     0.064 A 
ATOM     80  C   UNL A   1      41.001  34.964  38.164  1.00  0.00     0.173 A 
ATOM     81  C   UNL A   1      39.437  33.444  39.172  1.00  0.00     0.173 A 
ATOM     82  F   UNL A   1      41.824  35.316  37.164  1.00  0.00    -0.203 F 
ATOM     83  C   UNL A   1      40.926  35.783  39.289  1.00  0.00     0.198 A 
ATOM     84  C   UNL A   1      39.338  34.281  40.279  1.00  0.00     0.198 A 
ATOM     85  F   UNL A   1      38.714  32.314  39.153  1.00  0.00    -0.203 F 
ATOM     86  F   UNL A   1      41.676  36.891  39.360  1.00  0.00    -0.200 F 
ATOM     87  C   UNL A   1      40.088  35.445  40.341  1.00  0.00     0.200 A 
ATOM     88  F   UNL A   1      38.516  33.961  41.288  1.00  0.00    -0.200 F 
ATOM     89  F   UNL A   1      40.010  36.238  41.419  1.00  0.00    -0.200 F 
ENDBRANCH  65  79
BRANCH  66  90
ATOM     90  C   UNL A   1      40.400  28.113  29.853  1.00  0.00     0.064 A 
ATOM     91  C   UNL A   1      41.205  28.484  28.767  1.00  0.00     0.173 A 
ATOM     92  C   UNL A   1      39.621  26.954  29.717  1.00  0.00     0.173 A 
ATOM     93  F   UNL A   1      41.948  29.600  28.835  1.00  0.00    -0.203 F 
ATOM     94  C   UNL A   1      41.213  27.742  27.587  1.00  0.00     0.198 A 
ATOM     95  C   UNL A   1      39.655  26.193  28.550  1.00  0.00     0.198 A 
ATOM     96  F   UNL A   1      38.828  26.555  30.723  1.00  0.00    -0.203 F 
ATOM     97  F   UNL A   1      41.950  28.152  26.546  1.00  0.00    -0.200 F 
ATOM     98  C   UNL A   1      40.443  26.594  27.482  1.00  0.00     0.200 A 
ATOM     99  F   UNL A   1      38.919  25.079  28.457  1.00  0.00    -0.200 F 
ATOM    100  F   UNL A   1      40.452  25.880  26.348  1.00  0.00    -0.200 F 
ENDBRANCH  66  90
BRANCH  78 101
ATOM    101  C   UNL A   1      44.563  28.621  35.429  1.00  0.00     0.064 A 
ATOM    102  C   UNL A   1      44.524  27.462  36.218  1.00  0.00     0.173 A 
ATOM    103  C   UNL A   1      45.818  29.066  34.981  1.00  0.00     0.173 A 
ATOM    104  F   UNL A   1      43.353  26.999  36.683  1.00  0.00    -0.203 F 
ATOM    105  C   UNL A   1      45.696  26.794  36.569  1.00  0.00     0.198 A 
ATOM    106  C   UNL A   1      46.983  28.376  35.303  1.00  0.00     0.198 A 
ATOM    107  F   UNL A   1      45.912  30.164  34.216  1.00  0.00    -0.203 F 
ATOM    108  F   UNL A   1      45.639  25.720  37.369  1.00  0.00    -0.200 F 
ATOM    109  C   UNL A   1      46.922  27.246  36.104  1.00  0.00     0.200 A 
ATOM    110  F   UNL A   1      48.164  28.803  34.836  1.00  0.00    -0.200 F 
ATOM    111  F   UNL A   1      48.047  26.596  36.434  1.00  0.00    -0.200 F 
ENDBRANCH  78 101
ENDBRANCH  52  53
ENDBRANCH  45  47
ENDBRANCH  44  45
ENDBRANCH  43  44
ENDBRANCH  42  43
ENDBRANCH  41  42
ENDBRANCH  40  41
ENDBRANCH  39  40
ENDBRANCH  38  39
ENDBRANCH   1  38
TORSDOF 25
ENDMDL
MODEL 2
REMARK VINA RESULT:     -10.3      0.813      6.784
REMARK SMILES COc1cccc([C@H]2CC(c3ccc(S(C)(=O)=O)cc3)=NN2c2ccc(C(=O)OCCOCCOCCOCCOC(=O)c3ccc(-c4c5nc(c(-c6c(F)c(F)c(F)c(F)c6F)c6ccc([nH]6)c(-c6c(F)c(F)c(F)c(F)c6F)c6nc(c(-c7c(F)c(F)c(F)c(F)c7F)c7ccc4[nH]7)C=C6)C=C5)cc3)cc2)c1
REMARK SMILES IDX 34 1 33 2 32 3 31 4 30 5 29 6 27 7 28 8 26 9 23 10 24 11
REMARK SMILES IDX 108 12 25 13 107 14 22 15 8 16 9 17 10 18 21 19 7 20 3 21
REMARK SMILES IDX 4 22 109 23 5 24 6 25 2 26 1 27 11 28 12 29 20 30 13 31
REMARK SMILES IDX 19 32 14 33 15 34 16 35 17 36 18 37 35 38 36 39 37 40 38 41
REMARK SMILES IDX 39 42 40 43 41 44 42 45 43 46 44 47 45 48 106 49 46 50
REMARK SMILES IDX 105 51 47 52 48 53 49 54 99 55 50 56 104 57 98 58 100 59
REMARK SMILES IDX 51 60 103 61 97 62 96 63 52 65 84 66 64 67 83 68 65 69 68 70
REMARK SMILES IDX 82 71 101 72 66 73 67 74 81 76 102 77 69 78 53 79 54 80
REMARK SMILES IDX 62 81 55 82 56 83 60 84 63 85 57 86 58 87 61 88 59 89 85 90
REMARK SMILES IDX 86 91 94 92 87 93 88 94 92 95 95 96 89 97 90 98 93 99 91 100
REMARK SMILES IDX 70 101 71 102 79 103 72 104 73 105 77 106 80 107 74 108
REMARK SMILES IDX 75 109 78 110 76 111
REMARK H PARENT 100 64 68 75
REMARK Flexibility Score: inf
ROOT
ATOM      1  C   UNL A   1      34.644  31.558  28.862  1.00  0.00     0.188 C 
ENDROOT
BRANCH   1   2
ATOM      2  C   UNL A   1      34.807  30.596  27.665  1.00  0.00     0.188 C 
BRANCH   2   3
ATOM      3  O   UNL A   1      33.800  30.731  26.676  1.00  0.00    -0.376 OA
BRANCH   3   4
ATOM      4  C   UNL A   1      32.563  30.075  26.867  1.00  0.00     0.202 C 
BRANCH   4   5
ATOM      5  C   UNL A   1      31.723  29.720  25.630  1.00  0.00     0.261 C 
BRANCH   5   6
ATOM      6  O   UNL A   1      31.463  28.327  25.423  1.00  0.00    -0.460 OA
BRANCH   6   7
ATOM      7  C   UNL A   1      31.438  27.545  26.526  1.00  0.00     0.338 C 
ATOM      8  O   UNL A   1      30.696  27.664  27.483  1.00  0.00    -0.246 OA
BRANCH   7   9
ATOM      9  C   UNL A   1      32.336  26.389  26.291  1.00  0.00     0.060 A 
ATOM     10  C   UNL A   1      34.025  24.168  25.950  1.00  0.00     0.060 A 
ATOM     11  C   UNL A   1      32.758  24.015  26.526  1.00  0.00     0.029 A 
ATOM     12  C   UNL A   1      34.389  25.432  25.460  1.00  0.00     0.029 A 
ATOM     13  C   UNL A   1      31.931  25.123  26.730  1.00  0.00     0.018 A 
ATOM     14  C   UNL A   1      33.546  26.536  25.610  1.00  0.00     0.018 A 
BRANCH  10  15
ATOM     15  N   UNL A   1      34.951  23.129  25.978  1.00  0.00    -0.257 N 
ATOM     16  C   UNL A   1      34.549  21.736  25.759  1.00  0.00     0.144 C 
ATOM     17  C   UNL A   1      35.890  21.013  25.634  1.00  0.00     0.091 C 
ATOM     18  C   UNL A   1      36.834  22.169  25.811  1.00  0.00     0.071 C 
ATOM     19  N   UNL A   1      36.294  23.339  25.957  1.00  0.00    -0.176 NA
BRANCH  16  20
ATOM     20  C   UNL A   1      33.655  21.573  24.535  1.00  0.00    -0.019 A 
ATOM     21  C   UNL A   1      32.306  20.196  23.038  1.00  0.00     0.119 A 
ATOM     22  C   UNL A   1      32.136  21.292  22.193  1.00  0.00     0.046 A 
ATOM     23  C   UNL A   1      33.074  20.333  24.197  1.00  0.00     0.052 A 
ATOM     24  C   UNL A   1      32.705  22.524  22.509  1.00  0.00     0.004 A 
ATOM     25  C   UNL A   1      33.458  22.665  23.673  1.00  0.00     0.006 A 
BRANCH  21  26
ATOM     26  O   UNL A   1      31.731  19.034  22.601  1.00  0.00    -0.497 OA
ATOM     27  C   UNL A   1      32.547  17.871  22.676  1.00  0.00     0.278 C 
ENDBRANCH  21  26
ENDBRANCH  16  20
BRANCH  18  28
ATOM     28  C   UNL A   1      38.281  21.926  25.879  1.00  0.00    -0.002 A 
ATOM     29  C   UNL A   1      39.114  22.967  26.305  1.00  0.00     0.011 A 
ATOM     30  C   UNL A   1      38.803  20.660  25.603  1.00  0.00     0.011 A 
ATOM     31  C   UNL A   1      40.479  22.734  26.478  1.00  0.00     0.021 A 
ATOM     32  C   UNL A   1      40.173  20.431  25.751  1.00  0.00     0.021 A 
ATOM     33  C   UNL A   1      41.003  21.469  26.191  1.00  0.00     0.067 A 
BRANCH  33  34
ATOM     34  S   UNL A   1      42.737  21.167  26.456  1.00  0.00     0.175 S 
ATOM     35  C   UNL A   1      42.806  19.522  27.115  1.00  0.00     0.163 C 
ATOM     36  O   UNL A   1      43.362  21.164  25.149  1.00  0.00    -0.224 OA
ATOM     37  O   UNL A   1      43.184  22.073  27.497  1.00  0.00    -0.224 OA
ENDBRANCH  33  34
ENDBRANCH  18  28
ENDBRANCH  10  15
ENDBRANCH   7   9
ENDBRANCH   6   7
ENDBRANCH   5   6
ENDBRANCH   4   5
ENDBRANCH   3   4
ENDBRANCH   2   3
ENDBRANCH   1   2
BRANCH   1  38
ATOM     38  O   UNL A   1      35.695  32.460  29.188  1.00  0.00    -0.377 OA
BRANCH  38  39
ATOM     39  C   UNL A   1      35.839  33.681  28.471  1.00  0.00     0.188 C 
BRANCH  39  40
ATOM     40  C   UNL A   1      34.611  34.451  27.930  1.00  0.00     0.188 C 
BRANCH  40  41
ATOM     41  O   UNL A   1      33.365  33.985  28.413  1.00  0.00    -0.376 OA
BRANCH  41  42
ATOM     42  C   UNL A   1      32.680  34.781  29.361  1.00  0.00     0.202 C 
BRANCH  42  43
ATOM     43  C   UNL A   1      33.351  36.089  29.807  1.00  0.00     0.261 C 
BRANCH  43  44
ATOM     44  O   UNL A   1      33.157  36.471  31.177  1.00  0.00    -0.460 OA
BRANCH  44  45
ATOM     45  C   UNL A   1      32.932  35.488  32.072  1.00  0.00     0.338 C 
ATOM     46  O   UNL A   1      31.861  35.154  32.555  1.00  0.00    -0.246 OA
BRANCH  45  47
ATOM     47  C   UNL A   1      34.199  34.748  32.245  1.00  0.00     0.060 A 
ATOM     48  C   UNL A   1      34.165  33.418  32.685  1.00  0.00     0.016 A 
ATOM     49  C   UNL A   1      35.417  35.367  31.957  1.00  0.00     0.016 A 
ATOM     50  C   UNL A   1      35.355  32.713  32.870  1.00  0.00     0.010 A 
ATOM     51  C   UNL A   1      36.609  34.669  32.164  1.00  0.00     0.010 A 
ATOM     52  C   UNL A   1      36.583  33.351  32.653  1.00  0.00    -0.014 A 
BRANCH  52  53
ATOM     53  C   UNL A   1      37.839  32.717  33.124  1.00  0.00     0.031 A 
ATOM     54  C   UNL A   1      38.464  31.653  32.265  1.00  0.00     0.074 A 
ATOM     55  C   UNL A   1      38.420  33.081  34.281  1.00  0.00     0.049 A 
ATOM     56  N   UNL A   1      39.515  30.908  32.491  1.00  0.00    -0.248 NA
ATOM     57  C   UNL A   1      37.805  31.390  30.976  1.00  0.00     0.031 C 
ATOM     58  C   UNL A   1      37.936  34.128  35.177  1.00  0.00     0.029 A 
ATOM     59  N   UNL A   1      39.544  32.595  34.903  1.00  0.00    -0.354 N 
ATOM     60  C   UNL A   1      39.638  30.086  31.378  1.00  0.00     0.074 A 
ATOM     61  C   UNL A   1      38.536  30.397  30.495  1.00  0.00     0.031 C 
ATOM     62  C   UNL A   1      38.752  34.197  36.244  1.00  0.00     0.029 A 
ATOM     63  C   UNL A   1      39.791  33.174  36.122  1.00  0.00     0.049 A 
ATOM     64  H   UNL A   1      40.117  31.897  34.510  1.00  0.00     0.167 HD
ATOM     65  C   UNL A   1      40.590  29.160  31.114  1.00  0.00     0.037 A 
ATOM     66  C   UNL A   1      40.734  32.890  37.043  1.00  0.00     0.037 A 
ATOM     67  C   UNL A   1      41.682  28.850  31.998  1.00  0.00     0.049 A 
ATOM     68  C   UNL A   1      41.733  31.794  36.763  1.00  0.00     0.074 A 
ATOM     69  C   UNL A   1      42.707  27.941  31.817  1.00  0.00     0.029 A 
ATOM     70  N   UNL A   1      41.881  29.436  33.241  1.00  0.00    -0.354 N 
ATOM     71  N   UNL A   1      41.862  31.038  35.699  1.00  0.00    -0.248 NA
ATOM     72  C   UNL A   1      42.723  31.517  37.814  1.00  0.00     0.031 C 
ATOM     73  C   UNL A   1      43.490  27.928  32.976  1.00  0.00     0.029 A 
ATOM     74  C   UNL A   1      42.997  28.884  33.849  1.00  0.00     0.049 A 
ATOM     75  H   UNL A   1      41.314  30.140  33.631  1.00  0.00     0.167 HD
ATOM     76  C   UNL A   1      42.962  30.224  35.936  1.00  0.00     0.074 A 
ATOM     77  C   UNL A   1      43.475  30.587  37.240  1.00  0.00     0.031 C 
ATOM     78  C   UNL A   1      43.503  29.263  35.145  1.00  0.00     0.037 A 
BRANCH  65  79
ATOM     79  C   UNL A   1      40.471  28.391  29.830  1.00  0.00     0.064 A 
ATOM     80  C   UNL A   1      41.144  28.787  28.663  1.00  0.00     0.173 A 
ATOM     81  C   UNL A   1      39.696  27.222  29.774  1.00  0.00     0.173 A 
ATOM     82  F   UNL A   1      41.886  29.904  28.657  1.00  0.00    -0.203 F 
ATOM     83  C   UNL A   1      41.019  28.059  27.481  1.00  0.00     0.198 A 
ATOM     84  C   UNL A   1      39.602  26.478  28.601  1.00  0.00     0.198 A 
ATOM     85  F   UNL A   1      39.034  26.796  30.860  1.00  0.00    -0.203 F 
ATOM     86  F   UNL A   1      41.626  28.486  26.367  1.00  0.00    -0.200 F 
ATOM     87  C   UNL A   1      40.256  26.901  27.454  1.00  0.00     0.200 A 
ATOM     88  F   UNL A   1      38.876  25.352  28.580  1.00  0.00    -0.200 F 
ATOM     89  F   UNL A   1      40.144  26.198  26.319  1.00  0.00    -0.200 F 
ENDBRANCH  65  79
BRANCH  66  90
ATOM     90  C   UNL A   1      40.772  33.639  38.328  1.00  0.00     0.064 A 
ATOM     91  C   UNL A   1      39.892  33.330  39.374  1.00  0.00     0.173 A 
ATOM     92  C   UNL A   1      41.668  34.702  38.525  1.00  0.00     0.173 A 
ATOM     93  F   UNL A   1      38.997  32.340  39.226  1.00  0.00    -0.203 F 
ATOM     94  C   UNL A   1      39.890  34.066  40.558  1.00  0.00     0.198 A 
ATOM     95  C   UNL A   1      41.688  35.416  39.722  1.00  0.00     0.198 A 
ATOM     96  F   UNL A   1      42.529  35.044  37.556  1.00  0.00    -0.203 F 
ATOM     97  F   UNL A   1      39.000  33.784  41.518  1.00  0.00    -0.200 F 
ATOM     98  C   UNL A   1      40.792  35.104  40.733  1.00  0.00     0.200 A 
ATOM     99  F   UNL A   1      42.569  36.410  39.891  1.00  0.00    -0.200 F 
ATOM    100  F   UNL A   1      40.791  35.811  41.872  1.00  0.00    -0.200 F 
ENDBRANCH  66  90
BRANCH  78 101
ATOM    101  C   UNL A   1      44.742  28.570  35.639  1.00  0.00     0.064 A 
ATOM    102  C   UNL A   1      46.027  29.064  35.371  1.00  0.00     0.173 A 
ATOM    103  C   UNL A   1      44.638  27.417  36.435  1.00  0.00     0.173 A 
ATOM    104  F   UNL A   1      46.185  30.156  34.606  1.00  0.00    -0.203 F 
ATOM    105  C   UNL A   1      47.160  28.413  35.853  1.00  0.00     0.198 A 
ATOM    106  C   UNL A   1      45.770  26.791  36.946  1.00  0.00     0.198 A 
ATOM    107  F   UNL A   1      43.432  26.906  36.731  1.00  0.00    -0.203 F 
ATOM    108  F   UNL A   1      48.380  28.873  35.538  1.00  0.00    -0.200 F 
ATOM    109  C   UNL A   1      47.031  27.283  36.648  1.00  0.00     0.200 A 
ATOM    110  F   UNL A   1      45.642  25.711  37.729  1.00  0.00    -0.200 F 
ATOM    111  F   UNL A   1      48.123  26.665  37.119  1.00  0.00    -0.200 F 
ENDBRANCH  78 101
ENDBRANCH  52  53
ENDBRANCH  45  47
ENDBRANCH  44  45
ENDBRANCH  43  44
ENDBRANCH  42  43
ENDBRANCH  41  42
ENDBRANCH  40  41
ENDBRANCH  39  40
ENDBRANCH  38  39
ENDBRANCH   1  38
TORSDOF 25
ENDMDL
MODEL 3
REMARK VINA RESULT:     -10.2      2.609      4.241
REMARK SMILES COc1cccc([C@H]2CC(c3ccc(S(C)(=O)=O)cc3)=NN2c2ccc(C(=O)OCCOCCOCCOCCOC(=O)c3ccc(-c4c5nc(c(-c6c(F)c(F)c(F)c(F)c6F)c6ccc([nH]6)c(-c6c(F)c(F)c(F)c(F)c6F)c6nc(c(-c7c(F)c(F)c(F)c(F)c7F)c7ccc4[nH]7)C=C6)C=C5)cc3)cc2)c1
REMARK SMILES IDX 34 1 33 2 32 3 31 4 30 5 29 6 27 7 28 8 26 9 23 10 24 11
REMARK SMILES IDX 108 12 25 13 107 14 22 15 8 16 9 17 10 18 21 19 7 20 3 21
REMARK SMILES IDX 4 22 109 23 5 24 6 25 2 26 1 27 11 28 12 29 20 30 13 31
REMARK SMILES IDX 19 32 14 33 15 34 16 35 17 36 18 37 35 38 36 39 37 40 38 41
REMARK SMILES IDX 39 42 40 43 41 44 42 45 43 46 44 47 45 48 106 49 46 50
REMARK SMILES IDX 105 51 47 52 48 53 49 54 99 55 50 56 104 57 98 58 100 59
REMARK SMILES IDX 51 60 103 61 97 62 96 63 52 65 84 66 64 67 83 68 65 69 68 70
REMARK SMILES IDX 82 71 101 72 66 73 67 74 81 76 102 77 69 78 53 79 54 80
REMARK SMILES IDX 62 81 55 82 56 83 60 84 63 85 57 86 58 87 61 88 59 89 85 90
REMARK SMILES IDX 86 91 94 92 87 93 88 94 92 95 95 96 89 97 90 98 93 99 91 100
REMARK SMILES IDX 70 101 71 102 79 103 72 104 73 105 77 106 80 107 74 108
REMARK SMILES IDX 75 109 78 110 76 111
REMARK H PARENT 100 64 68 75
REMARK Flexibility Score: inf
ROOT
ATOM      1  C   UNL A   1      34.059  32.788  27.648  1.00  0.00     0.188 C 
ENDROOT
BRANCH   1   2
ATOM      2  C   UNL A   1      34.717  31.424  27.956  1.00  0.00     0.188 C 
BRANCH   2   3
ATOM      3  O   UNL A   1      33.897  30.307  27.654  1.00  0.00    -0.376 OA
BRANCH   3   4
ATOM      4  C   UNL A   1      32.588  30.531  27.172  1.00  0.00     0.202 C 
BRANCH   4   5
ATOM      5  C   UNL A   1      32.057  29.628  26.049  1.00  0.00     0.261 C 
BRANCH   5   6
ATOM      6  O   UNL A   1      31.526  28.361  26.457  1.00  0.00    -0.460 OA
BRANCH   6   7
ATOM      7  C   UNL A   1      31.312  27.450  25.481  1.00  0.00     0.338 C 
ATOM      8  O   UNL A   1      30.570  27.574  24.524  1.00  0.00    -0.246 OA
BRANCH   7   9
ATOM      9  C   UNL A   1      32.284  26.346  25.660  1.00  0.00     0.060 A 
ATOM     10  C   UNL A   1      34.152  24.259  25.894  1.00  0.00     0.060 A 
ATOM     11  C   UNL A   1      34.518  25.478  25.311  1.00  0.00     0.029 A 
ATOM     12  C   UNL A   1      32.866  24.140  26.445  1.00  0.00     0.029 A 
ATOM     13  C   UNL A   1      33.581  26.504  25.160  1.00  0.00     0.018 A 
ATOM     14  C   UNL A   1      31.939  25.181  26.349  1.00  0.00     0.018 A 
BRANCH  10  15
ATOM     15  N   UNL A   1      34.991  23.150  25.817  1.00  0.00    -0.257 N 
ATOM     16  C   UNL A   1      34.504  21.851  25.343  1.00  0.00     0.144 C 
ATOM     17  C   UNL A   1      35.793  21.040  25.199  1.00  0.00     0.091 C 
ATOM     18  C   UNL A   1      36.803  22.066  25.633  1.00  0.00     0.071 C 
ATOM     19  N   UNL A   1      36.342  23.241  25.930  1.00  0.00    -0.176 NA
BRANCH  16  20
ATOM     20  C   UNL A   1      33.710  21.963  24.047  1.00  0.00    -0.019 A 
ATOM     21  C   UNL A   1      33.161  23.113  21.966  1.00  0.00     0.119 A 
ATOM     22  C   UNL A   1      32.122  22.209  21.747  1.00  0.00     0.046 A 
ATOM     23  C   UNL A   1      33.942  22.998  23.119  1.00  0.00     0.052 A 
ATOM     24  C   UNL A   1      31.876  21.181  22.655  1.00  0.00     0.004 A 
ATOM     25  C   UNL A   1      32.665  21.057  23.797  1.00  0.00     0.006 A 
BRANCH  21  26
ATOM     26  O   UNL A   1      33.279  24.097  21.023  1.00  0.00    -0.497 OA
ATOM     27  C   UNL A   1      32.840  25.391  21.419  1.00  0.00     0.278 C 
ENDBRANCH  21  26
ENDBRANCH  16  20
BRANCH  18  28
ATOM     28  C   UNL A   1      38.216  21.687  25.766  1.00  0.00    -0.002 A 
ATOM     29  C   UNL A   1      39.102  22.605  26.340  1.00  0.00     0.011 A 
ATOM     30  C   UNL A   1      38.647  20.409  25.401  1.00  0.00     0.011 A 
ATOM     31  C   UNL A   1      40.427  22.235  26.573  1.00  0.00     0.021 A 
ATOM     32  C   UNL A   1      39.979  20.045  25.609  1.00  0.00     0.021 A 
ATOM     33  C   UNL A   1      40.862  20.959  26.198  1.00  0.00     0.067 A 
BRANCH  33  34
ATOM     34  S   UNL A   1      42.541  20.478  26.538  1.00  0.00     0.175 S 
ATOM     35  C   UNL A   1      42.394  19.117  27.665  1.00  0.00     0.163 C 
ATOM     36  O   UNL A   1      43.091  19.985  25.291  1.00  0.00    -0.224 OA
ATOM     37  O   UNL A   1      43.172  21.572  27.253  1.00  0.00    -0.224 OA
ENDBRANCH  33  34
ENDBRANCH  18  28
ENDBRANCH  10  15
ENDBRANCH   7   9
ENDBRANCH   6   7
ENDBRANCH   5   6
ENDBRANCH   4   5
ENDBRANCH   3   4
ENDBRANCH   2   3
ENDBRANCH   1   2
BRANCH   1  38
ATOM     38  O   UNL A   1      34.182  33.856  28.579  1.00  0.00    -0.377 OA
BRANCH  38  39
ATOM     39  C   UNL A   1      33.067  34.698  28.855  1.00  0.00     0.188 C 
BRANCH  39  40
ATOM     40  C   UNL A   1      33.119  35.766  29.974  1.00  0.00     0.188 C 
BRANCH  40  41
ATOM     41  O   UNL A   1      32.800  35.282  31.265  1.00  0.00    -0.376 OA
BRANCH  41  42
ATOM     42  C   UNL A   1      33.461  35.860  32.374  1.00  0.00     0.202 C 
BRANCH  42  43
ATOM     43  C   UNL A   1      34.379  34.952  33.205  1.00  0.00     0.261 C 
BRANCH  43  44
ATOM     44  O   UNL A   1      35.734  34.824  32.747  1.00  0.00    -0.460 OA
BRANCH  44  45
ATOM     45  C   UNL A   1      36.055  33.713  32.054  1.00  0.00     0.338 C 
ATOM     46  O   UNL A   1      35.645  33.379  30.953  1.00  0.00    -0.246 OA
BRANCH  45  47
ATOM     47  C   UNL A   1      37.145  33.034  32.785  1.00  0.00     0.060 A 
ATOM     48  C   UNL A   1      36.831  32.155  33.830  1.00  0.00     0.016 A 
ATOM     49  C   UNL A   1      38.476  33.257  32.424  1.00  0.00     0.016 A 
ATOM     50  C   UNL A   1      37.852  31.522  34.540  1.00  0.00     0.010 A 
ATOM     51  C   UNL A   1      39.497  32.640  33.149  1.00  0.00     0.010 A 
ATOM     52  C   UNL A   1      39.190  31.797  34.231  1.00  0.00    -0.014 A 
BRANCH  52  53
ATOM     53  C   UNL A   1      40.267  31.368  35.158  1.00  0.00     0.031 A 
ATOM     54  C   UNL A   1      40.617  32.272  36.306  1.00  0.00     0.074 A 
ATOM     55  C   UNL A   1      40.912  30.200  34.994  1.00  0.00     0.049 A 
ATOM     56  N   UNL A   1      41.559  32.153  37.205  1.00  0.00    -0.248 NA
ATOM     57  C   UNL A   1      39.792  33.482  36.454  1.00  0.00     0.031 C 
ATOM     58  C   UNL A   1      40.633  29.219  33.948  1.00  0.00     0.029 A 
ATOM     59  N   UNL A   1      41.948  29.650  35.708  1.00  0.00    -0.354 N 
ATOM     60  C   UNL A   1      41.445  33.274  38.018  1.00  0.00     0.074 A 
ATOM     61  C   UNL A   1      40.367  34.078  37.487  1.00  0.00     0.031 C 
ATOM     62  C   UNL A   1      41.489  28.190  34.079  1.00  0.00     0.029 A 
ATOM     63  C   UNL A   1      42.398  28.459  35.193  1.00  0.00     0.049 A 
ATOM     64  H   UNL A   1      42.331  30.070  36.511  1.00  0.00     0.167 HD
ATOM     65  C   UNL A   1      42.171  33.597  39.115  1.00  0.00     0.037 A 
ATOM     66  C   UNL A   1      43.442  27.691  35.567  1.00  0.00     0.037 A 
ATOM     67  C   UNL A   1      43.245  32.796  39.638  1.00  0.00     0.049 A 
ATOM     68  C   UNL A   1      44.288  28.117  36.741  1.00  0.00     0.074 A 
ATOM     69  C   UNL A   1      44.031  33.028  40.751  1.00  0.00     0.029 A 
ATOM     70  N   UNL A   1      43.693  31.611  39.071  1.00  0.00    -0.354 N 
ATOM     71  N   UNL A   1      44.161  29.162  37.523  1.00  0.00    -0.248 NA
ATOM     72  C   UNL A   1      45.425  27.250  37.087  1.00  0.00     0.031 C 
ATOM     73  C   UNL A   1      44.997  32.018  40.822  1.00  0.00     0.029 A 
ATOM     74  C   UNL A   1      44.766  31.117  39.796  1.00  0.00     0.049 A 
ATOM     75  H   UNL A   1      43.306  31.185  38.272  1.00  0.00     0.167 HD
ATOM     76  C   UNL A   1      45.173  29.061  38.470  1.00  0.00     0.074 A 
ATOM     77  C   UNL A   1      45.898  27.844  38.174  1.00  0.00     0.031 C 
ATOM     78  C   UNL A   1      45.473  29.898  39.495  1.00  0.00     0.037 A 
BRANCH  65  79
ATOM     79  C   UNL A   1      41.845  34.892  39.804  1.00  0.00     0.064 A 
ATOM     80  C   UNL A   1      40.960  34.952  40.891  1.00  0.00     0.173 A 
ATOM     81  C   UNL A   1      42.452  36.087  39.387  1.00  0.00     0.173 A 
ATOM     82  F   UNL A   1      40.342  33.842  41.321  1.00  0.00    -0.203 F 
ATOM     83  C   UNL A   1      40.672  36.164  41.515  1.00  0.00     0.198 A 
ATOM     84  C   UNL A   1      42.188  37.290  40.035  1.00  0.00     0.198 A 
ATOM     85  F   UNL A   1      43.307  36.087  38.353  1.00  0.00    -0.203 F 
ATOM     86  F   UNL A   1      39.783  36.205  42.516  1.00  0.00    -0.200 F 
ATOM     87  C   UNL A   1      41.292  37.330  41.092  1.00  0.00     0.200 A 
ATOM     88  F   UNL A   1      42.800  38.413  39.634  1.00  0.00    -0.200 F 
ATOM     89  F   UNL A   1      41.020  38.493  41.699  1.00  0.00    -0.200 F 
ENDBRANCH  65  79
BRANCH  66  90
ATOM     90  C   UNL A   1      43.761  26.448  34.814  1.00  0.00     0.064 A 
ATOM     91  C   UNL A   1      44.587  26.479  33.682  1.00  0.00     0.173 A 
ATOM     92  C   UNL A   1      43.222  25.209  35.192  1.00  0.00     0.173 A 
ATOM     93  F   UNL A   1      45.105  27.643  33.262  1.00  0.00    -0.203 F 
ATOM     94  C   UNL A   1      44.843  25.324  32.944  1.00  0.00     0.198 A 
ATOM     95  C   UNL A   1      43.506  24.049  34.473  1.00  0.00     0.198 A 
ATOM     96  F   UNL A   1      42.421  25.123  36.265  1.00  0.00    -0.203 F 
ATOM     97  F   UNL A   1      45.590  25.393  31.834  1.00  0.00    -0.200 F 
ATOM     98  C   UNL A   1      44.307  24.109  33.344  1.00  0.00     0.200 A 
ATOM     99  F   UNL A   1      42.995  22.876  34.871  1.00  0.00    -0.200 F 
ATOM    100  F   UNL A   1      44.554  22.999  32.635  1.00  0.00    -0.200 F 
ENDBRANCH  66  90
BRANCH  78 101
ATOM    101  C   UNL A   1      46.602  29.504  40.407  1.00  0.00     0.064 A 
ATOM    102  C   UNL A   1      47.918  29.938  40.190  1.00  0.00     0.173 A 
ATOM    103  C   UNL A   1      46.352  28.717  41.543  1.00  0.00     0.173 A 
ATOM    104  F   UNL A   1      48.215  30.683  39.113  1.00  0.00    -0.203 F 
ATOM    105  C   UNL A   1      48.945  29.574  41.057  1.00  0.00     0.198 A 
ATOM    106  C   UNL A   1      47.374  28.386  42.428  1.00  0.00     0.198 A 
ATOM    107  F   UNL A   1      45.110  28.282  41.805  1.00  0.00    -0.203 F 
ATOM    108  F   UNL A   1      50.204  29.955  40.799  1.00  0.00    -0.200 F 
ATOM    109  C   UNL A   1      48.671  28.806  42.180  1.00  0.00     0.200 A 
ATOM    110  F   UNL A   1      47.103  27.660  43.522  1.00  0.00    -0.200 F 
ATOM    111  F   UNL A   1      49.660  28.465  43.018  1.00  0.00    -0.200 F 
ENDBRANCH  78 101
ENDBRANCH  52  53
ENDBRANCH  45  47
ENDBRANCH  44  45
ENDBRANCH  43  44
ENDBRANCH  42  43
ENDBRANCH  41  42
ENDBRANCH  40  41
ENDBRANCH  39  40
ENDBRANCH  38  39
ENDBRANCH   1  38
TORSDOF 25
ENDMDL
