MODEL 1
REMARK VINA RESULT:     -11.2      0.000      0.000
REMARK SMILES O=C(OCCOCCOCCOCCOC(=O)[C@@H]1CCn2c(C(=O)c3ccccc3)ccc21)c1ccc(-c2c3nc(c(-c4c(F)c(F)c(F)c(F)c4F)c4ccc([nH]4)c(-c4c(F)c(F)c(F)c(F)c4F)c4nc(c(-c5c(F)c(F)c(F)c(F)c5F)c5ccc2[nH]5)C=C4)C=C3)cc1
REMARK SMILES IDX 9 1 8 2 7 3 6 4 5 5 4 6 3 7 2 8 1 9 34 10 35 11 96 12 36 13
REMARK SMILES IDX 95 14 37 15 38 16 39 17 89 18 40 19 94 20 88 21 90 22 41 23
REMARK SMILES IDX 93 24 87 25 86 26 42 28 74 29 54 30 73 31 55 32 58 33 72 34
REMARK SMILES IDX 91 35 56 36 57 37 71 39 92 40 59 41 43 42 44 43 52 44 45 45
REMARK SMILES IDX 46 46 50 47 53 48 47 49 48 50 51 51 49 52 75 53 76 54 84 55
REMARK SMILES IDX 77 56 78 57 82 58 85 59 79 60 80 61 83 62 81 63 60 64 61 65
REMARK SMILES IDX 69 66 62 67 63 68 67 69 70 70 64 71 65 72 68 73 66 74 10 75
REMARK SMILES IDX 11 76 12 77 13 78 14 79 15 80 16 81 17 82 18 83 19 84 33 85
REMARK SMILES IDX 20 86 21 87 32 88 22 89 31 90 23 91 24 92 25 93 26 94 30 95
REMARK SMILES IDX 27 96 29 97 28 98
REMARK H PARENT 90 27 58 38
REMARK Flexibility Score: inf
ROOT
ATOM      1  O   UNL A   1      33.250  28.162  23.643  1.00  0.00    -0.377 OA
ENDROOT
BRANCH   1   2
ATOM      2  C   UNL A   1      32.390  29.207  24.073  1.00  0.00     0.188 C 
BRANCH   2   3
ATOM      3  C   UNL A   1      32.568  29.660  25.510  1.00  0.00     0.188 C 
BRANCH   3   4
ATOM      4  O   UNL A   1      31.673  30.745  25.745  1.00  0.00    -0.376 OA
BRANCH   4   5
ATOM      5  C   UNL A   1      31.845  31.387  27.005  1.00  0.00     0.202 C 
BRANCH   5   6
ATOM      6  C   UNL A   1      32.018  32.895  26.866  1.00  0.00     0.261 C 
BRANCH   6   7
ATOM      7  O   UNL A   1      32.777  33.464  27.944  1.00  0.00    -0.460 OA
BRANCH   7   8
ATOM      8  C   UNL A   1      34.089  33.806  27.971  1.00  0.00     0.338 C 
ATOM      9  O   UNL A   1      34.381  34.959  27.652  1.00  0.00    -0.246 OA
BRANCH   8  10
ATOM     10  C   UNL A   1      35.223  32.892  28.351  1.00  0.00     0.060 A 
ATOM     11  C   UNL A   1      35.143  31.515  28.578  1.00  0.00     0.016 A 
ATOM     12  C   UNL A   1      36.497  33.486  28.447  1.00  0.00     0.016 A 
ATOM     13  C   UNL A   1      36.258  30.750  28.896  1.00  0.00     0.010 A 
ATOM     14  C   UNL A   1      37.620  32.740  28.816  1.00  0.00     0.010 A 
ATOM     15  C   UNL A   1      37.483  31.374  29.075  1.00  0.00    -0.014 A 
BRANCH  15  16
ATOM     16  C   UNL A   1      38.501  30.644  29.843  1.00  0.00     0.031 A 
ATOM     17  C   UNL A   1      38.586  30.959  31.305  1.00  0.00     0.074 A 
ATOM     18  C   UNL A   1      39.211  29.655  29.283  1.00  0.00     0.049 A 
ATOM     19  N   UNL A   1      39.456  30.567  32.194  1.00  0.00    -0.248 NA
ATOM     20  C   UNL A   1      37.526  31.831  31.842  1.00  0.00     0.031 C 
ATOM     21  C   UNL A   1      39.047  29.170  27.914  1.00  0.00     0.029 A 
ATOM     22  N   UNL A   1      40.206  28.875  29.805  1.00  0.00    -0.354 N 
ATOM     23  C   UNL A   1      39.070  31.180  33.380  1.00  0.00     0.074 A 
ATOM     24  C   UNL A   1      37.880  31.948  33.109  1.00  0.00     0.031 C 
ATOM     25  C   UNL A   1      39.933  28.184  27.695  1.00  0.00     0.029 A 
ATOM     26  C   UNL A   1      40.763  28.023  28.887  1.00  0.00     0.049 A 
ATOM     27  H   UNL A   1      40.493  28.921  30.746  1.00  0.00     0.167 HD
ATOM     28  C   UNL A   1      39.688  31.121  34.581  1.00  0.00     0.037 A 
ATOM     29  C   UNL A   1      41.859  27.250  28.999  1.00  0.00     0.037 A 
ATOM     30  C   UNL A   1      40.885  30.358  34.794  1.00  0.00     0.049 A 
ATOM     31  C   UNL A   1      42.600  27.274  30.311  1.00  0.00     0.074 A 
ATOM     32  C   UNL A   1      41.678  30.275  35.920  1.00  0.00     0.029 A 
ATOM     33  N   UNL A   1      41.462  29.543  33.826  1.00  0.00    -0.354 N 
ATOM     34  N   UNL A   1      42.309  27.933  31.411  1.00  0.00    -0.248 NA
ATOM     35  C   UNL A   1      43.825  26.472  30.400  1.00  0.00     0.031 C 
ATOM     36  C   UNL A   1      42.760  29.440  35.618  1.00  0.00     0.029 A 
ATOM     37  C   UNL A   1      42.611  28.959  34.323  1.00  0.00     0.049 A 
ATOM     38  H   UNL A   1      41.105  29.401  32.920  1.00  0.00     0.167 HD
ATOM     39  C   UNL A   1      43.299  27.613  32.327  1.00  0.00     0.074 A 
ATOM     40  C   UNL A   1      44.198  26.694  31.655  1.00  0.00     0.031 C 
ATOM     41  C   UNL A   1      43.457  28.035  33.608  1.00  0.00     0.037 A 
BRANCH  28  42
ATOM     42  C   UNL A   1      39.133  31.992  35.669  1.00  0.00     0.064 A 
ATOM     43  C   UNL A   1      39.516  33.334  35.822  1.00  0.00     0.173 A 
ATOM     44  C   UNL A   1      38.278  31.441  36.636  1.00  0.00     0.173 A 
ATOM     45  F   UNL A   1      40.363  33.899  34.948  1.00  0.00    -0.203 F 
ATOM     46  C   UNL A   1      39.100  34.076  36.927  1.00  0.00     0.198 A 
ATOM     47  C   UNL A   1      37.841  32.195  37.723  1.00  0.00     0.198 A 
ATOM     48  F   UNL A   1      37.894  30.160  36.547  1.00  0.00    -0.203 F 
ATOM     49  F   UNL A   1      39.547  35.329  37.096  1.00  0.00    -0.200 F 
ATOM     50  C   UNL A   1      38.264  33.506  37.876  1.00  0.00     0.200 A 
ATOM     51  F   UNL A   1      37.036  31.641  38.638  1.00  0.00    -0.200 F 
ATOM     52  F   UNL A   1      37.885  34.213  38.949  1.00  0.00    -0.200 F 
ENDBRANCH  28  42
BRANCH  29  53
ATOM     53  C   UNL A   1      42.336  26.469  27.828  1.00  0.00     0.064 A 
ATOM     54  C   UNL A   1      41.836  25.191  27.547  1.00  0.00     0.173 A 
ATOM     55  C   UNL A   1      43.278  27.006  26.935  1.00  0.00     0.173 A 
ATOM     56  F   UNL A   1      40.951  24.620  28.378  1.00  0.00    -0.203 F 
ATOM     57  C   UNL A   1      42.256  24.484  26.420  1.00  0.00     0.198 A 
ATOM     58  C   UNL A   1      43.676  26.312  25.794  1.00  0.00     0.198 A 
ATOM     59  F   UNL A   1      43.795  28.225  27.156  1.00  0.00    -0.203 F 
ATOM     60  F   UNL A   1      41.779  23.253  26.187  1.00  0.00    -0.200 F 
ATOM     61  C   UNL A   1      43.166  25.049  25.539  1.00  0.00     0.200 A 
ATOM     62  F   UNL A   1      44.545  26.870  24.941  1.00  0.00    -0.200 F 
ATOM     63  F   UNL A   1      43.555  24.376  24.446  1.00  0.00    -0.200 F 
ENDBRANCH  29  53
BRANCH  41  64
ATOM     64  C   UNL A   1      44.611  27.469  34.374  1.00  0.00     0.064 A 
ATOM     65  C   UNL A   1      45.826  28.156  34.484  1.00  0.00     0.173 A 
ATOM     66  C   UNL A   1      44.454  26.272  35.089  1.00  0.00     0.173 A 
ATOM     67  F   UNL A   1      46.020  29.299  33.809  1.00  0.00    -0.203 F 
ATOM     68  C   UNL A   1      46.851  27.660  35.283  1.00  0.00     0.198 A 
ATOM     69  C   UNL A   1      45.472  25.794  35.906  1.00  0.00     0.198 A 
ATOM     70  F   UNL A   1      43.302  25.588  35.018  1.00  0.00    -0.203 F 
ATOM     71  F   UNL A   1      48.016  28.319  35.361  1.00  0.00    -0.200 F 
ATOM     72  C   UNL A   1      46.669  26.487  36.001  1.00  0.00     0.200 A 
ATOM     73  F   UNL A   1      45.288  24.670  36.613  1.00  0.00    -0.200 F 
ATOM     74  F   UNL A   1      47.649  26.024  36.789  1.00  0.00    -0.200 F 
ENDBRANCH  41  64
ENDBRANCH  15  16
ENDBRANCH   8  10
ENDBRANCH   7   8
ENDBRANCH   6   7
ENDBRANCH   5   6
ENDBRANCH   4   5
ENDBRANCH   3   4
ENDBRANCH   2   3
ENDBRANCH   1   2
BRANCH   1  75
ATOM     75  C   UNL A   1      33.072  27.543  22.382  1.00  0.00     0.188 C 
BRANCH  75  76
ATOM     76  C   UNL A   1      31.705  26.937  22.059  1.00  0.00     0.188 C 
BRANCH  76  77
ATOM     77  O   UNL A   1      31.227  25.858  22.838  1.00  0.00    -0.376 OA
BRANCH  77  78
ATOM     78  C   UNL A   1      29.987  26.004  23.527  1.00  0.00     0.202 C 
BRANCH  78  79
ATOM     79  C   UNL A   1      29.933  26.004  25.063  1.00  0.00     0.261 C 
BRANCH  79  80
ATOM     80  O   UNL A   1      30.837  25.065  25.688  1.00  0.00    -0.463 OA
BRANCH  80  81
ATOM     81  C   UNL A   1      31.887  25.604  26.345  1.00  0.00     0.315 C 
ATOM     82  O   UNL A   1      31.783  26.586  27.081  1.00  0.00    -0.251 OA
BRANCH  81  83
ATOM     83  C   UNL A   1      33.202  24.849  26.269  1.00  0.00     0.148 C 
ATOM     84  C   UNL A   1      33.660  24.903  24.790  1.00  0.00     0.043 C 
ATOM     85  C   UNL A   1      33.324  23.386  26.582  1.00  0.00     0.033 A 
ATOM     86  C   UNL A   1      34.402  23.605  24.508  1.00  0.00     0.124 C 
ATOM     87  N   UNL A   1      33.983  22.719  25.577  1.00  0.00    -0.341 N 
ATOM     88  C   UNL A   1      33.219  22.500  27.625  1.00  0.00     0.025 A 
ATOM     89  C   UNL A   1      34.306  21.435  25.924  1.00  0.00     0.090 A 
ATOM     90  C   UNL A   1      33.811  21.278  27.211  1.00  0.00     0.032 A 
BRANCH  89  91
ATOM     91  C   UNL A   1      35.028  20.427  25.167  1.00  0.00     0.209 C 
ATOM     92  O   UNL A   1      36.251  20.411  25.026  1.00  0.00    -0.287 OA
BRANCH  91  93
ATOM     93  C   UNL A   1      34.265  19.335  24.553  1.00  0.00     0.024 A 
ATOM     94  C   UNL A   1      33.022  19.622  23.985  1.00  0.00     0.012 A 
ATOM     95  C   UNL A   1      34.851  18.072  24.426  1.00  0.00     0.012 A 
ATOM     96  C   UNL A   1      32.383  18.644  23.228  1.00  0.00     0.001 A 
ATOM     97  C   UNL A   1      34.213  17.106  23.652  1.00  0.00     0.001 A 
ATOM     98  C   UNL A   1      32.988  17.397  23.046  1.00  0.00     0.000 A 
ENDBRANCH  91  93
ENDBRANCH  89  91
ENDBRANCH  81  83
ENDBRANCH  80  81
ENDBRANCH  79  80
ENDBRANCH  78  79
ENDBRANCH  77  78
ENDBRANCH  76  77
ENDBRANCH  75  76
ENDBRANCH   1  75
TORSDOF 22
ENDMDL
MODEL 2
REMARK VINA RESULT:     -10.9      1.664      2.331
REMARK SMILES O=C(OCCOCCOCCOCCOC(=O)[C@@H]1CCn2c(C(=O)c3ccccc3)ccc21)c1ccc(-c2c3nc(c(-c4c(F)c(F)c(F)c(F)c4F)c4ccc([nH]4)c(-c4c(F)c(F)c(F)c(F)c4F)c4nc(c(-c5c(F)c(F)c(F)c(F)c5F)c5ccc2[nH]5)C=C4)C=C3)cc1
REMARK SMILES IDX 9 1 8 2 7 3 6 4 5 5 4 6 3 7 2 8 1 9 34 10 35 11 96 12 36 13
REMARK SMILES IDX 95 14 37 15 38 16 39 17 89 18 40 19 94 20 88 21 90 22 41 23
REMARK SMILES IDX 93 24 87 25 86 26 42 28 74 29 54 30 73 31 55 32 58 33 72 34
REMARK SMILES IDX 91 35 56 36 57 37 71 39 92 40 59 41 43 42 44 43 52 44 45 45
REMARK SMILES IDX 46 46 50 47 53 48 47 49 48 50 51 51 49 52 75 53 76 54 84 55
REMARK SMILES IDX 77 56 78 57 82 58 85 59 79 60 80 61 83 62 81 63 60 64 61 65
REMARK SMILES IDX 69 66 62 67 63 68 67 69 70 70 64 71 65 72 68 73 66 74 10 75
REMARK SMILES IDX 11 76 12 77 13 78 14 79 15 80 16 81 17 82 18 83 19 84 33 85
REMARK SMILES IDX 20 86 21 87 32 88 22 89 31 90 23 91 24 92 25 93 26 94 30 95
REMARK SMILES IDX 27 96 29 97 28 98
REMARK H PARENT 90 27 58 38
REMARK Flexibility Score: inf
ROOT
ATOM      1  O   UNL A   1      34.330  28.199  26.549  1.00  0.00    -0.377 OA
ENDROOT
BRANCH   1   2
ATOM      2  C   UNL A   1      33.641  29.096  27.407  1.00  0.00     0.188 C 
BRANCH   2   3
ATOM      3  C   UNL A   1      32.127  29.058  27.324  1.00  0.00     0.188 C 
BRANCH   3   4
ATOM      4  O   UNL A   1      31.685  30.294  26.767  1.00  0.00    -0.376 OA
BRANCH   4   5
ATOM      5  C   UNL A   1      32.519  31.408  27.073  1.00  0.00     0.202 C 
BRANCH   5   6
ATOM      6  C   UNL A   1      31.725  32.702  27.214  1.00  0.00     0.261 C 
BRANCH   6   7
ATOM      7  O   UNL A   1      32.569  33.860  27.291  1.00  0.00    -0.460 OA
BRANCH   7   8
ATOM      8  C   UNL A   1      33.054  34.486  28.391  1.00  0.00     0.338 C 
ATOM      9  O   UNL A   1      32.462  35.495  28.777  1.00  0.00    -0.246 OA
BRANCH   8  10
ATOM     10  C   UNL A   1      34.264  34.060  29.177  1.00  0.00     0.060 A 
ATOM     11  C   UNL A   1      35.602  34.261  28.823  1.00  0.00     0.016 A 
ATOM     12  C   UNL A   1      34.015  33.428  30.412  1.00  0.00     0.016 A 
ATOM     13  C   UNL A   1      36.653  33.854  29.635  1.00  0.00     0.010 A 
ATOM     14  C   UNL A   1      35.061  32.966  31.216  1.00  0.00     0.010 A 
ATOM     15  C   UNL A   1      36.382  33.153  30.800  1.00  0.00    -0.014 A 
BRANCH  15  16
ATOM     16  C   UNL A   1      37.475  32.354  31.371  1.00  0.00     0.031 A 
ATOM     17  C   UNL A   1      37.891  32.696  32.769  1.00  0.00     0.074 A 
ATOM     18  C   UNL A   1      37.968  31.293  30.719  1.00  0.00     0.049 A 
ATOM     19  N   UNL A   1      38.893  32.251  33.474  1.00  0.00    -0.248 NA
ATOM     20  C   UNL A   1      37.042  33.672  33.477  1.00  0.00     0.031 C 
ATOM     21  C   UNL A   1      37.481  30.791  29.435  1.00  0.00     0.029 A 
ATOM     22  N   UNL A   1      38.983  30.441  31.056  1.00  0.00    -0.354 N 
ATOM     23  C   UNL A   1      38.817  32.924  34.687  1.00  0.00     0.074 A 
ATOM     24  C   UNL A   1      37.663  33.787  34.637  1.00  0.00     0.031 C 
ATOM     25  C   UNL A   1      38.218  29.725  29.079  1.00  0.00     0.029 A 
ATOM     26  C   UNL A   1      39.263  29.520  30.079  1.00  0.00     0.049 A 
ATOM     27  H   UNL A   1      39.464  30.484  31.914  1.00  0.00     0.167 HD
ATOM     28  C   UNL A   1      39.666  32.840  35.735  1.00  0.00     0.037 A 
ATOM     29  C   UNL A   1      40.292  28.656  29.994  1.00  0.00     0.037 A 
ATOM     30  C   UNL A   1      40.815  31.979  35.728  1.00  0.00     0.049 A 
ATOM     31  C   UNL A   1      41.291  28.647  31.122  1.00  0.00     0.074 A 
ATOM     32  C   UNL A   1      41.817  31.853  36.667  1.00  0.00     0.029 A 
ATOM     33  N   UNL A   1      41.107  31.092  34.697  1.00  0.00    -0.354 N 
ATOM     34  N   UNL A   1      41.293  29.355  32.229  1.00  0.00    -0.248 NA
ATOM     35  C   UNL A   1      42.438  27.741  30.989  1.00  0.00     0.031 C 
ATOM     36  C   UNL A   1      42.740  30.918  36.184  1.00  0.00     0.029 A 
ATOM     37  C   UNL A   1      42.283  30.421  34.969  1.00  0.00     0.049 A 
ATOM     38  H   UNL A   1      40.557  30.961  33.891  1.00  0.00     0.167 HD
ATOM     39  C   UNL A   1      42.423  28.971  32.933  1.00  0.00     0.074 A 
ATOM     40  C   UNL A   1      43.083  27.960  32.128  1.00  0.00     0.031 C 
ATOM     41  C   UNL A   1      42.881  29.408  34.134  1.00  0.00     0.037 A 
BRANCH  28  42
ATOM     42  C   UNL A   1      39.425  33.783  36.876  1.00  0.00     0.064 A 
ATOM     43  C   UNL A   1      39.945  35.087  36.892  1.00  0.00     0.173 A 
ATOM     44  C   UNL A   1      38.747  33.335  38.020  1.00  0.00     0.173 A 
ATOM     45  F   UNL A   1      40.638  35.552  35.841  1.00  0.00    -0.203 F 
ATOM     46  C   UNL A   1      39.833  35.889  38.027  1.00  0.00     0.198 A 
ATOM     47  C   UNL A   1      38.611  34.151  39.141  1.00  0.00     0.198 A 
ATOM     48  F   UNL A   1      38.244  32.093  38.065  1.00  0.00    -0.203 F 
ATOM     49  F   UNL A   1      40.410  37.099  38.050  1.00  0.00    -0.200 F 
ATOM     50  C   UNL A   1      39.166  35.420  39.150  1.00  0.00     0.200 A 
ATOM     51  F   UNL A   1      37.968  33.695  40.224  1.00  0.00    -0.200 F 
ATOM     52  F   UNL A   1      39.080  36.184  40.248  1.00  0.00    -0.200 F 
ENDBRANCH  28  42
BRANCH  29  53
ATOM     53  C   UNL A   1      40.446  27.807  28.784  1.00  0.00     0.064 A 
ATOM     54  C   UNL A   1      39.812  26.564  28.676  1.00  0.00     0.173 A 
ATOM     55  C   UNL A   1      41.203  28.246  27.684  1.00  0.00     0.173 A 
ATOM     56  F   UNL A   1      39.095  26.086  29.703  1.00  0.00    -0.203 F 
ATOM     57  C   UNL A   1      39.926  25.794  27.517  1.00  0.00     0.198 A 
ATOM     58  C   UNL A   1      41.294  27.490  26.517  1.00  0.00     0.198 A 
ATOM     59  F   UNL A   1      41.837  29.428  27.733  1.00  0.00    -0.203 F 
ATOM     60  F   UNL A   1      39.327  24.597  27.449  1.00  0.00    -0.200 F 
ATOM     61  C   UNL A   1      40.656  26.263  26.435  1.00  0.00     0.200 A 
ATOM     62  F   UNL A   1      41.989  27.956  25.472  1.00  0.00    -0.200 F 
ATOM     63  F   UNL A   1      40.749  25.531  25.316  1.00  0.00    -0.200 F 
ENDBRANCH  29  53
BRANCH  41  64
ATOM     64  C   UNL A   1      44.121  28.761  34.667  1.00  0.00     0.064 A 
ATOM     65  C   UNL A   1      45.388  29.320  34.460  1.00  0.00     0.173 A 
ATOM     66  C   UNL A   1      44.019  27.624  35.483  1.00  0.00     0.173 A 
ATOM     67  F   UNL A   1      45.530  30.401  33.678  1.00  0.00    -0.203 F 
ATOM     68  C   UNL A   1      46.516  28.757  35.048  1.00  0.00     0.198 A 
ATOM     69  C   UNL A   1      45.145  27.081  36.090  1.00  0.00     0.198 A 
ATOM     70  F   UNL A   1      42.822  27.064  35.715  1.00  0.00    -0.203 F 
ATOM     71  F   UNL A   1      47.724  29.291  34.822  1.00  0.00    -0.200 F 
ATOM     72  C   UNL A   1      46.391  27.647  35.871  1.00  0.00     0.200 A 
ATOM     73  F   UNL A   1      45.021  26.019  36.897  1.00  0.00    -0.200 F 
ATOM     74  F   UNL A   1      47.477  27.121  36.456  1.00  0.00    -0.200 F 
ENDBRANCH  41  64
ENDBRANCH  15  16
ENDBRANCH   8  10
ENDBRANCH   7   8
ENDBRANCH   6   7
ENDBRANCH   5   6
ENDBRANCH   4   5
ENDBRANCH   3   4
ENDBRANCH   2   3
ENDBRANCH   1   2
BRANCH   1  75
ATOM     75  C   UNL A   1      33.637  27.190  25.838  1.00  0.00     0.188 C 
BRANCH  75  76
ATOM     76  C   UNL A   1      33.877  27.070  24.331  1.00  0.00     0.188 C 
BRANCH  76  77
ATOM     77  O   UNL A   1      32.853  27.458  23.437  1.00  0.00    -0.376 OA
BRANCH  77  78
ATOM     78  C   UNL A   1      31.628  27.958  23.970  1.00  0.00     0.202 C 
BRANCH  78  79
ATOM     79  C   UNL A   1      30.385  27.059  24.069  1.00  0.00     0.261 C 
BRANCH  79  80
ATOM     80  O   UNL A   1      30.681  25.655  24.246  1.00  0.00    -0.463 OA
BRANCH  80  81
ATOM     81  C   UNL A   1      30.614  25.191  25.512  1.00  0.00     0.315 C 
ATOM     82  O   UNL A   1      30.253  25.889  26.461  1.00  0.00    -0.251 OA
BRANCH  81  83
ATOM     83  C   UNL A   1      30.855  23.706  25.711  1.00  0.00     0.148 C 
ATOM     84  C   UNL A   1      31.743  23.565  26.973  1.00  0.00     0.043 C 
ATOM     85  C   UNL A   1      31.589  22.856  24.716  1.00  0.00     0.033 A 
ATOM     86  C   UNL A   1      32.631  22.350  26.757  1.00  0.00     0.124 C 
ATOM     87  N   UNL A   1      32.580  22.125  25.326  1.00  0.00    -0.341 N 
ATOM     88  C   UNL A   1      31.480  22.363  23.439  1.00  0.00     0.025 A 
ATOM     89  C   UNL A   1      33.122  21.181  24.496  1.00  0.00     0.090 A 
ATOM     90  C   UNL A   1      32.447  21.334  23.293  1.00  0.00     0.032 A 
BRANCH  89  91
ATOM     91  C   UNL A   1      34.153  20.194  24.767  1.00  0.00     0.209 C 
ATOM     92  O   UNL A   1      35.319  20.470  25.048  1.00  0.00    -0.287 OA
BRANCH  91  93
ATOM     93  C   UNL A   1      33.786  18.774  24.737  1.00  0.00     0.024 A 
ATOM     94  C   UNL A   1      34.607  17.884  24.041  1.00  0.00     0.012 A 
ATOM     95  C   UNL A   1      32.712  18.324  25.511  1.00  0.00     0.012 A 
ATOM     96  C   UNL A   1      34.382  16.516  24.171  1.00  0.00     0.001 A 
ATOM     97  C   UNL A   1      32.507  16.953  25.650  1.00  0.00     0.001 A 
ATOM     98  C   UNL A   1      33.348  16.054  24.990  1.00  0.00     0.000 A 
ENDBRANCH  91  93
ENDBRANCH  89  91
ENDBRANCH  81  83
ENDBRANCH  80  81
ENDBRANCH  79  80
ENDBRANCH  78  79
ENDBRANCH  77  78
ENDBRANCH  76  77
ENDBRANCH  75  76
ENDBRANCH   1  75
TORSDOF 22
ENDMDL
MODEL 3
REMARK VINA RESULT:     -10.8      1.672      7.527
REMARK SMILES O=C(OCCOCCOCCOCCOC(=O)[C@@H]1CCn2c(C(=O)c3ccccc3)ccc21)c1ccc(-c2c3nc(c(-c4c(F)c(F)c(F)c(F)c4F)c4ccc([nH]4)c(-c4c(F)c(F)c(F)c(F)c4F)c4nc(c(-c5c(F)c(F)c(F)c(F)c5F)c5ccc2[nH]5)C=C4)C=C3)cc1
REMARK SMILES IDX 9 1 8 2 7 3 6 4 5 5 4 6 3 7 2 8 1 9 34 10 35 11 96 12 36 13
REMARK SMILES IDX 95 14 37 15 38 16 39 17 89 18 40 19 94 20 88 21 90 22 41 23
REMARK SMILES IDX 93 24 87 25 86 26 42 28 74 29 54 30 73 31 55 32 58 33 72 34
REMARK SMILES IDX 91 35 56 36 57 37 71 39 92 40 59 41 43 42 44 43 52 44 45 45
REMARK SMILES IDX 46 46 50 47 53 48 47 49 48 50 51 51 49 52 75 53 76 54 84 55
REMARK SMILES IDX 77 56 78 57 82 58 85 59 79 60 80 61 83 62 81 63 60 64 61 65
REMARK SMILES IDX 69 66 62 67 63 68 67 69 70 70 64 71 65 72 68 73 66 74 10 75
REMARK SMILES IDX 11 76 12 77 13 78 14 79 15 80 16 81 17 82 18 83 19 84 33 85
REMARK SMILES IDX 20 86 21 87 32 88 22 89 31 90 23 91 24 92 25 93 26 94 30 95
REMARK SMILES IDX 27 96 29 97 28 98
REMARK H PARENT 90 27 58 38
REMARK Flexibility Score: inf
ROOT
ATOM      1  O   UNL A   1      34.427  27.410  25.809  1.00  0.00    -0.377 OA
ENDROOT
BRANCH   1   2
ATOM      2  C   UNL A   1      33.934  28.349  26.753  1.00  0.00     0.188 C 
BRANCH   2   3
ATOM      3  C   UNL A   1      32.500  28.146  27.201  1.00  0.00     0.188 C 
BRANCH   3   4
ATOM      4  O   UNL A   1      31.865  29.422  27.242  1.00  0.00    -0.376 OA
BRANCH   4   5
ATOM      5  C   UNL A   1      32.759  30.527  27.137  1.00  0.00     0.202 C 
BRANCH   5   6
ATOM      6  C   UNL A   1      32.024  31.861  27.078  1.00  0.00     0.261 C 
BRANCH   6   7
ATOM      7  O   UNL A   1      32.918  32.984  27.103  1.00  0.00    -0.460 OA
BRANCH   7   8
ATOM      8  C   UNL A   1      33.253  33.780  28.148  1.00  0.00     0.338 C 
ATOM      9  O   UNL A   1      32.528  34.748  28.380  1.00  0.00    -0.246 OA
BRANCH   8  10
ATOM     10  C   UNL A   1      34.446  33.588  29.046  1.00  0.00     0.060 A 
ATOM     11  C   UNL A   1      35.737  34.081  28.834  1.00  0.00     0.016 A 
ATOM     12  C   UNL A   1      34.220  32.869  30.237  1.00  0.00     0.016 A 
ATOM     13  C   UNL A   1      36.768  33.873  29.741  1.00  0.00     0.010 A 
ATOM     14  C   UNL A   1      35.259  32.608  31.135  1.00  0.00     0.010 A 
ATOM     15  C   UNL A   1      36.543  33.085  30.860  1.00  0.00    -0.014 A 
BRANCH  15  16
ATOM     16  C   UNL A   1      37.721  32.513  31.524  1.00  0.00     0.031 A 
ATOM     17  C   UNL A   1      38.465  31.454  30.769  1.00  0.00     0.074 A 
ATOM     18  C   UNL A   1      38.174  33.016  32.680  1.00  0.00     0.049 A 
ATOM     19  N   UNL A   1      39.454  30.695  31.150  1.00  0.00    -0.248 NA
ATOM     20  C   UNL A   1      38.038  31.233  29.375  1.00  0.00     0.031 C 
ATOM     21  C   UNL A   1      37.607  34.169  33.378  1.00  0.00     0.029 A 
ATOM     22  N   UNL A   1      39.224  32.625  33.465  1.00  0.00    -0.354 N 
ATOM     23  C   UNL A   1      39.735  29.881  30.060  1.00  0.00     0.074 A 
ATOM     24  C   UNL A   1      38.835  30.250  28.995  1.00  0.00     0.031 C 
ATOM     25  C   UNL A   1      38.306  34.379  34.506  1.00  0.00     0.029 A 
ATOM     26  C   UNL A   1      39.320  33.335  34.634  1.00  0.00     0.049 A 
ATOM     27  H   UNL A   1      39.849  31.906  33.215  1.00  0.00     0.167 HD
ATOM     28  C   UNL A   1      40.651  28.891  29.980  1.00  0.00     0.037 A 
ATOM     29  C   UNL A   1      40.107  33.111  35.703  1.00  0.00     0.037 A 
ATOM     30  C   UNL A   1      41.511  28.548  31.077  1.00  0.00     0.049 A 
ATOM     31  C   UNL A   1      41.051  31.939  35.642  1.00  0.00     0.074 A 
ATOM     32  C   UNL A   1      42.419  27.515  31.185  1.00  0.00     0.029 A 
ATOM     33  N   UNL A   1      41.549  29.252  32.276  1.00  0.00    -0.354 N 
ATOM     34  N   UNL A   1      41.253  31.091  34.658  1.00  0.00    -0.248 NA
ATOM     35  C   UNL A   1      41.861  31.673  36.837  1.00  0.00     0.031 C 
ATOM     36  C   UNL A   1      42.976  27.569  32.467  1.00  0.00     0.029 A 
ATOM     37  C   UNL A   1      42.457  28.669  33.139  1.00  0.00     0.049 A 
ATOM     38  H   UNL A   1      41.009  30.049  32.481  1.00  0.00     0.167 HD
ATOM     39  C   UNL A   1      42.223  30.206  35.101  1.00  0.00     0.074 A 
ATOM     40  C   UNL A   1      42.574  30.623  36.446  1.00  0.00     0.031 C 
ATOM     41  C   UNL A   1      42.777  29.144  34.462  1.00  0.00     0.037 A 
BRANCH  28  42
ATOM     42  C   UNL A   1      40.654  28.074  28.722  1.00  0.00     0.064 A 
ATOM     43  C   UNL A   1      39.905  26.893  28.595  1.00  0.00     0.173 A 
ATOM     44  C   UNL A   1      41.503  28.427  27.663  1.00  0.00     0.173 A 
ATOM     45  F   UNL A   1      39.108  26.487  29.595  1.00  0.00    -0.203 F 
ATOM     46  C   UNL A   1      40.041  26.076  27.474  1.00  0.00     0.198 A 
ATOM     47  C   UNL A   1      41.614  27.623  26.531  1.00  0.00     0.198 A 
ATOM     48  F   UNL A   1      42.253  29.537  27.738  1.00  0.00    -0.203 F 
ATOM     49  F   UNL A   1      39.380  24.911  27.412  1.00  0.00    -0.200 F 
ATOM     50  C   UNL A   1      40.895  26.441  26.444  1.00  0.00     0.200 A 
ATOM     51  F   UNL A   1      42.441  27.978  25.538  1.00  0.00    -0.200 F 
ATOM     52  F   UNL A   1      41.043  25.642  25.378  1.00  0.00    -0.200 F 
ENDBRANCH  28  42
BRANCH  29  53
ATOM     53  C   UNL A   1      39.973  33.966  36.911  1.00  0.00     0.064 A 
ATOM     54  C   UNL A   1      40.680  35.168  37.041  1.00  0.00     0.173 A 
ATOM     55  C   UNL A   1      39.094  33.616  37.951  1.00  0.00     0.173 A 
ATOM     56  F   UNL A   1      41.548  35.540  36.089  1.00  0.00    -0.203 F 
ATOM     57  C   UNL A   1      40.512  35.987  38.158  1.00  0.00     0.198 A 
ATOM     58  C   UNL A   1      38.907  34.448  39.053  1.00  0.00     0.198 A 
ATOM     59  F   UNL A   1      38.394  32.474  37.883  1.00  0.00    -0.203 F 
ATOM     60  F   UNL A   1      41.219  37.120  38.268  1.00  0.00    -0.200 F 
ATOM     61  C   UNL A   1      39.618  35.632  39.158  1.00  0.00     0.200 A 
ATOM     62  F   UNL A   1      38.031  34.105  40.007  1.00  0.00    -0.200 F 
ATOM     63  F   UNL A   1      39.445  36.428  40.222  1.00  0.00    -0.200 F 
ENDBRANCH  29  53
BRANCH  41  64
ATOM     64  C   UNL A   1      43.851  28.396  35.190  1.00  0.00     0.064 A 
ATOM     65  C   UNL A   1      43.560  27.275  35.977  1.00  0.00     0.173 A 
ATOM     66  C   UNL A   1      45.195  28.751  35.006  1.00  0.00     0.173 A 
ATOM     67  F   UNL A   1      42.286  26.908  36.186  1.00  0.00    -0.203 F 
ATOM     68  C   UNL A   1      44.582  26.536  36.563  1.00  0.00     0.198 A 
ATOM     69  C   UNL A   1      46.214  27.994  35.571  1.00  0.00     0.198 A 
ATOM     70  F   UNL A   1      45.517  29.813  34.250  1.00  0.00    -0.203 F 
ATOM     71  F   UNL A   1      44.286  25.479  37.332  1.00  0.00    -0.200 F 
ATOM     72  C   UNL A   1      45.907  26.889  36.350  1.00  0.00     0.200 A 
ATOM     73  F   UNL A   1      47.494  28.327  35.351  1.00  0.00    -0.200 F 
ATOM     74  F   UNL A   1      46.890  26.161  36.896  1.00  0.00    -0.200 F 
ENDBRANCH  41  64
ENDBRANCH  15  16
ENDBRANCH   8  10
ENDBRANCH   7   8
ENDBRANCH   6   7
ENDBRANCH   5   6
ENDBRANCH   4   5
ENDBRANCH   3   4
ENDBRANCH   2   3
ENDBRANCH   1   2
BRANCH   1  75
ATOM     75  C   UNL A   1      33.630  26.324  25.375  1.00  0.00     0.188 C 
BRANCH  75  76
ATOM     76  C   UNL A   1      33.551  26.037  23.874  1.00  0.00     0.188 C 
BRANCH  76  77
ATOM     77  O   UNL A   1      32.454  26.535  23.134  1.00  0.00    -0.376 OA
BRANCH  77  78
ATOM     78  C   UNL A   1      31.536  27.418  23.777  1.00  0.00     0.202 C 
BRANCH  78  79
ATOM     79  C   UNL A   1      30.050  27.048  23.914  1.00  0.00     0.261 C 
BRANCH  79  80
ATOM     80  O   UNL A   1      29.811  25.654  24.213  1.00  0.00    -0.463 OA
BRANCH  80  81
ATOM     81  C   UNL A   1      30.201  25.236  25.436  1.00  0.00     0.315 C 
ATOM     82  O   UNL A   1      30.125  25.945  26.441  1.00  0.00    -0.251 OA
BRANCH  81  83
ATOM     83  C   UNL A   1      30.601  23.777  25.565  1.00  0.00     0.148 C 
ATOM     84  C   UNL A   1      31.419  23.657  26.876  1.00  0.00     0.043 C 
ATOM     85  C   UNL A   1      31.490  23.083  24.576  1.00  0.00     0.033 A 
ATOM     86  C   UNL A   1      32.456  22.566  26.652  1.00  0.00     0.124 C 
ATOM     87  N   UNL A   1      32.520  22.430  25.210  1.00  0.00    -0.341 N 
ATOM     88  C   UNL A   1      31.518  22.664  23.269  1.00  0.00     0.025 A 
ATOM     89  C   UNL A   1      33.219  21.610  24.366  1.00  0.00     0.090 A 
ATOM     90  C   UNL A   1      32.607  21.764  23.131  1.00  0.00     0.032 A 
BRANCH  89  91
ATOM     91  C   UNL A   1      34.340  20.730  24.651  1.00  0.00     0.209 C 
ATOM     92  O   UNL A   1      35.500  21.113  24.798  1.00  0.00    -0.287 OA
BRANCH  91  93
ATOM     93  C   UNL A   1      34.079  19.295  24.806  1.00  0.00     0.024 A 
ATOM     94  C   UNL A   1      32.871  18.891  25.378  1.00  0.00     0.012 A 
ATOM     95  C   UNL A   1      34.973  18.370  24.258  1.00  0.00     0.012 A 
ATOM     96  C   UNL A   1      32.528  17.542  25.348  1.00  0.00     0.001 A 
ATOM     97  C   UNL A   1      34.612  17.025  24.215  1.00  0.00     0.001 A 
ATOM     98  C   UNL A   1      33.387  16.617  24.750  1.00  0.00     0.000 A 
ENDBRANCH  91  93
ENDBRANCH  89  91
ENDBRANCH  81  83
ENDBRANCH  80  81
ENDBRANCH  79  80
ENDBRANCH  78  79
ENDBRANCH  77  78
ENDBRANCH  76  77
ENDBRANCH  75  76
ENDBRANCH   1  75
TORSDOF 22
ENDMDL
