MODEL 1
REMARK VINA RESULT:     -10.4      0.000      0.000
REMARK SMILES C[NH+]1CCC2(CC1)OC[C@@H](C(=O)OCCOCCOCCOCCOC(=O)c1ccc(-c3c4nc(c(-c5c(F)c(F)c(F)c(F)c5F)c5ccc([nH]5)c(-c5c(F)c(F)c(F)c(F)c5F)c5nc(c(-c6c(F)c(F)c(F)c(F)c6F)c6ccc3[nH]6)C=C5)C=C4)cc1)N2C(=O)c1ccc2ccccc2c1
REMARK SMILES IDX 19 1 18 2 17 3 16 4 15 5 14 6 13 7 11 8 12 9 10 10 1 11 2 12
REMARK SMILES IDX 3 13 7 14 4 16 6 17 5 18 8 19 91 20 9 21 92 22 93 23 94 24
REMARK SMILES IDX 95 25 103 26 96 27 102 28 97 29 101 30 98 31 100 32 99 33
REMARK SMILES IDX 20 34 21 35 22 36 23 37 24 38 25 39 26 40 27 41 28 42 29 43
REMARK SMILES IDX 90 44 30 45 89 46 31 47 32 48 33 49 83 50 34 51 88 52 82 53
REMARK SMILES IDX 84 54 35 55 87 56 81 57 80 58 36 60 68 61 48 62 67 63 49 64
REMARK SMILES IDX 52 65 66 66 85 67 50 68 51 69 65 71 86 72 53 73 37 74 38 75
REMARK SMILES IDX 46 76 39 77 40 78 44 79 47 80 41 81 42 82 45 83 43 84 69 85
REMARK SMILES IDX 70 86 78 87 71 88 72 89 76 90 79 91 73 92 74 93 77 94 75 95
REMARK SMILES IDX 54 96 55 97 63 98 56 99 57 100 61 101 64 102 58 103 59 104
REMARK SMILES IDX 62 105 60 106
REMARK H PARENT 2 15 84 59 52 70
REMARK Flexibility Score: inf
ROOT
ATOM      1  O   UNL A   1      35.502  32.100  27.635  1.00  0.00    -0.377 OA
ENDROOT
BRANCH   1   2
ATOM      2  C   UNL A   1      35.089  30.873  28.209  1.00  0.00     0.188 C 
BRANCH   2   3
ATOM      3  C   UNL A   1      34.414  29.968  27.175  1.00  0.00     0.188 C 
BRANCH   3   4
ATOM      4  O   UNL A   1      33.289  30.488  26.476  1.00  0.00    -0.376 OA
BRANCH   4   5
ATOM      5  C   UNL A   1      32.635  29.686  25.492  1.00  0.00     0.202 C 
BRANCH   5   6
ATOM      6  C   UNL A   1      33.238  28.326  25.074  1.00  0.00     0.261 C 
BRANCH   6   7
ATOM      7  O   UNL A   1      32.369  27.447  24.304  1.00  0.00    -0.462 OA
BRANCH   7   8
ATOM      8  C   UNL A   1      33.021  26.574  23.505  1.00  0.00     0.331 C 
ATOM      9  O   UNL A   1      33.697  26.944  22.538  1.00  0.00    -0.250 OA
BRANCH   8  10
ATOM     10  C   UNL A   1      32.878  25.060  23.772  1.00  0.00     0.224 C 
ATOM     11  C   UNL A   1      32.767  18.864  25.467  1.00  0.00     0.332 C 
ATOM     12  N   UNL A   1      33.366  20.143  25.142  1.00  0.00    -0.337 N 
ATOM     13  C   UNL A   1      32.948  20.723  23.879  1.00  0.00     0.267 C 
ATOM     14  C   UNL A   1      33.585  21.000  26.294  1.00  0.00     0.267 C 
ATOM     15  H   UNL A   1      34.334  19.955  24.880  1.00  0.00     0.347 HD
ATOM     16  C   UNL A   1      32.118  21.983  23.978  1.00  0.00     0.120 C 
ATOM     17  C   UNL A   1      32.920  22.365  26.326  1.00  0.00     0.120 C 
ATOM     18  C   UNL A   1      32.656  23.022  24.979  1.00  0.00     0.155 C 
ATOM     19  O   UNL A   1      31.483  23.833  25.259  1.00  0.00    -0.352 OA
ATOM     20  N   UNL A   1      33.653  23.980  24.427  1.00  0.00    -0.293 N 
ATOM     21  C   UNL A   1      31.615  25.088  24.624  1.00  0.00     0.200 C 
BRANCH  20  22
ATOM     22  C   UNL A   1      34.801  23.470  23.786  1.00  0.00     0.256 C 
ATOM     23  O   UNL A   1      34.866  23.350  22.565  1.00  0.00    -0.269 OA
BRANCH  22  24
ATOM     24  C   UNL A   1      35.944  22.939  24.601  1.00  0.00     0.040 A 
ATOM     25  C   UNL A   1      36.473  21.669  24.381  1.00  0.00     0.014 A 
ATOM     26  C   UNL A   1      36.541  23.765  25.576  1.00  0.00     0.022 A 
ATOM     27  C   UNL A   1      37.677  21.298  25.004  1.00  0.00     0.009 A 
ATOM     28  C   UNL A   1      37.797  23.445  26.137  1.00  0.00    -0.018 A 
ATOM     29  C   UNL A   1      38.390  22.204  25.817  1.00  0.00    -0.018 A 
ATOM     30  C   UNL A   1      38.518  24.364  26.928  1.00  0.00     0.009 A 
ATOM     31  C   UNL A   1      39.701  21.938  26.260  1.00  0.00     0.009 A 
ATOM     32  C   UNL A   1      39.821  24.086  27.351  1.00  0.00     0.001 A 
ATOM     33  C   UNL A   1      40.417  22.878  27.005  1.00  0.00     0.001 A 
ENDBRANCH  22  24
ENDBRANCH  20  22
ENDBRANCH   8  10
ENDBRANCH   7   8
ENDBRANCH   6   7
ENDBRANCH   5   6
ENDBRANCH   4   5
ENDBRANCH   3   4
ENDBRANCH   2   3
ENDBRANCH   1   2
BRANCH   1  34
ATOM     34  C   UNL A   1      34.948  33.332  28.076  1.00  0.00     0.188 C 
BRANCH  34  35
ATOM     35  C   UNL A   1      35.250  33.772  29.509  1.00  0.00     0.188 C 
BRANCH  35  36
ATOM     36  O   UNL A   1      34.236  33.545  30.492  1.00  0.00    -0.376 OA
BRANCH  36  37
ATOM     37  C   UNL A   1      34.535  33.845  31.853  1.00  0.00     0.202 C 
BRANCH  37  38
ATOM     38  C   UNL A   1      34.965  32.650  32.708  1.00  0.00     0.261 C 
BRANCH  38  39
ATOM     39  O   UNL A   1      36.379  32.401  32.652  1.00  0.00    -0.460 OA
BRANCH  39  40
ATOM     40  C   UNL A   1      36.986  32.266  33.854  1.00  0.00     0.338 C 
ATOM     41  O   UNL A   1      36.577  32.621  34.943  1.00  0.00    -0.246 OA
BRANCH  40  42
ATOM     42  C   UNL A   1      38.219  31.473  33.691  1.00  0.00     0.060 A 
ATOM     43  C   UNL A   1      39.357  31.853  34.414  1.00  0.00     0.016 A 
ATOM     44  C   UNL A   1      38.281  30.440  32.754  1.00  0.00     0.016 A 
ATOM     45  C   UNL A   1      40.579  31.235  34.164  1.00  0.00     0.010 A 
ATOM     46  C   UNL A   1      39.509  29.832  32.493  1.00  0.00     0.010 A 
ATOM     47  C   UNL A   1      40.668  30.258  33.166  1.00  0.00    -0.014 A 
BRANCH  47  48
ATOM     48  C   UNL A   1      41.998  29.812  32.695  1.00  0.00     0.031 A 
ATOM     49  C   UNL A   1      42.643  30.553  31.557  1.00  0.00     0.074 A 
ATOM     50  C   UNL A   1      42.622  28.777  33.281  1.00  0.00     0.049 A 
ATOM     51  N   UNL A   1      43.756  30.297  30.921  1.00  0.00    -0.248 NA
ATOM     52  C   UNL A   1      41.928  31.743  31.066  1.00  0.00     0.031 C 
ATOM     53  C   UNL A   1      42.113  28.023  34.423  1.00  0.00     0.029 A 
ATOM     54  N   UNL A   1      43.818  28.176  32.982  1.00  0.00    -0.354 N 
ATOM     55  C   UNL A   1      43.868  31.283  29.949  1.00  0.00     0.074 A 
ATOM     56  C   UNL A   1      42.696  32.123  30.057  1.00  0.00     0.031 C 
ATOM     57  C   UNL A   1      42.985  27.043  34.720  1.00  0.00     0.029 A 
ATOM     58  C   UNL A   1      44.089  27.082  33.762  1.00  0.00     0.049 A 
ATOM     59  H   UNL A   1      44.423  28.499  32.275  1.00  0.00     0.167 HD
ATOM     60  C   UNL A   1      44.864  31.469  29.051  1.00  0.00     0.037 A 
ATOM     61  C   UNL A   1      45.100  26.194  33.686  1.00  0.00     0.037 A 
ATOM     62  C   UNL A   1      46.026  30.625  28.955  1.00  0.00     0.049 A 
ATOM     63  C   UNL A   1      46.157  26.378  32.626  1.00  0.00     0.074 A 
ATOM     64  C   UNL A   1      47.104  30.734  28.095  1.00  0.00     0.029 A 
ATOM     65  N   UNL A   1      46.255  29.507  29.745  1.00  0.00    -0.354 N 
ATOM     66  N   UNL A   1      46.269  27.320  31.721  1.00  0.00    -0.248 NA
ATOM     67  C   UNL A   1      47.229  25.375  32.581  1.00  0.00     0.031 C 
ATOM     68  C   UNL A   1      47.953  29.645  28.321  1.00  0.00     0.029 A 
ATOM     69  C   UNL A   1      47.442  28.899  29.371  1.00  0.00     0.049 A 
ATOM     70  H   UNL A   1      45.662  29.193  30.465  1.00  0.00     0.167 HD
ATOM     71  C   UNL A   1      47.438  27.044  31.023  1.00  0.00     0.074 A 
ATOM     72  C   UNL A   1      48.006  25.853  31.619  1.00  0.00     0.031 C 
ATOM     73  C   UNL A   1      47.995  27.717  29.984  1.00  0.00     0.037 A 
BRANCH  60  74
ATOM     74  C   UNL A   1      44.725  32.608  28.081  1.00  0.00     0.064 A 
ATOM     75  C   UNL A   1      45.133  33.912  28.401  1.00  0.00     0.173 A 
ATOM     76  C   UNL A   1      44.204  32.382  26.797  1.00  0.00     0.173 A 
ATOM     77  F   UNL A   1      45.624  34.185  29.620  1.00  0.00    -0.203 F 
ATOM     78  C   UNL A   1      44.998  34.951  27.484  1.00  0.00     0.198 A 
ATOM     79  C   UNL A   1      44.102  33.417  25.871  1.00  0.00     0.198 A 
ATOM     80  F   UNL A   1      43.802  31.155  26.436  1.00  0.00    -0.203 F 
ATOM     81  F   UNL A   1      45.347  36.198  27.831  1.00  0.00    -0.200 F 
ATOM     82  C   UNL A   1      44.491  34.701  26.217  1.00  0.00     0.200 A 
ATOM     83  F   UNL A   1      43.626  33.170  24.643  1.00  0.00    -0.200 F 
ATOM     84  F   UNL A   1      44.371  35.701  25.332  1.00  0.00    -0.200 F 
ENDBRANCH  60  74
BRANCH  61  85
ATOM     85  C   UNL A   1      45.153  25.044  34.626  1.00  0.00     0.064 A 
ATOM     86  C   UNL A   1      45.712  25.177  35.905  1.00  0.00     0.173 A 
ATOM     87  C   UNL A   1      44.662  23.781  34.259  1.00  0.00     0.173 A 
ATOM     88  F   UNL A   1      46.215  26.358  36.293  1.00  0.00    -0.203 F 
ATOM     89  C   UNL A   1      45.798  24.089  36.771  1.00  0.00     0.198 A 
ATOM     90  C   UNL A   1      44.718  22.702  35.138  1.00  0.00     0.198 A 
ATOM     91  F   UNL A   1      44.115  23.598  33.048  1.00  0.00    -0.203 F 
ATOM     92  F   UNL A   1      46.385  24.233  37.966  1.00  0.00    -0.200 F 
ATOM     93  C   UNL A   1      45.297  22.854  36.389  1.00  0.00     0.200 A 
ATOM     94  F   UNL A   1      44.218  21.515  34.771  1.00  0.00    -0.200 F 
ATOM     95  F   UNL A   1      45.377  21.809  37.224  1.00  0.00    -0.200 F 
ENDBRANCH  61  85
BRANCH  73  96
ATOM     96  C   UNL A   1      49.306  27.209  29.455  1.00  0.00     0.064 A 
ATOM     97  C   UNL A   1      49.372  26.288  28.399  1.00  0.00     0.173 A 
ATOM     98  C   UNL A   1      50.515  27.686  29.986  1.00  0.00     0.173 A 
ATOM     99  F   UNL A   1      48.247  25.790  27.865  1.00  0.00    -0.203 F 
ATOM    100  C   UNL A   1      50.600  25.842  27.915  1.00  0.00     0.198 A 
ATOM    101  C   UNL A   1      51.740  27.267  29.474  1.00  0.00     0.198 A 
ATOM    102  F   UNL A   1      50.508  28.576  30.990  1.00  0.00    -0.203 F 
ATOM    103  F   UNL A   1      50.639  24.920  26.942  1.00  0.00    -0.200 F 
ATOM    104  C   UNL A   1      51.781  26.338  28.446  1.00  0.00     0.200 A 
ATOM    105  F   UNL A   1      52.879  27.762  29.977  1.00  0.00    -0.200 F 
ATOM    106  F   UNL A   1      52.961  25.915  27.972  1.00  0.00    -0.200 F 
ENDBRANCH  73  96
ENDBRANCH  47  48
ENDBRANCH  40  42
ENDBRANCH  39  40
ENDBRANCH  38  39
ENDBRANCH  37  38
ENDBRANCH  36  37
ENDBRANCH  35  36
ENDBRANCH  34  35
ENDBRANCH   1  34
TORSDOF 22
ENDMDL
MODEL 2
REMARK VINA RESULT:     -10.4      7.733     14.842
REMARK SMILES C[NH+]1CCC2(CC1)OC[C@@H](C(=O)OCCOCCOCCOCCOC(=O)c1ccc(-c3c4nc(c(-c5c(F)c(F)c(F)c(F)c5F)c5ccc([nH]5)c(-c5c(F)c(F)c(F)c(F)c5F)c5nc(c(-c6c(F)c(F)c(F)c(F)c6F)c6ccc3[nH]6)C=C5)C=C4)cc1)N2C(=O)c1ccc2ccccc2c1
REMARK SMILES IDX 19 1 18 2 17 3 16 4 15 5 14 6 13 7 11 8 12 9 10 10 1 11 2 12
REMARK SMILES IDX 3 13 7 14 4 16 6 17 5 18 8 19 91 20 9 21 92 22 93 23 94 24
REMARK SMILES IDX 95 25 103 26 96 27 102 28 97 29 101 30 98 31 100 32 99 33
REMARK SMILES IDX 20 34 21 35 22 36 23 37 24 38 25 39 26 40 27 41 28 42 29 43
REMARK SMILES IDX 90 44 30 45 89 46 31 47 32 48 33 49 83 50 34 51 88 52 82 53
REMARK SMILES IDX 84 54 35 55 87 56 81 57 80 58 36 60 68 61 48 62 67 63 49 64
REMARK SMILES IDX 52 65 66 66 85 67 50 68 51 69 65 71 86 72 53 73 37 74 38 75
REMARK SMILES IDX 46 76 39 77 40 78 44 79 47 80 41 81 42 82 45 83 43 84 69 85
REMARK SMILES IDX 70 86 78 87 71 88 72 89 76 90 79 91 73 92 74 93 77 94 75 95
REMARK SMILES IDX 54 96 55 97 63 98 56 99 57 100 61 101 64 102 58 103 59 104
REMARK SMILES IDX 62 105 60 106
REMARK H PARENT 2 15 84 59 52 70
REMARK Flexibility Score: inf
ROOT
ATOM      1  O   UNL A   1      47.142  23.447  38.658  1.00  0.00    -0.377 OA
ENDROOT
BRANCH   1   2
ATOM      2  C   UNL A   1      46.439  23.199  37.453  1.00  0.00     0.188 C 
BRANCH   2   3
ATOM      3  C   UNL A   1      47.386  22.760  36.333  1.00  0.00     0.188 C 
BRANCH   3   4
ATOM      4  O   UNL A   1      48.711  22.389  36.694  1.00  0.00    -0.376 OA
BRANCH   4   5
ATOM      5  C   UNL A   1      48.993  21.039  37.060  1.00  0.00     0.202 C 
BRANCH   5   6
ATOM      6  C   UNL A   1      47.841  20.017  37.202  1.00  0.00     0.261 C 
BRANCH   6   7
ATOM      7  O   UNL A   1      47.873  19.174  38.389  1.00  0.00    -0.462 OA
BRANCH   7   8
ATOM      8  C   UNL A   1      46.656  18.817  38.855  1.00  0.00     0.331 C 
ATOM      9  O   UNL A   1      45.645  18.838  38.144  1.00  0.00    -0.250 OA
BRANCH   8  10
ATOM     10  C   UNL A   1      46.508  18.421  40.340  1.00  0.00     0.224 C 
ATOM     11  C   UNL A   1      45.651  16.088  46.265  1.00  0.00     0.332 C 
ATOM     12  N   UNL A   1      45.306  16.381  44.888  1.00  0.00    -0.337 N 
ATOM     13  C   UNL A   1      45.439  17.772  44.495  1.00  0.00     0.267 C 
ATOM     14  C   UNL A   1      45.665  15.327  43.955  1.00  0.00     0.267 C 
ATOM     15  H   UNL A   1      44.289  16.329  44.824  1.00  0.00     0.347 HD
ATOM     16  C   UNL A   1      46.535  18.069  43.497  1.00  0.00     0.120 C 
ATOM     17  C   UNL A   1      46.613  15.654  42.815  1.00  0.00     0.120 C 
ATOM     18  C   UNL A   1      46.598  17.090  42.310  1.00  0.00     0.155 C 
ATOM     19  O   UNL A   1      47.957  17.259  41.827  1.00  0.00    -0.352 OA
ATOM     20  N   UNL A   1      45.738  17.444  41.147  1.00  0.00    -0.293 N 
ATOM     21  C   UNL A   1      47.940  17.977  40.611  1.00  0.00     0.200 C 
BRANCH  20  22
ATOM     22  C   UNL A   1      44.362  17.662  41.362  1.00  0.00     0.256 C 
ATOM     23  O   UNL A   1      43.927  18.741  41.755  1.00  0.00    -0.269 OA
BRANCH  22  24
ATOM     24  C   UNL A   1      43.392  16.525  41.231  1.00  0.00     0.040 A 
ATOM     25  C   UNL A   1      43.101  15.947  39.996  1.00  0.00     0.014 A 
ATOM     26  C   UNL A   1      42.800  15.983  42.390  1.00  0.00     0.022 A 
ATOM     27  C   UNL A   1      42.368  14.749  39.942  1.00  0.00     0.009 A 
ATOM     28  C   UNL A   1      42.142  14.733  42.362  1.00  0.00    -0.018 A 
ATOM     29  C   UNL A   1      41.955  14.090  41.118  1.00  0.00    -0.018 A 
ATOM     30  C   UNL A   1      41.755  14.065  43.542  1.00  0.00     0.009 A 
ATOM     31  C   UNL A   1      41.427  12.783  41.096  1.00  0.00     0.009 A 
ATOM     32  C   UNL A   1      41.242  12.765  43.502  1.00  0.00     0.001 A 
ATOM     33  C   UNL A   1      41.091  12.120  42.279  1.00  0.00     0.001 A 
ENDBRANCH  22  24
ENDBRANCH  20  22
ENDBRANCH   8  10
ENDBRANCH   7   8
ENDBRANCH   6   7
ENDBRANCH   5   6
ENDBRANCH   4   5
ENDBRANCH   3   4
ENDBRANCH   2   3
ENDBRANCH   1   2
BRANCH   1  34
ATOM     34  C   UNL A   1      47.109  24.730  39.268  1.00  0.00     0.188 C 
BRANCH  34  35
ATOM     35  C   UNL A   1      45.738  25.339  39.564  1.00  0.00     0.188 C 
BRANCH  35  36
ATOM     36  O   UNL A   1      45.632  26.765  39.519  1.00  0.00    -0.376 OA
BRANCH  36  37
ATOM     37  C   UNL A   1      46.834  27.532  39.528  1.00  0.00     0.202 C 
BRANCH  37  38
ATOM     38  C   UNL A   1      46.884  28.683  38.521  1.00  0.00     0.261 C 
BRANCH  38  39
ATOM     39  O   UNL A   1      47.961  28.556  37.578  1.00  0.00    -0.460 OA
BRANCH  39  40
ATOM     40  C   UNL A   1      47.921  27.445  36.806  1.00  0.00     0.338 C 
ATOM     41  O   UNL A   1      48.563  26.421  36.936  1.00  0.00    -0.246 OA
BRANCH  40  42
ATOM     42  C   UNL A   1      46.849  27.587  35.803  1.00  0.00     0.060 A 
ATOM     43  C   UNL A   1      46.907  28.666  34.912  1.00  0.00     0.016 A 
ATOM     44  C   UNL A   1      45.746  26.731  35.817  1.00  0.00     0.016 A 
ATOM     45  C   UNL A   1      45.834  28.926  34.063  1.00  0.00     0.010 A 
ATOM     46  C   UNL A   1      44.665  27.003  34.978  1.00  0.00     0.010 A 
ATOM     47  C   UNL A   1      44.690  28.125  34.131  1.00  0.00    -0.014 A 
BRANCH  47  48
ATOM     48  C   UNL A   1      43.448  28.564  33.456  1.00  0.00     0.031 A 
ATOM     49  C   UNL A   1      43.226  28.158  32.026  1.00  0.00     0.074 A 
ATOM     50  C   UNL A   1      42.533  29.298  34.112  1.00  0.00     0.049 A 
ATOM     51  N   UNL A   1      42.263  28.492  31.206  1.00  0.00    -0.248 NA
ATOM     52  C   UNL A   1      44.232  27.258  31.441  1.00  0.00     0.031 C 
ATOM     53  C   UNL A   1      42.623  29.702  35.512  1.00  0.00     0.029 A 
ATOM     54  N   UNL A   1      41.354  29.844  33.674  1.00  0.00    -0.354 N 
ATOM     55  C   UNL A   1      42.555  27.855  30.007  1.00  0.00     0.074 A 
ATOM     56  C   UNL A   1      43.798  27.140  30.195  1.00  0.00     0.031 C 
ATOM     57  C   UNL A   1      41.548  30.450  35.818  1.00  0.00     0.029 A 
ATOM     58  C   UNL A   1      40.721  30.607  34.622  1.00  0.00     0.049 A 
ATOM     59  H   UNL A   1      40.995  29.702  32.769  1.00  0.00     0.167 HD
ATOM     60  C   UNL A   1      41.842  27.863  28.855  1.00  0.00     0.037 A 
ATOM     61  C   UNL A   1      39.617  31.372  34.521  1.00  0.00     0.037 A 
ATOM     62  C   UNL A   1      40.606  28.578  28.682  1.00  0.00     0.049 A 
ATOM     63  C   UNL A   1      38.884  31.428  33.204  1.00  0.00     0.074 A 
ATOM     64  C   UNL A   1      39.793  28.641  27.564  1.00  0.00     0.029 A 
ATOM     65  N   UNL A   1      40.007  29.365  29.657  1.00  0.00    -0.354 N 
ATOM     66  N   UNL A   1      39.152  30.810  32.079  1.00  0.00    -0.248 NA
ATOM     67  C   UNL A   1      37.693  32.286  33.146  1.00  0.00     0.031 C 
ATOM     68  C   UNL A   1      38.738  29.516  27.841  1.00  0.00     0.029 A 
ATOM     69  C   UNL A   1      38.852  29.942  29.155  1.00  0.00     0.049 A 
ATOM     70  H   UNL A   1      40.353  29.493  30.569  1.00  0.00     0.167 HD
ATOM     71  C   UNL A   1      38.147  31.177  31.192  1.00  0.00     0.074 A 
ATOM     72  C   UNL A   1      37.257  32.061  31.915  1.00  0.00     0.031 C 
ATOM     73  C   UNL A   1      37.974  30.813  29.896  1.00  0.00     0.037 A 
BRANCH  60  74
ATOM     74  C   UNL A   1      42.400  27.105  27.684  1.00  0.00     0.064 A 
ATOM     75  C   UNL A   1      43.324  27.680  26.798  1.00  0.00     0.173 A 
ATOM     76  C   UNL A   1      42.027  25.770  27.465  1.00  0.00     0.173 A 
ATOM     77  F   UNL A   1      43.704  28.958  26.954  1.00  0.00    -0.203 F 
ATOM     78  C   UNL A   1      43.832  26.956  25.722  1.00  0.00     0.198 A 
ATOM     79  C   UNL A   1      42.562  25.039  26.407  1.00  0.00     0.198 A 
ATOM     80  F   UNL A   1      41.150  25.169  28.282  1.00  0.00    -0.203 F 
ATOM     81  F   UNL A   1      44.674  27.543  24.859  1.00  0.00    -0.200 F 
ATOM     82  C   UNL A   1      43.457  25.634  25.532  1.00  0.00     0.200 A 
ATOM     83  F   UNL A   1      42.210  23.757  26.235  1.00  0.00    -0.200 F 
ATOM     84  F   UNL A   1      43.953  24.936  24.502  1.00  0.00    -0.200 F 
ENDBRANCH  60  74
BRANCH  61  85
ATOM     85  C   UNL A   1      39.146  32.159  35.691  1.00  0.00     0.064 A 
ATOM     86  C   UNL A   1      39.537  33.493  35.872  1.00  0.00     0.173 A 
ATOM     87  C   UNL A   1      38.308  31.589  36.662  1.00  0.00     0.173 A 
ATOM     88  F   UNL A   1      40.356  34.076  34.983  1.00  0.00    -0.203 F 
ATOM     89  C   UNL A   1      39.128  34.219  36.989  1.00  0.00     0.198 A 
ATOM     90  C   UNL A   1      37.873  32.326  37.761  1.00  0.00     0.198 A 
ATOM     91  F   UNL A   1      37.902  30.317  36.537  1.00  0.00    -0.203 F 
ATOM     92  F   UNL A   1      39.560  35.474  37.163  1.00  0.00    -0.200 F 
ATOM     93  C   UNL A   1      38.292  33.637  37.930  1.00  0.00     0.200 A 
ATOM     94  F   UNL A   1      37.052  31.764  38.658  1.00  0.00    -0.200 F 
ATOM     95  F   UNL A   1      37.897  34.336  39.002  1.00  0.00    -0.200 F 
ENDBRANCH  61  85
BRANCH  73  96
ATOM     96  C   UNL A   1      36.753  31.332  29.189  1.00  0.00     0.064 A 
ATOM     97  C   UNL A   1      36.633  32.676  28.808  1.00  0.00     0.173 A 
ATOM     98  C   UNL A   1      35.708  30.458  28.851  1.00  0.00     0.173 A 
ATOM     99  F   UNL A   1      37.597  33.556  29.119  1.00  0.00    -0.203 F 
ATOM    100  C   UNL A   1      35.498  33.132  28.141  1.00  0.00     0.198 A 
ATOM    101  C   UNL A   1      34.593  30.909  28.151  1.00  0.00     0.198 A 
ATOM    102  F   UNL A   1      35.777  29.160  29.184  1.00  0.00    -0.203 F 
ATOM    103  F   UNL A   1      35.381  34.432  27.834  1.00  0.00    -0.200 F 
ATOM    104  C   UNL A   1      34.484  32.247  27.805  1.00  0.00     0.200 A 
ATOM    105  F   UNL A   1      33.623  30.049  27.812  1.00  0.00    -0.200 F 
ATOM    106  F   UNL A   1      33.399  32.686  27.154  1.00  0.00    -0.200 F 
ENDBRANCH  73  96
ENDBRANCH  47  48
ENDBRANCH  40  42
ENDBRANCH  39  40
ENDBRANCH  38  39
ENDBRANCH  37  38
ENDBRANCH  36  37
ENDBRANCH  35  36
ENDBRANCH  34  35
ENDBRANCH   1  34
TORSDOF 22
ENDMDL
MODEL 3
REMARK VINA RESULT:     -10.0      3.177      5.916
REMARK SMILES C[NH+]1CCC2(CC1)OC[C@@H](C(=O)OCCOCCOCCOCCOC(=O)c1ccc(-c3c4nc(c(-c5c(F)c(F)c(F)c(F)c5F)c5ccc([nH]5)c(-c5c(F)c(F)c(F)c(F)c5F)c5nc(c(-c6c(F)c(F)c(F)c(F)c6F)c6ccc3[nH]6)C=C5)C=C4)cc1)N2C(=O)c1ccc2ccccc2c1
REMARK SMILES IDX 19 1 18 2 17 3 16 4 15 5 14 6 13 7 11 8 12 9 10 10 1 11 2 12
REMARK SMILES IDX 3 13 7 14 4 16 6 17 5 18 8 19 91 20 9 21 92 22 93 23 94 24
REMARK SMILES IDX 95 25 103 26 96 27 102 28 97 29 101 30 98 31 100 32 99 33
REMARK SMILES IDX 20 34 21 35 22 36 23 37 24 38 25 39 26 40 27 41 28 42 29 43
REMARK SMILES IDX 90 44 30 45 89 46 31 47 32 48 33 49 83 50 34 51 88 52 82 53
REMARK SMILES IDX 84 54 35 55 87 56 81 57 80 58 36 60 68 61 48 62 67 63 49 64
REMARK SMILES IDX 52 65 66 66 85 67 50 68 51 69 65 71 86 72 53 73 37 74 38 75
REMARK SMILES IDX 46 76 39 77 40 78 44 79 47 80 41 81 42 82 45 83 43 84 69 85
REMARK SMILES IDX 70 86 78 87 71 88 72 89 76 90 79 91 73 92 74 93 77 94 75 95
REMARK SMILES IDX 54 96 55 97 63 98 56 99 57 100 61 101 64 102 58 103 59 104
REMARK SMILES IDX 62 105 60 106
REMARK H PARENT 2 15 84 59 52 70
REMARK Flexibility Score: inf
ROOT
ATOM      1  O   UNL A   1      35.651  32.121  27.631  1.00  0.00    -0.377 OA
ENDROOT
BRANCH   1   2
ATOM      2  C   UNL A   1      35.145  30.951  28.248  1.00  0.00     0.188 C 
BRANCH   2   3
ATOM      3  C   UNL A   1      34.472  30.026  27.230  1.00  0.00     0.188 C 
BRANCH   3   4
ATOM      4  O   UNL A   1      33.365  30.541  26.500  1.00  0.00    -0.376 OA
BRANCH   4   5
ATOM      5  C   UNL A   1      32.663  29.694  25.590  1.00  0.00     0.202 C 
BRANCH   5   6
ATOM      6  C   UNL A   1      33.205  28.284  25.266  1.00  0.00     0.261 C 
BRANCH   6   7
ATOM      7  O   UNL A   1      32.323  27.417  24.496  1.00  0.00    -0.462 OA
BRANCH   7   8
ATOM      8  C   UNL A   1      32.961  26.571  23.657  1.00  0.00     0.331 C 
ATOM      9  O   UNL A   1      33.604  26.972  22.681  1.00  0.00    -0.250 OA
BRANCH   8  10
ATOM     10  C   UNL A   1      32.843  25.050  23.892  1.00  0.00     0.224 C 
ATOM     11  C   UNL A   1      32.833  18.817  25.453  1.00  0.00     0.332 C 
ATOM     12  N   UNL A   1      33.411  20.113  25.156  1.00  0.00    -0.337 N 
ATOM     13  C   UNL A   1      32.983  20.713  23.905  1.00  0.00     0.267 C 
ATOM     14  C   UNL A   1      33.616  20.949  26.327  1.00  0.00     0.267 C 
ATOM     15  H   UNL A   1      34.382  19.947  24.891  1.00  0.00     0.347 HD
ATOM     16  C   UNL A   1      32.133  21.957  24.031  1.00  0.00     0.120 C 
ATOM     17  C   UNL A   1      32.928  22.301  26.388  1.00  0.00     0.120 C 
ATOM     18  C   UNL A   1      32.654  22.983  25.055  1.00  0.00     0.155 C 
ATOM     19  O   UNL A   1      31.468  23.768  25.351  1.00  0.00    -0.352 OA
ATOM     20  N   UNL A   1      33.635  23.968  24.524  1.00  0.00    -0.293 N 
ATOM     21  C   UNL A   1      31.579  25.038  24.744  1.00  0.00     0.200 C 
BRANCH  20  22
ATOM     22  C   UNL A   1      34.791  23.492  23.873  1.00  0.00     0.256 C 
ATOM     23  O   UNL A   1      34.859  23.400  22.649  1.00  0.00    -0.269 OA
BRANCH  22  24
ATOM     24  C   UNL A   1      35.942  22.960  24.676  1.00  0.00     0.040 A 
ATOM     25  C   UNL A   1      36.474  21.693  24.445  1.00  0.00     0.014 A 
ATOM     26  C   UNL A   1      36.543  23.782  25.652  1.00  0.00     0.022 A 
ATOM     27  C   UNL A   1      37.683  21.322  25.058  1.00  0.00     0.009 A 
ATOM     28  C   UNL A   1      37.804  23.463  26.203  1.00  0.00    -0.018 A 
ATOM     29  C   UNL A   1      38.398  22.226  25.871  1.00  0.00    -0.018 A 
ATOM     30  C   UNL A   1      38.528  24.379  26.993  1.00  0.00     0.009 A 
ATOM     31  C   UNL A   1      39.714  21.961  26.303  1.00  0.00     0.009 A 
ATOM     32  C   UNL A   1      39.834  24.104  27.406  1.00  0.00     0.001 A 
ATOM     33  C   UNL A   1      40.432  22.900  27.048  1.00  0.00     0.001 A 
ENDBRANCH  22  24
ENDBRANCH  20  22
ENDBRANCH   8  10
ENDBRANCH   7   8
ENDBRANCH   6   7
ENDBRANCH   5   6
ENDBRANCH   4   5
ENDBRANCH   3   4
ENDBRANCH   2   3
ENDBRANCH   1   2
BRANCH   1  34
ATOM     34  C   UNL A   1      35.178  33.405  28.012  1.00  0.00     0.188 C 
BRANCH  34  35
ATOM     35  C   UNL A   1      35.415  33.849  29.457  1.00  0.00     0.188 C 
BRANCH  35  36
ATOM     36  O   UNL A   1      34.321  33.720  30.369  1.00  0.00    -0.376 OA
BRANCH  36  37
ATOM     37  C   UNL A   1      34.553  34.004  31.747  1.00  0.00     0.202 C 
BRANCH  37  38
ATOM     38  C   UNL A   1      35.047  32.823  32.585  1.00  0.00     0.261 C 
BRANCH  38  39
ATOM     39  O   UNL A   1      36.452  32.567  32.421  1.00  0.00    -0.460 OA
BRANCH  39  40
ATOM     40  C   UNL A   1      37.074  32.060  33.511  1.00  0.00     0.338 C 
ATOM     41  O   UNL A   1      36.715  32.118  34.671  1.00  0.00    -0.246 OA
BRANCH  40  42
ATOM     42  C   UNL A   1      38.244  31.271  33.081  1.00  0.00     0.060 A 
ATOM     43  C   UNL A   1      38.318  29.926  33.464  1.00  0.00     0.016 A 
ATOM     44  C   UNL A   1      39.302  31.881  32.407  1.00  0.00     0.016 A 
ATOM     45  C   UNL A   1      39.478  29.196  33.220  1.00  0.00     0.010 A 
ATOM     46  C   UNL A   1      40.471  31.154  32.177  1.00  0.00     0.010 A 
ATOM     47  C   UNL A   1      40.576  29.824  32.622  1.00  0.00    -0.014 A 
BRANCH  47  48
ATOM     48  C   UNL A   1      41.895  29.152  32.627  1.00  0.00     0.031 A 
ATOM     49  C   UNL A   1      42.785  29.326  33.826  1.00  0.00     0.074 A 
ATOM     50  C   UNL A   1      42.282  28.392  31.589  1.00  0.00     0.049 A 
ATOM     51  N   UNL A   1      44.009  28.908  34.021  1.00  0.00    -0.248 NA
ATOM     52  C   UNL A   1      42.217  30.080  34.955  1.00  0.00     0.031 C 
ATOM     53  C   UNL A   1      41.479  28.114  30.402  1.00  0.00     0.029 A 
ATOM     54  N   UNL A   1      43.460  27.727  31.366  1.00  0.00    -0.354 N 
ATOM     55  C   UNL A   1      44.360  29.360  35.287  1.00  0.00     0.074 A 
ATOM     56  C   UNL A   1      43.235  30.109  35.801  1.00  0.00     0.031 C 
ATOM     57  C   UNL A   1      42.195  27.346  29.562  1.00  0.00     0.029 A 
ATOM     58  C   UNL A   1      43.519  27.116  30.139  1.00  0.00     0.049 A 
ATOM     59  H   UNL A   1      44.193  27.690  32.023  1.00  0.00     0.167 HD
ATOM     60  C   UNL A   1      45.520  29.160  35.959  1.00  0.00     0.037 A 
ATOM     61  C   UNL A   1      44.540  26.474  29.541  1.00  0.00     0.037 A 
ATOM     62  C   UNL A   1      46.631  28.412  35.435  1.00  0.00     0.049 A 
ATOM     63  C   UNL A   1      45.848  26.333  30.278  1.00  0.00     0.074 A 
ATOM     64  C   UNL A   1      47.846  28.133  36.038  1.00  0.00     0.029 A 
ATOM     65  N   UNL A   1      46.666  27.829  34.176  1.00  0.00    -0.354 N 
ATOM     66  N   UNL A   1      46.172  26.744  31.480  1.00  0.00    -0.248 NA
ATOM     67  C   UNL A   1      46.932  25.634  29.574  1.00  0.00     0.031 C 
ATOM     68  C   UNL A   1      48.638  27.437  35.119  1.00  0.00     0.029 A 
ATOM     69  C   UNL A   1      47.893  27.219  33.970  1.00  0.00     0.049 A 
ATOM     70  H   UNL A   1      45.928  27.847  33.525  1.00  0.00     0.167 HD
ATOM     71  C   UNL A   1      47.480  26.326  31.690  1.00  0.00     0.074 A 
ATOM     72  C   UNL A   1      47.885  25.617  30.495  1.00  0.00     0.031 C 
ATOM     73  C   UNL A   1      48.274  26.509  32.775  1.00  0.00     0.037 A 
BRANCH  60  74
ATOM     74  C   UNL A   1      45.655  29.788  37.317  1.00  0.00     0.064 A 
ATOM     75  C   UNL A   1      45.380  29.078  38.495  1.00  0.00     0.173 A 
ATOM     76  C   UNL A   1      46.099  31.114  37.441  1.00  0.00     0.173 A 
ATOM     77  F   UNL A   1      44.939  27.812  38.433  1.00  0.00    -0.203 F 
ATOM     78  C   UNL A   1      45.517  29.679  39.744  1.00  0.00     0.198 A 
ATOM     79  C   UNL A   1      46.268  31.701  38.692  1.00  0.00     0.198 A 
ATOM     80  F   UNL A   1      46.380  31.839  36.348  1.00  0.00    -0.203 F 
ATOM     81  F   UNL A   1      45.199  28.996  40.853  1.00  0.00    -0.200 F 
ATOM     82  C   UNL A   1      45.969  30.987  39.842  1.00  0.00     0.200 A 
ATOM     83  F   UNL A   1      46.718  32.960  38.784  1.00  0.00    -0.200 F 
ATOM     84  F   UNL A   1      46.110  31.561  41.045  1.00  0.00    -0.200 F 
ENDBRANCH  60  74
BRANCH  61  85
ATOM     85  C   UNL A   1      44.377  25.932  28.166  1.00  0.00     0.064 A 
ATOM     86  C   UNL A   1      43.994  24.601  27.952  1.00  0.00     0.173 A 
ATOM     87  C   UNL A   1      44.616  26.730  27.036  1.00  0.00     0.173 A 
ATOM     88  F   UNL A   1      43.777  23.792  29.000  1.00  0.00    -0.203 F 
ATOM     89  C   UNL A   1      43.880  24.082  26.664  1.00  0.00     0.198 A 
ATOM     90  C   UNL A   1      44.468  26.220  25.749  1.00  0.00     0.198 A 
ATOM     91  F   UNL A   1      44.983  28.012  27.183  1.00  0.00    -0.203 F 
ATOM     92  F   UNL A   1      43.565  22.792  26.491  1.00  0.00    -0.200 F 
ATOM     93  C   UNL A   1      44.111  24.892  25.564  1.00  0.00     0.200 A 
ATOM     94  F   UNL A   1      44.678  27.011  24.689  1.00  0.00    -0.200 F 
ATOM     95  F   UNL A   1      43.998  24.394  24.325  1.00  0.00    -0.200 F 
ENDBRANCH  61  85
BRANCH  73  96
ATOM     96  C   UNL A   1      49.645  25.895  32.740  1.00  0.00     0.064 A 
ATOM     97  C   UNL A   1      49.882  24.584  33.176  1.00  0.00     0.173 A 
ATOM     98  C   UNL A   1      50.730  26.619  32.220  1.00  0.00     0.173 A 
ATOM     99  F   UNL A   1      48.883  23.853  33.694  1.00  0.00    -0.203 F 
ATOM    100  C   UNL A   1      51.159  24.030  33.120  1.00  0.00     0.198 A 
ATOM    101  C   UNL A   1      51.997  26.050  32.131  1.00  0.00     0.198 A 
ATOM    102  F   UNL A   1      50.557  27.875  31.780  1.00  0.00    -0.203 F 
ATOM    103  F   UNL A   1      51.372  22.794  33.593  1.00  0.00    -0.200 F 
ATOM    104  C   UNL A   1      52.213  24.760  32.590  1.00  0.00     0.200 A 
ATOM    105  F   UNL A   1      53.009  26.751  31.602  1.00  0.00    -0.200 F 
ATOM    106  F   UNL A   1      53.438  24.222  32.528  1.00  0.00    -0.200 F 
ENDBRANCH  73  96
ENDBRANCH  47  48
ENDBRANCH  40  42
ENDBRANCH  39  40
ENDBRANCH  38  39
ENDBRANCH  37  38
ENDBRANCH  36  37
ENDBRANCH  35  36
ENDBRANCH  34  35
ENDBRANCH   1  34
TORSDOF 22
ENDMDL
