MODEL 1
REMARK VINA RESULT:     -10.6      0.000      0.000
REMARK SMILES C[C@@H](C(=O)OCCOCCOCCOCCOC(=O)c1ccc(-c2c3nc(c(-c4c(F)c(F)c(F)c(F)c4F)c4ccc([nH]4)c(-c4c(F)c(F)c(F)c(F)c4F)c4nc(c(-c5c(F)c(F)c(F)c(F)c5F)c5ccc2[nH]5)C=C4)C=C3)cc1)S(=O)(=O)N[C@@]12C[C@@H]3C[C@@](C)(C[C@@](C)(C3)C1)C2
REMARK SMILES IDX 10 1 9 2 8 3 7 4 6 5 5 6 3 7 4 8 2 9 1 10 83 11 84 12 85 13
REMARK SMILES IDX 86 14 87 16 88 17 97 18 98 19 89 20 94 21 91 22 96 23 90 24
REMARK SMILES IDX 93 25 95 26 92 27 11 28 12 29 13 30 14 31 15 32 16 33 17 34
REMARK SMILES IDX 18 35 19 36 20 37 21 38 82 39 22 40 81 41 23 42 24 43 25 44
REMARK SMILES IDX 75 45 26 46 80 47 74 48 76 49 27 50 79 51 73 52 72 53 28 55
REMARK SMILES IDX 60 56 40 57 59 58 41 59 44 60 58 61 77 62 42 63 43 64 57 66
REMARK SMILES IDX 78 67 45 68 29 69 30 70 38 71 31 72 32 73 36 74 39 75 33 76
REMARK SMILES IDX 34 77 37 78 35 79 61 80 62 81 70 82 63 83 64 84 68 85 71 86
REMARK SMILES IDX 65 87 66 88 69 89 67 90 46 91 47 92 55 93 48 94 49 95 53 96
REMARK SMILES IDX 56 97 50 98 51 99 54 100 52 101
REMARK H PARENT 86 15 76 54 44 65
REMARK Flexibility Score: inf
ROOT
ATOM      1  C   UNL A   1      34.924  31.135  28.222  1.00  0.00     0.188 C 
ENDROOT
BRANCH   1   2
ATOM      2  C   UNL A   1      34.280  30.448  27.019  1.00  0.00     0.188 C 
BRANCH   2   3
ATOM      3  O   UNL A   1      34.807  29.161  26.694  1.00  0.00    -0.376 OA
BRANCH   3   4
ATOM      4  C   UNL A   1      33.880  28.098  26.491  1.00  0.00     0.202 C 
BRANCH   4   5
ATOM      5  C   UNL A   1      32.864  28.271  25.354  1.00  0.00     0.261 C 
BRANCH   5   6
ATOM      6  O   UNL A   1      32.266  27.041  24.899  1.00  0.00    -0.462 OA
BRANCH   6   7
ATOM      7  C   UNL A   1      31.452  27.111  23.805  1.00  0.00     0.325 C 
ATOM      8  O   UNL A   1      30.684  28.041  23.594  1.00  0.00    -0.251 OA
BRANCH   7   9
ATOM      9  C   UNL A   1      31.511  25.875  22.955  1.00  0.00     0.230 C 
ATOM     10  C   UNL A   1      30.659  24.725  23.450  1.00  0.00     0.039 C 
BRANCH   9  11
ATOM     11  S   UNL A   1      33.148  25.493  22.310  1.00  0.00     0.225 S 
ATOM     12  O   UNL A   1      32.962  24.539  21.239  1.00  0.00    -0.212 OA
ATOM     13  O   UNL A   1      33.819  26.745  22.015  1.00  0.00    -0.212 OA
BRANCH  11  14
ATOM     14  N   UNL A   1      34.187  24.802  23.435  1.00  0.00    -0.208 NA
ATOM     15  H   UNL A   1      34.248  25.483  24.191  1.00  0.00     0.141 HD
BRANCH  14  16
ATOM     16  C   UNL A   1      34.020  23.475  24.122  1.00  0.00     0.034 C 
ATOM     17  C   UNL A   1      32.975  22.667  23.359  1.00  0.00     0.027 C 
ATOM     18  C   UNL A   1      35.317  22.651  24.296  1.00  0.00     0.030 C 
ATOM     19  C   UNL A   1      33.495  23.717  25.574  1.00  0.00     0.030 C 
ATOM     20  C   UNL A   1      32.662  21.342  24.037  1.00  0.00    -0.008 C 
ATOM     21  C   UNL A   1      35.015  21.276  24.966  1.00  0.00    -0.030 C 
ATOM     22  C   UNL A   1      33.147  22.378  26.284  1.00  0.00    -0.030 C 
ATOM     23  C   UNL A   1      33.957  20.530  24.117  1.00  0.00     0.010 C 
ATOM     24  C   UNL A   1      32.111  21.610  25.436  1.00  0.00     0.010 C 
ATOM     25  C   UNL A   1      34.422  21.516  26.371  1.00  0.00     0.013 C 
ATOM     26  C   UNL A   1      36.288  20.424  25.072  1.00  0.00     0.011 C 
ATOM     27  C   UNL A   1      32.603  22.617  27.698  1.00  0.00     0.011 C 
ENDBRANCH  14  16
ENDBRANCH  11  14
ENDBRANCH   9  11
ENDBRANCH   7   9
ENDBRANCH   6   7
ENDBRANCH   5   6
ENDBRANCH   4   5
ENDBRANCH   3   4
ENDBRANCH   2   3
ENDBRANCH   1   2
BRANCH   1  28
ATOM     28  O   UNL A   1      34.012  31.998  28.897  1.00  0.00    -0.377 OA
BRANCH  28  29
ATOM     29  C   UNL A   1      33.933  33.370  28.505  1.00  0.00     0.188 C 
BRANCH  29  30
ATOM     30  C   UNL A   1      34.245  34.445  29.556  1.00  0.00     0.188 C 
BRANCH  30  31
ATOM     31  O   UNL A   1      33.629  34.318  30.839  1.00  0.00    -0.376 OA
BRANCH  31  32
ATOM     32  C   UNL A   1      34.456  34.407  31.993  1.00  0.00     0.202 C 
BRANCH  32  33
ATOM     33  C   UNL A   1      34.562  33.119  32.805  1.00  0.00     0.261 C 
BRANCH  33  34
ATOM     34  O   UNL A   1      35.450  32.197  32.157  1.00  0.00    -0.460 OA
BRANCH  34  35
ATOM     35  C   UNL A   1      36.524  31.862  32.900  1.00  0.00     0.338 C 
ATOM     36  O   UNL A   1      36.684  32.024  34.103  1.00  0.00    -0.246 OA
BRANCH  35  37
ATOM     37  C   UNL A   1      37.452  31.066  32.086  1.00  0.00     0.060 A 
ATOM     38  C   UNL A   1      38.537  30.484  32.753  1.00  0.00     0.016 A 
ATOM     39  C   UNL A   1      37.311  30.955  30.701  1.00  0.00     0.016 A 
ATOM     40  C   UNL A   1      39.524  29.835  32.032  1.00  0.00     0.010 A 
ATOM     41  C   UNL A   1      38.320  30.329  29.971  1.00  0.00     0.010 A 
ATOM     42  C   UNL A   1      39.450  29.818  30.636  1.00  0.00    -0.014 A 
BRANCH  42  43
ATOM     43  C   UNL A   1      40.681  29.500  29.889  1.00  0.00     0.031 A 
ATOM     44  C   UNL A   1      40.780  28.146  29.244  1.00  0.00     0.074 A 
ATOM     45  C   UNL A   1      41.633  30.428  29.717  1.00  0.00     0.049 A 
ATOM     46  N   UNL A   1      41.753  27.629  28.543  1.00  0.00    -0.248 NA
ATOM     47  C   UNL A   1      39.617  27.257  29.408  1.00  0.00     0.031 C 
ATOM     48  C   UNL A   1      41.583  31.792  30.237  1.00  0.00     0.029 A 
ATOM     49  N   UNL A   1      42.826  30.361  29.048  1.00  0.00    -0.354 N 
ATOM     50  C   UNL A   1      41.325  26.354  28.194  1.00  0.00     0.074 A 
ATOM     51  C   UNL A   1      40.018  26.163  28.780  1.00  0.00     0.031 C 
ATOM     52  C   UNL A   1      42.706  32.436  29.875  1.00  0.00     0.029 A 
ATOM     53  C   UNL A   1      43.564  31.514  29.135  1.00  0.00     0.049 A 
ATOM     54  H   UNL A   1      43.123  29.564  28.553  1.00  0.00     0.167 HD
ATOM     55  C   UNL A   1      41.969  25.432  27.444  1.00  0.00     0.037 A 
ATOM     56  C   UNL A   1      44.806  31.772  28.686  1.00  0.00     0.037 A 
ATOM     57  C   UNL A   1      43.271  25.644  26.868  1.00  0.00     0.049 A 
ATOM     58  C   UNL A   1      45.541  30.693  27.932  1.00  0.00     0.074 A 
ATOM     59  C   UNL A   1      44.022  24.784  26.089  1.00  0.00     0.029 A 
ATOM     60  N   UNL A   1      44.018  26.804  27.023  1.00  0.00    -0.354 N 
ATOM     61  N   UNL A   1      45.135  29.490  27.600  1.00  0.00    -0.248 NA
ATOM     62  C   UNL A   1      46.902  31.010  27.487  1.00  0.00     0.031 C 
ATOM     63  C   UNL A   1      45.250  25.399  25.827  1.00  0.00     0.029 A 
ATOM     64  C   UNL A   1      45.236  26.670  26.380  1.00  0.00     0.049 A 
ATOM     65  H   UNL A   1      43.724  27.604  27.517  1.00  0.00     0.167 HD
ATOM     66  C   UNL A   1      46.176  28.918  26.881  1.00  0.00     0.074 A 
ATOM     67  C   UNL A   1      47.226  29.914  26.814  1.00  0.00     0.031 C 
ATOM     68  C   UNL A   1      46.260  27.684  26.324  1.00  0.00     0.037 A 
BRANCH  55  69
ATOM     69  C   UNL A   1      41.300  24.102  27.246  1.00  0.00     0.064 A 
ATOM     70  C   UNL A   1      41.768  22.932  27.864  1.00  0.00     0.173 A 
ATOM     71  C   UNL A   1      40.159  24.001  26.436  1.00  0.00     0.173 A 
ATOM     72  F   UNL A   1      42.868  22.967  28.632  1.00  0.00    -0.203 F 
ATOM     73  C   UNL A   1      41.133  21.709  27.657  1.00  0.00     0.198 A 
ATOM     74  C   UNL A   1      39.507  22.784  26.259  1.00  0.00     0.198 A 
ATOM     75  F   UNL A   1      39.671  25.087  25.818  1.00  0.00    -0.203 F 
ATOM     76  F   UNL A   1      41.629  20.595  28.215  1.00  0.00    -0.200 F 
ATOM     77  C   UNL A   1      39.999  21.637  26.863  1.00  0.00     0.200 A 
ATOM     78  F   UNL A   1      38.405  22.720  25.499  1.00  0.00    -0.200 F 
ATOM     79  F   UNL A   1      39.385  20.461  26.672  1.00  0.00    -0.200 F 
ENDBRANCH  55  69
BRANCH  56  80
ATOM     80  C   UNL A   1      45.435  33.090  28.958  1.00  0.00     0.064 A 
ATOM     81  C   UNL A   1      46.220  33.299  30.100  1.00  0.00     0.173 A 
ATOM     82  C   UNL A   1      45.256  34.173  28.084  1.00  0.00     0.173 A 
ATOM     83  F   UNL A   1      46.407  32.301  30.975  1.00  0.00    -0.203 F 
ATOM     84  C   UNL A   1      46.783  34.546  30.368  1.00  0.00     0.198 A 
ATOM     85  C   UNL A   1      45.845  35.410  28.336  1.00  0.00     0.198 A 
ATOM     86  F   UNL A   1      44.516  34.028  26.974  1.00  0.00    -0.203 F 
ATOM     87  F   UNL A   1      47.488  34.731  31.493  1.00  0.00    -0.200 F 
ATOM     88  C   UNL A   1      46.600  35.598  29.483  1.00  0.00     0.200 A 
ATOM     89  F   UNL A   1      45.680  36.417  27.469  1.00  0.00    -0.200 F 
ATOM     90  F   UNL A   1      47.145  36.795  29.739  1.00  0.00    -0.200 F 
ENDBRANCH  56  80
BRANCH  68  91
ATOM     91  C   UNL A   1      47.511  27.360  25.558  1.00  0.00     0.064 A 
ATOM     92  C   UNL A   1      47.627  27.619  24.185  1.00  0.00     0.173 A 
ATOM     93  C   UNL A   1      48.626  26.824  26.222  1.00  0.00     0.173 A 
ATOM     94  F   UNL A   1      46.586  28.120  23.502  1.00  0.00    -0.203 F 
ATOM     95  C   UNL A   1      48.800  27.320  23.498  1.00  0.00     0.198 A 
ATOM     96  C   UNL A   1      49.810  26.563  25.540  1.00  0.00     0.198 A 
ATOM     97  F   UNL A   1      48.572  26.568  27.538  1.00  0.00    -0.203 F 
ATOM     98  F   UNL A   1      48.869  27.522  22.175  1.00  0.00    -0.200 F 
ATOM     99  C   UNL A   1      49.893  26.802  24.177  1.00  0.00     0.200 A 
ATOM    100  F   UNL A   1      50.870  26.080  26.201  1.00  0.00    -0.200 F 
ATOM    101  F   UNL A   1      51.025  26.525  23.515  1.00  0.00    -0.200 F 
ENDBRANCH  68  91
ENDBRANCH  42  43
ENDBRANCH  35  37
ENDBRANCH  34  35
ENDBRANCH  33  34
ENDBRANCH  32  33
ENDBRANCH  31  32
ENDBRANCH  30  31
ENDBRANCH  29  30
ENDBRANCH  28  29
ENDBRANCH   1  28
TORSDOF 23
ENDMDL
MODEL 2
REMARK VINA RESULT:     -10.4      1.034      2.100
REMARK SMILES C[C@@H](C(=O)OCCOCCOCCOCCOC(=O)c1ccc(-c2c3nc(c(-c4c(F)c(F)c(F)c(F)c4F)c4ccc([nH]4)c(-c4c(F)c(F)c(F)c(F)c4F)c4nc(c(-c5c(F)c(F)c(F)c(F)c5F)c5ccc2[nH]5)C=C4)C=C3)cc1)S(=O)(=O)N[C@@]12C[C@@H]3C[C@@](C)(C[C@@](C)(C3)C1)C2
REMARK SMILES IDX 10 1 9 2 8 3 7 4 6 5 5 6 3 7 4 8 2 9 1 10 83 11 84 12 85 13
REMARK SMILES IDX 86 14 87 16 88 17 97 18 98 19 89 20 94 21 91 22 96 23 90 24
REMARK SMILES IDX 93 25 95 26 92 27 11 28 12 29 13 30 14 31 15 32 16 33 17 34
REMARK SMILES IDX 18 35 19 36 20 37 21 38 82 39 22 40 81 41 23 42 24 43 25 44
REMARK SMILES IDX 75 45 26 46 80 47 74 48 76 49 27 50 79 51 73 52 72 53 28 55
REMARK SMILES IDX 60 56 40 57 59 58 41 59 44 60 58 61 77 62 42 63 43 64 57 66
REMARK SMILES IDX 78 67 45 68 29 69 30 70 38 71 31 72 32 73 36 74 39 75 33 76
REMARK SMILES IDX 34 77 37 78 35 79 61 80 62 81 70 82 63 83 64 84 68 85 71 86
REMARK SMILES IDX 65 87 66 88 69 89 67 90 46 91 47 92 55 93 48 94 49 95 53 96
REMARK SMILES IDX 56 97 50 98 51 99 54 100 52 101
REMARK H PARENT 86 15 76 54 44 65
REMARK Flexibility Score: inf
ROOT
ATOM      1  C   UNL A   1      35.460  31.687  28.077  1.00  0.00     0.188 C 
ENDROOT
BRANCH   1   2
ATOM      2  C   UNL A   1      34.776  30.638  27.202  1.00  0.00     0.188 C 
BRANCH   2   3
ATOM      3  O   UNL A   1      34.475  29.402  27.850  1.00  0.00    -0.376 OA
BRANCH   3   4
ATOM      4  C   UNL A   1      33.292  28.716  27.452  1.00  0.00     0.202 C 
BRANCH   4   5
ATOM      5  C   UNL A   1      32.195  29.556  26.785  1.00  0.00     0.261 C 
BRANCH   5   6
ATOM      6  O   UNL A   1      31.395  28.834  25.826  1.00  0.00    -0.462 OA
BRANCH   6   7
ATOM      7  C   UNL A   1      31.006  29.511  24.705  1.00  0.00     0.325 C 
ATOM      8  O   UNL A   1      30.760  30.710  24.692  1.00  0.00    -0.251 OA
BRANCH   7   9
ATOM      9  C   UNL A   1      30.796  28.608  23.524  1.00  0.00     0.230 C 
ATOM     10  C   UNL A   1      29.347  28.399  23.137  1.00  0.00     0.039 C 
BRANCH   9  11
ATOM     11  S   UNL A   1      31.895  27.183  23.472  1.00  0.00     0.225 S 
ATOM     12  O   UNL A   1      31.362  26.281  22.475  1.00  0.00    -0.212 OA
ATOM     13  O   UNL A   1      33.253  27.667  23.315  1.00  0.00    -0.212 OA
BRANCH  11  14
ATOM     14  N   UNL A   1      31.996  26.339  24.922  1.00  0.00    -0.208 NA
ATOM     15  H   UNL A   1      31.058  26.385  25.319  1.00  0.00     0.141 HD
BRANCH  14  16
ATOM     16  C   UNL A   1      32.427  24.911  25.108  1.00  0.00     0.034 C 
ATOM     17  C   UNL A   1      31.694  24.342  26.318  1.00  0.00     0.027 C 
ATOM     18  C   UNL A   1      32.233  23.995  23.878  1.00  0.00     0.030 C 
ATOM     19  C   UNL A   1      33.962  24.879  25.400  1.00  0.00     0.030 C 
ATOM     20  C   UNL A   1      32.141  22.926  26.650  1.00  0.00    -0.008 C 
ATOM     21  C   UNL A   1      32.660  22.531  24.205  1.00  0.00    -0.030 C 
ATOM     22  C   UNL A   1      34.442  23.445  25.762  1.00  0.00    -0.030 C 
ATOM     23  C   UNL A   1      31.857  22.040  25.434  1.00  0.00     0.010 C 
ATOM     24  C   UNL A   1      33.634  22.931  26.972  1.00  0.00     0.010 C 
ATOM     25  C   UNL A   1      34.160  22.510  24.570  1.00  0.00     0.013 C 
ATOM     26  C   UNL A   1      32.398  21.602  23.011  1.00  0.00     0.011 C 
ATOM     27  C   UNL A   1      35.944  23.419  26.078  1.00  0.00     0.011 C 
ENDBRANCH  14  16
ENDBRANCH  11  14
ENDBRANCH   9  11
ENDBRANCH   7   9
ENDBRANCH   6   7
ENDBRANCH   5   6
ENDBRANCH   4   5
ENDBRANCH   3   4
ENDBRANCH   2   3
ENDBRANCH   1   2
BRANCH   1  28
ATOM     28  O   UNL A   1      34.604  32.161  29.114  1.00  0.00    -0.377 OA
BRANCH  28  29
ATOM     29  C   UNL A   1      34.038  33.469  29.005  1.00  0.00     0.188 C 
BRANCH  29  30
ATOM     30  C   UNL A   1      34.312  34.475  30.130  1.00  0.00     0.188 C 
BRANCH  30  31
ATOM     31  O   UNL A   1      33.743  34.209  31.414  1.00  0.00    -0.376 OA
BRANCH  31  32
ATOM     32  C   UNL A   1      34.589  34.292  32.554  1.00  0.00     0.202 C 
BRANCH  32  33
ATOM     33  C   UNL A   1      34.973  32.947  33.166  1.00  0.00     0.261 C 
BRANCH  33  34
ATOM     34  O   UNL A   1      35.974  32.306  32.364  1.00  0.00    -0.460 OA
BRANCH  34  35
ATOM     35  C   UNL A   1      36.928  31.677  33.082  1.00  0.00     0.338 C 
ATOM     36  O   UNL A   1      37.009  31.584  34.300  1.00  0.00    -0.246 OA
BRANCH  35  37
ATOM     37  C   UNL A   1      37.801  30.920  32.177  1.00  0.00     0.060 A 
ATOM     38  C   UNL A   1      38.913  30.291  32.751  1.00  0.00     0.016 A 
ATOM     39  C   UNL A   1      37.584  30.885  30.798  1.00  0.00     0.016 A 
ATOM     40  C   UNL A   1      39.852  29.674  31.944  1.00  0.00     0.010 A 
ATOM     41  C   UNL A   1      38.546  30.291  29.981  1.00  0.00     0.010 A 
ATOM     42  C   UNL A   1      39.703  29.735  30.555  1.00  0.00    -0.014 A 
BRANCH  42  43
ATOM     43  C   UNL A   1      40.888  29.446  29.727  1.00  0.00     0.031 A 
ATOM     44  C   UNL A   1      41.006  28.075  29.124  1.00  0.00     0.074 A 
ATOM     45  C   UNL A   1      41.777  30.411  29.448  1.00  0.00     0.049 A 
ATOM     46  N   UNL A   1      41.948  27.577  28.368  1.00  0.00    -0.248 NA
ATOM     47  C   UNL A   1      39.906  27.138  29.409  1.00  0.00     0.031 C 
ATOM     48  C   UNL A   1      41.697  31.791  29.922  1.00  0.00     0.029 A 
ATOM     49  N   UNL A   1      42.916  30.375  28.692  1.00  0.00    -0.354 N 
ATOM     50  C   UNL A   1      41.559  26.271  28.099  1.00  0.00     0.074 A 
ATOM     51  C   UNL A   1      40.313  26.041  28.791  1.00  0.00     0.031 C 
ATOM     52  C   UNL A   1      42.756  32.473  29.452  1.00  0.00     0.029 A 
ATOM     53  C   UNL A   1      43.600  31.564  28.681  1.00  0.00     0.049 A 
ATOM     54  H   UNL A   1      43.215  29.574  28.203  1.00  0.00     0.167 HD
ATOM     55  C   UNL A   1      42.191  25.352  27.333  1.00  0.00     0.037 A 
ATOM     56  C   UNL A   1      44.790  31.863  28.128  1.00  0.00     0.037 A 
ATOM     57  C   UNL A   1      43.432  25.603  26.651  1.00  0.00     0.049 A 
ATOM     58  C   UNL A   1      45.519  30.792  27.357  1.00  0.00     0.074 A 
ATOM     59  C   UNL A   1      44.164  24.750  25.846  1.00  0.00     0.029 A 
ATOM     60  N   UNL A   1      44.129  26.802  26.706  1.00  0.00    -0.354 N 
ATOM     61  N   UNL A   1      45.150  29.559  27.100  1.00  0.00    -0.248 NA
ATOM     62  C   UNL A   1      46.825  31.155  26.796  1.00  0.00     0.031 C 
ATOM     63  C   UNL A   1      45.337  25.412  25.468  1.00  0.00     0.029 A 
ATOM     64  C   UNL A   1      45.301  26.702  25.976  1.00  0.00     0.049 A 
ATOM     65  H   UNL A   1      43.834  27.606  27.193  1.00  0.00     0.167 HD
ATOM     66  C   UNL A   1      46.161  29.010  26.323  1.00  0.00     0.074 A 
ATOM     67  C   UNL A   1      47.152  30.051  26.139  1.00  0.00     0.031 C 
ATOM     68  C   UNL A   1      46.265  27.761  25.805  1.00  0.00     0.037 A 
BRANCH  55  69
ATOM     69  C   UNL A   1      41.576  23.985  27.235  1.00  0.00     0.064 A 
ATOM     70  C   UNL A   1      40.401  23.746  26.506  1.00  0.00     0.173 A 
ATOM     71  C   UNL A   1      42.186  22.891  27.869  1.00  0.00     0.173 A 
ATOM     72  F   UNL A   1      39.765  24.759  25.898  1.00  0.00    -0.203 F 
ATOM     73  C   UNL A   1      39.847  22.469  26.437  1.00  0.00     0.198 A 
ATOM     74  C   UNL A   1      41.649  21.610  27.769  1.00  0.00     0.198 A 
ATOM     75  F   UNL A   1      43.309  23.064  28.582  1.00  0.00    -0.203 F 
ATOM     76  F   UNL A   1      38.696  22.274  25.780  1.00  0.00    -0.200 F 
ATOM     77  C   UNL A   1      40.476  21.402  27.061  1.00  0.00     0.200 A 
ATOM     78  F   UNL A   1      42.264  20.580  28.365  1.00  0.00    -0.200 F 
ATOM     79  F   UNL A   1      39.946  20.173  26.987  1.00  0.00    -0.200 F 
ENDBRANCH  55  69
BRANCH  56  80
ATOM     80  C   UNL A   1      45.371  33.219  28.303  1.00  0.00     0.064 A 
ATOM     81  C   UNL A   1      45.121  34.241  27.376  1.00  0.00     0.173 A 
ATOM     82  C   UNL A   1      46.197  33.519  29.396  1.00  0.00     0.173 A 
ATOM     83  F   UNL A   1      44.353  34.001  26.305  1.00  0.00    -0.203 F 
ATOM     84  C   UNL A   1      45.694  35.503  27.526  1.00  0.00     0.198 A 
ATOM     85  C   UNL A   1      46.743  34.790  29.562  1.00  0.00     0.198 A 
ATOM     86  F   UNL A   1      46.467  32.578  30.314  1.00  0.00    -0.203 F 
ATOM     87  F   UNL A   1      45.479  36.448  26.600  1.00  0.00    -0.200 F 
ATOM     88  C   UNL A   1      46.499  35.779  28.622  1.00  0.00     0.200 A 
ATOM     89  F   UNL A   1      47.505  35.055  30.632  1.00  0.00    -0.200 F 
ATOM     90  F   UNL A   1      47.045  36.993  28.768  1.00  0.00    -0.200 F 
ENDBRANCH  56  80
BRANCH  68  91
ATOM     91  C   UNL A   1      47.469  27.467  24.956  1.00  0.00     0.064 A 
ATOM     92  C   UNL A   1      47.495  27.754  23.584  1.00  0.00     0.173 A 
ATOM     93  C   UNL A   1      48.629  26.931  25.538  1.00  0.00     0.173 A 
ATOM     94  F   UNL A   1      46.408  28.255  22.978  1.00  0.00    -0.203 F 
ATOM     95  C   UNL A   1      48.627  27.482  22.819  1.00  0.00     0.198 A 
ATOM     96  C   UNL A   1      49.770  26.698  24.778  1.00  0.00     0.198 A 
ATOM     97  F   UNL A   1      48.660  26.649  26.849  1.00  0.00    -0.203 F 
ATOM     98  F   UNL A   1      48.610  27.711  21.499  1.00  0.00    -0.200 F 
ATOM     99  C   UNL A   1      49.765  26.965  23.417  1.00  0.00     0.200 A 
ATOM    100  F   UNL A   1      50.876  26.216  25.362  1.00  0.00    -0.200 F 
ATOM    101  F   UNL A   1      50.857  26.714  22.681  1.00  0.00    -0.200 F 
ENDBRANCH  68  91
ENDBRANCH  42  43
ENDBRANCH  35  37
ENDBRANCH  34  35
ENDBRANCH  33  34
ENDBRANCH  32  33
ENDBRANCH  31  32
ENDBRANCH  30  31
ENDBRANCH  29  30
ENDBRANCH  28  29
ENDBRANCH   1  28
TORSDOF 23
ENDMDL
MODEL 3
REMARK VINA RESULT:     -10.0      0.995      7.224
REMARK SMILES C[C@@H](C(=O)OCCOCCOCCOCCOC(=O)c1ccc(-c2c3nc(c(-c4c(F)c(F)c(F)c(F)c4F)c4ccc([nH]4)c(-c4c(F)c(F)c(F)c(F)c4F)c4nc(c(-c5c(F)c(F)c(F)c(F)c5F)c5ccc2[nH]5)C=C4)C=C3)cc1)S(=O)(=O)N[C@@]12C[C@@H]3C[C@@](C)(C[C@@](C)(C3)C1)C2
REMARK SMILES IDX 10 1 9 2 8 3 7 4 6 5 5 6 3 7 4 8 2 9 1 10 83 11 84 12 85 13
REMARK SMILES IDX 86 14 87 16 88 17 97 18 98 19 89 20 94 21 91 22 96 23 90 24
REMARK SMILES IDX 93 25 95 26 92 27 11 28 12 29 13 30 14 31 15 32 16 33 17 34
REMARK SMILES IDX 18 35 19 36 20 37 21 38 82 39 22 40 81 41 23 42 24 43 25 44
REMARK SMILES IDX 75 45 26 46 80 47 74 48 76 49 27 50 79 51 73 52 72 53 28 55
REMARK SMILES IDX 60 56 40 57 59 58 41 59 44 60 58 61 77 62 42 63 43 64 57 66
REMARK SMILES IDX 78 67 45 68 29 69 30 70 38 71 31 72 32 73 36 74 39 75 33 76
REMARK SMILES IDX 34 77 37 78 35 79 61 80 62 81 70 82 63 83 64 84 68 85 71 86
REMARK SMILES IDX 65 87 66 88 69 89 67 90 46 91 47 92 55 93 48 94 49 95 53 96
REMARK SMILES IDX 56 97 50 98 51 99 54 100 52 101
REMARK H PARENT 86 15 76 54 44 65
REMARK Flexibility Score: inf
ROOT
ATOM      1  C   UNL A   1      35.148  30.727  27.682  1.00  0.00     0.188 C 
ENDROOT
BRANCH   1   2
ATOM      2  C   UNL A   1      34.014  30.213  26.796  1.00  0.00     0.188 C 
BRANCH   2   3
ATOM      3  O   UNL A   1      32.763  30.016  27.455  1.00  0.00    -0.376 OA
BRANCH   3   4
ATOM      4  C   UNL A   1      31.581  30.070  26.662  1.00  0.00     0.202 C 
BRANCH   4   5
ATOM      5  C   UNL A   1      31.725  29.712  25.177  1.00  0.00     0.261 C 
BRANCH   5   6
ATOM      6  O   UNL A   1      31.071  28.484  24.796  1.00  0.00    -0.462 OA
BRANCH   6   7
ATOM      7  C   UNL A   1      31.467  27.344  25.435  1.00  0.00     0.325 C 
ATOM      8  O   UNL A   1      31.306  27.152  26.633  1.00  0.00    -0.251 OA
BRANCH   7   9
ATOM      9  C   UNL A   1      32.226  26.408  24.539  1.00  0.00     0.230 C 
ATOM     10  C   UNL A   1      33.537  26.955  24.017  1.00  0.00     0.039 C 
BRANCH   9  11
ATOM     11  S   UNL A   1      31.194  25.467  23.402  1.00  0.00     0.225 S 
ATOM     12  O   UNL A   1      29.841  25.543  23.908  1.00  0.00    -0.212 OA
ATOM     13  O   UNL A   1      31.460  25.938  22.057  1.00  0.00    -0.212 OA
BRANCH  11  14
ATOM     14  N   UNL A   1      31.604  23.842  23.286  1.00  0.00    -0.208 NA
ATOM     15  H   UNL A   1      31.838  23.698  22.304  1.00  0.00     0.141 HD
BRANCH  14  16
ATOM     16  C   UNL A   1      32.684  23.126  24.050  1.00  0.00     0.034 C 
ATOM     17  C   UNL A   1      32.725  23.692  25.466  1.00  0.00     0.027 C 
ATOM     18  C   UNL A   1      32.559  21.585  24.087  1.00  0.00     0.030 C 
ATOM     19  C   UNL A   1      34.060  23.405  23.365  1.00  0.00     0.030 C 
ATOM     20  C   UNL A   1      33.857  23.099  26.291  1.00  0.00    -0.008 C 
ATOM     21  C   UNL A   1      33.695  20.958  24.951  1.00  0.00    -0.030 C 
ATOM     22  C   UNL A   1      35.238  22.826  24.199  1.00  0.00    -0.030 C 
ATOM     23  C   UNL A   1      33.649  21.584  26.367  1.00  0.00     0.010 C 
ATOM     24  C   UNL A   1      35.192  23.423  25.622  1.00  0.00     0.010 C 
ATOM     25  C   UNL A   1      35.060  21.300  24.318  1.00  0.00     0.013 C 
ATOM     26  C   UNL A   1      33.531  19.435  25.054  1.00  0.00     0.011 C 
ATOM     27  C   UNL A   1      36.592  23.127  23.542  1.00  0.00     0.011 C 
ENDBRANCH  14  16
ENDBRANCH  11  14
ENDBRANCH   9  11
ENDBRANCH   7   9
ENDBRANCH   6   7
ENDBRANCH   5   6
ENDBRANCH   4   5
ENDBRANCH   3   4
ENDBRANCH   2   3
ENDBRANCH   1   2
BRANCH   1  28
ATOM     28  O   UNL A   1      34.673  31.598  28.706  1.00  0.00    -0.377 OA
BRANCH  28  29
ATOM     29  C   UNL A   1      34.289  32.932  28.362  1.00  0.00     0.188 C 
BRANCH  29  30
ATOM     30  C   UNL A   1      35.007  34.096  29.057  1.00  0.00     0.188 C 
BRANCH  30  31
ATOM     31  O   UNL A   1      34.458  34.578  30.285  1.00  0.00    -0.376 OA
BRANCH  31  32
ATOM     32  C   UNL A   1      35.056  34.152  31.502  1.00  0.00     0.202 C 
BRANCH  32  33
ATOM     33  C   UNL A   1      36.571  34.329  31.567  1.00  0.00     0.261 C 
BRANCH  33  34
ATOM     34  O   UNL A   1      37.090  33.726  32.760  1.00  0.00    -0.460 OA
BRANCH  34  35
ATOM     35  C   UNL A   1      36.685  32.454  32.949  1.00  0.00     0.338 C 
ATOM     36  O   UNL A   1      35.689  32.065  33.545  1.00  0.00    -0.246 OA
BRANCH  35  37
ATOM     37  C   UNL A   1      37.525  31.551  32.152  1.00  0.00     0.060 A 
ATOM     38  C   UNL A   1      38.649  31.009  32.787  1.00  0.00     0.016 A 
ATOM     39  C   UNL A   1      37.266  31.299  30.803  1.00  0.00     0.016 A 
ATOM     40  C   UNL A   1      39.559  30.259  32.063  1.00  0.00     0.010 A 
ATOM     41  C   UNL A   1      38.198  30.570  30.065  1.00  0.00     0.010 A 
ATOM     42  C   UNL A   1      39.368  30.099  30.687  1.00  0.00    -0.014 A 
BRANCH  42  43
ATOM     43  C   UNL A   1      40.526  29.667  29.882  1.00  0.00     0.031 A 
ATOM     44  C   UNL A   1      41.630  30.659  29.653  1.00  0.00     0.074 A 
ATOM     45  C   UNL A   1      40.625  28.399  29.455  1.00  0.00     0.049 A 
ATOM     46  N   UNL A   1      42.743  30.525  28.980  1.00  0.00    -0.248 NA
ATOM     47  C   UNL A   1      41.459  31.985  30.272  1.00  0.00     0.031 C 
ATOM     48  C   UNL A   1      39.640  27.349  29.703  1.00  0.00     0.029 A 
ATOM     49  N   UNL A   1      41.607  27.783  28.729  1.00  0.00    -0.354 N 
ATOM     50  C   UNL A   1      43.394  31.747  29.087  1.00  0.00     0.074 A 
ATOM     51  C   UNL A   1      42.545  32.621  29.864  1.00  0.00     0.031 C 
ATOM     52  C   UNL A   1      40.065  26.212  29.126  1.00  0.00     0.029 A 
ATOM     53  C   UNL A   1      41.328  26.472  28.439  1.00  0.00     0.049 A 
ATOM     54  H   UNL A   1      42.433  28.236  28.444  1.00  0.00     0.167 HD
ATOM     55  C   UNL A   1      44.598  32.100  28.584  1.00  0.00     0.037 A 
ATOM     56  C   UNL A   1      42.011  25.598  27.677  1.00  0.00     0.037 A 
ATOM     57  C   UNL A   1      45.429  31.213  27.814  1.00  0.00     0.049 A 
ATOM     58  C   UNL A   1      43.307  26.046  27.050  1.00  0.00     0.074 A 
ATOM     59  C   UNL A   1      46.668  31.457  27.253  1.00  0.00     0.029 A 
ATOM     60  N   UNL A   1      45.090  29.906  27.489  1.00  0.00    -0.354 N 
ATOM     61  N   UNL A   1      43.924  27.200  27.153  1.00  0.00    -0.248 NA
ATOM     62  C   UNL A   1      44.003  25.069  26.204  1.00  0.00     0.031 C 
ATOM     63  C   UNL A   1      47.050  30.320  26.534  1.00  0.00     0.029 A 
ATOM     64  C   UNL A   1      46.084  29.341  26.707  1.00  0.00     0.049 A 
ATOM     65  H   UNL A   1      44.265  29.448  27.772  1.00  0.00     0.167 HD
ATOM     66  C   UNL A   1      45.092  27.078  26.414  1.00  0.00     0.074 A 
ATOM     67  C   UNL A   1      45.105  25.731  25.881  1.00  0.00     0.031 C 
ATOM     68  C   UNL A   1      46.070  27.993  26.196  1.00  0.00     0.037 A 
BRANCH  55  69
ATOM     69  C   UNL A   1      45.063  33.510  28.808  1.00  0.00     0.064 A 
ATOM     70  C   UNL A   1      44.718  34.557  27.939  1.00  0.00     0.173 A 
ATOM     71  C   UNL A   1      45.853  33.822  29.925  1.00  0.00     0.173 A 
ATOM     72  F   UNL A   1      43.982  34.311  26.844  1.00  0.00    -0.203 F 
ATOM     73  C   UNL A   1      45.169  35.856  28.166  1.00  0.00     0.198 A 
ATOM     74  C   UNL A   1      46.273  35.127  30.168  1.00  0.00     0.198 A 
ATOM     75  F   UNL A   1      46.214  32.860  30.787  1.00  0.00    -0.203 F 
ATOM     76  F   UNL A   1      44.873  36.829  27.293  1.00  0.00    -0.200 F 
ATOM     77  C   UNL A   1      45.938  36.141  29.284  1.00  0.00     0.200 A 
ATOM     78  F   UNL A   1      47.007  35.402  31.255  1.00  0.00    -0.200 F 
ATOM     79  F   UNL A   1      46.364  37.393  29.505  1.00  0.00    -0.200 F 
ENDBRANCH  55  69
BRANCH  56  80
ATOM     80  C   UNL A   1      41.475  24.232  27.449  1.00  0.00     0.064 A 
ATOM     81  C   UNL A   1      40.338  24.020  26.657  1.00  0.00     0.173 A 
ATOM     82  C   UNL A   1      42.083  23.108  28.028  1.00  0.00     0.173 A 
ATOM     83  F   UNL A   1      39.709  25.063  26.097  1.00  0.00    -0.203 F 
ATOM     84  C   UNL A   1      39.818  22.740  26.472  1.00  0.00     0.198 A 
ATOM     85  C   UNL A   1      41.582  21.826  27.816  1.00  0.00     0.198 A 
ATOM     86  F   UNL A   1      43.176  23.253  28.793  1.00  0.00    -0.203 F 
ATOM     87  F   UNL A   1      38.701  22.572  25.751  1.00  0.00    -0.200 F 
ATOM     88  C   UNL A   1      40.444  21.643  27.047  1.00  0.00     0.200 A 
ATOM     89  F   UNL A   1      42.201  20.768  28.358  1.00  0.00    -0.200 F 
ATOM     90  F   UNL A   1      39.947  20.413  26.864  1.00  0.00    -0.200 F 
ENDBRANCH  56  80
BRANCH  68  91
ATOM     91  C   UNL A   1      47.253  27.552  25.381  1.00  0.00     0.064 A 
ATOM     92  C   UNL A   1      47.327  27.780  24.000  1.00  0.00     0.173 A 
ATOM     93  C   UNL A   1      48.348  26.933  26.005  1.00  0.00     0.173 A 
ATOM     94  F   UNL A   1      46.302  28.357  23.355  1.00  0.00    -0.203 F 
ATOM     95  C   UNL A   1      48.439  27.372  23.267  1.00  0.00     0.198 A 
ATOM     96  C   UNL A   1      49.473  26.562  25.276  1.00  0.00     0.198 A 
ATOM     97  F   UNL A   1      48.333  26.702  27.327  1.00  0.00    -0.203 F 
ATOM     98  F   UNL A   1      48.464  27.547  21.939  1.00  0.00    -0.200 F 
ATOM     99  C   UNL A   1      49.514  26.773  23.907  1.00  0.00     0.200 A 
ATOM    100  F   UNL A   1      50.519  26.001  25.899  1.00  0.00    -0.200 F 
ATOM    101  F   UNL A   1      50.587  26.390  23.201  1.00  0.00    -0.200 F 
ENDBRANCH  68  91
ENDBRANCH  42  43
ENDBRANCH  35  37
ENDBRANCH  34  35
ENDBRANCH  33  34
ENDBRANCH  32  33
ENDBRANCH  31  32
ENDBRANCH  30  31
ENDBRANCH  29  30
ENDBRANCH  28  29
ENDBRANCH   1  28
TORSDOF 23
ENDMDL
