MODEL 1
REMARK VINA RESULT:     -10.9      0.000      0.000
REMARK SMILES O=C(OCCOCCOCCOCCOC(=O)[C@H]1C[C@](O)(c2ccc(F)cc2)[C@@H](c2ccc(F)cc2)O1)c1ccc(-c2c3nc(c(-c4c(F)c(F)c(F)c(F)c4F)c4ccc([nH]4)c(-c4c(F)c(F)c(F)c(F)c4F)c4nc(c(-c5c(F)c(F)c(F)c(F)c5F)c5ccc2[nH]5)C=C4)C=C3)cc1
REMARK SMILES IDX 8 1 7 2 6 3 5 4 4 5 3 6 2 7 1 8 38 9 39 10 100 11 40 12
REMARK SMILES IDX 99 13 41 14 42 15 43 16 93 17 44 18 98 19 92 20 94 21 45 22
REMARK SMILES IDX 97 23 91 24 90 25 46 27 78 28 58 29 77 30 59 31 62 32 76 33
REMARK SMILES IDX 95 34 60 35 61 36 75 38 96 39 63 40 47 41 48 42 56 43 49 44
REMARK SMILES IDX 50 45 54 46 57 47 51 48 52 49 55 50 53 51 79 52 80 53 88 54
REMARK SMILES IDX 81 55 82 56 86 57 89 58 83 59 84 60 87 61 85 62 64 63 65 64
REMARK SMILES IDX 73 65 66 66 67 67 71 68 74 69 68 70 69 71 72 72 70 73 9 74
REMARK SMILES IDX 10 75 11 76 12 77 13 78 14 79 15 80 16 81 17 82 18 83 19 84
REMARK SMILES IDX 37 85 20 86 29 87 22 88 23 89 28 90 24 91 27 92 25 93 26 94
REMARK SMILES IDX 21 95 30 97 31 98 36 99 32 100 35 101 33 102 34 103
REMARK H PARENT 94 26 62 37 21 96
REMARK Flexibility Score: inf
ROOT
ATOM      1  C   UNL A   1      34.009  28.636  25.707  1.00  0.00     0.188 C 
ENDROOT
BRANCH   1   2
ATOM      2  C   UNL A   1      33.341  29.272  26.898  1.00  0.00     0.188 C 
BRANCH   2   3
ATOM      3  O   UNL A   1      33.343  30.696  26.897  1.00  0.00    -0.376 OA
BRANCH   3   4
ATOM      4  C   UNL A   1      32.181  31.418  27.306  1.00  0.00     0.202 C 
BRANCH   4   5
ATOM      5  C   UNL A   1      32.027  32.899  26.886  1.00  0.00     0.261 C 
BRANCH   5   6
ATOM      6  O   UNL A   1      32.939  33.868  27.468  1.00  0.00    -0.460 OA
BRANCH   6   7
ATOM      7  C   UNL A   1      33.385  33.930  28.760  1.00  0.00     0.338 C 
ATOM      8  O   UNL A   1      32.862  34.686  29.571  1.00  0.00    -0.246 OA
BRANCH   7   9
ATOM      9  C   UNL A   1      34.721  33.339  29.079  1.00  0.00     0.060 A 
ATOM     10  C   UNL A   1      34.811  32.139  29.752  1.00  0.00     0.016 A 
ATOM     11  C   UNL A   1      35.925  33.945  28.685  1.00  0.00     0.016 A 
ATOM     12  C   UNL A   1      35.971  31.415  29.851  1.00  0.00     0.010 A 
ATOM     13  C   UNL A   1      37.154  33.299  28.925  1.00  0.00     0.010 A 
ATOM     14  C   UNL A   1      37.163  32.018  29.498  1.00  0.00    -0.014 A 
BRANCH  14  15
ATOM     15  C   UNL A   1      38.320  31.383  30.150  1.00  0.00     0.031 A 
ATOM     16  C   UNL A   1      38.427  31.594  31.633  1.00  0.00     0.074 A 
ATOM     17  C   UNL A   1      38.969  30.381  29.531  1.00  0.00     0.049 A 
ATOM     18  N   UNL A   1      39.293  31.124  32.484  1.00  0.00    -0.248 NA
ATOM     19  C   UNL A   1      37.362  32.410  32.256  1.00  0.00     0.031 C 
ATOM     20  C   UNL A   1      38.672  29.898  28.178  1.00  0.00     0.029 A 
ATOM     21  N   UNL A   1      39.953  29.542  29.975  1.00  0.00    -0.354 N 
ATOM     22  C   UNL A   1      38.901  31.616  33.722  1.00  0.00     0.074 A 
ATOM     23  C   UNL A   1      37.708  32.399  33.529  1.00  0.00     0.031 C 
ATOM     24  C   UNL A   1      39.467  28.849  27.903  1.00  0.00     0.029 A 
ATOM     25  C   UNL A   1      40.369  28.636  29.028  1.00  0.00     0.049 A 
ATOM     26  H   UNL A   1      40.328  29.583  30.884  1.00  0.00     0.167 HD
ATOM     27  C   UNL A   1      39.515  31.439  34.911  1.00  0.00     0.037 A 
ATOM     28  C   UNL A   1      41.400  27.772  29.075  1.00  0.00     0.037 A 
ATOM     29  C   UNL A   1      40.715  30.667  35.037  1.00  0.00     0.049 A 
ATOM     30  C   UNL A   1      42.202  27.743  30.350  1.00  0.00     0.074 A 
ATOM     31  C   UNL A   1      41.560  30.536  36.118  1.00  0.00     0.029 A 
ATOM     32  N   UNL A   1      41.238  29.889  34.008  1.00  0.00    -0.354 N 
ATOM     33  N   UNL A   1      41.964  28.360  31.486  1.00  0.00    -0.248 NA
ATOM     34  C   UNL A   1      43.422  26.930  30.354  1.00  0.00     0.031 C 
ATOM     35  C   UNL A   1      42.627  29.723  35.722  1.00  0.00     0.029 A 
ATOM     36  C   UNL A   1      42.409  29.287  34.420  1.00  0.00     0.049 A 
ATOM     37  H   UNL A   1      40.831  29.783  33.117  1.00  0.00     0.167 HD
ATOM     38  C   UNL A   1      42.990  28.004  32.346  1.00  0.00     0.074 A 
ATOM     39  C   UNL A   1      43.848  27.100  31.599  1.00  0.00     0.031 C 
ATOM     40  C   UNL A   1      43.213  28.386  33.628  1.00  0.00     0.037 A 
BRANCH  27  41
ATOM     41  C   UNL A   1      38.966  32.208  36.075  1.00  0.00     0.064 A 
ATOM     42  C   UNL A   1      38.119  31.569  36.993  1.00  0.00     0.173 A 
ATOM     43  C   UNL A   1      39.352  33.529  36.351  1.00  0.00     0.173 A 
ATOM     44  F   UNL A   1      37.745  30.296  36.794  1.00  0.00    -0.203 F 
ATOM     45  C   UNL A   1      37.682  32.220  38.144  1.00  0.00     0.198 A 
ATOM     46  C   UNL A   1      38.935  34.169  37.518  1.00  0.00     0.198 A 
ATOM     47  F   UNL A   1      40.204  34.169  35.535  1.00  0.00    -0.203 F 
ATOM     48  F   UNL A   1      36.881  31.582  39.008  1.00  0.00    -0.200 F 
ATOM     49  C   UNL A   1      38.098  33.515  38.410  1.00  0.00     0.200 A 
ATOM     50  F   UNL A   1      39.380  35.402  37.801  1.00  0.00    -0.200 F 
ATOM     51  F   UNL A   1      37.712  34.124  39.539  1.00  0.00    -0.200 F 
ENDBRANCH  27  41
BRANCH  28  52
ATOM     52  C   UNL A   1      41.759  26.956  27.882  1.00  0.00     0.064 A 
ATOM     53  C   UNL A   1      41.224  25.668  27.695  1.00  0.00     0.173 A 
ATOM     54  C   UNL A   1      42.646  27.429  26.905  1.00  0.00     0.173 A 
ATOM     55  F   UNL A   1      40.358  25.164  28.584  1.00  0.00    -0.203 F 
ATOM     56  C   UNL A   1      41.586  24.881  26.602  1.00  0.00     0.198 A 
ATOM     57  C   UNL A   1      42.987  26.649  25.797  1.00  0.00     0.198 A 
ATOM     58  F   UNL A   1      43.168  28.659  27.015  1.00  0.00    -0.203 F 
ATOM     59  F   UNL A   1      41.084  23.644  26.473  1.00  0.00    -0.200 F 
ATOM     60  C   UNL A   1      42.464  25.373  25.651  1.00  0.00     0.200 A 
ATOM     61  F   UNL A   1      43.817  27.140  24.866  1.00  0.00    -0.200 F 
ATOM     62  F   UNL A   1      42.802  24.622  24.593  1.00  0.00    -0.200 F 
ENDBRANCH  28  52
BRANCH  40  63
ATOM     63  C   UNL A   1      44.409  27.806  34.315  1.00  0.00     0.064 A 
ATOM     64  C   UNL A   1      44.297  26.585  34.999  1.00  0.00     0.173 A 
ATOM     65  C   UNL A   1      45.615  28.511  34.403  1.00  0.00     0.173 A 
ATOM     66  F   UNL A   1      43.151  25.888  34.952  1.00  0.00    -0.203 F 
ATOM     67  C   UNL A   1      45.345  26.106  35.773  1.00  0.00     0.198 A 
ATOM     68  C   UNL A   1      46.675  28.010  35.150  1.00  0.00     0.198 A 
ATOM     69  F   UNL A   1      45.767  29.677  33.757  1.00  0.00    -0.203 F 
ATOM     70  F   UNL A   1      45.198  24.969  36.465  1.00  0.00    -0.200 F 
ATOM     71  C   UNL A   1      46.533  26.816  35.846  1.00  0.00     0.200 A 
ATOM     72  F   UNL A   1      47.832  28.683  35.204  1.00  0.00    -0.200 F 
ATOM     73  F   UNL A   1      47.545  26.353  36.592  1.00  0.00    -0.200 F 
ENDBRANCH  40  63
ENDBRANCH  14  15
ENDBRANCH   7   9
ENDBRANCH   6   7
ENDBRANCH   5   6
ENDBRANCH   4   5
ENDBRANCH   3   4
ENDBRANCH   2   3
ENDBRANCH   1   2
BRANCH   1  74
ATOM     74  O   UNL A   1      33.326  28.942  24.521  1.00  0.00    -0.377 OA
BRANCH  74  75
ATOM     75  C   UNL A   1      31.954  29.277  24.583  1.00  0.00     0.188 C 
BRANCH  75  76
ATOM     76  C   UNL A   1      30.775  28.327  24.411  1.00  0.00     0.188 C 
BRANCH  76  77
ATOM     77  O   UNL A   1      31.000  27.115  23.716  1.00  0.00    -0.376 OA
BRANCH  77  78
ATOM     78  C   UNL A   1      30.300  25.930  24.077  1.00  0.00     0.202 C 
BRANCH  78  79
ATOM     79  C   UNL A   1      30.679  25.176  25.366  1.00  0.00     0.261 C 
BRANCH  79  80
ATOM     80  O   UNL A   1      30.401  23.753  25.270  1.00  0.00    -0.461 OA
BRANCH  80  81
ATOM     81  C   UNL A   1      31.245  22.938  24.569  1.00  0.00     0.335 C 
ATOM     82  O   UNL A   1      31.646  23.180  23.448  1.00  0.00    -0.249 OA
BRANCH  81  83
ATOM     83  C   UNL A   1      31.735  21.714  25.419  1.00  0.00     0.232 C 
ATOM     84  C   UNL A   1      32.117  20.508  24.566  1.00  0.00     0.087 C 
ATOM     85  O   UNL A   1      32.772  21.923  26.366  1.00  0.00    -0.355 OA
ATOM     86  C   UNL A   1      33.549  20.086  24.951  1.00  0.00     0.123 C 
ATOM     87  C   UNL A   1      33.901  21.033  26.150  1.00  0.00     0.186 C 
BRANCH  86  88
ATOM     88  C   UNL A   1      33.517  18.556  25.104  1.00  0.00    -0.013 A 
ATOM     89  C   UNL A   1      34.592  17.802  24.545  1.00  0.00     0.010 A 
ATOM     90  C   UNL A   1      32.483  17.842  25.715  1.00  0.00     0.010 A 
ATOM     91  C   UNL A   1      34.642  16.411  24.621  1.00  0.00     0.039 A 
ATOM     92  C   UNL A   1      32.532  16.443  25.787  1.00  0.00     0.039 A 
ATOM     93  C   UNL A   1      33.606  15.743  25.246  1.00  0.00     0.123 A 
ATOM     94  F   UNL A   1      33.637  14.407  25.327  1.00  0.00    -0.207 F 
ENDBRANCH  86  88
BRANCH  86  95
ATOM     95  O   UNL A   1      34.474  20.210  23.876  1.00  0.00    -0.382 OA
ATOM     96  H   UNL A   1      35.338  19.864  24.151  1.00  0.00     0.212 HD
ENDBRANCH  86  95
BRANCH  87  97
ATOM     97  C   UNL A   1      35.141  21.938  26.107  1.00  0.00    -0.016 A 
ATOM     98  C   UNL A   1      36.419  21.412  25.856  1.00  0.00     0.009 A 
ATOM     99  C   UNL A   1      35.044  23.336  26.187  1.00  0.00     0.009 A 
ATOM    100  C   UNL A   1      37.551  22.210  25.671  1.00  0.00     0.039 A 
ATOM    101  C   UNL A   1      36.177  24.149  25.996  1.00  0.00     0.039 A 
ATOM    102  C   UNL A   1      37.418  23.580  25.739  1.00  0.00     0.123 A 
ATOM    103  F   UNL A   1      38.493  24.354  25.545  1.00  0.00    -0.207 F 
ENDBRANCH  87  97
ENDBRANCH  81  83
ENDBRANCH  80  81
ENDBRANCH  79  80
ENDBRANCH  78  79
ENDBRANCH  77  78
ENDBRANCH  76  77
ENDBRANCH  75  76
ENDBRANCH  74  75
ENDBRANCH   1  74
TORSDOF 23
ENDMDL
MODEL 2
REMARK VINA RESULT:     -10.4      3.683      8.716
REMARK SMILES O=C(OCCOCCOCCOCCOC(=O)[C@H]1C[C@](O)(c2ccc(F)cc2)[C@@H](c2ccc(F)cc2)O1)c1ccc(-c2c3nc(c(-c4c(F)c(F)c(F)c(F)c4F)c4ccc([nH]4)c(-c4c(F)c(F)c(F)c(F)c4F)c4nc(c(-c5c(F)c(F)c(F)c(F)c5F)c5ccc2[nH]5)C=C4)C=C3)cc1
REMARK SMILES IDX 8 1 7 2 6 3 5 4 4 5 3 6 2 7 1 8 38 9 39 10 100 11 40 12
REMARK SMILES IDX 99 13 41 14 42 15 43 16 93 17 44 18 98 19 92 20 94 21 45 22
REMARK SMILES IDX 97 23 91 24 90 25 46 27 78 28 58 29 77 30 59 31 62 32 76 33
REMARK SMILES IDX 95 34 60 35 61 36 75 38 96 39 63 40 47 41 48 42 56 43 49 44
REMARK SMILES IDX 50 45 54 46 57 47 51 48 52 49 55 50 53 51 79 52 80 53 88 54
REMARK SMILES IDX 81 55 82 56 86 57 89 58 83 59 84 60 87 61 85 62 64 63 65 64
REMARK SMILES IDX 73 65 66 66 67 67 71 68 74 69 68 70 69 71 72 72 70 73 9 74
REMARK SMILES IDX 10 75 11 76 12 77 13 78 14 79 15 80 16 81 17 82 18 83 19 84
REMARK SMILES IDX 37 85 20 86 29 87 22 88 23 89 28 90 24 91 27 92 25 93 26 94
REMARK SMILES IDX 21 95 30 97 31 98 36 99 32 100 35 101 33 102 34 103
REMARK H PARENT 94 26 62 37 21 96
REMARK Flexibility Score: inf
ROOT
ATOM      1  C   UNL A   1      44.458  21.584  24.937  1.00  0.00     0.188 C 
ENDROOT
BRANCH   1   2
ATOM      2  C   UNL A   1      45.153  22.590  24.059  1.00  0.00     0.188 C 
BRANCH   2   3
ATOM      3  O   UNL A   1      46.376  23.100  24.582  1.00  0.00    -0.376 OA
BRANCH   3   4
ATOM      4  C   UNL A   1      46.456  23.527  25.942  1.00  0.00     0.202 C 
BRANCH   4   5
ATOM      5  C   UNL A   1      47.444  24.655  26.321  1.00  0.00     0.261 C 
BRANCH   5   6
ATOM      6  O   UNL A   1      47.036  26.028  26.071  1.00  0.00    -0.460 OA
BRANCH   6   7
ATOM      7  C   UNL A   1      45.811  26.477  25.662  1.00  0.00     0.338 C 
ATOM      8  O   UNL A   1      45.617  26.803  24.497  1.00  0.00    -0.246 OA
BRANCH   7   9
ATOM      9  C   UNL A   1      44.825  26.898  26.705  1.00  0.00     0.060 A 
ATOM     10  C   UNL A   1      44.650  28.232  27.002  1.00  0.00     0.016 A 
ATOM     11  C   UNL A   1      44.019  25.977  27.394  1.00  0.00     0.016 A 
ATOM     12  C   UNL A   1      43.600  28.709  27.745  1.00  0.00     0.010 A 
ATOM     13  C   UNL A   1      43.037  26.432  28.298  1.00  0.00     0.010 A 
ATOM     14  C   UNL A   1      42.825  27.810  28.453  1.00  0.00    -0.014 A 
BRANCH  14  15
ATOM     15  C   UNL A   1      42.140  28.445  29.590  1.00  0.00     0.031 A 
ATOM     16  C   UNL A   1      42.986  28.683  30.808  1.00  0.00     0.074 A 
ATOM     17  C   UNL A   1      40.988  29.109  29.390  1.00  0.00     0.049 A 
ATOM     18  N   UNL A   1      42.686  29.264  31.934  1.00  0.00    -0.248 NA
ATOM     19  C   UNL A   1      44.398  28.254  30.717  1.00  0.00     0.031 C 
ATOM     20  C   UNL A   1      40.279  29.194  28.109  1.00  0.00     0.029 A 
ATOM     21  N   UNL A   1      40.251  29.898  30.229  1.00  0.00    -0.354 N 
ATOM     22  C   UNL A   1      43.851  29.233  32.689  1.00  0.00     0.074 A 
ATOM     23  C   UNL A   1      44.875  28.603  31.897  1.00  0.00     0.031 C 
ATOM     24  C   UNL A   1      39.203  29.987  28.253  1.00  0.00     0.029 A 
ATOM     25  C   UNL A   1      39.113  30.404  29.647  1.00  0.00     0.049 A 
ATOM     26  H   UNL A   1      40.509  30.084  31.161  1.00  0.00     0.167 HD
ATOM     27  C   UNL A   1      44.026  29.676  33.952  1.00  0.00     0.037 A 
ATOM     28  C   UNL A   1      38.102  31.087  30.214  1.00  0.00     0.037 A 
ATOM     29  C   UNL A   1      42.960  30.273  34.700  1.00  0.00     0.049 A 
ATOM     30  C   UNL A   1      38.229  31.391  31.685  1.00  0.00     0.074 A 
ATOM     31  C   UNL A   1      42.912  30.608  36.036  1.00  0.00     0.029 A 
ATOM     32  N   UNL A   1      41.732  30.620  34.144  1.00  0.00    -0.354 N 
ATOM     33  N   UNL A   1      39.256  31.189  32.480  1.00  0.00    -0.248 NA
ATOM     34  C   UNL A   1      37.065  31.987  32.348  1.00  0.00     0.031 C 
ATOM     35  C   UNL A   1      41.630  31.104  36.300  1.00  0.00     0.029 A 
ATOM     36  C   UNL A   1      40.907  31.148  35.114  1.00  0.00     0.049 A 
ATOM     37  H   UNL A   1      41.489  30.505  33.196  1.00  0.00     0.167 HD
ATOM     38  C   UNL A   1      38.874  31.644  33.732  1.00  0.00     0.074 A 
ATOM     39  C   UNL A   1      37.519  32.147  33.584  1.00  0.00     0.031 C 
ATOM     40  C   UNL A   1      39.567  31.643  34.898  1.00  0.00     0.037 A 
BRANCH  27  41
ATOM     41  C   UNL A   1      45.349  29.383  34.592  1.00  0.00     0.064 A 
ATOM     42  C   UNL A   1      46.295  30.410  34.735  1.00  0.00     0.173 A 
ATOM     43  C   UNL A   1      45.649  28.135  35.161  1.00  0.00     0.173 A 
ATOM     44  F   UNL A   1      46.046  31.631  34.238  1.00  0.00    -0.203 F 
ATOM     45  C   UNL A   1      47.487  30.201  35.423  1.00  0.00     0.198 A 
ATOM     46  C   UNL A   1      46.831  27.937  35.873  1.00  0.00     0.198 A 
ATOM     47  F   UNL A   1      44.756  27.134  35.102  1.00  0.00    -0.203 F 
ATOM     48  F   UNL A   1      48.368  31.203  35.552  1.00  0.00    -0.200 F 
ATOM     49  C   UNL A   1      47.749  28.968  35.999  1.00  0.00     0.200 A 
ATOM     50  F   UNL A   1      47.060  26.761  36.476  1.00  0.00    -0.200 F 
ATOM     51  F   UNL A   1      48.876  28.782  36.700  1.00  0.00    -0.200 F 
ENDBRANCH  27  41
BRANCH  28  52
ATOM     52  C   UNL A   1      36.890  31.443  29.424  1.00  0.00     0.064 A 
ATOM     53  C   UNL A   1      35.956  30.462  29.045  1.00  0.00     0.173 A 
ATOM     54  C   UNL A   1      36.635  32.760  29.019  1.00  0.00     0.173 A 
ATOM     55  F   UNL A   1      36.133  29.185  29.414  1.00  0.00    -0.203 F 
ATOM     56  C   UNL A   1      34.839  30.779  28.271  1.00  0.00     0.198 A 
ATOM     57  C   UNL A   1      35.502  33.081  28.267  1.00  0.00     0.198 A 
ATOM     58  F   UNL A   1      37.475  33.743  29.372  1.00  0.00    -0.203 F 
ATOM     59  F   UNL A   1      33.988  29.813  27.898  1.00  0.00    -0.200 F 
ATOM     60  C   UNL A   1      34.611  32.089  27.886  1.00  0.00     0.200 A 
ATOM     61  F   UNL A   1      35.271  34.354  27.918  1.00  0.00    -0.200 F 
ATOM     62  F   UNL A   1      33.532  32.397  27.153  1.00  0.00    -0.200 F 
ENDBRANCH  28  52
BRANCH  40  63
ATOM     63  C   UNL A   1      38.889  32.231  36.095  1.00  0.00     0.064 A 
ATOM     64  C   UNL A   1      39.123  33.572  36.440  1.00  0.00     0.173 A 
ATOM     65  C   UNL A   1      38.120  31.444  36.960  1.00  0.00     0.173 A 
ATOM     66  F   UNL A   1      39.868  34.355  35.645  1.00  0.00    -0.203 F 
ATOM     67  C   UNL A   1      38.632  34.094  37.630  1.00  0.00     0.198 A 
ATOM     68  C   UNL A   1      37.601  31.982  38.133  1.00  0.00     0.198 A 
ATOM     69  F   UNL A   1      37.866  30.161  36.663  1.00  0.00    -0.203 F 
ATOM     70  F   UNL A   1      38.915  35.359  37.969  1.00  0.00    -0.200 F 
ATOM     71  C   UNL A   1      37.870  33.301  38.473  1.00  0.00     0.200 A 
ATOM     72  F   UNL A   1      36.846  31.223  38.938  1.00  0.00    -0.200 F 
ATOM     73  F   UNL A   1      37.396  33.806  39.619  1.00  0.00    -0.200 F 
ENDBRANCH  40  63
ENDBRANCH  14  15
ENDBRANCH   7   9
ENDBRANCH   6   7
ENDBRANCH   5   6
ENDBRANCH   4   5
ENDBRANCH   3   4
ENDBRANCH   2   3
ENDBRANCH   1   2
BRANCH   1  74
ATOM     74  O   UNL A   1      43.405  22.177  25.652  1.00  0.00    -0.377 OA
BRANCH  74  75
ATOM     75  C   UNL A   1      43.147  21.752  26.975  1.00  0.00     0.188 C 
BRANCH  75  76
ATOM     76  C   UNL A   1      42.826  22.640  28.171  1.00  0.00     0.188 C 
BRANCH  76  77
ATOM     77  O   UNL A   1      41.535  23.216  28.239  1.00  0.00    -0.376 OA
BRANCH  77  78
ATOM     78  C   UNL A   1      40.393  22.493  27.794  1.00  0.00     0.202 C 
BRANCH  78  79
ATOM     79  C   UNL A   1      40.007  22.511  26.302  1.00  0.00     0.261 C 
BRANCH  79  80
ATOM     80  O   UNL A   1      38.629  22.103  26.088  1.00  0.00    -0.461 OA
BRANCH  80  81
ATOM     81  C   UNL A   1      37.744  22.965  25.503  1.00  0.00     0.335 C 
ATOM     82  O   UNL A   1      37.832  24.175  25.568  1.00  0.00    -0.249 OA
BRANCH  81  83
ATOM     83  C   UNL A   1      36.671  22.220  24.636  1.00  0.00     0.232 C 
ATOM     84  C   UNL A   1      36.172  20.929  25.279  1.00  0.00     0.087 C 
ATOM     85  O   UNL A   1      35.538  22.950  24.192  1.00  0.00    -0.355 OA
ATOM     86  C   UNL A   1      34.633  20.994  25.348  1.00  0.00     0.123 C 
ATOM     87  C   UNL A   1      34.288  22.324  24.594  1.00  0.00     0.186 C 
BRANCH  86  88
ATOM     88  C   UNL A   1      34.126  19.626  24.859  1.00  0.00    -0.013 A 
ATOM     89  C   UNL A   1      35.081  18.582  24.677  1.00  0.00     0.010 A 
ATOM     90  C   UNL A   1      32.796  19.343  24.537  1.00  0.00     0.010 A 
ATOM     91  C   UNL A   1      34.718  17.314  24.224  1.00  0.00     0.039 A 
ATOM     92  C   UNL A   1      32.433  18.070  24.077  1.00  0.00     0.039 A 
ATOM     93  C   UNL A   1      33.390  17.071  23.929  1.00  0.00     0.123 A 
ATOM     94  F   UNL A   1      33.023  15.859  23.491  1.00  0.00    -0.207 F 
ENDBRANCH  86  88
BRANCH  86  95
ATOM     95  O   UNL A   1      34.133  20.984  26.681  1.00  0.00    -0.382 OA
ATOM     96  H   UNL A   1      34.585  20.293  27.191  1.00  0.00     0.212 HD
ENDBRANCH  86  95
BRANCH  87  97
ATOM     97  C   UNL A   1      33.470  23.431  25.274  1.00  0.00    -0.016 A 
ATOM     98  C   UNL A   1      34.041  24.680  25.573  1.00  0.00     0.009 A 
ATOM     99  C   UNL A   1      32.094  23.299  25.512  1.00  0.00     0.009 A 
ATOM    100  C   UNL A   1      33.302  25.760  26.063  1.00  0.00     0.039 A 
ATOM    101  C   UNL A   1      31.339  24.383  26.000  1.00  0.00     0.039 A 
ATOM    102  C   UNL A   1      31.948  25.602  26.269  1.00  0.00     0.123 A 
ATOM    103  F   UNL A   1      31.228  26.636  26.721  1.00  0.00    -0.207 F 
ENDBRANCH  87  97
ENDBRANCH  81  83
ENDBRANCH  80  81
ENDBRANCH  79  80
ENDBRANCH  78  79
ENDBRANCH  77  78
ENDBRANCH  76  77
ENDBRANCH  75  76
ENDBRANCH  74  75
ENDBRANCH   1  74
TORSDOF 23
ENDMDL
MODEL 3
REMARK VINA RESULT:      -9.9      2.034      3.402
REMARK SMILES O=C(OCCOCCOCCOCCOC(=O)[C@H]1C[C@](O)(c2ccc(F)cc2)[C@@H](c2ccc(F)cc2)O1)c1ccc(-c2c3nc(c(-c4c(F)c(F)c(F)c(F)c4F)c4ccc([nH]4)c(-c4c(F)c(F)c(F)c(F)c4F)c4nc(c(-c5c(F)c(F)c(F)c(F)c5F)c5ccc2[nH]5)C=C4)C=C3)cc1
REMARK SMILES IDX 8 1 7 2 6 3 5 4 4 5 3 6 2 7 1 8 38 9 39 10 100 11 40 12
REMARK SMILES IDX 99 13 41 14 42 15 43 16 93 17 44 18 98 19 92 20 94 21 45 22
REMARK SMILES IDX 97 23 91 24 90 25 46 27 78 28 58 29 77 30 59 31 62 32 76 33
REMARK SMILES IDX 95 34 60 35 61 36 75 38 96 39 63 40 47 41 48 42 56 43 49 44
REMARK SMILES IDX 50 45 54 46 57 47 51 48 52 49 55 50 53 51 79 52 80 53 88 54
REMARK SMILES IDX 81 55 82 56 86 57 89 58 83 59 84 60 87 61 85 62 64 63 65 64
REMARK SMILES IDX 73 65 66 66 67 67 71 68 74 69 68 70 69 71 72 72 70 73 9 74
REMARK SMILES IDX 10 75 11 76 12 77 13 78 14 79 15 80 16 81 17 82 18 83 19 84
REMARK SMILES IDX 37 85 20 86 29 87 22 88 23 89 28 90 24 91 27 92 25 93 26 94
REMARK SMILES IDX 21 95 30 97 31 98 36 99 32 100 35 101 33 102 34 103
REMARK H PARENT 94 26 62 37 21 96
REMARK Flexibility Score: inf
ROOT
ATOM      1  C   UNL A   1      34.400  28.792  26.061  1.00  0.00     0.188 C 
ENDROOT
BRANCH   1   2
ATOM      2  C   UNL A   1      33.859  29.514  27.267  1.00  0.00     0.188 C 
BRANCH   2   3
ATOM      3  O   UNL A   1      33.740  30.926  27.118  1.00  0.00    -0.376 OA
BRANCH   3   4
ATOM      4  C   UNL A   1      32.615  31.615  27.664  1.00  0.00     0.202 C 
BRANCH   4   5
ATOM      5  C   UNL A   1      32.225  32.996  27.085  1.00  0.00     0.261 C 
BRANCH   5   6
ATOM      6  O   UNL A   1      33.013  34.148  27.488  1.00  0.00    -0.460 OA
BRANCH   6   7
ATOM      7  C   UNL A   1      33.226  34.618  28.755  1.00  0.00     0.338 C 
ATOM      8  O   UNL A   1      32.727  35.674  29.127  1.00  0.00    -0.246 OA
BRANCH   7   9
ATOM      9  C   UNL A   1      34.341  34.023  29.555  1.00  0.00     0.060 A 
ATOM     10  C   UNL A   1      35.652  34.237  29.190  1.00  0.00     0.016 A 
ATOM     11  C   UNL A   1      34.114  33.262  30.712  1.00  0.00     0.016 A 
ATOM     12  C   UNL A   1      36.718  33.950  30.003  1.00  0.00     0.010 A 
ATOM     13  C   UNL A   1      35.202  32.805  31.484  1.00  0.00     0.010 A 
ATOM     14  C   UNL A   1      36.507  33.172  31.126  1.00  0.00    -0.014 A 
BRANCH  14  15
ATOM     15  C   UNL A   1      37.736  32.496  31.570  1.00  0.00     0.031 A 
ATOM     16  C   UNL A   1      38.188  32.818  32.965  1.00  0.00     0.074 A 
ATOM     17  C   UNL A   1      38.162  31.394  30.927  1.00  0.00     0.049 A 
ATOM     18  N   UNL A   1      39.191  32.346  33.650  1.00  0.00    -0.248 NA
ATOM     19  C   UNL A   1      37.346  33.771  33.721  1.00  0.00     0.031 C 
ATOM     20  C   UNL A   1      37.538  30.828  29.726  1.00  0.00     0.029 A 
ATOM     21  N   UNL A   1      39.163  30.512  31.227  1.00  0.00    -0.354 N 
ATOM     22  C   UNL A   1      39.120  32.970  34.889  1.00  0.00     0.074 A 
ATOM     23  C   UNL A   1      37.969  33.835  34.884  1.00  0.00     0.031 C 
ATOM     24  C   UNL A   1      38.179  29.696  29.390  1.00  0.00     0.029 A 
ATOM     25  C   UNL A   1      39.295  29.499  30.307  1.00  0.00     0.049 A 
ATOM     26  H   UNL A   1      39.735  30.595  32.024  1.00  0.00     0.167 HD
ATOM     27  C   UNL A   1      39.972  32.840  35.926  1.00  0.00     0.037 A 
ATOM     28  C   UNL A   1      40.251  28.557  30.214  1.00  0.00     0.037 A 
ATOM     29  C   UNL A   1      41.117  31.980  35.864  1.00  0.00     0.049 A 
ATOM     30  C   UNL A   1      41.316  28.563  31.280  1.00  0.00     0.074 A 
ATOM     31  C   UNL A   1      42.173  31.866  36.742  1.00  0.00     0.029 A 
ATOM     32  N   UNL A   1      41.343  31.077  34.828  1.00  0.00    -0.354 N 
ATOM     33  N   UNL A   1      41.380  29.290  32.374  1.00  0.00    -0.248 NA
ATOM     34  C   UNL A   1      42.449  27.651  31.099  1.00  0.00     0.031 C 
ATOM     35  C   UNL A   1      43.068  30.933  36.206  1.00  0.00     0.029 A 
ATOM     36  C   UNL A   1      42.534  30.413  35.033  1.00  0.00     0.049 A 
ATOM     37  H   UNL A   1      40.740  30.934  34.063  1.00  0.00     0.167 HD
ATOM     38  C   UNL A   1      42.548  28.918  33.020  1.00  0.00     0.074 A 
ATOM     39  C   UNL A   1      43.155  27.885  32.198  1.00  0.00     0.031 C 
ATOM     40  C   UNL A   1      43.078  29.384  34.178  1.00  0.00     0.037 A 
BRANCH  27  41
ATOM     41  C   UNL A   1      39.751  33.746  37.100  1.00  0.00     0.064 A 
ATOM     42  C   UNL A   1      40.297  35.038  37.093  1.00  0.00     0.173 A 
ATOM     43  C   UNL A   1      38.919  33.394  38.174  1.00  0.00     0.173 A 
ATOM     44  F   UNL A   1      41.073  35.437  36.074  1.00  0.00    -0.203 F 
ATOM     45  C   UNL A   1      40.019  35.944  38.113  1.00  0.00     0.198 A 
ATOM     46  C   UNL A   1      38.620  34.312  39.180  1.00  0.00     0.198 A 
ATOM     47  F   UNL A   1      38.326  32.190  38.203  1.00  0.00    -0.203 F 
ATOM     48  F   UNL A   1      40.547  37.175  38.076  1.00  0.00    -0.200 F 
ATOM     49  C   UNL A   1      39.173  35.583  39.151  1.00  0.00     0.200 A 
ATOM     50  F   UNL A   1      37.760  33.980  40.155  1.00  0.00    -0.200 F 
ATOM     51  F   UNL A   1      38.870  36.470  40.108  1.00  0.00    -0.200 F 
ENDBRANCH  27  41
BRANCH  28  52
ATOM     52  C   UNL A   1      40.278  27.616  29.058  1.00  0.00     0.064 A 
ATOM     53  C   UNL A   1      41.032  27.903  27.906  1.00  0.00     0.173 A 
ATOM     54  C   UNL A   1      39.553  26.417  29.067  1.00  0.00     0.173 A 
ATOM     55  F   UNL A   1      41.761  29.026  27.841  1.00  0.00    -0.203 F 
ATOM     56  C   UNL A   1      41.032  27.048  26.804  1.00  0.00     0.198 A 
ATOM     57  C   UNL A   1      39.575  25.549  27.973  1.00  0.00     0.198 A 
ATOM     58  F   UNL A   1      38.837  26.076  30.148  1.00  0.00    -0.203 F 
ATOM     59  F   UNL A   1      41.733  27.370  25.707  1.00  0.00    -0.200 F 
ATOM     60  C   UNL A   1      40.306  25.870  26.839  1.00  0.00     0.200 A 
ATOM     61  F   UNL A   1      38.892  24.396  28.022  1.00  0.00    -0.200 F 
ATOM     62  F   UNL A   1      40.315  25.040  25.786  1.00  0.00    -0.200 F 
ENDBRANCH  28  52
BRANCH  40  63
ATOM     63  C   UNL A   1      44.357  28.761  34.642  1.00  0.00     0.064 A 
ATOM     64  C   UNL A   1      44.321  27.650  35.499  1.00  0.00     0.173 A 
ATOM     65  C   UNL A   1      45.599  29.334  34.345  1.00  0.00     0.173 A 
ATOM     66  F   UNL A   1      43.149  27.082  35.821  1.00  0.00    -0.203 F 
ATOM     67  C   UNL A   1      45.487  27.154  36.067  1.00  0.00     0.198 A 
ATOM     68  C   UNL A   1      46.767  28.811  34.888  1.00  0.00     0.198 A 
ATOM     69  F   UNL A   1      45.678  30.392  33.524  1.00  0.00    -0.203 F 
ATOM     70  F   UNL A   1      45.426  26.129  36.929  1.00  0.00    -0.200 F 
ATOM     71  C   UNL A   1      46.708  27.732  35.759  1.00  0.00     0.200 A 
ATOM     72  F   UNL A   1      47.951  29.355  34.574  1.00  0.00    -0.200 F 
ATOM     73  F   UNL A   1      47.833  27.252  36.307  1.00  0.00    -0.200 F 
ENDBRANCH  40  63
ENDBRANCH  14  15
ENDBRANCH   7   9
ENDBRANCH   6   7
ENDBRANCH   5   6
ENDBRANCH   4   5
ENDBRANCH   3   4
ENDBRANCH   2   3
ENDBRANCH   1   2
BRANCH   1  74
ATOM     74  O   UNL A   1      33.437  28.716  25.043  1.00  0.00    -0.377 OA
BRANCH  74  75
ATOM     75  C   UNL A   1      32.085  28.495  25.390  1.00  0.00     0.188 C 
BRANCH  75  76
ATOM     76  C   UNL A   1      30.994  27.928  24.489  1.00  0.00     0.188 C 
BRANCH  76  77
ATOM     77  O   UNL A   1      31.228  27.919  23.093  1.00  0.00    -0.376 OA
BRANCH  77  78
ATOM     78  C   UNL A   1      30.893  26.781  22.308  1.00  0.00     0.202 C 
BRANCH  78  79
ATOM     79  C   UNL A   1      31.290  25.373  22.789  1.00  0.00     0.261 C 
BRANCH  79  80
ATOM     80  O   UNL A   1      32.234  24.732  21.888  1.00  0.00    -0.461 OA
BRANCH  80  81
ATOM     81  C   UNL A   1      33.576  24.815  22.132  1.00  0.00     0.335 C 
ATOM     82  O   UNL A   1      34.209  25.852  22.095  1.00  0.00    -0.249 OA
BRANCH  81  83
ATOM     83  C   UNL A   1      34.186  23.444  22.585  1.00  0.00     0.232 C 
ATOM     84  C   UNL A   1      35.395  23.600  23.502  1.00  0.00     0.087 C 
ATOM     85  O   UNL A   1      33.322  22.480  23.166  1.00  0.00    -0.355 OA
ATOM     86  C   UNL A   1      35.133  22.780  24.781  1.00  0.00     0.123 C 
ATOM     87  C   UNL A   1      33.777  22.053  24.479  1.00  0.00     0.186 C 
BRANCH  86  88
ATOM     88  C   UNL A   1      36.429  22.001  25.063  1.00  0.00    -0.013 A 
ATOM     89  C   UNL A   1      37.507  22.695  25.690  1.00  0.00     0.010 A 
ATOM     90  C   UNL A   1      36.645  20.667  24.706  1.00  0.00     0.010 A 
ATOM     91  C   UNL A   1      38.725  22.077  25.971  1.00  0.00     0.039 A 
ATOM     92  C   UNL A   1      37.872  20.048  24.985  1.00  0.00     0.039 A 
ATOM     93  C   UNL A   1      38.894  20.752  25.615  1.00  0.00     0.123 A 
ATOM     94  F   UNL A   1      40.057  20.143  25.876  1.00  0.00    -0.207 F 
ENDBRANCH  86  88
BRANCH  86  95
ATOM     95  O   UNL A   1      35.064  23.584  25.955  1.00  0.00    -0.382 OA
ATOM     96  H   UNL A   1      35.710  23.264  26.604  1.00  0.00     0.212 HD
ENDBRANCH  86  95
BRANCH  87  97
ATOM     97  C   UNL A   1      32.567  22.214  25.411  1.00  0.00    -0.016 A 
ATOM     98  C   UNL A   1      32.732  22.384  26.796  1.00  0.00     0.009 A 
ATOM     99  C   UNL A   1      31.259  22.328  24.918  1.00  0.00     0.009 A 
ATOM    100  C   UNL A   1      31.673  22.671  27.662  1.00  0.00     0.039 A 
ATOM    101  C   UNL A   1      30.186  22.623  25.780  1.00  0.00     0.039 A 
ATOM    102  C   UNL A   1      30.403  22.794  27.142  1.00  0.00     0.123 A 
ATOM    103  F   UNL A   1      29.384  23.086  27.960  1.00  0.00    -0.207 F 
ENDBRANCH  87  97
ENDBRANCH  81  83
ENDBRANCH  80  81
ENDBRANCH  79  80
ENDBRANCH  78  79
ENDBRANCH  77  78
ENDBRANCH  76  77
ENDBRANCH  75  76
ENDBRANCH  74  75
ENDBRANCH   1  74
TORSDOF 23
ENDMDL
