MODEL 1
REMARK VINA RESULT:      -9.7      0.000      0.000
REMARK SMILES NC(=O)CC[N@@H+]1[C@@H](C(=O)OCCOCCOCCOCCOC(=O)c2ccc(-c3c4nc(c(-c5c(F)c(F)c(F)c(F)c5F)c5ccc([nH]5)c(-c5c(F)c(F)c(F)c(F)c5F)c5nc(c(-c6c(F)c(F)c(F)c(F)c6F)c6ccc3[nH]6)C=C5)C=C4)cc2)CC[C@@H]2CCCC[C@H]21
REMARK SMILES IDX 15 1 14 2 13 3 12 4 11 5 10 6 8 7 9 8 7 9 6 10 95 11 88 13
REMARK SMILES IDX 90 14 94 15 89 16 91 17 93 18 92 19 5 20 4 21 2 22 1 23 3 26
REMARK SMILES IDX 16 27 17 28 18 29 19 30 20 31 21 32 22 33 23 34 24 35 25 36
REMARK SMILES IDX 26 37 87 38 27 39 86 40 28 41 29 42 30 43 80 44 31 45 85 46
REMARK SMILES IDX 79 47 81 48 32 49 84 50 78 51 77 52 33 54 65 55 45 56 64 57
REMARK SMILES IDX 46 58 49 59 63 60 82 61 47 62 48 63 62 65 83 66 50 67 34 68
REMARK SMILES IDX 35 69 43 70 36 71 37 72 41 73 44 74 38 75 39 76 42 77 40 78
REMARK SMILES IDX 66 79 67 80 75 81 68 82 69 83 73 84 76 85 70 86 71 87 74 88
REMARK SMILES IDX 72 89 51 90 52 91 60 92 53 93 54 94 58 95 61 96 55 97 56 98
REMARK SMILES IDX 59 99 57 100
REMARK H PARENT 6 12 1 24 1 25 81 53 49 64
REMARK Flexibility Score: inf
ROOT
ATOM      1  C   UNL A   1      30.413  27.161  24.631  1.00  0.00     0.188 C 
ENDROOT
BRANCH   1   2
ATOM      2  C   UNL A   1      30.214  25.738  24.107  1.00  0.00     0.188 C 
BRANCH   2   3
ATOM      3  O   UNL A   1      31.101  25.176  23.165  1.00  0.00    -0.376 OA
BRANCH   3   4
ATOM      4  C   UNL A   1      32.506  25.083  23.316  1.00  0.00     0.202 C 
BRANCH   4   5
ATOM      5  C   UNL A   1      33.305  24.748  24.592  1.00  0.00     0.261 C 
BRANCH   5   6
ATOM      6  O   UNL A   1      33.441  23.387  25.010  1.00  0.00    -0.459 OA
BRANCH   6   7
ATOM      7  C   UNL A   1      33.925  22.571  24.047  1.00  0.00     0.364 C 
ATOM      8  O   UNL A   1      34.598  22.976  23.098  1.00  0.00    -0.245 OA
BRANCH   7   9
ATOM      9  C   UNL A   1      33.540  21.083  24.181  1.00  0.00     0.295 C 
ATOM     10  N   UNL A   1      34.742  20.158  24.331  1.00  0.00    -0.320 N 
ATOM     11  C   UNL A   1      34.254  18.804  24.768  1.00  0.00     0.187 C 
ATOM     12  H   UNL A   1      35.241  20.005  23.454  1.00  0.00     0.349 HD
ATOM     13  C   UNL A   1      32.601  20.542  23.098  1.00  0.00     0.078 C 
ATOM     14  C   UNL A   1      33.161  18.250  23.792  1.00  0.00     0.048 C 
ATOM     15  C   UNL A   1      35.360  17.726  24.826  1.00  0.00     0.065 C 
ATOM     16  C   UNL A   1      32.014  19.227  23.584  1.00  0.00     0.016 C 
ATOM     17  C   UNL A   1      32.615  16.893  24.255  1.00  0.00     0.010 C 
ATOM     18  C   UNL A   1      34.849  16.343  25.219  1.00  0.00     0.006 C 
ATOM     19  C   UNL A   1      33.734  15.865  24.306  1.00  0.00     0.001 C 
BRANCH  10  20
ATOM     20  C   UNL A   1      35.717  20.811  25.258  1.00  0.00     0.273 C 
BRANCH  20  21
ATOM     21  C   UNL A   1      37.080  21.333  24.813  1.00  0.00     0.161 C 
BRANCH  21  22
ATOM     22  C   UNL A   1      37.461  22.729  25.261  1.00  0.00     0.223 C 
ATOM     23  N   UNL A   1      37.914  22.883  26.533  1.00  0.00    -0.369 N 
ATOM     24  H   UNL A   1      38.170  23.776  26.859  1.00  0.00     0.159 HD
ATOM     25  H   UNL A   1      37.984  22.103  27.129  1.00  0.00     0.159 HD
ATOM     26  O   UNL A   1      37.364  23.699  24.514  1.00  0.00    -0.275 OA
ENDBRANCH  21  22
ENDBRANCH  20  21
ENDBRANCH  10  20
ENDBRANCH   7   9
ENDBRANCH   6   7
ENDBRANCH   5   6
ENDBRANCH   4   5
ENDBRANCH   3   4
ENDBRANCH   2   3
ENDBRANCH   1   2
BRANCH   1  27
ATOM     27  O   UNL A   1      31.654  27.414  25.256  1.00  0.00    -0.377 OA
BRANCH  27  28
ATOM     28  C   UNL A   1      32.317  28.647  25.012  1.00  0.00     0.188 C 
BRANCH  28  29
ATOM     29  C   UNL A   1      31.543  29.975  25.122  1.00  0.00     0.188 C 
BRANCH  29  30
ATOM     30  O   UNL A   1      32.003  30.838  26.147  1.00  0.00    -0.376 OA
BRANCH  30  31
ATOM     31  C   UNL A   1      31.178  31.914  26.565  1.00  0.00     0.202 C 
BRANCH  31  32
ATOM     32  C   UNL A   1      31.842  33.270  26.854  1.00  0.00     0.261 C 
BRANCH  32  33
ATOM     33  O   UNL A   1      33.270  33.269  27.024  1.00  0.00    -0.460 OA
BRANCH  33  34
ATOM     34  C   UNL A   1      33.779  33.784  28.164  1.00  0.00     0.338 C 
ATOM     35  O   UNL A   1      33.285  34.628  28.878  1.00  0.00    -0.246 OA
BRANCH  34  36
ATOM     36  C   UNL A   1      34.980  32.991  28.511  1.00  0.00     0.060 A 
ATOM     37  C   UNL A   1      34.844  31.615  28.737  1.00  0.00     0.016 A 
ATOM     38  C   UNL A   1      36.228  33.606  28.625  1.00  0.00     0.016 A 
ATOM     39  C   UNL A   1      35.949  30.856  29.124  1.00  0.00     0.010 A 
ATOM     40  C   UNL A   1      37.330  32.850  29.035  1.00  0.00     0.010 A 
ATOM     41  C   UNL A   1      37.186  31.480  29.323  1.00  0.00    -0.014 A 
BRANCH  41  42
ATOM     42  C   UNL A   1      38.270  30.756  30.032  1.00  0.00     0.031 A 
ATOM     43  C   UNL A   1      38.520  31.089  31.478  1.00  0.00     0.074 A 
ATOM     44  C   UNL A   1      39.004  29.812  29.419  1.00  0.00     0.049 A 
ATOM     45  N   UNL A   1      39.450  30.652  32.286  1.00  0.00    -0.248 NA
ATOM     46  C   UNL A   1      37.592  32.053  32.092  1.00  0.00     0.031 C 
ATOM     47  C   UNL A   1      38.824  29.362  28.041  1.00  0.00     0.029 A 
ATOM     48  N   UNL A   1      40.062  29.069  29.882  1.00  0.00    -0.354 N 
ATOM     49  C   UNL A   1      39.225  31.293  33.498  1.00  0.00     0.074 A 
ATOM     50  C   UNL A   1      38.093  32.173  33.311  1.00  0.00     0.031 C 
ATOM     51  C   UNL A   1      39.752  28.429  27.764  1.00  0.00     0.029 A 
ATOM     52  C   UNL A   1      40.615  28.247  28.931  1.00  0.00     0.049 A 
ATOM     53  H   UNL A   1      40.393  29.121  30.808  1.00  0.00     0.167 HD
ATOM     54  C   UNL A   1      39.899  31.155  34.665  1.00  0.00     0.037 A 
ATOM     55  C   UNL A   1      41.709  27.462  28.991  1.00  0.00     0.037 A 
ATOM     56  C   UNL A   1      41.027  30.280  34.845  1.00  0.00     0.049 A 
ATOM     57  C   UNL A   1      42.498  27.394  30.276  1.00  0.00     0.074 A 
ATOM     58  C   UNL A   1      41.773  30.058  35.990  1.00  0.00     0.029 A 
ATOM     59  N   UNL A   1      41.581  29.490  33.848  1.00  0.00    -0.354 N 
ATOM     60  N   UNL A   1      42.271  27.987  31.424  1.00  0.00    -0.248 NA
ATOM     61  C   UNL A   1      43.698  26.544  30.274  1.00  0.00     0.031 C 
ATOM     62  C   UNL A   1      42.816  29.184  35.669  1.00  0.00     0.029 A 
ATOM     63  C   UNL A   1      42.677  28.803  34.343  1.00  0.00     0.049 A 
ATOM     64  H   UNL A   1      41.243  29.427  32.925  1.00  0.00     0.167 HD
ATOM     65  C   UNL A   1      43.273  27.555  32.286  1.00  0.00     0.074 A 
ATOM     66  C   UNL A   1      44.104  26.639  31.531  1.00  0.00     0.031 C 
ATOM     67  C   UNL A   1      43.486  27.883  33.584  1.00  0.00     0.037 A 
BRANCH  54  68
ATOM     68  C   UNL A   1      39.454  31.993  35.829  1.00  0.00     0.064 A 
ATOM     69  C   UNL A   1      39.966  33.279  36.056  1.00  0.00     0.173 A 
ATOM     70  C   UNL A   1      38.477  31.512  36.713  1.00  0.00     0.173 A 
ATOM     71  F   UNL A   1      40.914  33.781  35.251  1.00  0.00    -0.203 F 
ATOM     72  C   UNL A   1      39.536  34.041  37.140  1.00  0.00     0.198 A 
ATOM     73  C   UNL A   1      38.024  32.289  37.776  1.00  0.00     0.198 A 
ATOM     74  F   UNL A   1      37.952  30.289  36.543  1.00  0.00    -0.203 F 
ATOM     75  F   UNL A   1      40.079  35.245  37.368  1.00  0.00    -0.200 F 
ATOM     76  C   UNL A   1      38.561  33.549  37.995  1.00  0.00     0.200 A 
ATOM     77  F   UNL A   1      37.071  31.817  38.592  1.00  0.00    -0.200 F 
ATOM     78  F   UNL A   1      38.141  34.286  39.031  1.00  0.00    -0.200 F 
ENDBRANCH  54  68
BRANCH  55  79
ATOM     79  C   UNL A   1      42.144  26.690  27.796  1.00  0.00     0.064 A 
ATOM     80  C   UNL A   1      41.634  25.411  27.534  1.00  0.00     0.173 A 
ATOM     81  C   UNL A   1      43.105  27.200  26.910  1.00  0.00     0.173 A 
ATOM     82  F   UNL A   1      40.733  24.867  28.364  1.00  0.00    -0.203 F 
ATOM     83  C   UNL A   1      42.085  24.663  26.447  1.00  0.00     0.198 A 
ATOM     84  C   UNL A   1      43.531  26.465  25.805  1.00  0.00     0.198 A 
ATOM     85  F   UNL A   1      43.631  28.417  27.116  1.00  0.00    -0.203 F 
ATOM     86  F   UNL A   1      41.622  23.420  26.254  1.00  0.00    -0.200 F 
ATOM     87  C   UNL A   1      43.029  25.194  25.581  1.00  0.00     0.200 A 
ATOM     88  F   UNL A   1      44.433  26.988  24.964  1.00  0.00    -0.200 F 
ATOM     89  F   UNL A   1      43.462  24.474  24.537  1.00  0.00    -0.200 F 
ENDBRANCH  55  79
BRANCH  67  90
ATOM     90  C   UNL A   1      44.630  27.213  34.294  1.00  0.00     0.064 A 
ATOM     91  C   UNL A   1      44.484  25.974  34.935  1.00  0.00     0.173 A 
ATOM     92  C   UNL A   1      45.906  27.800  34.287  1.00  0.00     0.173 A 
ATOM     93  F   UNL A   1      43.285  25.375  34.981  1.00  0.00    -0.203 F 
ATOM     94  C   UNL A   1      45.564  25.363  35.567  1.00  0.00     0.198 A 
ATOM     95  C   UNL A   1      46.990  27.168  34.889  1.00  0.00     0.198 A 
ATOM     96  F   UNL A   1      46.105  28.979  33.679  1.00  0.00    -0.203 F 
ATOM     97  F   UNL A   1      45.388  24.205  36.219  1.00  0.00    -0.200 F 
ATOM     98  C   UNL A   1      46.817  25.955  35.536  1.00  0.00     0.200 A 
ATOM     99  F   UNL A   1      48.205  27.733  34.839  1.00  0.00    -0.200 F 
ATOM    100  F   UNL A   1      47.857  25.360  36.135  1.00  0.00    -0.200 F 
ENDBRANCH  67  90
ENDBRANCH  41  42
ENDBRANCH  34  36
ENDBRANCH  33  34
ENDBRANCH  32  33
ENDBRANCH  31  32
ENDBRANCH  30  31
ENDBRANCH  29  30
ENDBRANCH  28  29
ENDBRANCH  27  28
ENDBRANCH   1  27
TORSDOF 23
ENDMDL
MODEL 2
REMARK VINA RESULT:      -9.5      1.305      2.513
REMARK SMILES NC(=O)CC[N@@H+]1[C@@H](C(=O)OCCOCCOCCOCCOC(=O)c2ccc(-c3c4nc(c(-c5c(F)c(F)c(F)c(F)c5F)c5ccc([nH]5)c(-c5c(F)c(F)c(F)c(F)c5F)c5nc(c(-c6c(F)c(F)c(F)c(F)c6F)c6ccc3[nH]6)C=C5)C=C4)cc2)CC[C@@H]2CCCC[C@H]21
REMARK SMILES IDX 15 1 14 2 13 3 12 4 11 5 10 6 8 7 9 8 7 9 6 10 95 11 88 13
REMARK SMILES IDX 90 14 94 15 89 16 91 17 93 18 92 19 5 20 4 21 2 22 1 23 3 26
REMARK SMILES IDX 16 27 17 28 18 29 19 30 20 31 21 32 22 33 23 34 24 35 25 36
REMARK SMILES IDX 26 37 87 38 27 39 86 40 28 41 29 42 30 43 80 44 31 45 85 46
REMARK SMILES IDX 79 47 81 48 32 49 84 50 78 51 77 52 33 54 65 55 45 56 64 57
REMARK SMILES IDX 46 58 49 59 63 60 82 61 47 62 48 63 62 65 83 66 50 67 34 68
REMARK SMILES IDX 35 69 43 70 36 71 37 72 41 73 44 74 38 75 39 76 42 77 40 78
REMARK SMILES IDX 66 79 67 80 75 81 68 82 69 83 73 84 76 85 70 86 71 87 74 88
REMARK SMILES IDX 72 89 51 90 52 91 60 92 53 93 54 94 58 95 61 96 55 97 56 98
REMARK SMILES IDX 59 99 57 100
REMARK H PARENT 6 12 1 24 1 25 81 53 49 64
REMARK Flexibility Score: inf
ROOT
ATOM      1  C   UNL A   1      30.128  26.996  24.465  1.00  0.00     0.188 C 
ENDROOT
BRANCH   1   2
ATOM      2  C   UNL A   1      30.069  25.679  23.689  1.00  0.00     0.188 C 
BRANCH   2   3
ATOM      3  O   UNL A   1      30.774  25.513  22.478  1.00  0.00    -0.376 OA
BRANCH   3   4
ATOM      4  C   UNL A   1      32.032  26.089  22.176  1.00  0.00     0.202 C 
BRANCH   4   5
ATOM      5  C   UNL A   1      33.254  26.243  23.104  1.00  0.00     0.261 C 
BRANCH   5   6
ATOM      6  O   UNL A   1      34.225  25.196  23.182  1.00  0.00    -0.459 OA
BRANCH   6   7
ATOM      7  C   UNL A   1      34.369  24.683  24.425  1.00  0.00     0.364 C 
ATOM      8  O   UNL A   1      33.559  24.881  25.332  1.00  0.00    -0.245 OA
BRANCH   7   9
ATOM      9  C   UNL A   1      35.651  23.859  24.659  1.00  0.00     0.295 C 
ATOM     10  N   UNL A   1      35.392  22.364  24.808  1.00  0.00    -0.320 N 
ATOM     11  C   UNL A   1      36.705  21.637  24.711  1.00  0.00     0.187 C 
ATOM     12  H   UNL A   1      35.002  22.115  25.717  1.00  0.00     0.349 HD
ATOM     13  C   UNL A   1      36.552  24.345  25.799  1.00  0.00     0.078 C 
ATOM     14  C   UNL A   1      37.742  22.194  25.744  1.00  0.00     0.048 C 
ATOM     15  C   UNL A   1      36.604  20.119  24.984  1.00  0.00     0.065 C 
ATOM     16  C   UNL A   1      37.919  23.701  25.639  1.00  0.00     0.016 C 
ATOM     17  C   UNL A   1      39.104  21.498  25.619  1.00  0.00     0.010 C 
ATOM     18  C   UNL A   1      37.947  19.396  24.936  1.00  0.00     0.006 C 
ATOM     19  C   UNL A   1      38.960  20.008  25.887  1.00  0.00     0.001 C 
BRANCH  10  20
ATOM     20  C   UNL A   1      34.370  21.967  23.792  1.00  0.00     0.273 C 
BRANCH  20  21
ATOM     21  C   UNL A   1      32.865  22.034  24.041  1.00  0.00     0.161 C 
BRANCH  21  22
ATOM     22  C   UNL A   1      32.338  21.310  25.263  1.00  0.00     0.223 C 
ATOM     23  N   UNL A   1      31.047  21.533  25.622  1.00  0.00    -0.369 N 
ATOM     24  H   UNL A   1      30.671  21.080  26.411  1.00  0.00     0.159 HD
ATOM     25  H   UNL A   1      30.488  22.148  25.094  1.00  0.00     0.159 HD
ATOM     26  O   UNL A   1      33.043  20.549  25.920  1.00  0.00    -0.275 OA
ENDBRANCH  21  22
ENDBRANCH  20  21
ENDBRANCH  10  20
ENDBRANCH   7   9
ENDBRANCH   6   7
ENDBRANCH   5   6
ENDBRANCH   4   5
ENDBRANCH   3   4
ENDBRANCH   2   3
ENDBRANCH   1   2
BRANCH   1  27
ATOM     27  O   UNL A   1      30.766  26.935  25.724  1.00  0.00    -0.377 OA
BRANCH  27  28
ATOM     28  C   UNL A   1      31.593  28.015  26.137  1.00  0.00     0.188 C 
BRANCH  28  29
ATOM     29  C   UNL A   1      31.945  29.141  25.146  1.00  0.00     0.188 C 
BRANCH  29  30
ATOM     30  O   UNL A   1      31.441  30.415  25.505  1.00  0.00    -0.376 OA
BRANCH  30  31
ATOM     31  C   UNL A   1      31.855  31.002  26.728  1.00  0.00     0.202 C 
BRANCH  31  32
ATOM     32  C   UNL A   1      31.779  32.532  26.864  1.00  0.00     0.261 C 
BRANCH  32  33
ATOM     33  O   UNL A   1      33.027  33.242  26.906  1.00  0.00    -0.460 OA
BRANCH  33  34
ATOM     34  C   UNL A   1      33.419  33.779  28.081  1.00  0.00     0.338 C 
ATOM     35  O   UNL A   1      32.795  34.534  28.793  1.00  0.00    -0.246 OA
BRANCH  34  36
ATOM     36  C   UNL A   1      34.693  33.128  28.464  1.00  0.00     0.060 A 
ATOM     37  C   UNL A   1      34.870  31.766  28.188  1.00  0.00     0.016 A 
ATOM     38  C   UNL A   1      35.698  33.857  29.102  1.00  0.00     0.016 A 
ATOM     39  C   UNL A   1      36.036  31.116  28.592  1.00  0.00     0.010 A 
ATOM     40  C   UNL A   1      36.857  33.200  29.528  1.00  0.00     0.010 A 
ATOM     41  C   UNL A   1      37.013  31.818  29.307  1.00  0.00    -0.014 A 
BRANCH  41  42
ATOM     42  C   UNL A   1      38.088  31.075  30.009  1.00  0.00     0.031 A 
ATOM     43  C   UNL A   1      38.355  31.405  31.453  1.00  0.00     0.074 A 
ATOM     44  C   UNL A   1      38.801  30.118  29.392  1.00  0.00     0.049 A 
ATOM     45  N   UNL A   1      39.282  30.951  32.255  1.00  0.00    -0.248 NA
ATOM     46  C   UNL A   1      37.449  32.385  32.073  1.00  0.00     0.031 C 
ATOM     47  C   UNL A   1      38.603  29.670  28.016  1.00  0.00     0.029 A 
ATOM     48  N   UNL A   1      39.848  29.356  29.848  1.00  0.00    -0.354 N 
ATOM     49  C   UNL A   1      39.078  31.597  33.468  1.00  0.00     0.074 A 
ATOM     50  C   UNL A   1      37.960  32.498  33.288  1.00  0.00     0.031 C 
ATOM     51  C   UNL A   1      39.511  28.720  27.733  1.00  0.00     0.029 A 
ATOM     52  C   UNL A   1      40.379  28.523  28.893  1.00  0.00     0.049 A 
ATOM     53  H   UNL A   1      40.187  29.402  30.771  1.00  0.00     0.167 HD
ATOM     54  C   UNL A   1      39.757  31.447  34.630  1.00  0.00     0.037 A 
ATOM     55  C   UNL A   1      41.460  27.719  28.947  1.00  0.00     0.037 A 
ATOM     56  C   UNL A   1      40.870  30.552  34.803  1.00  0.00     0.049 A 
ATOM     57  C   UNL A   1      42.257  27.637  30.226  1.00  0.00     0.074 A 
ATOM     58  C   UNL A   1      41.620  30.317  35.942  1.00  0.00     0.029 A 
ATOM     59  N   UNL A   1      41.402  29.751  33.803  1.00  0.00    -0.354 N 
ATOM     60  N   UNL A   1      42.048  28.234  31.375  1.00  0.00    -0.248 NA
ATOM     61  C   UNL A   1      43.440  26.765  30.216  1.00  0.00     0.031 C 
ATOM     62  C   UNL A   1      42.644  29.424  35.615  1.00  0.00     0.029 A 
ATOM     63  C   UNL A   1      42.489  29.045  34.291  1.00  0.00     0.049 A 
ATOM     64  H   UNL A   1      41.057  29.694  32.882  1.00  0.00     0.167 HD
ATOM     65  C   UNL A   1      43.048  27.785  32.230  1.00  0.00     0.074 A 
ATOM     66  C   UNL A   1      43.856  26.854  31.471  1.00  0.00     0.031 C 
ATOM     67  C   UNL A   1      43.277  28.110  33.527  1.00  0.00     0.037 A 
BRANCH  54  68
ATOM     68  C   UNL A   1      39.336  32.294  35.797  1.00  0.00     0.064 A 
ATOM     69  C   UNL A   1      39.851  33.582  36.003  1.00  0.00     0.173 A 
ATOM     70  C   UNL A   1      38.378  31.819  36.705  1.00  0.00     0.173 A 
ATOM     71  F   UNL A   1      40.781  34.079  35.174  1.00  0.00    -0.203 F 
ATOM     72  C   UNL A   1      39.443  34.352  37.090  1.00  0.00     0.198 A 
ATOM     73  C   UNL A   1      37.947  32.604  37.771  1.00  0.00     0.198 A 
ATOM     74  F   UNL A   1      37.850  30.595  36.555  1.00  0.00    -0.203 F 
ATOM     75  F   UNL A   1      39.989  35.559  37.297  1.00  0.00    -0.200 F 
ATOM     76  C   UNL A   1      38.486  33.866  37.968  1.00  0.00     0.200 A 
ATOM     77  F   UNL A   1      37.011  32.137  38.610  1.00  0.00    -0.200 F 
ATOM     78  F   UNL A   1      38.088  34.610  39.008  1.00  0.00    -0.200 F 
ENDBRANCH  54  68
BRANCH  55  79
ATOM     79  C   UNL A   1      41.872  26.938  27.749  1.00  0.00     0.064 A 
ATOM     80  C   UNL A   1      41.490  25.599  27.590  1.00  0.00     0.173 A 
ATOM     81  C   UNL A   1      42.685  27.504  26.756  1.00  0.00     0.173 A 
ATOM     82  F   UNL A   1      40.735  25.002  28.524  1.00  0.00    -0.203 F 
ATOM     83  C   UNL A   1      41.926  24.849  26.498  1.00  0.00     0.198 A 
ATOM     84  C   UNL A   1      43.092  26.764  25.648  1.00  0.00     0.198 A 
ATOM     85  F   UNL A   1      43.084  28.780  26.860  1.00  0.00    -0.203 F 
ATOM     86  F   UNL A   1      41.593  23.555  26.402  1.00  0.00    -0.200 F 
ATOM     87  C   UNL A   1      42.721  25.435  25.525  1.00  0.00     0.200 A 
ATOM     88  F   UNL A   1      43.850  27.339  24.704  1.00  0.00    -0.200 F 
ATOM     89  F   UNL A   1      43.139  24.714  24.475  1.00  0.00    -0.200 F 
ENDBRANCH  55  79
BRANCH  67  90
ATOM     90  C   UNL A   1      44.412  27.420  34.229  1.00  0.00     0.064 A 
ATOM     91  C   UNL A   1      45.695  27.981  34.297  1.00  0.00     0.173 A 
ATOM     92  C   UNL A   1      44.197  26.198  34.888  1.00  0.00     0.173 A 
ATOM     93  F   UNL A   1      45.959  29.141  33.676  1.00  0.00    -0.203 F 
ATOM     94  C   UNL A   1      46.727  27.332  34.972  1.00  0.00     0.198 A 
ATOM     95  C   UNL A   1      45.221  25.571  35.592  1.00  0.00     0.198 A 
ATOM     96  F   UNL A   1      42.986  25.621  34.865  1.00  0.00    -0.203 F 
ATOM     97  F   UNL A   1      47.958  27.862  34.979  1.00  0.00    -0.200 F 
ATOM     98  C   UNL A   1      46.487  26.133  35.626  1.00  0.00     0.200 A 
ATOM     99  F   UNL A   1      44.980  24.422  36.240  1.00  0.00    -0.200 F 
ATOM    100  F   UNL A   1      47.478  25.516  36.285  1.00  0.00    -0.200 F 
ENDBRANCH  67  90
ENDBRANCH  41  42
ENDBRANCH  34  36
ENDBRANCH  33  34
ENDBRANCH  32  33
ENDBRANCH  31  32
ENDBRANCH  30  31
ENDBRANCH  29  30
ENDBRANCH  28  29
ENDBRANCH  27  28
ENDBRANCH   1  27
TORSDOF 23
ENDMDL
MODEL 3
REMARK VINA RESULT:      -9.4      5.025      9.348
REMARK SMILES NC(=O)CC[N@@H+]1[C@@H](C(=O)OCCOCCOCCOCCOC(=O)c2ccc(-c3c4nc(c(-c5c(F)c(F)c(F)c(F)c5F)c5ccc([nH]5)c(-c5c(F)c(F)c(F)c(F)c5F)c5nc(c(-c6c(F)c(F)c(F)c(F)c6F)c6ccc3[nH]6)C=C5)C=C4)cc2)CC[C@@H]2CCCC[C@H]21
REMARK SMILES IDX 15 1 14 2 13 3 12 4 11 5 10 6 8 7 9 8 7 9 6 10 95 11 88 13
REMARK SMILES IDX 90 14 94 15 89 16 91 17 93 18 92 19 5 20 4 21 2 22 1 23 3 26
REMARK SMILES IDX 16 27 17 28 18 29 19 30 20 31 21 32 22 33 23 34 24 35 25 36
REMARK SMILES IDX 26 37 87 38 27 39 86 40 28 41 29 42 30 43 80 44 31 45 85 46
REMARK SMILES IDX 79 47 81 48 32 49 84 50 78 51 77 52 33 54 65 55 45 56 64 57
REMARK SMILES IDX 46 58 49 59 63 60 82 61 47 62 48 63 62 65 83 66 50 67 34 68
REMARK SMILES IDX 35 69 43 70 36 71 37 72 41 73 44 74 38 75 39 76 42 77 40 78
REMARK SMILES IDX 66 79 67 80 75 81 68 82 69 83 73 84 76 85 70 86 71 87 74 88
REMARK SMILES IDX 72 89 51 90 52 91 60 92 53 93 54 94 58 95 61 96 55 97 56 98
REMARK SMILES IDX 59 99 57 100
REMARK H PARENT 6 12 1 24 1 25 81 53 49 64
REMARK Flexibility Score: inf
ROOT
ATOM      1  C   UNL A   1      34.536  34.888  32.547  1.00  0.00     0.188 C 
ENDROOT
BRANCH   1   2
ATOM      2  C   UNL A   1      34.349  33.698  33.490  1.00  0.00     0.188 C 
BRANCH   2   3
ATOM      3  O   UNL A   1      35.172  33.529  34.623  1.00  0.00    -0.376 OA
BRANCH   3   4
ATOM      4  C   UNL A   1      36.561  33.252  34.593  1.00  0.00     0.202 C 
BRANCH   4   5
ATOM      5  C   UNL A   1      37.564  33.289  35.763  1.00  0.00     0.261 C 
BRANCH   5   6
ATOM      6  O   UNL A   1      38.521  32.237  35.915  1.00  0.00    -0.459 OA
BRANCH   6   7
ATOM      7  C   UNL A   1      39.578  32.343  35.079  1.00  0.00     0.364 C 
ATOM      8  O   UNL A   1      39.464  32.609  33.881  1.00  0.00    -0.245 OA
BRANCH   7   9
ATOM      9  C   UNL A   1      40.957  32.061  35.711  1.00  0.00     0.295 C 
ATOM     10  N   UNL A   1      41.233  30.578  35.924  1.00  0.00    -0.320 N 
ATOM     11  C   UNL A   1      42.694  30.402  36.236  1.00  0.00     0.187 C 
ATOM     12  H   UNL A   1      40.729  30.187  36.720  1.00  0.00     0.349 HD
ATOM     13  C   UNL A   1      41.267  32.836  36.995  1.00  0.00     0.078 C 
ATOM     14  C   UNL A   1      43.129  31.295  37.446  1.00  0.00     0.048 C 
ATOM     15  C   UNL A   1      43.086  28.955  36.611  1.00  0.00     0.065 C 
ATOM     16  C   UNL A   1      42.762  32.759  37.254  1.00  0.00     0.016 C 
ATOM     17  C   UNL A   1      44.629  31.166  37.742  1.00  0.00     0.010 C 
ATOM     18  C   UNL A   1      44.559  28.793  36.978  1.00  0.00     0.006 C 
ATOM     19  C   UNL A   1      44.974  29.729  38.098  1.00  0.00     0.001 C 
BRANCH  10  20
ATOM     20  C   UNL A   1      40.748  29.837  34.718  1.00  0.00     0.273 C 
BRANCH  20  21
ATOM     21  C   UNL A   1      41.589  29.635  33.461  1.00  0.00     0.161 C 
BRANCH  21  22
ATOM     22  C   UNL A   1      42.003  28.215  33.132  1.00  0.00     0.223 C 
ATOM     23  N   UNL A   1      42.712  28.012  31.990  1.00  0.00    -0.369 N 
ATOM     24  H   UNL A   1      42.997  27.102  31.745  1.00  0.00     0.159 HD
ATOM     25  H   UNL A   1      42.939  28.773  31.410  1.00  0.00     0.159 HD
ATOM     26  O   UNL A   1      41.710  27.270  33.859  1.00  0.00    -0.275 OA
ENDBRANCH  21  22
ENDBRANCH  20  21
ENDBRANCH  10  20
ENDBRANCH   7   9
ENDBRANCH   6   7
ENDBRANCH   5   6
ENDBRANCH   4   5
ENDBRANCH   3   4
ENDBRANCH   2   3
ENDBRANCH   1   2
BRANCH   1  27
ATOM     27  O   UNL A   1      33.478  35.823  32.525  1.00  0.00    -0.377 OA
BRANCH  27  28
ATOM     28  C   UNL A   1      32.653  35.912  31.372  1.00  0.00     0.188 C 
BRANCH  28  29
ATOM     29  C   UNL A   1      33.289  36.081  29.979  1.00  0.00     0.188 C 
BRANCH  29  30
ATOM     30  O   UNL A   1      32.580  35.444  28.930  1.00  0.00    -0.376 OA
BRANCH  30  31
ATOM     31  C   UNL A   1      33.114  34.263  28.353  1.00  0.00     0.202 C 
BRANCH  31  32
ATOM     32  C   UNL A   1      34.373  33.649  28.988  1.00  0.00     0.261 C 
BRANCH  32  33
ATOM     33  O   UNL A   1      34.293  32.269  29.383  1.00  0.00    -0.460 OA
BRANCH  33  34
ATOM     34  C   UNL A   1      34.377  31.323  28.423  1.00  0.00     0.338 C 
ATOM     35  O   UNL A   1      33.609  31.128  27.508  1.00  0.00    -0.246 OA
BRANCH  34  36
ATOM     36  C   UNL A   1      35.698  30.667  28.562  1.00  0.00     0.060 A 
ATOM     37  C   UNL A   1      36.165  30.346  29.843  1.00  0.00     0.016 A 
ATOM     38  C   UNL A   1      36.472  30.385  27.435  1.00  0.00     0.016 A 
ATOM     39  C   UNL A   1      37.431  29.782  30.006  1.00  0.00     0.010 A 
ATOM     40  C   UNL A   1      37.750  29.842  27.600  1.00  0.00     0.010 A 
ATOM     41  C   UNL A   1      38.249  29.574  28.889  1.00  0.00    -0.014 A 
BRANCH  41  42
ATOM     42  C   UNL A   1      39.691  29.281  29.076  1.00  0.00     0.031 A 
ATOM     43  C   UNL A   1      40.555  30.340  29.705  1.00  0.00     0.074 A 
ATOM     44  C   UNL A   1      40.222  28.100  28.717  1.00  0.00     0.049 A 
ATOM     45  N   UNL A   1      41.847  30.353  29.905  1.00  0.00    -0.248 NA
ATOM     46  C   UNL A   1      39.863  31.554  30.167  1.00  0.00     0.031 C 
ATOM     47  C   UNL A   1      39.481  26.976  28.150  1.00  0.00     0.029 A 
ATOM     48  N   UNL A   1      41.521  27.657  28.770  1.00  0.00    -0.354 N 
ATOM     49  C   UNL A   1      42.122  31.575  30.506  1.00  0.00     0.074 A 
ATOM     50  C   UNL A   1      40.870  32.291  30.608  1.00  0.00     0.031 C 
ATOM     51  C   UNL A   1      40.341  25.976  27.891  1.00  0.00     0.029 A 
ATOM     52  C   UNL A   1      41.696  26.403  28.237  1.00  0.00     0.049 A 
ATOM     53  H   UNL A   1      42.256  28.188  29.153  1.00  0.00     0.167 HD
ATOM     54  C   UNL A   1      43.312  32.054  30.940  1.00  0.00     0.037 A 
ATOM     55  C   UNL A   1      42.826  25.699  28.028  1.00  0.00     0.037 A 
ATOM     56  C   UNL A   1      44.556  31.339  30.834  1.00  0.00     0.049 A 
ATOM     57  C   UNL A   1      44.153  26.293  28.437  1.00  0.00     0.074 A 
ATOM     58  C   UNL A   1      45.816  31.731  31.253  1.00  0.00     0.029 A 
ATOM     59  N   UNL A   1      44.700  30.086  30.255  1.00  0.00    -0.354 N 
ATOM     60  N   UNL A   1      44.405  27.440  29.022  1.00  0.00    -0.248 NA
ATOM     61  C   UNL A   1      45.353  25.491  28.158  1.00  0.00     0.031 C 
ATOM     62  C   UNL A   1      46.730  30.745  30.870  1.00  0.00     0.029 A 
ATOM     63  C   UNL A   1      46.031  29.704  30.278  1.00  0.00     0.049 A 
ATOM     64  H   UNL A   1      43.963  29.548  29.883  1.00  0.00     0.167 HD
ATOM     65  C   UNL A   1      45.782  27.480  29.212  1.00  0.00     0.074 A 
ATOM     66  C   UNL A   1      46.310  26.236  28.692  1.00  0.00     0.031 C 
ATOM     67  C   UNL A   1      46.541  28.456  29.769  1.00  0.00     0.037 A 
BRANCH  54  68
ATOM     68  C   UNL A   1      43.331  33.430  31.541  1.00  0.00     0.064 A 
ATOM     69  C   UNL A   1      43.351  34.586  30.747  1.00  0.00     0.173 A 
ATOM     70  C   UNL A   1      43.297  33.594  32.934  1.00  0.00     0.173 A 
ATOM     71  F   UNL A   1      43.400  34.487  29.409  1.00  0.00    -0.203 F 
ATOM     72  C   UNL A   1      43.364  35.854  31.325  1.00  0.00     0.198 A 
ATOM     73  C   UNL A   1      43.275  34.862  33.509  1.00  0.00     0.198 A 
ATOM     74  F   UNL A   1      43.275  32.523  33.741  1.00  0.00    -0.203 F 
ATOM     75  F   UNL A   1      43.437  36.943  30.547  1.00  0.00    -0.200 F 
ATOM     76  C   UNL A   1      43.318  35.991  32.704  1.00  0.00     0.200 A 
ATOM     77  F   UNL A   1      43.216  34.991  34.841  1.00  0.00    -0.200 F 
ATOM     78  F   UNL A   1      43.321  37.210  33.259  1.00  0.00    -0.200 F 
ENDBRANCH  54  68
BRANCH  55  79
ATOM     79  C   UNL A   1      42.766  24.361  27.380  1.00  0.00     0.064 A 
ATOM     80  C   UNL A   1      42.509  23.204  28.129  1.00  0.00     0.173 A 
ATOM     81  C   UNL A   1      42.998  24.206  26.005  1.00  0.00     0.173 A 
ATOM     82  F   UNL A   1      42.307  23.294  29.452  1.00  0.00    -0.203 F 
ATOM     83  C   UNL A   1      42.511  21.943  27.533  1.00  0.00     0.198 A 
ATOM     84  C   UNL A   1      42.967  22.950  25.404  1.00  0.00     0.198 A 
ATOM     85  F   UNL A   1      43.253  25.279  25.242  1.00  0.00    -0.203 F 
ATOM     86  F   UNL A   1      42.321  20.850  28.284  1.00  0.00    -0.200 F 
ATOM     87  C   UNL A   1      42.734  21.818  26.170  1.00  0.00     0.200 A 
ATOM     88  F   UNL A   1      43.170  22.835  24.085  1.00  0.00    -0.200 F 
ATOM     89  F   UNL A   1      42.736  20.607  25.598  1.00  0.00    -0.200 F 
ENDBRANCH  55  79
BRANCH  67  90
ATOM     90  C   UNL A   1      48.017  28.203  29.896  1.00  0.00     0.064 A 
ATOM     91  C   UNL A   1      48.561  27.505  30.984  1.00  0.00     0.173 A 
ATOM     92  C   UNL A   1      48.895  28.625  28.884  1.00  0.00     0.173 A 
ATOM     93  F   UNL A   1      47.770  27.089  31.984  1.00  0.00    -0.203 F 
ATOM     94  C   UNL A   1      49.931  27.265  31.068  1.00  0.00     0.198 A 
ATOM     95  C   UNL A   1      50.258  28.351  28.955  1.00  0.00     0.198 A 
ATOM     96  F   UNL A   1      48.428  29.288  27.816  1.00  0.00    -0.203 F 
ATOM     97  F   UNL A   1      50.435  26.642  32.143  1.00  0.00    -0.200 F 
ATOM     98  C   UNL A   1      50.776  27.679  30.050  1.00  0.00     0.200 A 
ATOM     99  F   UNL A   1      51.070  28.735  27.959  1.00  0.00    -0.200 F 
ATOM    100  F   UNL A   1      52.092  27.437  30.128  1.00  0.00    -0.200 F 
ENDBRANCH  67  90
ENDBRANCH  41  42
ENDBRANCH  34  36
ENDBRANCH  33  34
ENDBRANCH  32  33
ENDBRANCH  31  32
ENDBRANCH  30  31
ENDBRANCH  29  30
ENDBRANCH  28  29
ENDBRANCH  27  28
ENDBRANCH   1  27
TORSDOF 23
ENDMDL
