MODEL 1
REMARK VINA RESULT:     -10.7      0.000      0.000
REMARK SMILES CS(=O)(=O)c1ccc(/C=C(/C(=O)OCCOCCOCCOCCOC(=O)c2ccc(-c3c4nc(c(-c5c(F)c(F)c(F)c(F)c5F)c5ccc([nH]5)c(-c5c(F)c(F)c(F)c(F)c5F)c5nc(c(-c6c(F)c(F)c(F)c(F)c6F)c6ccc3[nH]6)C=C5)C=C4)cc2)c2ccc(-c3ccc(F)cc3F)cc2)cc1
REMARK SMILES IDX 19 1 18 2 17 3 16 4 15 5 14 6 13 7 11 8 12 9 10 10 9 11 8 12
REMARK SMILES IDX 5 13 6 14 106 15 7 16 105 17 2 18 1 19 3 20 4 21 91 22 92 23
REMARK SMILES IDX 104 24 93 25 103 26 94 27 95 28 96 29 101 30 97 31 100 32
REMARK SMILES IDX 102 33 98 34 99 35 20 36 21 37 22 38 23 39 24 40 25 41 26 42
REMARK SMILES IDX 27 43 28 44 29 45 90 46 30 47 89 48 31 49 32 50 33 51 83 52
REMARK SMILES IDX 34 53 88 54 82 55 84 56 35 57 87 58 81 59 80 60 36 62 68 63
REMARK SMILES IDX 48 64 67 65 49 66 52 67 66 68 85 69 50 70 51 71 65 73 86 74
REMARK SMILES IDX 53 75 37 76 38 77 46 78 39 79 40 80 44 81 47 82 41 83 42 84
REMARK SMILES IDX 45 85 43 86 69 87 70 88 78 89 71 90 72 91 76 92 79 93 73 94
REMARK SMILES IDX 74 95 77 96 75 97 54 98 55 99 63 100 56 101 57 102 61 103
REMARK SMILES IDX 64 104 58 105 59 106 62 107 60 108
REMARK H PARENT 84 61 52 72
REMARK Flexibility Score: inf
ROOT
ATOM      1  O   UNL A   1      34.471  29.269  27.047  1.00  0.00    -0.377 OA
ENDROOT
BRANCH   1   2
ATOM      2  C   UNL A   1      33.133  28.801  26.999  1.00  0.00     0.188 C 
BRANCH   2   3
ATOM      3  C   UNL A   1      32.141  29.445  26.003  1.00  0.00     0.188 C 
BRANCH   3   4
ATOM      4  O   UNL A   1      31.676  28.560  24.995  1.00  0.00    -0.376 OA
BRANCH   4   5
ATOM      5  C   UNL A   1      32.491  27.437  24.710  1.00  0.00     0.202 C 
BRANCH   5   6
ATOM      6  C   UNL A   1      33.354  27.515  23.441  1.00  0.00     0.261 C 
BRANCH   6   7
ATOM      7  O   UNL A   1      33.703  26.253  22.845  1.00  0.00    -0.460 OA
BRANCH   7   8
ATOM      8  C   UNL A   1      32.683  25.414  22.547  1.00  0.00     0.338 C 
ATOM      9  O   UNL A   1      31.772  25.672  21.772  1.00  0.00    -0.246 OA
BRANCH   8  10
ATOM     10  C   UNL A   1      32.892  24.064  23.178  1.00  0.00     0.067 C 
ATOM     11  C   UNL A   1      31.922  23.123  23.081  1.00  0.00     0.024 C 
BRANCH  11  12
ATOM     12  C   UNL A   1      32.013  21.683  23.422  1.00  0.00    -0.025 A 
ATOM     13  C   UNL A   1      32.796  19.021  23.821  1.00  0.00     0.067 A 
ATOM     14  C   UNL A   1      32.659  19.874  24.914  1.00  0.00     0.021 A 
ATOM     15  C   UNL A   1      32.404  19.438  22.550  1.00  0.00     0.021 A 
ATOM     16  C   UNL A   1      32.228  21.187  24.714  1.00  0.00     0.009 A 
ATOM     17  C   UNL A   1      32.007  20.767  22.358  1.00  0.00     0.009 A 
BRANCH  13  18
ATOM     18  S   UNL A   1      33.590  17.452  24.065  1.00  0.00     0.175 S 
ATOM     19  C   UNL A   1      32.696  16.638  25.356  1.00  0.00     0.163 C 
ATOM     20  O   UNL A   1      34.922  17.720  24.574  1.00  0.00    -0.224 OA
ATOM     21  O   UNL A   1      33.393  16.701  22.840  1.00  0.00    -0.224 OA
ENDBRANCH  13  18
ENDBRANCH  11  12
BRANCH  10  22
ATOM     22  C   UNL A   1      34.185  23.834  23.855  1.00  0.00    -0.011 A 
ATOM     23  C   UNL A   1      34.300  24.027  25.239  1.00  0.00     0.009 A 
ATOM     24  C   UNL A   1      35.288  23.355  23.155  1.00  0.00     0.009 A 
ATOM     25  C   UNL A   1      35.503  23.794  25.906  1.00  0.00     0.009 A 
ATOM     26  C   UNL A   1      36.486  23.092  23.832  1.00  0.00     0.009 A 
ATOM     27  C   UNL A   1      36.629  23.334  25.212  1.00  0.00    -0.015 A 
BRANCH  27  28
ATOM     28  C   UNL A   1      37.922  23.159  25.899  1.00  0.00     0.018 A 
ATOM     29  C   UNL A   1      38.574  24.235  26.536  1.00  0.00     0.015 A 
ATOM     30  C   UNL A   1      38.580  21.914  25.906  1.00  0.00     0.133 A 
ATOM     31  C   UNL A   1      39.826  24.065  27.135  1.00  0.00     0.040 A 
ATOM     32  C   UNL A   1      39.819  21.734  26.508  1.00  0.00     0.079 A 
ATOM     33  F   UNL A   1      38.028  20.853  25.297  1.00  0.00    -0.206 F 
ATOM     34  C   UNL A   1      40.434  22.816  27.113  1.00  0.00     0.126 A 
ATOM     35  F   UNL A   1      41.635  22.657  27.682  1.00  0.00    -0.207 F 
ENDBRANCH  27  28
ENDBRANCH  10  22
ENDBRANCH   8  10
ENDBRANCH   7   8
ENDBRANCH   6   7
ENDBRANCH   5   6
ENDBRANCH   4   5
ENDBRANCH   3   4
ENDBRANCH   2   3
ENDBRANCH   1   2
BRANCH   1  36
ATOM     36  C   UNL A   1      34.737  30.541  27.624  1.00  0.00     0.188 C 
BRANCH  36  37
ATOM     37  C   UNL A   1      35.839  30.704  28.698  1.00  0.00     0.188 C 
BRANCH  37  38
ATOM     38  O   UNL A   1      36.605  29.536  28.946  1.00  0.00    -0.376 OA
BRANCH  38  39
ATOM     39  C   UNL A   1      37.602  29.184  28.004  1.00  0.00     0.202 C 
BRANCH  39  40
ATOM     40  C   UNL A   1      39.014  28.926  28.546  1.00  0.00     0.261 C 
BRANCH  40  41
ATOM     41  O   UNL A   1      39.795  30.088  28.856  1.00  0.00    -0.460 OA
BRANCH  41  42
ATOM     42  C   UNL A   1      40.202  30.252  30.131  1.00  0.00     0.338 C 
ATOM     43  O   UNL A   1      40.174  29.433  31.034  1.00  0.00    -0.246 OA
BRANCH  42  44
ATOM     44  C   UNL A   1      40.866  31.568  30.202  1.00  0.00     0.060 A 
ATOM     45  C   UNL A   1      42.257  31.657  30.049  1.00  0.00     0.016 A 
ATOM     46  C   UNL A   1      40.094  32.716  30.383  1.00  0.00     0.016 A 
ATOM     47  C   UNL A   1      42.886  32.904  30.104  1.00  0.00     0.010 A 
ATOM     48  C   UNL A   1      40.724  33.956  30.467  1.00  0.00     0.010 A 
ATOM     49  C   UNL A   1      42.124  34.049  30.363  1.00  0.00    -0.014 A 
BRANCH  49  50
ATOM     50  C   UNL A   1      42.778  35.308  30.787  1.00  0.00     0.031 A 
ATOM     51  C   UNL A   1      43.040  35.486  32.256  1.00  0.00     0.074 A 
ATOM     52  C   UNL A   1      43.082  36.282  29.915  1.00  0.00     0.049 A 
ATOM     53  N   UNL A   1      43.428  36.547  32.913  1.00  0.00    -0.248 NA
ATOM     54  C   UNL A   1      42.818  34.300  33.101  1.00  0.00     0.031 C 
ATOM     55  C   UNL A   1      42.922  36.204  28.465  1.00  0.00     0.029 A 
ATOM     56  N   UNL A   1      43.568  37.547  30.136  1.00  0.00    -0.354 N 
ATOM     57  C   UNL A   1      43.473  36.162  34.247  1.00  0.00     0.074 A 
ATOM     58  C   UNL A   1      43.051  34.780  34.310  1.00  0.00     0.031 C 
ATOM     59  C   UNL A   1      43.278  37.385  27.927  1.00  0.00     0.029 A 
ATOM     60  C   UNL A   1      43.644  38.311  28.997  1.00  0.00     0.049 A 
ATOM     61  H   UNL A   1      43.836  37.875  31.025  1.00  0.00     0.167 HD
ATOM     62  C   UNL A   1      43.834  36.897  35.323  1.00  0.00     0.037 A 
ATOM     63  C   UNL A   1      43.938  39.619  28.852  1.00  0.00     0.037 A 
ATOM     64  C   UNL A   1      44.247  38.272  35.250  1.00  0.00     0.049 A 
ATOM     65  C   UNL A   1      44.261  40.444  30.075  1.00  0.00     0.074 A 
ATOM     66  C   UNL A   1      44.642  39.110  36.277  1.00  0.00     0.029 A 
ATOM     67  N   UNL A   1      44.306  39.014  34.079  1.00  0.00    -0.354 N 
ATOM     68  N   UNL A   1      44.312  40.078  31.334  1.00  0.00    -0.248 NA
ATOM     69  C   UNL A   1      44.564  41.866  29.857  1.00  0.00     0.031 C 
ATOM     70  C   UNL A   1      44.885  40.376  35.735  1.00  0.00     0.029 A 
ATOM     71  C   UNL A   1      44.711  40.308  34.361  1.00  0.00     0.049 A 
ATOM     72  H   UNL A   1      44.092  38.672  33.181  1.00  0.00     0.167 HD
ATOM     73  C   UNL A   1      44.697  41.206  32.048  1.00  0.00     0.074 A 
ATOM     74  C   UNL A   1      44.865  42.271  31.082  1.00  0.00     0.031 C 
ATOM     75  C   UNL A   1      44.900  41.347  33.381  1.00  0.00     0.037 A 
BRANCH  62  76
ATOM     76  C   UNL A   1      43.760  36.240  36.669  1.00  0.00     0.064 A 
ATOM     77  C   UNL A   1      44.882  35.647  37.268  1.00  0.00     0.173 A 
ATOM     78  C   UNL A   1      42.550  36.219  37.380  1.00  0.00     0.173 A 
ATOM     79  F   UNL A   1      46.058  35.621  36.622  1.00  0.00    -0.203 F 
ATOM     80  C   UNL A   1      44.789  35.032  38.514  1.00  0.00     0.198 A 
ATOM     81  C   UNL A   1      42.469  35.634  38.641  1.00  0.00     0.198 A 
ATOM     82  F   UNL A   1      41.447  36.771  36.853  1.00  0.00    -0.203 F 
ATOM     83  F   UNL A   1      45.860  34.422  39.041  1.00  0.00    -0.200 F 
ATOM     84  C   UNL A   1      43.585  35.035  39.203  1.00  0.00     0.200 A 
ATOM     85  F   UNL A   1      41.308  35.651  39.311  1.00  0.00    -0.200 F 
ATOM     86  F   UNL A   1      43.499  34.450  40.406  1.00  0.00    -0.200 F 
ENDBRANCH  62  76
BRANCH  63  87
ATOM     87  C   UNL A   1      43.923  40.242  27.501  1.00  0.00     0.064 A 
ATOM     88  C   UNL A   1      45.112  40.446  26.787  1.00  0.00     0.173 A 
ATOM     89  C   UNL A   1      42.727  40.677  26.909  1.00  0.00     0.173 A 
ATOM     90  F   UNL A   1      46.285  40.073  27.320  1.00  0.00    -0.203 F 
ATOM     91  C   UNL A   1      45.109  41.077  25.545  1.00  0.00     0.198 A 
ATOM     92  C   UNL A   1      42.721  41.279  25.653  1.00  0.00     0.198 A 
ATOM     93  F   UNL A   1      41.560  40.511  27.550  1.00  0.00    -0.203 F 
ATOM     94  F   UNL A   1      46.265  41.307  24.909  1.00  0.00    -0.200 F 
ATOM     95  C   UNL A   1      43.913  41.489  24.976  1.00  0.00     0.200 A 
ATOM     96  F   UNL A   1      41.562  41.664  25.102  1.00  0.00    -0.200 F 
ATOM     97  F   UNL A   1      43.910  42.096  23.781  1.00  0.00    -0.200 F 
ENDBRANCH  63  87
BRANCH  75  98
ATOM     98  C   UNL A   1      45.401  42.675  33.878  1.00  0.00     0.064 A 
ATOM     99  C   UNL A   1      46.720  42.858  34.315  1.00  0.00     0.173 A 
ATOM    100  C   UNL A   1      44.558  43.797  33.845  1.00  0.00     0.173 A 
ATOM    101  F   UNL A   1      47.563  41.816  34.376  1.00  0.00    -0.203 F 
ATOM    102  C   UNL A   1      47.171  44.112  34.720  1.00  0.00     0.198 A 
ATOM    103  C   UNL A   1      45.022  45.055  34.219  1.00  0.00     0.198 A 
ATOM    104  F   UNL A   1      43.289  43.679  33.426  1.00  0.00    -0.203 F 
ATOM    105  F   UNL A   1      48.424  44.256  35.175  1.00  0.00    -0.200 F 
ATOM    106  C   UNL A   1      46.326  45.210  34.662  1.00  0.00     0.200 A 
ATOM    107  F   UNL A   1      44.209  46.117  34.141  1.00  0.00    -0.200 F 
ATOM    108  F   UNL A   1      46.768  46.419  35.036  1.00  0.00    -0.200 F 
ENDBRANCH  75  98
ENDBRANCH  49  50
ENDBRANCH  42  44
ENDBRANCH  41  42
ENDBRANCH  40  41
ENDBRANCH  39  40
ENDBRANCH  38  39
ENDBRANCH  37  38
ENDBRANCH  36  37
ENDBRANCH   1  36
TORSDOF 24
ENDMDL
MODEL 2
REMARK VINA RESULT:     -10.0      5.764     10.477
REMARK SMILES CS(=O)(=O)c1ccc(/C=C(/C(=O)OCCOCCOCCOCCOC(=O)c2ccc(-c3c4nc(c(-c5c(F)c(F)c(F)c(F)c5F)c5ccc([nH]5)c(-c5c(F)c(F)c(F)c(F)c5F)c5nc(c(-c6c(F)c(F)c(F)c(F)c6F)c6ccc3[nH]6)C=C5)C=C4)cc2)c2ccc(-c3ccc(F)cc3F)cc2)cc1
REMARK SMILES IDX 19 1 18 2 17 3 16 4 15 5 14 6 13 7 11 8 12 9 10 10 9 11 8 12
REMARK SMILES IDX 5 13 6 14 106 15 7 16 105 17 2 18 1 19 3 20 4 21 91 22 92 23
REMARK SMILES IDX 104 24 93 25 103 26 94 27 95 28 96 29 101 30 97 31 100 32
REMARK SMILES IDX 102 33 98 34 99 35 20 36 21 37 22 38 23 39 24 40 25 41 26 42
REMARK SMILES IDX 27 43 28 44 29 45 90 46 30 47 89 48 31 49 32 50 33 51 83 52
REMARK SMILES IDX 34 53 88 54 82 55 84 56 35 57 87 58 81 59 80 60 36 62 68 63
REMARK SMILES IDX 48 64 67 65 49 66 52 67 66 68 85 69 50 70 51 71 65 73 86 74
REMARK SMILES IDX 53 75 37 76 38 77 46 78 39 79 40 80 44 81 47 82 41 83 42 84
REMARK SMILES IDX 45 85 43 86 69 87 70 88 78 89 71 90 72 91 76 92 79 93 73 94
REMARK SMILES IDX 74 95 77 96 75 97 54 98 55 99 63 100 56 101 57 102 61 103
REMARK SMILES IDX 64 104 58 105 59 106 62 107 60 108
REMARK H PARENT 84 61 52 72
REMARK Flexibility Score: inf
ROOT
ATOM      1  O   UNL A   1      41.899  22.050  26.197  1.00  0.00    -0.377 OA
ENDROOT
BRANCH   1   2
ATOM      2  C   UNL A   1      42.032  22.068  27.609  1.00  0.00     0.188 C 
BRANCH   2   3
ATOM      3  C   UNL A   1      41.450  23.256  28.410  1.00  0.00     0.188 C 
BRANCH   3   4
ATOM      4  O   UNL A   1      41.700  24.526  27.826  1.00  0.00    -0.376 OA
BRANCH   4   5
ATOM      5  C   UNL A   1      40.601  25.165  27.202  1.00  0.00     0.202 C 
BRANCH   5   6
ATOM      6  C   UNL A   1      40.453  26.676  27.442  1.00  0.00     0.261 C 
BRANCH   6   7
ATOM      7  O   UNL A   1      40.278  27.077  28.812  1.00  0.00    -0.460 OA
BRANCH   7   8
ATOM      8  C   UNL A   1      40.772  28.288  29.163  1.00  0.00     0.338 C 
ATOM      9  O   UNL A   1      41.863  28.721  28.824  1.00  0.00    -0.246 OA
BRANCH   8  10
ATOM     10  C   UNL A   1      39.740  29.097  29.903  1.00  0.00     0.067 C 
ATOM     11  C   UNL A   1      40.042  29.615  31.118  1.00  0.00     0.024 C 
BRANCH  11  12
ATOM     12  C   UNL A   1      39.273  30.614  31.898  1.00  0.00    -0.025 A 
ATOM     13  C   UNL A   1      37.482  32.569  32.809  1.00  0.00     0.067 A 
ATOM     14  C   UNL A   1      37.359  31.255  33.256  1.00  0.00     0.021 A 
ATOM     15  C   UNL A   1      38.576  32.949  32.032  1.00  0.00     0.021 A 
ATOM     16  C   UNL A   1      38.279  30.294  32.832  1.00  0.00     0.009 A 
ATOM     17  C   UNL A   1      39.471  31.968  31.586  1.00  0.00     0.009 A 
BRANCH  13  18
ATOM     18  S   UNL A   1      36.162  33.706  33.147  1.00  0.00     0.175 S 
ATOM     19  C   UNL A   1      35.379  34.035  31.596  1.00  0.00     0.163 C 
ATOM     20  O   UNL A   1      36.768  34.949  33.589  1.00  0.00    -0.224 OA
ATOM     21  O   UNL A   1      35.216  32.995  33.986  1.00  0.00    -0.224 OA
ENDBRANCH  13  18
ENDBRANCH  11  12
BRANCH  10  22
ATOM     22  C   UNL A   1      38.442  29.304  29.229  1.00  0.00    -0.011 A 
ATOM     23  C   UNL A   1      37.243  29.089  29.925  1.00  0.00     0.009 A 
ATOM     24  C   UNL A   1      38.376  29.783  27.924  1.00  0.00     0.009 A 
ATOM     25  C   UNL A   1      36.005  29.300  29.319  1.00  0.00     0.009 A 
ATOM     26  C   UNL A   1      37.132  30.024  27.328  1.00  0.00     0.009 A 
ATOM     27  C   UNL A   1      35.923  29.760  27.999  1.00  0.00    -0.015 A 
BRANCH  27  28
ATOM     28  C   UNL A   1      34.616  29.912  27.331  1.00  0.00     0.018 A 
ATOM     29  C   UNL A   1      34.153  28.971  26.389  1.00  0.00     0.015 A 
ATOM     30  C   UNL A   1      33.799  31.032  27.577  1.00  0.00     0.133 A 
ATOM     31  C   UNL A   1      32.938  29.158  25.723  1.00  0.00     0.040 A 
ATOM     32  C   UNL A   1      32.586  31.220  26.927  1.00  0.00     0.079 A 
ATOM     33  F   UNL A   1      34.192  31.979  28.442  1.00  0.00    -0.206 F 
ATOM     34  C   UNL A   1      32.168  30.282  26.000  1.00  0.00     0.126 A 
ATOM     35  F   UNL A   1      31.008  30.461  25.357  1.00  0.00    -0.207 F 
ENDBRANCH  27  28
ENDBRANCH  10  22
ENDBRANCH   8  10
ENDBRANCH   7   8
ENDBRANCH   6   7
ENDBRANCH   5   6
ENDBRANCH   4   5
ENDBRANCH   3   4
ENDBRANCH   2   3
ENDBRANCH   1   2
BRANCH   1  36
ATOM     36  C   UNL A   1      43.034  22.346  25.394  1.00  0.00     0.188 C 
BRANCH  36  37
ATOM     37  C   UNL A   1      44.348  21.546  25.560  1.00  0.00     0.188 C 
BRANCH  37  38
ATOM     38  O   UNL A   1      45.530  22.329  25.523  1.00  0.00    -0.376 OA
BRANCH  38  39
ATOM     39  C   UNL A   1      45.649  23.304  24.503  1.00  0.00     0.202 C 
BRANCH  39  40
ATOM     40  C   UNL A   1      46.790  24.320  24.639  1.00  0.00     0.261 C 
BRANCH  40  41
ATOM     41  O   UNL A   1      46.839  25.057  25.868  1.00  0.00    -0.460 OA
BRANCH  41  42
ATOM     42  C   UNL A   1      47.737  26.058  25.968  1.00  0.00     0.338 C 
ATOM     43  O   UNL A   1      48.769  26.199  25.334  1.00  0.00    -0.246 OA
BRANCH  42  44
ATOM     44  C   UNL A   1      47.155  27.066  26.874  1.00  0.00     0.060 A 
ATOM     45  C   UNL A   1      47.999  27.906  27.617  1.00  0.00     0.016 A 
ATOM     46  C   UNL A   1      45.769  27.199  26.953  1.00  0.00     0.016 A 
ATOM     47  C   UNL A   1      47.450  28.870  28.466  1.00  0.00     0.010 A 
ATOM     48  C   UNL A   1      45.222  28.141  27.822  1.00  0.00     0.010 A 
ATOM     49  C   UNL A   1      46.059  28.954  28.606  1.00  0.00    -0.014 A 
BRANCH  49  50
ATOM     50  C   UNL A   1      45.461  29.690  29.743  1.00  0.00     0.031 A 
ATOM     51  C   UNL A   1      45.171  28.907  30.993  1.00  0.00     0.074 A 
ATOM     52  C   UNL A   1      45.137  30.990  29.659  1.00  0.00     0.049 A 
ATOM     53  N   UNL A   1      44.494  29.252  32.056  1.00  0.00    -0.248 NA
ATOM     54  C   UNL A   1      45.709  27.537  31.037  1.00  0.00     0.031 C 
ATOM     55  C   UNL A   1      45.415  31.863  28.522  1.00  0.00     0.029 A 
ATOM     56  N   UNL A   1      44.471  31.795  30.550  1.00  0.00    -0.354 N 
ATOM     57  C   UNL A   1      44.508  28.136  32.883  1.00  0.00     0.074 A 
ATOM     58  C   UNL A   1      45.236  27.097  32.191  1.00  0.00     0.031 C 
ATOM     59  C   UNL A   1      44.898  33.079  28.773  1.00  0.00     0.029 A 
ATOM     60  C   UNL A   1      44.214  33.054  30.065  1.00  0.00     0.049 A 
ATOM     61  H   UNL A   1      44.204  31.498  31.450  1.00  0.00     0.167 HD
ATOM     62  C   UNL A   1      43.959  27.993  34.111  1.00  0.00     0.037 A 
ATOM     63  C   UNL A   1      43.476  34.050  30.594  1.00  0.00     0.037 A 
ATOM     64  C   UNL A   1      43.232  29.031  34.788  1.00  0.00     0.049 A 
ATOM     65  C   UNL A   1      42.804  33.842  31.931  1.00  0.00     0.074 A 
ATOM     66  C   UNL A   1      42.641  28.996  36.039  1.00  0.00     0.029 A 
ATOM     67  N   UNL A   1      42.987  30.291  34.263  1.00  0.00    -0.354 N 
ATOM     68  N   UNL A   1      42.825  32.791  32.716  1.00  0.00    -0.248 NA
ATOM     69  C   UNL A   1      42.005  34.959  32.455  1.00  0.00     0.031 C 
ATOM     70  C   UNL A   1      41.989  30.215  36.245  1.00  0.00     0.029 A 
ATOM     71  C   UNL A   1      42.235  31.036  35.156  1.00  0.00     0.049 A 
ATOM     72  H   UNL A   1      43.302  30.609  33.385  1.00  0.00     0.167 HD
ATOM     73  C   UNL A   1      42.084  33.136  33.840  1.00  0.00     0.074 A 
ATOM     74  C   UNL A   1      41.627  34.493  33.636  1.00  0.00     0.031 C 
ATOM     75  C   UNL A   1      41.813  32.398  34.946  1.00  0.00     0.037 A 
BRANCH  62  76
ATOM     76  C   UNL A   1      44.093  26.656  34.778  1.00  0.00     0.064 A 
ATOM     77  C   UNL A   1      43.027  25.745  34.834  1.00  0.00     0.173 A 
ATOM     78  C   UNL A   1      45.313  26.272  35.356  1.00  0.00     0.173 A 
ATOM     79  F   UNL A   1      41.832  26.069  34.316  1.00  0.00    -0.203 F 
ATOM     80  C   UNL A   1      43.169  24.514  35.469  1.00  0.00     0.198 A 
ATOM     81  C   UNL A   1      45.462  25.026  35.959  1.00  0.00     0.198 A 
ATOM     82  F   UNL A   1      46.364  27.106  35.331  1.00  0.00    -0.203 F 
ATOM     83  F   UNL A   1      42.121  23.683  35.560  1.00  0.00    -0.200 F 
ATOM     84  C   UNL A   1      44.388  24.152  36.021  1.00  0.00     0.200 A 
ATOM     85  F   UNL A   1      46.645  24.674  36.480  1.00  0.00    -0.200 F 
ATOM     86  F   UNL A   1      44.526  22.963  36.624  1.00  0.00    -0.200 F 
ENDBRANCH  62  76
BRANCH  63  87
ATOM     87  C   UNL A   1      43.311  35.331  29.856  1.00  0.00     0.064 A 
ATOM     88  C   UNL A   1      44.156  36.422  30.106  1.00  0.00     0.173 A 
ATOM     89  C   UNL A   1      42.288  35.504  28.911  1.00  0.00     0.173 A 
ATOM     90  F   UNL A   1      45.131  36.317  31.020  1.00  0.00    -0.203 F 
ATOM     91  C   UNL A   1      43.972  37.641  29.455  1.00  0.00     0.198 A 
ATOM     92  C   UNL A   1      42.125  36.713  28.237  1.00  0.00     0.198 A 
ATOM     93  F   UNL A   1      41.449  34.495  28.635  1.00  0.00    -0.203 F 
ATOM     94  F   UNL A   1      44.759  38.682  29.754  1.00  0.00    -0.200 F 
ATOM     95  C   UNL A   1      42.961  37.784  28.518  1.00  0.00     0.200 A 
ATOM     96  F   UNL A   1      41.155  36.842  27.323  1.00  0.00    -0.200 F 
ATOM     97  F   UNL A   1      42.784  38.956  27.892  1.00  0.00    -0.200 F 
ENDBRANCH  63  87
BRANCH  75  98
ATOM     98  C   UNL A   1      41.050  33.058  36.060  1.00  0.00     0.064 A 
ATOM     99  C   UNL A   1      41.643  33.997  36.915  1.00  0.00     0.173 A 
ATOM    100  C   UNL A   1      39.680  32.794  36.222  1.00  0.00     0.173 A 
ATOM    101  F   UNL A   1      42.950  34.278  36.810  1.00  0.00    -0.203 F 
ATOM    102  C   UNL A   1      40.896  34.632  37.906  1.00  0.00     0.198 A 
ATOM    103  C   UNL A   1      38.931  33.455  37.191  1.00  0.00     0.198 A 
ATOM    104  F   UNL A   1      39.062  31.911  35.423  1.00  0.00    -0.203 F 
ATOM    105  F   UNL A   1      41.493  35.494  38.741  1.00  0.00    -0.200 F 
ATOM    106  C   UNL A   1      39.541  34.368  38.036  1.00  0.00     0.200 A 
ATOM    107  F   UNL A   1      37.617  33.213  37.300  1.00  0.00    -0.200 F 
ATOM    108  F   UNL A   1      38.822  34.994  38.978  1.00  0.00    -0.200 F 
ENDBRANCH  75  98
ENDBRANCH  49  50
ENDBRANCH  42  44
ENDBRANCH  41  42
ENDBRANCH  40  41
ENDBRANCH  39  40
ENDBRANCH  38  39
ENDBRANCH  37  38
ENDBRANCH  36  37
ENDBRANCH   1  36
TORSDOF 24
ENDMDL
MODEL 3
REMARK VINA RESULT:      -9.6      7.992     19.811
REMARK SMILES CS(=O)(=O)c1ccc(/C=C(/C(=O)OCCOCCOCCOCCOC(=O)c2ccc(-c3c4nc(c(-c5c(F)c(F)c(F)c(F)c5F)c5ccc([nH]5)c(-c5c(F)c(F)c(F)c(F)c5F)c5nc(c(-c6c(F)c(F)c(F)c(F)c6F)c6ccc3[nH]6)C=C5)C=C4)cc2)c2ccc(-c3ccc(F)cc3F)cc2)cc1
REMARK SMILES IDX 19 1 18 2 17 3 16 4 15 5 14 6 13 7 11 8 12 9 10 10 9 11 8 12
REMARK SMILES IDX 5 13 6 14 106 15 7 16 105 17 2 18 1 19 3 20 4 21 91 22 92 23
REMARK SMILES IDX 104 24 93 25 103 26 94 27 95 28 96 29 101 30 97 31 100 32
REMARK SMILES IDX 102 33 98 34 99 35 20 36 21 37 22 38 23 39 24 40 25 41 26 42
REMARK SMILES IDX 27 43 28 44 29 45 90 46 30 47 89 48 31 49 32 50 33 51 83 52
REMARK SMILES IDX 34 53 88 54 82 55 84 56 35 57 87 58 81 59 80 60 36 62 68 63
REMARK SMILES IDX 48 64 67 65 49 66 52 67 66 68 85 69 50 70 51 71 65 73 86 74
REMARK SMILES IDX 53 75 37 76 38 77 46 78 39 79 40 80 44 81 47 82 41 83 42 84
REMARK SMILES IDX 45 85 43 86 69 87 70 88 78 89 71 90 72 91 76 92 79 93 73 94
REMARK SMILES IDX 74 95 77 96 75 97 54 98 55 99 63 100 56 101 57 102 61 103
REMARK SMILES IDX 64 104 58 105 59 106 62 107 60 108
REMARK H PARENT 84 61 52 72
REMARK Flexibility Score: inf
ROOT
ATOM      1  O   UNL A   1      42.978  42.330  24.514  1.00  0.00    -0.377 OA
ENDROOT
BRANCH   1   2
ATOM      2  C   UNL A   1      42.865  42.770  23.170  1.00  0.00     0.188 C 
BRANCH   2   3
ATOM      3  C   UNL A   1      43.681  43.996  22.702  1.00  0.00     0.188 C 
BRANCH   3   4
ATOM      4  O   UNL A   1      44.946  43.672  22.145  1.00  0.00    -0.376 OA
BRANCH   4   5
ATOM      5  C   UNL A   1      46.082  44.227  22.782  1.00  0.00     0.202 C 
BRANCH   5   6
ATOM      6  C   UNL A   1      45.824  45.080  24.035  1.00  0.00     0.261 C 
BRANCH   6   7
ATOM      7  O   UNL A   1      45.573  44.348  25.247  1.00  0.00    -0.460 OA
BRANCH   7   8
ATOM      8  C   UNL A   1      46.654  43.882  25.915  1.00  0.00     0.338 C 
ATOM      9  O   UNL A   1      47.353  42.950  25.547  1.00  0.00    -0.246 OA
BRANCH   8  10
ATOM     10  C   UNL A   1      46.975  44.756  27.098  1.00  0.00     0.067 C 
ATOM     11  C   UNL A   1      47.862  45.771  26.958  1.00  0.00     0.024 C 
BRANCH  11  12
ATOM     12  C   UNL A   1      48.144  46.873  27.910  1.00  0.00    -0.025 A 
ATOM     13  C   UNL A   1      49.069  49.170  29.223  1.00  0.00     0.067 A 
ATOM     14  C   UNL A   1      47.759  49.122  28.753  1.00  0.00     0.021 A 
ATOM     15  C   UNL A   1      49.875  48.033  29.178  1.00  0.00     0.021 A 
ATOM     16  C   UNL A   1      47.290  47.960  28.136  1.00  0.00     0.009 A 
ATOM     17  C   UNL A   1      49.404  46.886  28.527  1.00  0.00     0.009 A 
BRANCH  13  18
ATOM     18  S   UNL A   1      49.720  50.732  29.760  1.00  0.00     0.175 S 
ATOM     19  C   UNL A   1      50.850  50.374  31.072  1.00  0.00     0.163 C 
ATOM     20  O   UNL A   1      48.619  51.479  30.340  1.00  0.00    -0.224 OA
ATOM     21  O   UNL A   1      50.479  51.263  28.645  1.00  0.00    -0.224 OA
ENDBRANCH  13  18
ENDBRANCH  11  12
BRANCH  10  22
ATOM     22  C   UNL A   1      46.265  44.464  28.360  1.00  0.00    -0.011 A 
ATOM     23  C   UNL A   1      45.086  45.152  28.681  1.00  0.00     0.009 A 
ATOM     24  C   UNL A   1      46.705  43.460  29.217  1.00  0.00     0.009 A 
ATOM     25  C   UNL A   1      44.384  44.878  29.855  1.00  0.00     0.009 A 
ATOM     26  C   UNL A   1      45.981  43.166  30.379  1.00  0.00     0.009 A 
ATOM     27  C   UNL A   1      44.826  43.886  30.739  1.00  0.00    -0.015 A 
BRANCH  27  28
ATOM     28  C   UNL A   1      44.129  43.647  32.017  1.00  0.00     0.018 A 
ATOM     29  C   UNL A   1      44.739  43.927  33.257  1.00  0.00     0.015 A 
ATOM     30  C   UNL A   1      42.839  43.083  32.048  1.00  0.00     0.133 A 
ATOM     31  C   UNL A   1      44.087  43.643  34.460  1.00  0.00     0.040 A 
ATOM     32  C   UNL A   1      42.180  42.806  33.239  1.00  0.00     0.079 A 
ATOM     33  F   UNL A   1      42.211  42.766  30.905  1.00  0.00    -0.206 F 
ATOM     34  C   UNL A   1      42.814  43.084  34.437  1.00  0.00     0.126 A 
ATOM     35  F   UNL A   1      42.194  42.807  35.591  1.00  0.00    -0.207 F 
ENDBRANCH  27  28
ENDBRANCH  10  22
ENDBRANCH   8  10
ENDBRANCH   7   8
ENDBRANCH   6   7
ENDBRANCH   5   6
ENDBRANCH   4   5
ENDBRANCH   3   4
ENDBRANCH   2   3
ENDBRANCH   1   2
BRANCH   1  36
ATOM     36  C   UNL A   1      41.981  41.466  25.044  1.00  0.00     0.188 C 
BRANCH  36  37
ATOM     37  C   UNL A   1      42.361  40.335  26.029  1.00  0.00     0.188 C 
BRANCH  37  38
ATOM     38  O   UNL A   1      42.884  40.779  27.271  1.00  0.00    -0.376 OA
BRANCH  38  39
ATOM     39  C   UNL A   1      44.001  40.093  27.804  1.00  0.00     0.202 C 
BRANCH  39  40
ATOM     40  C   UNL A   1      43.776  38.648  28.268  1.00  0.00     0.261 C 
BRANCH  40  41
ATOM     41  O   UNL A   1      44.697  37.671  27.766  1.00  0.00    -0.460 OA
BRANCH  41  42
ATOM     42  C   UNL A   1      45.507  37.054  28.651  1.00  0.00     0.338 C 
ATOM     43  O   UNL A   1      46.169  37.566  29.538  1.00  0.00    -0.246 OA
BRANCH  42  44
ATOM     44  C   UNL A   1      45.315  35.602  28.467  1.00  0.00     0.060 A 
ATOM     45  C   UNL A   1      44.608  35.128  27.352  1.00  0.00     0.016 A 
ATOM     46  C   UNL A   1      45.875  34.715  29.386  1.00  0.00     0.016 A 
ATOM     47  C   UNL A   1      44.436  33.754  27.170  1.00  0.00     0.010 A 
ATOM     48  C   UNL A   1      45.678  33.346  29.220  1.00  0.00     0.010 A 
ATOM     49  C   UNL A   1      44.929  32.863  28.132  1.00  0.00    -0.014 A 
BRANCH  49  50
ATOM     50  C   UNL A   1      44.460  31.459  28.168  1.00  0.00     0.031 A 
ATOM     51  C   UNL A   1      45.275  30.443  27.416  1.00  0.00     0.074 A 
ATOM     52  C   UNL A   1      43.330  31.100  28.797  1.00  0.00     0.049 A 
ATOM     53  N   UNL A   1      45.001  29.197  27.133  1.00  0.00    -0.248 NA
ATOM     54  C   UNL A   1      46.573  30.909  26.900  1.00  0.00     0.031 C 
ATOM     55  C   UNL A   1      42.488  31.984  29.599  1.00  0.00     0.029 A 
ATOM     56  N   UNL A   1      42.683  29.890  28.832  1.00  0.00    -0.354 N 
ATOM     57  C   UNL A   1      46.081  28.740  26.389  1.00  0.00     0.074 A 
ATOM     58  C   UNL A   1      47.001  29.845  26.242  1.00  0.00     0.031 C 
ATOM     59  C   UNL A   1      41.417  31.291  30.025  1.00  0.00     0.029 A 
ATOM     60  C   UNL A   1      41.477  29.932  29.486  1.00  0.00     0.049 A 
ATOM     61  H   UNL A   1      43.049  29.071  28.425  1.00  0.00     0.167 HD
ATOM     62  C   UNL A   1      46.284  27.507  25.873  1.00  0.00     0.037 A 
ATOM     63  C   UNL A   1      40.521  28.989  29.598  1.00  0.00     0.037 A 
ATOM     64  C   UNL A   1      45.359  26.416  26.019  1.00  0.00     0.049 A 
ATOM     65  C   UNL A   1      40.732  27.642  28.947  1.00  0.00     0.074 A 
ATOM     66  C   UNL A   1      45.470  25.121  25.544  1.00  0.00     0.029 A 
ATOM     67  N   UNL A   1      44.145  26.498  26.685  1.00  0.00    -0.354 N 
ATOM     68  N   UNL A   1      41.755  27.208  28.252  1.00  0.00    -0.248 NA
ATOM     69  C   UNL A   1      39.652  26.656  29.094  1.00  0.00     0.031 C 
ATOM     70  C   UNL A   1      44.296  24.437  25.873  1.00  0.00     0.029 A 
ATOM     71  C   UNL A   1      43.486  25.282  26.615  1.00  0.00     0.049 A 
ATOM     72  H   UNL A   1      43.803  27.301  27.141  1.00  0.00     0.167 HD
ATOM     73  C   UNL A   1      41.464  25.890  27.920  1.00  0.00     0.074 A 
ATOM     74  C   UNL A   1      40.167  25.595  28.490  1.00  0.00     0.031 C 
ATOM     75  C   UNL A   1      42.206  25.000  27.214  1.00  0.00     0.037 A 
BRANCH  62  76
ATOM     76  C   UNL A   1      47.533  27.287  25.072  1.00  0.00     0.064 A 
ATOM     77  C   UNL A   1      48.677  26.695  25.628  1.00  0.00     0.173 A 
ATOM     78  C   UNL A   1      47.580  27.658  23.719  1.00  0.00     0.173 A 
ATOM     79  F   UNL A   1      48.693  26.340  26.923  1.00  0.00    -0.203 F 
ATOM     80  C   UNL A   1      49.830  26.511  24.870  1.00  0.00     0.198 A 
ATOM     81  C   UNL A   1      48.723  27.440  22.954  1.00  0.00     0.198 A 
ATOM     82  F   UNL A   1      46.514  28.229  23.137  1.00  0.00    -0.203 F 
ATOM     83  F   UNL A   1      50.930  25.996  25.438  1.00  0.00    -0.200 F 
ATOM     84  C   UNL A   1      49.849  26.874  23.532  1.00  0.00     0.200 A 
ATOM     85  F   UNL A   1      48.733  27.780  21.658  1.00  0.00    -0.200 F 
ATOM     86  F   UNL A   1      50.956  26.688  22.801  1.00  0.00    -0.200 F 
ENDBRANCH  62  76
BRANCH  63  87
ATOM     87  C   UNL A   1      39.265  29.282  30.340  1.00  0.00     0.064 A 
ATOM     88  C   UNL A   1      38.096  29.654  29.662  1.00  0.00     0.173 A 
ATOM     89  C   UNL A   1      39.214  29.228  31.742  1.00  0.00     0.173 A 
ATOM     90  F   UNL A   1      38.100  29.747  28.324  1.00  0.00    -0.203 F 
ATOM     91  C   UNL A   1      36.932  29.981  30.356  1.00  0.00     0.198 A 
ATOM     92  C   UNL A   1      38.041  29.523  32.433  1.00  0.00     0.198 A 
ATOM     93  F   UNL A   1      40.304  28.882  32.442  1.00  0.00    -0.203 F 
ATOM     94  F   UNL A   1      35.846  30.386  29.684  1.00  0.00    -0.200 F 
ATOM     95  C   UNL A   1      36.904  29.910  31.740  1.00  0.00     0.200 A 
ATOM     96  F   UNL A   1      38.015  29.441  33.770  1.00  0.00    -0.200 F 
ATOM     97  F   UNL A   1      35.784  30.224  32.407  1.00  0.00    -0.200 F 
ENDBRANCH  63  87
BRANCH  75  98
ATOM     98  C   UNL A   1      41.679  23.599  27.077  1.00  0.00     0.064 A 
ATOM     99  C   UNL A   1      42.300  22.506  27.696  1.00  0.00     0.173 A 
ATOM    100  C   UNL A   1      40.488  23.366  26.371  1.00  0.00     0.173 A 
ATOM    101  F   UNL A   1      43.445  22.672  28.374  1.00  0.00    -0.203 F 
ATOM    102  C   UNL A   1      41.758  21.226  27.594  1.00  0.00     0.198 A 
ATOM    103  C   UNL A   1      39.933  22.092  26.300  1.00  0.00     0.198 A 
ATOM    104  F   UNL A   1      39.848  24.381  25.768  1.00  0.00    -0.203 F 
ATOM    105  F   UNL A   1      42.391  20.187  28.157  1.00  0.00    -0.200 F 
ATOM    106  C   UNL A   1      40.571  21.023  26.906  1.00  0.00     0.200 A 
ATOM    107  F   UNL A   1      38.775  21.903  25.652  1.00  0.00    -0.200 F 
ATOM    108  F   UNL A   1      40.044  19.793  26.825  1.00  0.00    -0.200 F 
ENDBRANCH  75  98
ENDBRANCH  49  50
ENDBRANCH  42  44
ENDBRANCH  41  42
ENDBRANCH  40  41
ENDBRANCH  39  40
ENDBRANCH  38  39
ENDBRANCH  37  38
ENDBRANCH  36  37
ENDBRANCH   1  36
TORSDOF 24
ENDMDL
