MODEL 1
REMARK VINA RESULT:      -8.5      0.000      0.000
REMARK SMILES CCC[NH2+][C@@]1(C(=O)OCCOCCOCCOCCOC(=O)c2ccc(-c3c4nc(c(-c5c(F)c(F)c(F)c(F)c5F)c5ccc([nH]5)c(-c5c(F)c(F)c(F)c(F)c5F)c5nc(c(-c6c(F)c(F)c(F)c(F)c6F)c6ccc3[nH]6)C=C5)C=C4)cc2)CCC[C@@H]1CCOC
REMARK SMILES IDX 13 1 12 2 11 3 10 4 9 5 8 6 6 7 7 8 5 9 86 10 89 11 87 12
REMARK SMILES IDX 88 13 4 14 3 17 2 18 1 19 90 20 91 21 92 22 93 23 14 24
REMARK SMILES IDX 15 25 16 26 17 27 18 28 19 29 20 30 21 31 22 32 23 33 24 34
REMARK SMILES IDX 85 35 25 36 84 37 26 38 27 39 28 40 78 41 29 42 83 43 77 44
REMARK SMILES IDX 79 45 30 46 82 47 76 48 75 49 31 51 63 52 43 53 62 54 44 55
REMARK SMILES IDX 47 56 61 57 80 58 45 59 46 60 60 62 81 63 48 64 32 65 33 66
REMARK SMILES IDX 41 67 34 68 35 69 39 70 42 71 36 72 37 73 40 74 38 75 64 76
REMARK SMILES IDX 65 77 73 78 66 79 67 80 71 81 74 82 68 83 69 84 72 85 70 86
REMARK SMILES IDX 49 87 50 88 58 89 51 90 52 91 56 92 59 93 53 94 54 95 57 96
REMARK SMILES IDX 55 97
REMARK H PARENT 4 15 4 16 79 50 47 61
REMARK Flexibility Score: inf
ROOT
ATOM      1  C   UNL A   1      34.927  32.306  27.949  1.00  0.00     0.188 C 
ENDROOT
BRANCH   1   2
ATOM      2  C   UNL A   1      33.959  31.171  27.601  1.00  0.00     0.188 C 
BRANCH   2   3
ATOM      3  O   UNL A   1      34.430  29.849  27.855  1.00  0.00    -0.376 OA
BRANCH   3   4
ATOM      4  C   UNL A   1      33.748  28.767  27.224  1.00  0.00     0.202 C 
BRANCH   4   5
ATOM      5  C   UNL A   1      33.862  28.617  25.694  1.00  0.00     0.261 C 
BRANCH   5   6
ATOM      6  O   UNL A   1      33.164  27.492  25.102  1.00  0.00    -0.459 OA
BRANCH   6   7
ATOM      7  C   UNL A   1      33.176  27.461  23.745  1.00  0.00     0.368 C 
ATOM      8  O   UNL A   1      33.853  28.234  23.066  1.00  0.00    -0.245 OA
BRANCH   7   9
ATOM      9  C   UNL A   1      32.301  26.333  23.077  1.00  0.00     0.197 C 
ATOM     10  C   UNL A   1      31.543  27.099  21.957  1.00  0.00     0.081 C 
ATOM     11  C   UNL A   1      31.062  25.712  23.791  1.00  0.00     0.065 C 
ATOM     12  C   UNL A   1      30.413  27.803  22.714  1.00  0.00     0.008 C 
ATOM     13  C   UNL A   1      30.040  26.860  23.860  1.00  0.00     0.011 C 
BRANCH   9  14
ATOM     14  N   UNL A   1      33.273  25.304  22.634  1.00  0.00    -0.332 N 
ATOM     15  H   UNL A   1      32.946  24.947  21.736  1.00  0.00     0.347 HD
ATOM     16  H   UNL A   1      34.168  25.794  22.624  1.00  0.00     0.347 HD
BRANCH  14  17
ATOM     17  C   UNL A   1      33.508  24.155  23.492  1.00  0.00     0.261 C 
BRANCH  17  18
ATOM     18  C   UNL A   1      34.937  24.120  24.061  1.00  0.00     0.058 C 
ATOM     19  C   UNL A   1      35.071  24.166  25.577  1.00  0.00     0.010 C 
ENDBRANCH  17  18
ENDBRANCH  14  17
ENDBRANCH   9  14
BRANCH  11  20
ATOM     20  C   UNL A   1      31.227  24.954  25.115  1.00  0.00     0.039 C 
BRANCH  20  21
ATOM     21  C   UNL A   1      30.291  25.449  26.237  1.00  0.00     0.160 C 
BRANCH  21  22
ATOM     22  O   UNL A   1      29.566  24.385  26.867  1.00  0.00    -0.385 OA
ATOM     23  C   UNL A   1      30.261  23.149  26.871  1.00  0.00     0.194 C 
ENDBRANCH  21  22
ENDBRANCH  20  21
ENDBRANCH  11  20
ENDBRANCH   7   9
ENDBRANCH   6   7
ENDBRANCH   5   6
ENDBRANCH   4   5
ENDBRANCH   3   4
ENDBRANCH   2   3
ENDBRANCH   1   2
BRANCH   1  24
ATOM     24  O   UNL A   1      34.306  33.571  27.763  1.00  0.00    -0.377 OA
BRANCH  24  25
ATOM     25  C   UNL A   1      34.676  34.688  28.562  1.00  0.00     0.188 C 
BRANCH  25  26
ATOM     26  C   UNL A   1      33.624  35.262  29.505  1.00  0.00     0.188 C 
BRANCH  26  27
ATOM     27  O   UNL A   1      33.376  34.525  30.703  1.00  0.00    -0.376 OA
BRANCH  27  28
ATOM     28  C   UNL A   1      33.790  35.095  31.945  1.00  0.00     0.202 C 
BRANCH  28  29
ATOM     29  C   UNL A   1      35.060  34.497  32.554  1.00  0.00     0.261 C 
BRANCH  29  30
ATOM     30  O   UNL A   1      35.458  33.278  31.902  1.00  0.00    -0.460 OA
BRANCH  30  31
ATOM     31  C   UNL A   1      36.287  32.496  32.630  1.00  0.00     0.338 C 
ATOM     32  O   UNL A   1      36.011  31.830  33.611  1.00  0.00    -0.246 OA
BRANCH  31  33
ATOM     33  C   UNL A   1      37.606  32.416  31.975  1.00  0.00     0.060 A 
ATOM     34  C   UNL A   1      37.655  32.638  30.593  1.00  0.00     0.016 A 
ATOM     35  C   UNL A   1      38.744  32.009  32.674  1.00  0.00     0.016 A 
ATOM     36  C   UNL A   1      38.824  32.379  29.892  1.00  0.00     0.010 A 
ATOM     37  C   UNL A   1      39.919  31.738  31.966  1.00  0.00     0.010 A 
ATOM     38  C   UNL A   1      39.941  31.870  30.566  1.00  0.00    -0.014 A 
BRANCH  38  39
ATOM     39  C   UNL A   1      41.037  31.294  29.756  1.00  0.00     0.031 A 
ATOM     40  C   UNL A   1      42.246  32.142  29.470  1.00  0.00     0.074 A 
ATOM     41  C   UNL A   1      40.998  30.005  29.382  1.00  0.00     0.049 A 
ATOM     42  N   UNL A   1      43.356  31.828  28.855  1.00  0.00    -0.248 NA
ATOM     43  C   UNL A   1      42.199  33.534  29.952  1.00  0.00     0.031 C 
ATOM     44  C   UNL A   1      39.896  29.084  29.651  1.00  0.00     0.029 A 
ATOM     45  N   UNL A   1      41.919  29.245  28.710  1.00  0.00    -0.354 N 
ATOM     46  C   UNL A   1      44.137  32.978  28.875  1.00  0.00     0.074 A 
ATOM     47  C   UNL A   1      43.360  34.008  29.529  1.00  0.00     0.031 C 
ATOM     48  C   UNL A   1      40.208  27.875  29.154  1.00  0.00     0.029 A 
ATOM     49  C   UNL A   1      41.518  27.949  28.509  1.00  0.00     0.049 A 
ATOM     50  H   UNL A   1      42.786  29.595  28.400  1.00  0.00     0.167 HD
ATOM     51  C   UNL A   1      45.394  33.152  28.403  1.00  0.00     0.037 A 
ATOM     52  C   UNL A   1      42.140  26.940  27.870  1.00  0.00     0.037 A 
ATOM     53  C   UNL A   1      46.156  32.119  27.752  1.00  0.00     0.049 A 
ATOM     54  C   UNL A   1      43.514  27.179  27.299  1.00  0.00     0.074 A 
ATOM     55  C   UNL A   1      47.438  32.184  27.236  1.00  0.00     0.029 A 
ATOM     56  N   UNL A   1      45.698  30.828  27.522  1.00  0.00    -0.354 N 
ATOM     57  N   UNL A   1      44.253  28.262  27.337  1.00  0.00    -0.248 NA
ATOM     58  C   UNL A   1      44.145  26.047  26.610  1.00  0.00     0.031 C 
ATOM     59  C   UNL A   1      47.734  30.952  26.642  1.00  0.00     0.029 A 
ATOM     60  C   UNL A   1      46.663  30.095  26.849  1.00  0.00     0.049 A 
ATOM     61  H   UNL A   1      44.818  30.484  27.797  1.00  0.00     0.167 HD
ATOM     62  C   UNL A   1      45.446  27.934  26.706  1.00  0.00     0.074 A 
ATOM     63  C   UNL A   1      45.338  26.543  26.316  1.00  0.00     0.031 C 
ATOM     64  C   UNL A   1      46.534  28.711  26.469  1.00  0.00     0.037 A 
BRANCH  51  65
ATOM     65  C   UNL A   1      46.005  34.517  28.540  1.00  0.00     0.064 A 
ATOM     66  C   UNL A   1      46.772  34.881  29.658  1.00  0.00     0.173 A 
ATOM     67  C   UNL A   1      45.840  35.472  27.523  1.00  0.00     0.173 A 
ATOM     68  F   UNL A   1      46.947  34.014  30.667  1.00  0.00    -0.203 F 
ATOM     69  C   UNL A   1      47.327  36.154  29.766  1.00  0.00     0.198 A 
ATOM     70  C   UNL A   1      46.423  36.733  27.620  1.00  0.00     0.198 A 
ATOM     71  F   UNL A   1      45.118  35.180  26.432  1.00  0.00    -0.203 F 
ATOM     72  F   UNL A   1      48.011  36.495  30.866  1.00  0.00    -0.200 F 
ATOM     73  C   UNL A   1      47.160  37.076  28.744  1.00  0.00     0.200 A 
ATOM     74  F   UNL A   1      46.271  37.617  26.625  1.00  0.00    -0.200 F 
ATOM     75  F   UNL A   1      47.699  38.298  28.845  1.00  0.00    -0.200 F 
ENDBRANCH  51  65
BRANCH  52  76
ATOM     76  C   UNL A   1      41.471  25.620  27.736  1.00  0.00     0.064 A 
ATOM     77  C   UNL A   1      41.894  24.510  28.478  1.00  0.00     0.173 A 
ATOM     78  C   UNL A   1      40.400  25.439  26.847  1.00  0.00     0.173 A 
ATOM     79  F   UNL A   1      42.927  24.625  29.326  1.00  0.00    -0.203 F 
ATOM     80  C   UNL A   1      41.288  23.264  28.320  1.00  0.00     0.198 A 
ATOM     81  C   UNL A   1      39.773  24.203  26.714  1.00  0.00     0.198 A 
ATOM     82  F   UNL A   1      39.953  26.470  26.115  1.00  0.00    -0.203 F 
ATOM     83  F   UNL A   1      41.748  22.207  29.003  1.00  0.00    -0.200 F 
ATOM     84  C   UNL A   1      40.224  23.113  27.444  1.00  0.00     0.200 A 
ATOM     85  F   UNL A   1      38.735  24.067  25.879  1.00  0.00    -0.200 F 
ATOM     86  F   UNL A   1      39.640  21.917  27.295  1.00  0.00    -0.200 F 
ENDBRANCH  52  76
BRANCH  64  87
ATOM     87  C   UNL A   1      47.706  28.053  25.794  1.00  0.00     0.064 A 
ATOM     88  C   UNL A   1      48.835  27.633  26.511  1.00  0.00     0.173 A 
ATOM     89  C   UNL A   1      47.695  27.841  24.406  1.00  0.00     0.173 A 
ATOM     90  F   UNL A   1      48.902  27.822  27.838  1.00  0.00    -0.203 F 
ATOM     91  C   UNL A   1      49.931  27.072  25.860  1.00  0.00     0.198 A 
ATOM     92  C   UNL A   1      48.775  27.243  23.763  1.00  0.00     0.198 A 
ATOM     93  F   UNL A   1      46.635  28.212  23.672  1.00  0.00    -0.203 F 
ATOM     94  F   UNL A   1      51.029  26.748  26.556  1.00  0.00    -0.200 F 
ATOM     95  C   UNL A   1      49.898  26.873  24.488  1.00  0.00     0.200 A 
ATOM     96  F   UNL A   1      48.733  27.035  22.440  1.00  0.00    -0.200 F 
ATOM     97  F   UNL A   1      50.954  26.337  23.862  1.00  0.00    -0.200 F 
ENDBRANCH  64  87
ENDBRANCH  38  39
ENDBRANCH  31  33
ENDBRANCH  30  31
ENDBRANCH  29  30
ENDBRANCH  28  29
ENDBRANCH  27  28
ENDBRANCH  26  27
ENDBRANCH  25  26
ENDBRANCH  24  25
ENDBRANCH   1  24
TORSDOF 26
ENDMDL
MODEL 2
REMARK VINA RESULT:      -8.1      3.536      6.215
REMARK SMILES CCC[NH2+][C@@]1(C(=O)OCCOCCOCCOCCOC(=O)c2ccc(-c3c4nc(c(-c5c(F)c(F)c(F)c(F)c5F)c5ccc([nH]5)c(-c5c(F)c(F)c(F)c(F)c5F)c5nc(c(-c6c(F)c(F)c(F)c(F)c6F)c6ccc3[nH]6)C=C5)C=C4)cc2)CCC[C@@H]1CCOC
REMARK SMILES IDX 13 1 12 2 11 3 10 4 9 5 8 6 6 7 7 8 5 9 86 10 89 11 87 12
REMARK SMILES IDX 88 13 4 14 3 17 2 18 1 19 90 20 91 21 92 22 93 23 14 24
REMARK SMILES IDX 15 25 16 26 17 27 18 28 19 29 20 30 21 31 22 32 23 33 24 34
REMARK SMILES IDX 85 35 25 36 84 37 26 38 27 39 28 40 78 41 29 42 83 43 77 44
REMARK SMILES IDX 79 45 30 46 82 47 76 48 75 49 31 51 63 52 43 53 62 54 44 55
REMARK SMILES IDX 47 56 61 57 80 58 45 59 46 60 60 62 81 63 48 64 32 65 33 66
REMARK SMILES IDX 41 67 34 68 35 69 39 70 42 71 36 72 37 73 40 74 38 75 64 76
REMARK SMILES IDX 65 77 73 78 66 79 67 80 71 81 74 82 68 83 69 84 72 85 70 86
REMARK SMILES IDX 49 87 50 88 58 89 51 90 52 91 56 92 59 93 53 94 54 95 57 96
REMARK SMILES IDX 55 97
REMARK H PARENT 4 15 4 16 79 50 47 61
REMARK Flexibility Score: inf
ROOT
ATOM      1  C   UNL A   1      35.462  33.252  28.007  1.00  0.00     0.188 C 
ENDROOT
BRANCH   1   2
ATOM      2  C   UNL A   1      34.751  31.900  27.894  1.00  0.00     0.188 C 
BRANCH   2   3
ATOM      3  O   UNL A   1      35.270  30.852  28.711  1.00  0.00    -0.376 OA
BRANCH   3   4
ATOM      4  C   UNL A   1      35.369  29.550  28.139  1.00  0.00     0.202 C 
BRANCH   4   5
ATOM      5  C   UNL A   1      34.855  29.336  26.701  1.00  0.00     0.261 C 
BRANCH   5   6
ATOM      6  O   UNL A   1      33.825  28.331  26.527  1.00  0.00    -0.459 OA
BRANCH   6   7
ATOM      7  C   UNL A   1      32.798  28.698  25.718  1.00  0.00     0.368 C 
ATOM      8  O   UNL A   1      32.235  29.790  25.810  1.00  0.00    -0.245 OA
BRANCH   7   9
ATOM      9  C   UNL A   1      32.393  27.655  24.607  1.00  0.00     0.197 C 
ATOM     10  C   UNL A   1      33.762  27.252  23.994  1.00  0.00     0.081 C 
ATOM     11  C   UNL A   1      31.682  28.084  23.287  1.00  0.00     0.065 C 
ATOM     12  C   UNL A   1      34.088  28.420  23.059  1.00  0.00     0.008 C 
ATOM     13  C   UNL A   1      32.738  28.908  22.530  1.00  0.00     0.011 C 
BRANCH   9  14
ATOM     14  N   UNL A   1      31.652  26.593  25.330  1.00  0.00    -0.332 N 
ATOM     15  H   UNL A   1      31.747  26.784  26.327  1.00  0.00     0.347 HD
ATOM     16  H   UNL A   1      30.706  26.645  24.950  1.00  0.00     0.347 HD
BRANCH  14  17
ATOM     17  C   UNL A   1      32.041  25.209  25.120  1.00  0.00     0.261 C 
BRANCH  17  18
ATOM     18  C   UNL A   1      30.846  24.297  24.792  1.00  0.00     0.058 C 
ATOM     19  C   UNL A   1      30.864  23.606  23.435  1.00  0.00     0.010 C 
ENDBRANCH  17  18
ENDBRANCH  14  17
ENDBRANCH   9  14
BRANCH  11  20
ATOM     20  C   UNL A   1      30.297  28.744  23.329  1.00  0.00     0.039 C 
BRANCH  20  21
ATOM     21  C   UNL A   1      29.979  29.602  22.087  1.00  0.00     0.160 C 
BRANCH  21  22
ATOM     22  O   UNL A   1      28.587  29.599  21.750  1.00  0.00    -0.385 OA
ATOM     23  C   UNL A   1      27.751  30.090  22.785  1.00  0.00     0.194 C 
ENDBRANCH  21  22
ENDBRANCH  20  21
ENDBRANCH  11  20
ENDBRANCH   7   9
ENDBRANCH   6   7
ENDBRANCH   5   6
ENDBRANCH   4   5
ENDBRANCH   3   4
ENDBRANCH   2   3
ENDBRANCH   1   2
BRANCH   1  24
ATOM     24  O   UNL A   1      34.561  34.317  27.735  1.00  0.00    -0.377 OA
BRANCH  24  25
ATOM     25  C   UNL A   1      34.344  35.349  28.690  1.00  0.00     0.188 C 
BRANCH  25  26
ATOM     26  C   UNL A   1      33.424  35.042  29.867  1.00  0.00     0.188 C 
BRANCH  26  27
ATOM     27  O   UNL A   1      33.965  34.207  30.892  1.00  0.00    -0.376 OA
BRANCH  27  28
ATOM     28  C   UNL A   1      34.537  34.832  32.042  1.00  0.00     0.202 C 
BRANCH  28  29
ATOM     29  C   UNL A   1      36.010  34.512  32.302  1.00  0.00     0.261 C 
BRANCH  29  30
ATOM     30  O   UNL A   1      36.774  34.425  31.086  1.00  0.00    -0.460 OA
BRANCH  30  31
ATOM     31  C   UNL A   1      37.750  33.489  31.101  1.00  0.00     0.338 C 
ATOM     32  O   UNL A   1      37.628  32.291  31.279  1.00  0.00    -0.246 OA
BRANCH  31  33
ATOM     33  C   UNL A   1      39.034  34.096  30.703  1.00  0.00     0.060 A 
ATOM     34  C   UNL A   1      39.171  34.502  29.370  1.00  0.00     0.016 A 
ATOM     35  C   UNL A   1      40.119  34.147  31.581  1.00  0.00     0.016 A 
ATOM     36  C   UNL A   1      40.413  34.891  28.890  1.00  0.00     0.010 A 
ATOM     37  C   UNL A   1      41.373  34.528  31.094  1.00  0.00     0.010 A 
ATOM     38  C   UNL A   1      41.530  34.846  29.733  1.00  0.00    -0.014 A 
BRANCH  38  39
ATOM     39  C   UNL A   1      42.872  34.935  29.114  1.00  0.00     0.031 A 
ATOM     40  C   UNL A   1      43.449  36.296  28.838  1.00  0.00     0.074 A 
ATOM     41  C   UNL A   1      43.598  33.825  28.909  1.00  0.00     0.049 A 
ATOM     42  N   UNL A   1      44.629  36.621  28.378  1.00  0.00    -0.248 NA
ATOM     43  C   UNL A   1      42.579  37.449  29.127  1.00  0.00     0.031 C 
ATOM     44  C   UNL A   1      43.150  32.462  29.188  1.00  0.00     0.029 A 
ATOM     45  N   UNL A   1      44.874  33.672  28.432  1.00  0.00    -0.354 N 
ATOM     46  C   UNL A   1      44.644  38.010  28.324  1.00  0.00     0.074 A 
ATOM     47  C   UNL A   1      43.343  38.466  28.760  1.00  0.00     0.031 C 
ATOM     48  C   UNL A   1      44.142  31.608  28.885  1.00  0.00     0.029 A 
ATOM     49  C   UNL A   1      45.280  32.364  28.365  1.00  0.00     0.049 A 
ATOM     50  H   UNL A   1      45.445  34.429  28.164  1.00  0.00     0.167 HD
ATOM     51  C   UNL A   1      45.657  38.829  27.955  1.00  0.00     0.037 A 
ATOM     52  C   UNL A   1      46.440  31.840  27.924  1.00  0.00     0.037 A 
ATOM     53  C   UNL A   1      46.948  38.363  27.521  1.00  0.00     0.049 A 
ATOM     54  C   UNL A   1      47.529  32.773  27.462  1.00  0.00     0.074 A 
ATOM     55  C   UNL A   1      48.048  39.103  27.126  1.00  0.00     0.029 A 
ATOM     56  N   UNL A   1      47.309  37.025  27.418  1.00  0.00    -0.354 N 
ATOM     57  N   UNL A   1      47.543  34.084  27.430  1.00  0.00    -0.248 NA
ATOM     58  C   UNL A   1      48.772  32.149  26.991  1.00  0.00     0.031 C 
ATOM     59  C   UNL A   1      49.053  38.214  26.729  1.00  0.00     0.029 A 
ATOM     60  C   UNL A   1      48.606  36.920  26.941  1.00  0.00     0.049 A 
ATOM     61  H   UNL A   1      46.729  36.264  27.650  1.00  0.00     0.167 HD
ATOM     62  C   UNL A   1      48.801  34.443  26.964  1.00  0.00     0.074 A 
ATOM     63  C   UNL A   1      49.530  33.209  26.750  1.00  0.00     0.031 C 
ATOM     64  C   UNL A   1      49.311  35.680  26.734  1.00  0.00     0.037 A 
BRANCH  51  65
ATOM     65  C   UNL A   1      45.397  40.308  27.972  1.00  0.00     0.064 A 
ATOM     66  C   UNL A   1      44.883  40.986  26.855  1.00  0.00     0.173 A 
ATOM     67  C   UNL A   1      45.644  41.058  29.134  1.00  0.00     0.173 A 
ATOM     68  F   UNL A   1      44.645  40.323  25.714  1.00  0.00    -0.203 F 
ATOM     69  C   UNL A   1      44.653  42.360  26.892  1.00  0.00     0.198 A 
ATOM     70  C   UNL A   1      45.382  42.425  29.177  1.00  0.00     0.198 A 
ATOM     71  F   UNL A   1      46.135  40.463  30.230  1.00  0.00    -0.203 F 
ATOM     72  F   UNL A   1      44.212  42.994  25.797  1.00  0.00    -0.200 F 
ATOM     73  C   UNL A   1      44.894  43.077  28.054  1.00  0.00     0.200 A 
ATOM     74  F   UNL A   1      45.604  43.112  30.306  1.00  0.00    -0.200 F 
ATOM     75  F   UNL A   1      44.666  44.396  28.091  1.00  0.00    -0.200 F 
ENDBRANCH  51  65
BRANCH  52  76
ATOM     76  C   UNL A   1      46.628  30.367  27.900  1.00  0.00     0.064 A 
ATOM     77  C   UNL A   1      46.378  29.619  26.742  1.00  0.00     0.173 A 
ATOM     78  C   UNL A   1      47.050  29.673  29.045  1.00  0.00     0.173 A 
ATOM     79  F   UNL A   1      45.953  30.232  25.627  1.00  0.00    -0.203 F 
ATOM     80  C   UNL A   1      46.520  28.232  26.735  1.00  0.00     0.198 A 
ATOM     81  C   UNL A   1      47.223  28.291  29.028  1.00  0.00     0.198 A 
ATOM     82  F   UNL A   1      47.306  30.341  30.179  1.00  0.00    -0.203 F 
ATOM     83  F   UNL A   1      46.223  27.536  25.630  1.00  0.00    -0.200 F 
ATOM     84  C   UNL A   1      46.948  27.570  27.876  1.00  0.00     0.200 A 
ATOM     85  F   UNL A   1      47.653  27.659  30.128  1.00  0.00    -0.200 F 
ATOM     86  F   UNL A   1      47.088  26.237  27.869  1.00  0.00    -0.200 F 
ENDBRANCH  52  76
BRANCH  64  87
ATOM     87  C   UNL A   1      50.739  35.752  26.266  1.00  0.00     0.064 A 
ATOM     88  C   UNL A   1      51.068  35.963  24.919  1.00  0.00     0.173 A 
ATOM     89  C   UNL A   1      51.792  35.608  27.183  1.00  0.00     0.173 A 
ATOM     90  F   UNL A   1      50.100  36.096  24.000  1.00  0.00    -0.203 F 
ATOM     91  C   UNL A   1      52.396  35.975  24.499  1.00  0.00     0.198 A 
ATOM     92  C   UNL A   1      53.119  35.661  26.766  1.00  0.00     0.198 A 
ATOM     93  F   UNL A   1      51.535  35.416  28.486  1.00  0.00    -0.203 F 
ATOM     94  F   UNL A   1      52.684  36.102  23.196  1.00  0.00    -0.200 F 
ATOM     95  C   UNL A   1      53.420  35.830  25.423  1.00  0.00     0.200 A 
ATOM     96  F   UNL A   1      54.107  35.539  27.664  1.00  0.00    -0.200 F 
ATOM     97  F   UNL A   1      54.696  35.838  25.017  1.00  0.00    -0.200 F 
ENDBRANCH  64  87
ENDBRANCH  38  39
ENDBRANCH  31  33
ENDBRANCH  30  31
ENDBRANCH  29  30
ENDBRANCH  28  29
ENDBRANCH  27  28
ENDBRANCH  26  27
ENDBRANCH  25  26
ENDBRANCH  24  25
ENDBRANCH   1  24
TORSDOF 26
ENDMDL
MODEL 3
REMARK VINA RESULT:      -8.1      3.294      5.745
REMARK SMILES CCC[NH2+][C@@]1(C(=O)OCCOCCOCCOCCOC(=O)c2ccc(-c3c4nc(c(-c5c(F)c(F)c(F)c(F)c5F)c5ccc([nH]5)c(-c5c(F)c(F)c(F)c(F)c5F)c5nc(c(-c6c(F)c(F)c(F)c(F)c6F)c6ccc3[nH]6)C=C5)C=C4)cc2)CCC[C@@H]1CCOC
REMARK SMILES IDX 13 1 12 2 11 3 10 4 9 5 8 6 6 7 7 8 5 9 86 10 89 11 87 12
REMARK SMILES IDX 88 13 4 14 3 17 2 18 1 19 90 20 91 21 92 22 93 23 14 24
REMARK SMILES IDX 15 25 16 26 17 27 18 28 19 29 20 30 21 31 22 32 23 33 24 34
REMARK SMILES IDX 85 35 25 36 84 37 26 38 27 39 28 40 78 41 29 42 83 43 77 44
REMARK SMILES IDX 79 45 30 46 82 47 76 48 75 49 31 51 63 52 43 53 62 54 44 55
REMARK SMILES IDX 47 56 61 57 80 58 45 59 46 60 60 62 81 63 48 64 32 65 33 66
REMARK SMILES IDX 41 67 34 68 35 69 39 70 42 71 36 72 37 73 40 74 38 75 64 76
REMARK SMILES IDX 65 77 73 78 66 79 67 80 71 81 74 82 68 83 69 84 72 85 70 86
REMARK SMILES IDX 49 87 50 88 58 89 51 90 52 91 56 92 59 93 53 94 54 95 57 96
REMARK SMILES IDX 55 97
REMARK H PARENT 4 15 4 16 79 50 47 61
REMARK Flexibility Score: inf
ROOT
ATOM      1  C   UNL A   1      35.821  31.280  27.716  1.00  0.00     0.188 C 
ENDROOT
BRANCH   1   2
ATOM      2  C   UNL A   1      35.436  29.811  27.917  1.00  0.00     0.188 C 
BRANCH   2   3
ATOM      3  O   UNL A   1      34.518  29.272  26.966  1.00  0.00    -0.376 OA
BRANCH   3   4
ATOM      4  C   UNL A   1      33.176  29.753  26.989  1.00  0.00     0.202 C 
BRANCH   4   5
ATOM      5  C   UNL A   1      32.067  28.871  26.383  1.00  0.00     0.261 C 
BRANCH   5   6
ATOM      6  O   UNL A   1      32.068  28.734  24.940  1.00  0.00    -0.459 OA
BRANCH   6   7
ATOM      7  C   UNL A   1      31.018  29.321  24.308  1.00  0.00     0.368 C 
ATOM      8  O   UNL A   1      30.503  30.367  24.703  1.00  0.00    -0.245 OA
BRANCH   7   9
ATOM      9  C   UNL A   1      30.520  28.604  22.995  1.00  0.00     0.197 C 
ATOM     10  C   UNL A   1      29.165  27.982  23.432  1.00  0.00     0.081 C 
ATOM     11  C   UNL A   1      31.190  27.304  22.454  1.00  0.00     0.065 C 
ATOM     12  C   UNL A   1      29.584  26.724  24.197  1.00  0.00     0.008 C 
ATOM     13  C   UNL A   1      30.858  26.232  23.506  1.00  0.00     0.011 C 
BRANCH   9  14
ATOM     14  N   UNL A   1      30.458  29.677  21.972  1.00  0.00    -0.332 N 
ATOM     15  H   UNL A   1      30.905  30.501  22.373  1.00  0.00     0.347 HD
ATOM     16  H   UNL A   1      30.913  29.270  21.155  1.00  0.00     0.347 HD
BRANCH  14  17
ATOM     17  C   UNL A   1      29.155  30.092  21.481  1.00  0.00     0.261 C 
BRANCH  17  18
ATOM     18  C   UNL A   1      28.794  31.529  21.894  1.00  0.00     0.058 C 
ATOM     19  C   UNL A   1      28.032  32.364  20.873  1.00  0.00     0.010 C 
ENDBRANCH  17  18
ENDBRANCH  14  17
ENDBRANCH   9  14
BRANCH  11  20
ATOM     20  C   UNL A   1      32.663  27.311  22.025  1.00  0.00     0.039 C 
BRANCH  20  21
ATOM     21  C   UNL A   1      33.445  26.054  22.461  1.00  0.00     0.160 C 
BRANCH  21  22
ATOM     22  O   UNL A   1      33.383  24.996  21.496  1.00  0.00    -0.385 OA
ATOM     23  C   UNL A   1      33.291  23.705  22.076  1.00  0.00     0.194 C 
ENDBRANCH  21  22
ENDBRANCH  20  21
ENDBRANCH  11  20
ENDBRANCH   7   9
ENDBRANCH   6   7
ENDBRANCH   5   6
ENDBRANCH   4   5
ENDBRANCH   3   4
ENDBRANCH   2   3
ENDBRANCH   1   2
BRANCH   1  24
ATOM     24  O   UNL A   1      35.805  31.976  28.956  1.00  0.00    -0.377 OA
BRANCH  24  25
ATOM     25  C   UNL A   1      34.578  32.394  29.541  1.00  0.00     0.188 C 
BRANCH  25  26
ATOM     26  C   UNL A   1      34.650  33.290  30.773  1.00  0.00     0.188 C 
BRANCH  26  27
ATOM     27  O   UNL A   1      35.822  34.095  30.903  1.00  0.00    -0.376 OA
BRANCH  27  28
ATOM     28  C   UNL A   1      36.928  33.566  31.635  1.00  0.00     0.202 C 
BRANCH  28  29
ATOM     29  C   UNL A   1      36.570  32.581  32.750  1.00  0.00     0.261 C 
BRANCH  29  30
ATOM     30  O   UNL A   1      37.605  31.607  32.973  1.00  0.00    -0.460 OA
BRANCH  30  31
ATOM     31  C   UNL A   1      37.633  30.599  32.071  1.00  0.00     0.338 C 
ATOM     32  O   UNL A   1      36.707  29.890  31.719  1.00  0.00    -0.246 OA
BRANCH  31  33
ATOM     33  C   UNL A   1      38.951  30.550  31.414  1.00  0.00     0.060 A 
ATOM     34  C   UNL A   1      40.073  30.858  32.193  1.00  0.00     0.016 A 
ATOM     35  C   UNL A   1      39.074  30.332  30.040  1.00  0.00     0.016 A 
ATOM     36  C   UNL A   1      41.311  31.026  31.588  1.00  0.00     0.010 A 
ATOM     37  C   UNL A   1      40.319  30.512  29.429  1.00  0.00     0.010 A 
ATOM     38  C   UNL A   1      41.426  30.915  30.197  1.00  0.00    -0.014 A 
BRANCH  38  39
ATOM     39  C   UNL A   1      42.660  31.425  29.560  1.00  0.00     0.031 A 
ATOM     40  C   UNL A   1      42.788  32.904  29.317  1.00  0.00     0.074 A 
ATOM     41  C   UNL A   1      43.686  30.596  29.308  1.00  0.00     0.049 A 
ATOM     42  N   UNL A   1      43.801  33.586  28.848  1.00  0.00    -0.248 NA
ATOM     43  C   UNL A   1      41.615  33.728  29.657  1.00  0.00     0.031 C 
ATOM     44  C   UNL A   1      43.682  29.155  29.552  1.00  0.00     0.029 A 
ATOM     45  N   UNL A   1      44.935  30.852  28.806  1.00  0.00    -0.354 N 
ATOM     46  C   UNL A   1      43.390  34.913  28.838  1.00  0.00     0.074 A 
ATOM     47  C   UNL A   1      42.023  34.938  29.310  1.00  0.00     0.031 C 
ATOM     48  C   UNL A   1      44.879  28.652  29.205  1.00  0.00     0.029 A 
ATOM     49  C   UNL A   1      45.719  29.733  28.691  1.00  0.00     0.049 A 
ATOM     50  H   UNL A   1      45.241  31.753  28.553  1.00  0.00     0.167 HD
ATOM     51  C   UNL A   1      44.095  36.012  28.479  1.00  0.00     0.037 A 
ATOM     52  C   UNL A   1      46.971  29.600  28.215  1.00  0.00     0.037 A 
ATOM     53  C   UNL A   1      45.456  35.973  28.009  1.00  0.00     0.049 A 
ATOM     54  C   UNL A   1      47.712  30.832  27.765  1.00  0.00     0.074 A 
ATOM     55  C   UNL A   1      46.268  37.024  27.620  1.00  0.00     0.029 A 
ATOM     56  N   UNL A   1      46.204  34.813  27.859  1.00  0.00    -0.354 N 
ATOM     57  N   UNL A   1      47.325  32.085  27.774  1.00  0.00    -0.248 NA
ATOM     58  C   UNL A   1      49.074  30.630  27.254  1.00  0.00     0.031 C 
ATOM     59  C   UNL A   1      47.485  36.495  27.179  1.00  0.00     0.029 A 
ATOM     60  C   UNL A   1      47.460  35.121  27.358  1.00  0.00     0.049 A 
ATOM     61  H   UNL A   1      45.890  33.906  28.075  1.00  0.00     0.167 HD
ATOM     62  C   UNL A   1      48.402  32.823  27.299  1.00  0.00     0.074 A 
ATOM     63  C   UNL A   1      49.466  31.876  27.035  1.00  0.00     0.031 C 
ATOM     64  C   UNL A   1      48.504  34.162  27.100  1.00  0.00     0.037 A 
BRANCH  51  65
ATOM     65  C   UNL A   1      43.397  37.340  28.547  1.00  0.00     0.064 A 
ATOM     66  C   UNL A   1      42.569  37.799  27.510  1.00  0.00     0.173 A 
ATOM     67  C   UNL A   1      43.540  38.158  29.679  1.00  0.00     0.173 A 
ATOM     68  F   UNL A   1      42.411  37.066  26.398  1.00  0.00    -0.203 F 
ATOM     69  C   UNL A   1      41.933  39.036  27.592  1.00  0.00     0.198 A 
ATOM     70  C   UNL A   1      42.877  39.380  29.772  1.00  0.00     0.198 A 
ATOM     71  F   UNL A   1      44.317  37.770  30.700  1.00  0.00    -0.203 F 
ATOM     72  F   UNL A   1      41.191  39.476  26.568  1.00  0.00    -0.200 F 
ATOM     73  C   UNL A   1      42.081  39.822  28.726  1.00  0.00     0.200 A 
ATOM     74  F   UNL A   1      43.011  40.130  30.874  1.00  0.00    -0.200 F 
ATOM     75  F   UNL A   1      41.464  41.008  28.807  1.00  0.00    -0.200 F 
ENDBRANCH  51  65
BRANCH  52  76
ATOM     76  C   UNL A   1      47.600  28.256  28.141  1.00  0.00     0.064 A 
ATOM     77  C   UNL A   1      47.441  27.437  27.015  1.00  0.00     0.173 A 
ATOM     78  C   UNL A   1      48.362  27.754  29.208  1.00  0.00     0.173 A 
ATOM     79  F   UNL A   1      46.704  27.861  25.978  1.00  0.00    -0.203 F 
ATOM     80  C   UNL A   1      48.001  26.161  26.966  1.00  0.00     0.198 A 
ATOM     81  C   UNL A   1      48.949  26.492  29.145  1.00  0.00     0.198 A 
ATOM     82  F   UNL A   1      48.549  28.497  30.308  1.00  0.00    -0.203 F 
ATOM     83  F   UNL A   1      47.789  25.379  25.899  1.00  0.00    -0.200 F 
ATOM     84  C   UNL A   1      48.759  25.693  28.028  1.00  0.00     0.200 A 
ATOM     85  F   UNL A   1      49.695  26.052  30.166  1.00  0.00    -0.200 F 
ATOM     86  F   UNL A   1      49.300  24.468  27.980  1.00  0.00    -0.200 F 
ENDBRANCH  52  76
BRANCH  64  87
ATOM     87  C   UNL A   1      49.830  34.678  26.611  1.00  0.00     0.064 A 
ATOM     88  C   UNL A   1      50.970  34.685  27.428  1.00  0.00     0.173 A 
ATOM     89  C   UNL A   1      49.958  35.172  25.303  1.00  0.00     0.173 A 
ATOM     90  F   UNL A   1      50.900  34.234  28.690  1.00  0.00    -0.203 F 
ATOM     91  C   UNL A   1      52.175  35.214  26.972  1.00  0.00     0.198 A 
ATOM     92  C   UNL A   1      51.174  35.663  24.838  1.00  0.00     0.198 A 
ATOM     93  F   UNL A   1      48.902  35.177  24.475  1.00  0.00    -0.203 F 
ATOM     94  F   UNL A   1      53.230  35.280  27.796  1.00  0.00    -0.200 F 
ATOM     95  C   UNL A   1      52.277  35.697  25.676  1.00  0.00     0.200 A 
ATOM     96  F   UNL A   1      51.275  36.112  23.579  1.00  0.00    -0.200 F 
ATOM     97  F   UNL A   1      53.436  36.209  25.241  1.00  0.00    -0.200 F 
ENDBRANCH  64  87
ENDBRANCH  38  39
ENDBRANCH  31  33
ENDBRANCH  30  31
ENDBRANCH  29  30
ENDBRANCH  28  29
ENDBRANCH  27  28
ENDBRANCH  26  27
ENDBRANCH  25  26
ENDBRANCH  24  25
ENDBRANCH   1  24
TORSDOF 26
ENDMDL
