MODEL 1
REMARK VINA RESULT:     -11.1      0.000      0.000
REMARK SMILES CC(C)C[C@H](C(=O)OCCOCCOCCOCCOC(=O)c1ccc(-c2c3nc(c(-c4c(F)c(F)c(F)c(F)c4F)c4ccc([nH]4)c(-c4c(F)c(F)c(F)c(F)c4F)c4nc(c(-c5c(F)c(F)c(F)c(F)c5F)c5ccc2[nH]5)C=C4)C=C3)cc1)[C@@H]1CCO[C@]2(CCOC2)C1
REMARK SMILES IDX 14 1 13 2 12 3 11 4 10 5 9 6 8 7 6 8 7 9 5 10 4 11 2 12 1 13
REMARK SMILES IDX 3 14 86 15 87 16 95 17 88 18 90 19 89 20 91 21 94 22 92 23
REMARK SMILES IDX 93 24 15 25 16 26 17 27 18 28 19 29 20 30 21 31 22 32 23 33
REMARK SMILES IDX 24 34 85 35 25 36 84 37 26 38 27 39 28 40 78 41 29 42 83 43
REMARK SMILES IDX 77 44 79 45 30 46 82 47 76 48 75 49 31 51 63 52 43 53 62 54
REMARK SMILES IDX 44 55 47 56 61 57 80 58 45 59 46 60 60 62 81 63 48 64 32 65
REMARK SMILES IDX 33 66 41 67 34 68 35 69 39 70 42 71 36 72 37 73 40 74 38 75
REMARK SMILES IDX 64 76 65 77 73 78 66 79 67 80 71 81 74 82 68 83 69 84 72 85
REMARK SMILES IDX 70 86 49 87 50 88 58 89 51 90 52 91 56 92 59 93 53 94 54 95
REMARK SMILES IDX 57 96 55 97
REMARK H PARENT 79 50 47 61
REMARK Flexibility Score: inf
ROOT
ATOM      1  O   UNL A   1      34.487  21.979  25.129  1.00  0.00    -0.377 OA
ENDROOT
BRANCH   1   2
ATOM      2  C   UNL A   1      33.982  20.682  25.528  1.00  0.00     0.188 C 
BRANCH   2   3
ATOM      3  C   UNL A   1      32.668  20.101  24.743  1.00  0.00     0.188 C 
BRANCH   3   4
ATOM      4  O   UNL A   1      32.480  20.330  23.280  1.00  0.00    -0.376 OA
BRANCH   4   5
ATOM      5  C   UNL A   1      31.890  21.617  22.803  1.00  0.00     0.202 C 
BRANCH   5   6
ATOM      6  C   UNL A   1      32.910  22.889  22.176  1.00  0.00     0.261 C 
BRANCH   6   7
ATOM      7  O   UNL A   1      32.535  24.394  22.193  1.00  0.00    -0.463 OA
BRANCH   7   8
ATOM      8  C   UNL A   1      33.221  25.545  22.572  1.00  0.00     0.309 C 
ATOM      9  O   UNL A   1      33.897  26.143  21.734  1.00  0.00    -0.252 OA
BRANCH   8  10
ATOM     10  C   UNL A   1      33.006  26.289  24.228  1.00  0.00     0.103 C 
BRANCH  10  11
ATOM     11  C   UNL A   1      32.975  25.007  25.186  1.00  0.00     0.018 C 
BRANCH  11  12
ATOM     12  C   UNL A   1      31.695  24.196  25.559  1.00  0.00    -0.017 C 
ATOM     13  C   UNL A   1      31.729  23.551  26.948  1.00  0.00     0.007 C 
ATOM     14  C   UNL A   1      30.476  25.147  25.529  1.00  0.00     0.007 C 
ENDBRANCH  11  12
ENDBRANCH  10  11
BRANCH  10  15
ATOM     15  C   UNL A   1      33.629  27.755  25.124  1.00  0.00     0.008 C 
ATOM     16  C   UNL A   1      33.229  27.753  26.611  1.00  0.00     0.033 C 
ATOM     17  C   UNL A   1      33.285  29.430  24.670  1.00  0.00     0.042 C 
ATOM     18  C   UNL A   1      31.793  28.195  26.842  1.00  0.00     0.161 C 
ATOM     19  C   UNL A   1      31.755  29.548  24.797  1.00  0.00     0.094 C 
ATOM     20  O   UNL A   1      31.506  29.430  26.208  1.00  0.00    -0.372 OA
ATOM     21  C   UNL A   1      31.665  28.363  23.939  1.00  0.00     0.066 C 
ATOM     22  C   UNL A   1      30.399  30.100  24.292  1.00  0.00     0.195 C 
ATOM     23  C   UNL A   1      30.918  28.570  22.750  1.00  0.00     0.163 C 
ATOM     24  O   UNL A   1      29.845  29.289  23.249  1.00  0.00    -0.378 OA
ENDBRANCH  10  15
ENDBRANCH   8  10
ENDBRANCH   7   8
ENDBRANCH   6   7
ENDBRANCH   5   6
ENDBRANCH   4   5
ENDBRANCH   3   4
ENDBRANCH   2   3
ENDBRANCH   1   2
BRANCH   1  25
ATOM     25  C   UNL A   1      35.452  22.695  25.858  1.00  0.00     0.188 C 
BRANCH  25  26
ATOM     26  C   UNL A   1      36.856  22.595  25.307  1.00  0.00     0.188 C 
BRANCH  26  27
ATOM     27  O   UNL A   1      37.647  21.570  25.893  1.00  0.00    -0.376 OA
BRANCH  27  28
ATOM     28  C   UNL A   1      37.965  20.456  25.064  1.00  0.00     0.202 C 
BRANCH  28  29
ATOM     29  C   UNL A   1      39.158  19.546  25.472  1.00  0.00     0.261 C 
BRANCH  29  30
ATOM     30  O   UNL A   1      39.892  19.885  26.669  1.00  0.00    -0.460 OA
BRANCH  30  31
ATOM     31  C   UNL A   1      41.155  20.356  26.496  1.00  0.00     0.338 C 
ATOM     32  O   UNL A   1      42.058  19.815  25.908  1.00  0.00    -0.246 OA
BRANCH  31  33
ATOM     33  C   UNL A   1      41.233  21.749  27.026  1.00  0.00     0.060 A 
ATOM     34  C   UNL A   1      40.719  22.793  26.242  1.00  0.00     0.016 A 
ATOM     35  C   UNL A   1      41.882  22.039  28.230  1.00  0.00     0.016 A 
ATOM     36  C   UNL A   1      40.915  24.124  26.616  1.00  0.00     0.010 A 
ATOM     37  C   UNL A   1      42.107  23.376  28.591  1.00  0.00     0.010 A 
ATOM     38  C   UNL A   1      41.680  24.421  27.750  1.00  0.00    -0.014 A 
BRANCH  38  39
ATOM     39  C   UNL A   1      42.310  25.766  27.849  1.00  0.00     0.031 A 
ATOM     40  C   UNL A   1      41.538  26.839  28.578  1.00  0.00     0.074 A 
ATOM     41  C   UNL A   1      43.544  26.025  27.384  1.00  0.00     0.049 A 
ATOM     42  N   UNL A   1      41.831  28.099  28.777  1.00  0.00    -0.248 NA
ATOM     43  C   UNL A   1      40.254  26.424  29.169  1.00  0.00     0.031 C 
ATOM     44  C   UNL A   1      44.426  25.059  26.736  1.00  0.00     0.029 A 
ATOM     45  N   UNL A   1      44.268  27.195  27.390  1.00  0.00    -0.354 N 
ATOM     46  C   UNL A   1      40.765  28.624  29.499  1.00  0.00     0.074 A 
ATOM     47  C   UNL A   1      39.806  27.558  29.681  1.00  0.00     0.031 C 
ATOM     48  C   UNL A   1      45.571  25.678  26.394  1.00  0.00     0.029 A 
ATOM     49  C   UNL A   1      45.486  27.091  26.763  1.00  0.00     0.049 A 
ATOM     50  H   UNL A   1      43.943  28.027  27.803  1.00  0.00     0.167 HD
ATOM     51  C   UNL A   1      40.600  29.880  29.977  1.00  0.00     0.037 A 
ATOM     52  C   UNL A   1      46.408  28.039  26.497  1.00  0.00     0.037 A 
ATOM     53  C   UNL A   1      41.556  30.938  29.794  1.00  0.00     0.049 A 
ATOM     54  C   UNL A   1      46.159  29.459  26.951  1.00  0.00     0.074 A 
ATOM     55  C   UNL A   1      41.490  32.247  30.236  1.00  0.00     0.029 A 
ATOM     56  N   UNL A   1      42.753  30.806  29.104  1.00  0.00    -0.354 N 
ATOM     57  N   UNL A   1      45.152  29.949  27.631  1.00  0.00    -0.248 NA
ATOM     58  C   UNL A   1      47.180  30.456  26.598  1.00  0.00     0.031 C 
ATOM     59  C   UNL A   1      42.614  32.925  29.753  1.00  0.00     0.029 A 
ATOM     60  C   UNL A   1      43.418  32.020  29.078  1.00  0.00     0.049 A 
ATOM     61  H   UNL A   1      43.080  29.973  28.694  1.00  0.00     0.167 HD
ATOM     62  C   UNL A   1      45.431  31.298  27.818  1.00  0.00     0.074 A 
ATOM     63  C   UNL A   1      46.711  31.547  27.188  1.00  0.00     0.031 C 
ATOM     64  C   UNL A   1      44.698  32.246  28.454  1.00  0.00     0.037 A 
BRANCH  51  65
ATOM     65  C   UNL A   1      39.315  30.187  30.692  1.00  0.00     0.064 A 
ATOM     66  C   UNL A   1      38.172  30.637  30.013  1.00  0.00     0.173 A 
ATOM     67  C   UNL A   1      39.225  30.018  32.083  1.00  0.00     0.173 A 
ATOM     68  F   UNL A   1      38.208  30.834  28.687  1.00  0.00    -0.203 F 
ATOM     69  C   UNL A   1      37.000  30.940  30.703  1.00  0.00     0.198 A 
ATOM     70  C   UNL A   1      38.040  30.287  32.764  1.00  0.00     0.198 A 
ATOM     71  F   UNL A   1      40.285  29.590  32.783  1.00  0.00    -0.203 F 
ATOM     72  F   UNL A   1      35.941  31.427  30.042  1.00  0.00    -0.200 F 
ATOM     73  C   UNL A   1      36.933  30.757  32.077  1.00  0.00     0.200 A 
ATOM     74  F   UNL A   1      37.975  30.095  34.090  1.00  0.00    -0.200 F 
ATOM     75  F   UNL A   1      35.803  31.043  32.739  1.00  0.00    -0.200 F 
ENDBRANCH  51  65
BRANCH  52  76
ATOM     76  C   UNL A   1      47.643  27.690  25.740  1.00  0.00     0.064 A 
ATOM     77  C   UNL A   1      47.657  27.663  24.339  1.00  0.00     0.173 A 
ATOM     78  C   UNL A   1      48.829  27.344  26.407  1.00  0.00     0.173 A 
ATOM     79  F   UNL A   1      46.541  27.952  23.652  1.00  0.00    -0.203 F 
ATOM     80  C   UNL A   1      48.801  27.289  23.634  1.00  0.00     0.198 A 
ATOM     81  C   UNL A   1      49.981  27.004  25.702  1.00  0.00     0.198 A 
ATOM     82  F   UNL A   1      48.871  27.341  27.747  1.00  0.00    -0.203 F 
ATOM     83  F   UNL A   1      48.769  27.220  22.297  1.00  0.00    -0.200 F 
ATOM     84  C   UNL A   1      49.965  26.968  24.316  1.00  0.00     0.200 A 
ATOM     85  F   UNL A   1      51.106  26.703  26.366  1.00  0.00    -0.200 F 
ATOM     86  F   UNL A   1      51.066  26.612  23.640  1.00  0.00    -0.200 F 
ENDBRANCH  52  76
BRANCH  64  87
ATOM     87  C   UNL A   1      45.278  33.630  28.546  1.00  0.00     0.064 A 
ATOM     88  C   UNL A   1      46.135  34.008  29.590  1.00  0.00     0.173 A 
ATOM     89  C   UNL A   1      45.011  34.576  27.542  1.00  0.00     0.173 A 
ATOM     90  F   UNL A   1      46.415  33.146  30.579  1.00  0.00    -0.203 F 
ATOM     91  C   UNL A   1      46.678  35.289  29.643  1.00  0.00     0.198 A 
ATOM     92  C   UNL A   1      45.585  35.843  27.578  1.00  0.00     0.198 A 
ATOM     93  F   UNL A   1      44.209  34.264  26.514  1.00  0.00    -0.203 F 
ATOM     94  F   UNL A   1      47.450  35.645  30.679  1.00  0.00    -0.200 F 
ATOM     95  C   UNL A   1      46.410  36.203  28.633  1.00  0.00     0.200 A 
ATOM     96  F   UNL A   1      45.342  36.716  26.591  1.00  0.00    -0.200 F 
ATOM     97  F   UNL A   1      46.942  37.432  28.681  1.00  0.00    -0.200 F 
ENDBRANCH  64  87
ENDBRANCH  38  39
ENDBRANCH  31  33
ENDBRANCH  30  31
ENDBRANCH  29  30
ENDBRANCH  28  29
ENDBRANCH  27  28
ENDBRANCH  26  27
ENDBRANCH  25  26
ENDBRANCH   1  25
TORSDOF 23
ENDMDL
MODEL 2
REMARK VINA RESULT:     -11.0      5.236      9.996
REMARK SMILES CC(C)C[C@H](C(=O)OCCOCCOCCOCCOC(=O)c1ccc(-c2c3nc(c(-c4c(F)c(F)c(F)c(F)c4F)c4ccc([nH]4)c(-c4c(F)c(F)c(F)c(F)c4F)c4nc(c(-c5c(F)c(F)c(F)c(F)c5F)c5ccc2[nH]5)C=C4)C=C3)cc1)[C@@H]1CCO[C@]2(CCOC2)C1
REMARK SMILES IDX 14 1 13 2 12 3 11 4 10 5 9 6 8 7 6 8 7 9 5 10 4 11 2 12 1 13
REMARK SMILES IDX 3 14 86 15 87 16 95 17 88 18 90 19 89 20 91 21 94 22 92 23
REMARK SMILES IDX 93 24 15 25 16 26 17 27 18 28 19 29 20 30 21 31 22 32 23 33
REMARK SMILES IDX 24 34 85 35 25 36 84 37 26 38 27 39 28 40 78 41 29 42 83 43
REMARK SMILES IDX 77 44 79 45 30 46 82 47 76 48 75 49 31 51 63 52 43 53 62 54
REMARK SMILES IDX 44 55 47 56 61 57 80 58 45 59 46 60 60 62 81 63 48 64 32 65
REMARK SMILES IDX 33 66 41 67 34 68 35 69 39 70 42 71 36 72 37 73 40 74 38 75
REMARK SMILES IDX 64 76 65 77 73 78 66 79 67 80 71 81 74 82 68 83 69 84 72 85
REMARK SMILES IDX 70 86 49 87 50 88 58 89 51 90 52 91 56 92 59 93 53 94 54 95
REMARK SMILES IDX 57 96 55 97
REMARK H PARENT 79 50 47 61
REMARK Flexibility Score: inf
ROOT
ATOM      1  O   UNL A   1      34.013  31.236  27.317  1.00  0.00    -0.377 OA
ENDROOT
BRANCH   1   2
ATOM      2  C   UNL A   1      32.623  30.960  27.021  1.00  0.00     0.188 C 
BRANCH   2   3
ATOM      3  C   UNL A   1      32.296  29.923  25.796  1.00  0.00     0.188 C 
BRANCH   3   4
ATOM      4  O   UNL A   1      33.268  29.714  24.683  1.00  0.00    -0.376 OA
BRANCH   4   5
ATOM      5  C   UNL A   1      33.563  28.329  24.208  1.00  0.00     0.202 C 
BRANCH   5   6
ATOM      6  C   UNL A   1      33.875  28.012  22.519  1.00  0.00     0.261 C 
BRANCH   6   7
ATOM      7  O   UNL A   1      34.033  26.593  21.914  1.00  0.00    -0.463 OA
BRANCH   7   8
ATOM      8  C   UNL A   1      33.123  25.605  21.544  1.00  0.00     0.309 C 
ATOM      9  O   UNL A   1      32.968  25.351  20.349  1.00  0.00    -0.252 OA
BRANCH   8  10
ATOM     10  C   UNL A   1      32.286  24.557  22.786  1.00  0.00     0.103 C 
BRANCH  10  11
ATOM     11  C   UNL A   1      30.840  25.236  22.897  1.00  0.00     0.018 C 
BRANCH  11  12
ATOM     12  C   UNL A   1      30.518  26.533  23.701  1.00  0.00    -0.017 C 
ATOM     13  C   UNL A   1      30.061  27.719  22.846  1.00  0.00     0.007 C 
ATOM     14  C   UNL A   1      29.379  26.230  24.702  1.00  0.00     0.007 C 
ENDBRANCH  11  12
ENDBRANCH  10  11
BRANCH  10  15
ATOM     15  C   UNL A   1      32.202  22.777  23.193  1.00  0.00     0.008 C 
ATOM     16  C   UNL A   1      31.106  22.458  24.226  1.00  0.00     0.033 C 
ATOM     17  C   UNL A   1      33.558  21.825  23.813  1.00  0.00     0.042 C 
ATOM     18  C   UNL A   1      31.517  22.787  25.651  1.00  0.00     0.161 C 
ATOM     19  C   UNL A   1      33.901  22.491  25.159  1.00  0.00     0.094 C 
ATOM     20  O   UNL A   1      32.765  22.209  25.994  1.00  0.00    -0.372 OA
ATOM     21  C   UNL A   1      33.973  23.761  24.429  1.00  0.00     0.066 C 
ATOM     22  C   UNL A   1      34.943  22.956  26.206  1.00  0.00     0.195 C 
ATOM     23  C   UNL A   1      35.227  24.417  24.540  1.00  0.00     0.163 C 
ATOM     24  O   UNL A   1      35.482  24.246  25.891  1.00  0.00    -0.378 OA
ENDBRANCH  10  15
ENDBRANCH   8  10
ENDBRANCH   7   8
ENDBRANCH   6   7
ENDBRANCH   5   6
ENDBRANCH   4   5
ENDBRANCH   3   4
ENDBRANCH   2   3
ENDBRANCH   1   2
BRANCH   1  25
ATOM     25  C   UNL A   1      34.445  31.867  28.496  1.00  0.00     0.188 C 
BRANCH  25  26
ATOM     26  C   UNL A   1      35.628  32.791  28.316  1.00  0.00     0.188 C 
BRANCH  26  27
ATOM     27  O   UNL A   1      35.432  34.104  28.823  1.00  0.00    -0.376 OA
BRANCH  27  28
ATOM     28  C   UNL A   1      34.414  34.883  28.202  1.00  0.00     0.202 C 
BRANCH  28  29
ATOM     29  C   UNL A   1      33.361  35.582  29.108  1.00  0.00     0.261 C 
BRANCH  29  30
ATOM     30  O   UNL A   1      32.888  34.871  30.273  1.00  0.00    -0.460 OA
BRANCH  30  31
ATOM     31  C   UNL A   1      32.926  35.544  31.454  1.00  0.00     0.338 C 
ATOM     32  O   UNL A   1      32.164  36.402  31.825  1.00  0.00    -0.246 OA
BRANCH  31  33
ATOM     33  C   UNL A   1      33.989  34.952  32.319  1.00  0.00     0.060 A 
ATOM     34  C   UNL A   1      35.208  35.635  32.441  1.00  0.00     0.016 A 
ATOM     35  C   UNL A   1      33.828  33.702  32.924  1.00  0.00     0.016 A 
ATOM     36  C   UNL A   1      36.288  35.045  33.102  1.00  0.00     0.010 A 
ATOM     37  C   UNL A   1      34.921  33.095  33.560  1.00  0.00     0.010 A 
ATOM     38  C   UNL A   1      36.172  33.739  33.593  1.00  0.00    -0.014 A 
BRANCH  38  39
ATOM     39  C   UNL A   1      37.415  32.950  33.808  1.00  0.00     0.031 A 
ATOM     40  C   UNL A   1      38.172  33.189  35.092  1.00  0.00     0.074 A 
ATOM     41  C   UNL A   1      37.832  32.003  32.950  1.00  0.00     0.049 A 
ATOM     42  N   UNL A   1      39.297  32.671  35.515  1.00  0.00    -0.248 NA
ATOM     43  C   UNL A   1      37.567  34.149  36.032  1.00  0.00     0.031 C 
ATOM     44  C   UNL A   1      37.150  31.617  31.719  1.00  0.00     0.029 A 
ATOM     45  N   UNL A   1      38.942  31.192  32.992  1.00  0.00    -0.354 N 
ATOM     46  C   UNL A   1      39.537  33.252  36.756  1.00  0.00     0.074 A 
ATOM     47  C   UNL A   1      38.458  34.181  37.007  1.00  0.00     0.031 C 
ATOM     48  C   UNL A   1      37.863  30.649  31.112  1.00  0.00     0.029 A 
ATOM     49  C   UNL A   1      39.070  30.378  31.893  1.00  0.00     0.049 A 
ATOM     50  H   UNL A   1      39.584  31.196  33.737  1.00  0.00     0.167 HD
ATOM     51  C   UNL A   1      40.559  33.028  37.614  1.00  0.00     0.037 A 
ATOM     52  C   UNL A   1      40.065  29.533  31.550  1.00  0.00     0.037 A 
ATOM     53  C   UNL A   1      41.630  32.103  37.361  1.00  0.00     0.049 A 
ATOM     54  C   UNL A   1      41.248  29.372  32.476  1.00  0.00     0.074 A 
ATOM     55  C   UNL A   1      42.715  31.798  38.162  1.00  0.00     0.029 A 
ATOM     56  N   UNL A   1      41.752  31.338  36.210  1.00  0.00    -0.354 N 
ATOM     57  N   UNL A   1      41.469  29.923  33.646  1.00  0.00    -0.248 NA
ATOM     58  C   UNL A   1      42.320  28.470  32.032  1.00  0.00     0.031 C 
ATOM     59  C   UNL A   1      43.531  30.900  37.466  1.00  0.00     0.029 A 
ATOM     60  C   UNL A   1      42.914  30.587  36.264  1.00  0.00     0.049 A 
ATOM     61  H   UNL A   1      41.109  31.330  35.465  1.00  0.00     0.167 HD
ATOM     62  C   UNL A   1      42.682  29.410  34.091  1.00  0.00     0.074 A 
ATOM     63  C   UNL A   1      43.144  28.493  33.070  1.00  0.00     0.031 C 
ATOM     64  C   UNL A   1      43.354  29.671  35.241  1.00  0.00     0.037 A 
BRANCH  51  65
ATOM     65  C   UNL A   1      40.592  33.837  38.880  1.00  0.00     0.064 A 
ATOM     66  C   UNL A   1      41.316  35.036  38.980  1.00  0.00     0.173 A 
ATOM     67  C   UNL A   1      39.877  33.409  40.010  1.00  0.00     0.173 A 
ATOM     68  F   UNL A   1      42.032  35.482  37.938  1.00  0.00    -0.203 F 
ATOM     69  C   UNL A   1      41.351  35.755  40.173  1.00  0.00     0.198 A 
ATOM     70  C   UNL A   1      39.886  34.150  41.189  1.00  0.00     0.198 A 
ATOM     71  F   UNL A   1      39.168  32.272  39.971  1.00  0.00    -0.203 F 
ATOM     72  F   UNL A   1      42.099  36.863  40.264  1.00  0.00    -0.200 F 
ATOM     73  C   UNL A   1      40.630  35.315  41.273  1.00  0.00     0.200 A 
ATOM     74  F   UNL A   1      39.176  33.729  42.247  1.00  0.00    -0.200 F 
ATOM     75  F   UNL A   1      40.660  36.011  42.419  1.00  0.00    -0.200 F 
ENDBRANCH  51  65
BRANCH  52  76
ATOM     76  C   UNL A   1      40.005  28.792  30.260  1.00  0.00     0.064 A 
ATOM     77  C   UNL A   1      39.400  27.531  30.170  1.00  0.00     0.173 A 
ATOM     78  C   UNL A   1      40.582  29.317  29.093  1.00  0.00     0.173 A 
ATOM     79  F   UNL A   1      38.863  26.967  31.263  1.00  0.00    -0.203 F 
ATOM     80  C   UNL A   1      39.388  26.818  28.972  1.00  0.00     0.198 A 
ATOM     81  C   UNL A   1      40.540  28.619  27.888  1.00  0.00     0.198 A 
ATOM     82  F   UNL A   1      41.186  30.514  29.122  1.00  0.00    -0.203 F 
ATOM     83  F   UNL A   1      38.849  25.591  28.930  1.00  0.00    -0.200 F 
ATOM     84  C   UNL A   1      39.950  27.366  27.830  1.00  0.00     0.200 A 
ATOM     85  F   UNL A   1      41.078  29.158  26.785  1.00  0.00    -0.200 F 
ATOM     86  F   UNL A   1      39.936  26.683  26.677  1.00  0.00    -0.200 F 
ENDBRANCH  52  76
BRANCH  64  87
ATOM     87  C   UNL A   1      44.635  28.923  35.484  1.00  0.00     0.064 A 
ATOM     88  C   UNL A   1      44.657  27.680  36.133  1.00  0.00     0.173 A 
ATOM     89  C   UNL A   1      45.853  29.439  35.014  1.00  0.00     0.173 A 
ATOM     90  F   UNL A   1      43.522  27.147  36.611  1.00  0.00    -0.203 F 
ATOM     91  C   UNL A   1      45.854  26.995  36.328  1.00  0.00     0.198 A 
ATOM     92  C   UNL A   1      47.043  28.735  35.177  1.00  0.00     0.198 A 
ATOM     93  F   UNL A   1      45.889  30.618  34.376  1.00  0.00    -0.203 F 
ATOM     94  F   UNL A   1      45.858  25.835  36.999  1.00  0.00    -0.200 F 
ATOM     95  C   UNL A   1      47.044  27.519  35.843  1.00  0.00     0.200 A 
ATOM     96  F   UNL A   1      48.187  29.232  34.690  1.00  0.00    -0.200 F 
ATOM     97  F   UNL A   1      48.193  26.853  36.023  1.00  0.00    -0.200 F 
ENDBRANCH  64  87
ENDBRANCH  38  39
ENDBRANCH  31  33
ENDBRANCH  30  31
ENDBRANCH  29  30
ENDBRANCH  28  29
ENDBRANCH  27  28
ENDBRANCH  26  27
ENDBRANCH  25  26
ENDBRANCH   1  25
TORSDOF 23
ENDMDL
MODEL 3
REMARK VINA RESULT:     -10.7      1.056      7.359
REMARK SMILES CC(C)C[C@H](C(=O)OCCOCCOCCOCCOC(=O)c1ccc(-c2c3nc(c(-c4c(F)c(F)c(F)c(F)c4F)c4ccc([nH]4)c(-c4c(F)c(F)c(F)c(F)c4F)c4nc(c(-c5c(F)c(F)c(F)c(F)c5F)c5ccc2[nH]5)C=C4)C=C3)cc1)[C@@H]1CCO[C@]2(CCOC2)C1
REMARK SMILES IDX 14 1 13 2 12 3 11 4 10 5 9 6 8 7 6 8 7 9 5 10 4 11 2 12 1 13
REMARK SMILES IDX 3 14 86 15 87 16 95 17 88 18 90 19 89 20 91 21 94 22 92 23
REMARK SMILES IDX 93 24 15 25 16 26 17 27 18 28 19 29 20 30 21 31 22 32 23 33
REMARK SMILES IDX 24 34 85 35 25 36 84 37 26 38 27 39 28 40 78 41 29 42 83 43
REMARK SMILES IDX 77 44 79 45 30 46 82 47 76 48 75 49 31 51 63 52 43 53 62 54
REMARK SMILES IDX 44 55 47 56 61 57 80 58 45 59 46 60 60 62 81 63 48 64 32 65
REMARK SMILES IDX 33 66 41 67 34 68 35 69 39 70 42 71 36 72 37 73 40 74 38 75
REMARK SMILES IDX 64 76 65 77 73 78 66 79 67 80 71 81 74 82 68 83 69 84 72 85
REMARK SMILES IDX 70 86 49 87 50 88 58 89 51 90 52 91 56 92 59 93 53 94 54 95
REMARK SMILES IDX 57 96 55 97
REMARK H PARENT 79 50 47 61
REMARK Flexibility Score: inf
ROOT
ATOM      1  O   UNL A   1      35.355  22.623  24.405  1.00  0.00    -0.377 OA
ENDROOT
BRANCH   1   2
ATOM      2  C   UNL A   1      34.484  21.511  24.720  1.00  0.00     0.188 C 
BRANCH   2   3
ATOM      3  C   UNL A   1      32.997  21.489  24.033  1.00  0.00     0.188 C 
BRANCH   3   4
ATOM      4  O   UNL A   1      31.909  22.383  24.527  1.00  0.00    -0.376 OA
BRANCH   4   5
ATOM      5  C   UNL A   1      32.008  22.987  25.890  1.00  0.00     0.202 C 
BRANCH   5   6
ATOM      6  C   UNL A   1      31.257  24.524  26.242  1.00  0.00     0.261 C 
BRANCH   6   7
ATOM      7  O   UNL A   1      32.037  25.850  26.434  1.00  0.00    -0.463 OA
BRANCH   7   8
ATOM      8  C   UNL A   1      31.641  27.168  26.656  1.00  0.00     0.309 C 
ATOM      9  O   UNL A   1      30.921  27.422  27.623  1.00  0.00    -0.252 OA
BRANCH   8  10
ATOM     10  C   UNL A   1      32.302  28.550  25.659  1.00  0.00     0.103 C 
BRANCH  10  11
ATOM     11  C   UNL A   1      33.833  28.616  26.125  1.00  0.00     0.018 C 
BRANCH  11  12
ATOM     12  C   UNL A   1      34.348  29.332  27.412  1.00  0.00    -0.017 C 
ATOM     13  C   UNL A   1      35.872  29.340  27.571  1.00  0.00     0.007 C 
ATOM     14  C   UNL A   1      33.887  30.807  27.381  1.00  0.00     0.007 C 
ENDBRANCH  11  12
ENDBRANCH  10  11
BRANCH  10  15
ATOM     15  C   UNL A   1      32.115  29.172  23.951  1.00  0.00     0.008 C 
ATOM     16  C   UNL A   1      30.673  29.039  23.428  1.00  0.00     0.033 C 
ATOM     17  C   UNL A   1      33.047  28.592  22.563  1.00  0.00     0.042 C 
ATOM     18  C   UNL A   1      30.332  27.629  22.975  1.00  0.00     0.161 C 
ATOM     19  C   UNL A   1      32.670  27.103  22.452  1.00  0.00     0.094 C 
ATOM     20  O   UNL A   1      31.286  27.116  22.060  1.00  0.00    -0.372 OA
ATOM     21  C   UNL A   1      33.025  26.983  23.870  1.00  0.00     0.066 C 
ATOM     22  C   UNL A   1      33.056  25.633  22.160  1.00  0.00     0.195 C 
ATOM     23  C   UNL A   1      34.040  26.023  24.127  1.00  0.00     0.163 C 
ATOM     24  O   UNL A   1      33.621  24.988  23.308  1.00  0.00    -0.378 OA
ENDBRANCH  10  15
ENDBRANCH   8  10
ENDBRANCH   7   8
ENDBRANCH   6   7
ENDBRANCH   5   6
ENDBRANCH   4   5
ENDBRANCH   3   4
ENDBRANCH   2   3
ENDBRANCH   1   2
BRANCH   1  25
ATOM     25  C   UNL A   1      36.756  22.520  24.346  1.00  0.00     0.188 C 
BRANCH  25  26
ATOM     26  C   UNL A   1      37.287  21.111  24.472  1.00  0.00     0.188 C 
BRANCH  26  27
ATOM     27  O   UNL A   1      38.358  20.965  25.395  1.00  0.00    -0.376 OA
BRANCH  27  28
ATOM     28  C   UNL A   1      38.723  19.633  25.745  1.00  0.00     0.202 C 
BRANCH  28  29
ATOM     29  C   UNL A   1      40.233  19.263  25.772  1.00  0.00     0.261 C 
BRANCH  29  30
ATOM     30  O   UNL A   1      41.017  19.693  26.905  1.00  0.00    -0.460 OA
BRANCH  30  31
ATOM     31  C   UNL A   1      42.114  20.449  26.634  1.00  0.00     0.338 C 
ATOM     32  O   UNL A   1      43.064  20.136  25.960  1.00  0.00    -0.246 OA
BRANCH  31  33
ATOM     33  C   UNL A   1      41.908  21.822  27.185  1.00  0.00     0.060 A 
ATOM     34  C   UNL A   1      41.254  22.771  26.386  1.00  0.00     0.016 A 
ATOM     35  C   UNL A   1      42.431  22.199  28.425  1.00  0.00     0.016 A 
ATOM     36  C   UNL A   1      41.183  24.107  26.787  1.00  0.00     0.010 A 
ATOM     37  C   UNL A   1      42.390  23.546  28.814  1.00  0.00     0.010 A 
ATOM     38  C   UNL A   1      41.822  24.514  27.963  1.00  0.00    -0.014 A 
BRANCH  38  39
ATOM     39  C   UNL A   1      42.190  25.948  28.112  1.00  0.00     0.031 A 
ATOM     40  C   UNL A   1      43.499  26.393  27.507  1.00  0.00     0.074 A 
ATOM     41  C   UNL A   1      41.378  26.849  28.690  1.00  0.00     0.049 A 
ATOM     42  N   UNL A   1      44.079  27.566  27.522  1.00  0.00    -0.248 NA
ATOM     43  C   UNL A   1      44.258  25.363  26.777  1.00  0.00     0.031 C 
ATOM     44  C   UNL A   1      40.054  26.568  29.239  1.00  0.00     0.029 A 
ATOM     45  N   UNL A   1      41.557  28.195  28.911  1.00  0.00    -0.354 N 
ATOM     46  C   UNL A   1      45.269  27.408  26.821  1.00  0.00     0.074 A 
ATOM     47  C   UNL A   1      45.345  26.023  26.416  1.00  0.00     0.031 C 
ATOM     48  C   UNL A   1      39.544  27.706  29.746  1.00  0.00     0.029 A 
ATOM     49  C   UNL A   1      40.520  28.784  29.592  1.00  0.00     0.049 A 
ATOM     50  H   UNL A   1      42.353  28.688  28.609  1.00  0.00     0.167 HD
ATOM     51  C   UNL A   1      46.212  28.335  26.531  1.00  0.00     0.037 A 
ATOM     52  C   UNL A   1      40.393  30.044  30.060  1.00  0.00     0.037 A 
ATOM     53  C   UNL A   1      46.133  29.712  26.936  1.00  0.00     0.049 A 
ATOM     54  C   UNL A   1      41.504  31.037  29.813  1.00  0.00     0.074 A 
ATOM     55  C   UNL A   1      47.032  30.735  26.696  1.00  0.00     0.029 A 
ATOM     56  N   UNL A   1      45.092  30.256  27.673  1.00  0.00    -0.354 N 
ATOM     57  N   UNL A   1      42.626  30.883  29.151  1.00  0.00    -0.248 NA
ATOM     58  C   UNL A   1      41.329  32.382  30.380  1.00  0.00     0.031 C 
ATOM     59  C   UNL A   1      46.569  31.883  27.348  1.00  0.00     0.029 A 
ATOM     60  C   UNL A   1      45.343  31.594  27.928  1.00  0.00     0.049 A 
ATOM     61  H   UNL A   1      44.293  29.765  27.972  1.00  0.00     0.167 HD
ATOM     62  C   UNL A   1      43.271  32.114  29.192  1.00  0.00     0.074 A 
ATOM     63  C   UNL A   1      42.408  33.009  29.934  1.00  0.00     0.031 C 
ATOM     64  C   UNL A   1      44.468  32.473  28.662  1.00  0.00     0.037 A 
BRANCH  51  65
ATOM     65  C   UNL A   1      47.434  27.872  25.789  1.00  0.00     0.064 A 
ATOM     66  C   UNL A   1      47.471  27.793  24.388  1.00  0.00     0.173 A 
ATOM     67  C   UNL A   1      48.593  27.511  26.495  1.00  0.00     0.173 A 
ATOM     68  F   UNL A   1      46.386  28.108  23.665  1.00  0.00    -0.203 F 
ATOM     69  C   UNL A   1      48.608  27.337  23.724  1.00  0.00     0.198 A 
ATOM     70  C   UNL A   1      49.740  27.090  25.826  1.00  0.00     0.198 A 
ATOM     71  F   UNL A   1      48.615  27.568  27.834  1.00  0.00    -0.203 F 
ATOM     72  F   UNL A   1      48.599  27.210  22.391  1.00  0.00    -0.200 F 
ATOM     73  C   UNL A   1      49.744  26.993  24.444  1.00  0.00     0.200 A 
ATOM     74  F   UNL A   1      50.840  26.772  26.523  1.00  0.00    -0.200 F 
ATOM     75  F   UNL A   1      50.839  26.559  23.805  1.00  0.00    -0.200 F 
ENDBRANCH  51  65
BRANCH  52  76
ATOM     76  C   UNL A   1      39.182  30.436  30.833  1.00  0.00     0.064 A 
ATOM     77  C   UNL A   1      38.058  30.982  30.199  1.00  0.00     0.173 A 
ATOM     78  C   UNL A   1      39.137  30.303  32.229  1.00  0.00     0.173 A 
ATOM     79  F   UNL A   1      38.060  31.163  28.869  1.00  0.00    -0.203 F 
ATOM     80  C   UNL A   1      36.943  31.393  30.930  1.00  0.00     0.198 A 
ATOM     81  C   UNL A   1      38.011  30.682  32.956  1.00  0.00     0.198 A 
ATOM     82  F   UNL A   1      40.189  29.798  32.890  1.00  0.00    -0.203 F 
ATOM     83  F   UNL A   1      35.904  31.961  30.302  1.00  0.00    -0.200 F 
ATOM     84  C   UNL A   1      36.917  31.235  32.307  1.00  0.00     0.200 A 
ATOM     85  F   UNL A   1      37.987  30.519  34.286  1.00  0.00    -0.200 F 
ATOM     86  F   UNL A   1      35.846  31.627  33.010  1.00  0.00    -0.200 F 
ENDBRANCH  52  76
BRANCH  64  87
ATOM     87  C   UNL A   1      44.897  33.905  28.820  1.00  0.00     0.064 A 
ATOM     88  C   UNL A   1      45.720  34.321  29.878  1.00  0.00     0.173 A 
ATOM     89  C   UNL A   1      44.520  34.865  27.867  1.00  0.00     0.173 A 
ATOM     90  F   UNL A   1      46.100  33.447  30.821  1.00  0.00    -0.203 F 
ATOM     91  C   UNL A   1      46.122  35.649  29.992  1.00  0.00     0.198 A 
ATOM     92  C   UNL A   1      44.955  36.183  27.963  1.00  0.00     0.198 A 
ATOM     93  F   UNL A   1      43.744  34.520  26.828  1.00  0.00    -0.203 F 
ATOM     94  F   UNL A   1      46.863  36.035  31.041  1.00  0.00    -0.200 F 
ATOM     95  C   UNL A   1      45.747  36.577  29.031  1.00  0.00     0.200 A 
ATOM     96  F   UNL A   1      44.609  37.073  27.023  1.00  0.00    -0.200 F 
ATOM     97  F   UNL A   1      46.145  37.852  29.138  1.00  0.00    -0.200 F 
ENDBRANCH  64  87
ENDBRANCH  38  39
ENDBRANCH  31  33
ENDBRANCH  30  31
ENDBRANCH  29  30
ENDBRANCH  28  29
ENDBRANCH  27  28
ENDBRANCH  26  27
ENDBRANCH  25  26
ENDBRANCH   1  25
TORSDOF 23
ENDMDL
