MODEL 1
REMARK VINA RESULT:     -10.1      0.000      0.000
REMARK SMILES O=C(OCCOCCOCCOCCOC(=O)[C@@H]1[C@H](C(=O)NCc2ccncc2)[C@H]2C=C[C@@H]1O2)c1ccc(-c2c3nc(c(-c4c(F)c(F)c(F)c(F)c4F)c4ccc([nH]4)c(-c4c(F)c(F)c(F)c(F)c4F)c4nc(c(-c5c(F)c(F)c(F)c(F)c5F)c5ccc2[nH]5)C=C4)C=C3)cc1
REMARK SMILES IDX 10 1 9 2 8 3 7 4 6 5 5 6 4 7 3 8 2 9 1 10 35 11 36 12 97 13
REMARK SMILES IDX 37 14 96 15 38 16 39 17 40 18 90 19 41 20 95 21 89 22 91 23
REMARK SMILES IDX 42 24 94 25 88 26 87 27 43 29 75 30 55 31 74 32 56 33 59 34
REMARK SMILES IDX 73 35 92 36 57 37 58 38 72 40 93 41 60 42 44 43 45 44 53 45
REMARK SMILES IDX 46 46 47 47 51 48 54 49 48 50 49 51 52 52 50 53 76 54 77 55
REMARK SMILES IDX 85 56 78 57 79 58 83 59 86 60 80 61 81 62 84 63 82 64 61 65
REMARK SMILES IDX 62 66 70 67 63 68 64 69 68 70 71 71 65 72 66 73 69 74 67 75
REMARK SMILES IDX 11 76 12 77 13 78 14 79 15 80 16 81 17 82 18 83 19 84 33 85
REMARK SMILES IDX 30 86 32 87 34 88 31 89 20 90 21 91 22 92 23 94 24 95 25 96
REMARK SMILES IDX 29 97 26 98 28 99 27 100
REMARK H PARENT 91 28 59 39 22 93
REMARK Flexibility Score: inf
ROOT
ATOM      1  C   UNL A   1      34.214  31.542  27.625  1.00  0.00     0.188 C 
ENDROOT
BRANCH   1   2
ATOM      2  O   UNL A   1      34.250  32.369  28.776  1.00  0.00    -0.377 OA
BRANCH   2   3
ATOM      3  C   UNL A   1      33.694  33.662  28.606  1.00  0.00     0.188 C 
BRANCH   3   4
ATOM      4  C   UNL A   1      34.774  34.655  28.235  1.00  0.00     0.188 C 
BRANCH   4   5
ATOM      5  O   UNL A   1      34.329  36.003  28.273  1.00  0.00    -0.376 OA
BRANCH   5   6
ATOM      6  C   UNL A   1      33.029  36.259  28.793  1.00  0.00     0.202 C 
BRANCH   6   7
ATOM      7  C   UNL A   1      32.937  37.195  29.995  1.00  0.00     0.261 C 
BRANCH   7   8
ATOM      8  O   UNL A   1      32.421  36.713  31.256  1.00  0.00    -0.460 OA
BRANCH   8   9
ATOM      9  C   UNL A   1      32.553  35.626  32.041  1.00  0.00     0.338 C 
ATOM     10  O   UNL A   1      31.586  35.298  32.730  1.00  0.00    -0.246 OA
BRANCH   9  11
ATOM     11  C   UNL A   1      33.801  34.827  32.204  1.00  0.00     0.060 A 
ATOM     12  C   UNL A   1      33.849  33.564  32.771  1.00  0.00     0.016 A 
ATOM     13  C   UNL A   1      35.007  35.367  31.718  1.00  0.00     0.016 A 
ATOM     14  C   UNL A   1      34.971  32.762  32.682  1.00  0.00     0.010 A 
ATOM     15  C   UNL A   1      36.196  34.631  31.766  1.00  0.00     0.010 A 
ATOM     16  C   UNL A   1      36.162  33.315  32.234  1.00  0.00    -0.014 A 
BRANCH  16  17
ATOM     17  C   UNL A   1      37.365  32.557  32.595  1.00  0.00     0.031 A 
ATOM     18  C   UNL A   1      37.928  32.812  33.960  1.00  0.00     0.074 A 
ATOM     19  C   UNL A   1      37.753  31.517  31.839  1.00  0.00     0.049 A 
ATOM     20  N   UNL A   1      38.965  32.285  34.544  1.00  0.00    -0.248 NA
ATOM     21  C   UNL A   1      37.185  33.768  34.806  1.00  0.00     0.031 C 
ATOM     22  C   UNL A   1      37.087  31.070  30.614  1.00  0.00     0.029 A 
ATOM     23  N   UNL A   1      38.774  30.626  32.012  1.00  0.00    -0.354 N 
ATOM     24  C   UNL A   1      39.011  32.860  35.807  1.00  0.00     0.074 A 
ATOM     25  C   UNL A   1      37.888  33.757  35.924  1.00  0.00     0.031 C 
ATOM     26  C   UNL A   1      37.734  29.996  30.133  1.00  0.00     0.029 A 
ATOM     27  C   UNL A   1      38.891  29.728  30.979  1.00  0.00     0.049 A 
ATOM     28  H   UNL A   1      39.366  30.627  32.797  1.00  0.00     0.167 HD
ATOM     29  C   UNL A   1      39.940  32.665  36.767  1.00  0.00     0.037 A 
ATOM     30  C   UNL A   1      39.872  28.837  30.741  1.00  0.00     0.037 A 
ATOM     31  C   UNL A   1      41.053  31.777  36.591  1.00  0.00     0.049 A 
ATOM     32  C   UNL A   1      40.991  28.763  31.752  1.00  0.00     0.074 A 
ATOM     33  C   UNL A   1      42.130  31.556  37.424  1.00  0.00     0.029 A 
ATOM     34  N   UNL A   1      41.222  30.962  35.477  1.00  0.00    -0.354 N 
ATOM     35  N   UNL A   1      41.108  29.381  32.905  1.00  0.00    -0.248 NA
ATOM     36  C   UNL A   1      42.121  27.887  31.426  1.00  0.00     0.031 C 
ATOM     37  C   UNL A   1      42.984  30.653  36.783  1.00  0.00     0.029 A 
ATOM     38  C   UNL A   1      42.404  30.258  35.585  1.00  0.00     0.049 A 
ATOM     39  H   UNL A   1      40.591  30.897  34.724  1.00  0.00     0.167 HD
ATOM     40  C   UNL A   1      42.307  28.953  33.453  1.00  0.00     0.074 A 
ATOM     41  C   UNL A   1      42.871  28.003  32.513  1.00  0.00     0.031 C 
ATOM     42  C   UNL A   1      42.902  29.309  34.619  1.00  0.00     0.037 A 
BRANCH  29  43
ATOM     43  C   UNL A   1      39.845  33.514  37.998  1.00  0.00     0.064 A 
ATOM     44  C   UNL A   1      40.601  34.683  38.168  1.00  0.00     0.173 A 
ATOM     45  C   UNL A   1      39.003  33.118  39.049  1.00  0.00     0.173 A 
ATOM     46  F   UNL A   1      41.453  35.080  37.212  1.00  0.00    -0.203 F 
ATOM     47  C   UNL A   1      40.529  35.415  39.352  1.00  0.00     0.198 A 
ATOM     48  C   UNL A   1      38.915  33.865  40.220  1.00  0.00     0.198 A 
ATOM     49  F   UNL A   1      38.276  31.996  38.947  1.00  0.00    -0.203 F 
ATOM     50  F   UNL A   1      41.301  36.498  39.516  1.00  0.00    -0.200 F 
ATOM     51  C   UNL A   1      39.682  35.010  40.373  1.00  0.00     0.200 A 
ATOM     52  F   UNL A   1      38.098  33.469  41.205  1.00  0.00    -0.200 F 
ATOM     53  F   UNL A   1      39.617  35.713  41.512  1.00  0.00    -0.200 F 
ENDBRANCH  29  43
BRANCH  30  54
ATOM     54  C   UNL A   1      39.904  28.044  29.481  1.00  0.00     0.064 A 
ATOM     55  C   UNL A   1      39.340  26.763  29.405  1.00  0.00     0.173 A 
ATOM     56  C   UNL A   1      40.568  28.525  28.339  1.00  0.00     0.173 A 
ATOM     57  F   UNL A   1      38.712  26.243  30.469  1.00  0.00    -0.203 F 
ATOM     58  C   UNL A   1      39.472  25.983  28.255  1.00  0.00     0.198 A 
ATOM     59  C   UNL A   1      40.666  27.759  27.178  1.00  0.00     0.198 A 
ATOM     60  F   UNL A   1      41.135  29.740  28.349  1.00  0.00    -0.203 F 
ATOM     61  F   UNL A   1      38.984  24.734  28.238  1.00  0.00    -0.200 F 
ATOM     62  C   UNL A   1      40.132  26.482  27.143  1.00  0.00     0.200 A 
ATOM     63  F   UNL A   1      41.294  28.253  26.104  1.00  0.00    -0.200 F 
ATOM     64  F   UNL A   1      40.269  25.725  26.045  1.00  0.00    -0.200 F 
ENDBRANCH  30  54
BRANCH  42  65
ATOM     65  C   UNL A   1      44.194  28.630  34.954  1.00  0.00     0.064 A 
ATOM     66  C   UNL A   1      44.226  27.409  35.642  1.00  0.00     0.173 A 
ATOM     67  C   UNL A   1      45.408  29.180  34.519  1.00  0.00     0.173 A 
ATOM     68  F   UNL A   1      43.089  26.854  36.088  1.00  0.00    -0.203 F 
ATOM     69  C   UNL A   1      45.434  26.774  35.905  1.00  0.00     0.198 A 
ATOM     70  C   UNL A   1      46.611  28.523  34.750  1.00  0.00     0.198 A 
ATOM     71  F   UNL A   1      45.424  30.341  33.847  1.00  0.00    -0.203 F 
ATOM     72  F   UNL A   1      45.450  25.633  36.606  1.00  0.00    -0.200 F 
ATOM     73  C   UNL A   1      46.623  27.325  35.449  1.00  0.00     0.200 A 
ATOM     74  F   UNL A   1      47.755  29.045  34.289  1.00  0.00    -0.200 F 
ATOM     75  F   UNL A   1      47.785  26.702  35.686  1.00  0.00    -0.200 F 
ENDBRANCH  42  65
ENDBRANCH  16  17
ENDBRANCH   9  11
ENDBRANCH   8   9
ENDBRANCH   7   8
ENDBRANCH   6   7
ENDBRANCH   5   6
ENDBRANCH   4   5
ENDBRANCH   3   4
ENDBRANCH   2   3
ENDBRANCH   1   2
BRANCH   1  76
ATOM     76  C   UNL A   1      34.119  30.010  27.569  1.00  0.00     0.188 C 
BRANCH  76  77
ATOM     77  O   UNL A   1      32.964  29.311  27.143  1.00  0.00    -0.376 OA
BRANCH  77  78
ATOM     78  C   UNL A   1      32.926  28.392  26.065  1.00  0.00     0.202 C 
BRANCH  78  79
ATOM     79  C   UNL A   1      32.758  26.890  26.321  1.00  0.00     0.261 C 
BRANCH  79  80
ATOM     80  O   UNL A   1      33.671  26.087  25.541  1.00  0.00    -0.463 OA
BRANCH  80  81
ATOM     81  C   UNL A   1      33.718  24.772  25.862  1.00  0.00     0.312 C 
ATOM     82  O   UNL A   1      32.808  24.183  26.426  1.00  0.00    -0.252 OA
BRANCH  81  83
ATOM     83  C   UNL A   1      34.962  24.008  25.421  1.00  0.00     0.147 C 
ATOM     84  C   UNL A   1      34.815  23.463  23.998  1.00  0.00     0.128 C 
ATOM     85  C   UNL A   1      35.726  22.827  26.091  1.00  0.00     0.157 C 
ATOM     86  C   UNL A   1      35.819  22.308  23.985  1.00  0.00     0.155 C 
ATOM     87  C   UNL A   1      37.171  22.990  25.710  1.00  0.00     0.004 C 
ATOM     88  O   UNL A   1      35.454  21.684  25.230  1.00  0.00    -0.365 OA
ATOM     89  C   UNL A   1      37.215  22.731  24.391  1.00  0.00     0.004 C 
BRANCH  84  90
ATOM     90  C   UNL A   1      33.381  23.077  23.613  1.00  0.00     0.227 C 
ATOM     91  O   UNL A   1      32.972  21.961  23.959  1.00  0.00    -0.275 OA
ATOM     92  N   UNL A   1      32.503  23.820  22.882  1.00  0.00    -0.352 N 
ATOM     93  H   UNL A   1      31.727  23.301  22.568  1.00  0.00     0.163 HD
BRANCH  92  94
ATOM     94  C   UNL A   1      32.463  25.217  22.464  1.00  0.00     0.151 C 
BRANCH  94  95
ATOM     95  C   UNL A   1      31.270  26.040  22.899  1.00  0.00    -0.026 A 
ATOM     96  C   UNL A   1      31.115  27.317  22.328  1.00  0.00     0.025 A 
ATOM     97  C   UNL A   1      30.274  25.598  23.769  1.00  0.00     0.025 A 
ATOM     98  C   UNL A   1      29.973  28.053  22.599  1.00  0.00     0.111 A 
ATOM     99  C   UNL A   1      29.166  26.410  23.982  1.00  0.00     0.111 A 
ATOM    100  N   UNL A   1      28.985  27.616  23.401  1.00  0.00    -0.265 NA
ENDBRANCH  94  95
ENDBRANCH  92  94
ENDBRANCH  84  90
ENDBRANCH  81  83
ENDBRANCH  80  81
ENDBRANCH  79  80
ENDBRANCH  78  79
ENDBRANCH  77  78
ENDBRANCH  76  77
ENDBRANCH   1  76
TORSDOF 23
ENDMDL
MODEL 2
REMARK VINA RESULT:      -9.9      1.562      3.713
REMARK SMILES O=C(OCCOCCOCCOCCOC(=O)[C@@H]1[C@H](C(=O)NCc2ccncc2)[C@H]2C=C[C@@H]1O2)c1ccc(-c2c3nc(c(-c4c(F)c(F)c(F)c(F)c4F)c4ccc([nH]4)c(-c4c(F)c(F)c(F)c(F)c4F)c4nc(c(-c5c(F)c(F)c(F)c(F)c5F)c5ccc2[nH]5)C=C4)C=C3)cc1
REMARK SMILES IDX 10 1 9 2 8 3 7 4 6 5 5 6 4 7 3 8 2 9 1 10 35 11 36 12 97 13
REMARK SMILES IDX 37 14 96 15 38 16 39 17 40 18 90 19 41 20 95 21 89 22 91 23
REMARK SMILES IDX 42 24 94 25 88 26 87 27 43 29 75 30 55 31 74 32 56 33 59 34
REMARK SMILES IDX 73 35 92 36 57 37 58 38 72 40 93 41 60 42 44 43 45 44 53 45
REMARK SMILES IDX 46 46 47 47 51 48 54 49 48 50 49 51 52 52 50 53 76 54 77 55
REMARK SMILES IDX 85 56 78 57 79 58 83 59 86 60 80 61 81 62 84 63 82 64 61 65
REMARK SMILES IDX 62 66 70 67 63 68 64 69 68 70 71 71 65 72 66 73 69 74 67 75
REMARK SMILES IDX 11 76 12 77 13 78 14 79 15 80 16 81 17 82 18 83 19 84 33 85
REMARK SMILES IDX 30 86 32 87 34 88 31 89 20 90 21 91 22 92 23 94 24 95 25 96
REMARK SMILES IDX 29 97 26 98 28 99 27 100
REMARK H PARENT 91 28 59 39 22 93
REMARK Flexibility Score: inf
ROOT
ATOM      1  C   UNL A   1      34.799  31.288  27.826  1.00  0.00     0.188 C 
ENDROOT
BRANCH   1   2
ATOM      2  O   UNL A   1      34.489  32.222  28.847  1.00  0.00    -0.377 OA
BRANCH   2   3
ATOM      3  C   UNL A   1      33.821  33.393  28.408  1.00  0.00     0.188 C 
BRANCH   3   4
ATOM      4  C   UNL A   1      34.825  34.471  28.056  1.00  0.00     0.188 C 
BRANCH   4   5
ATOM      5  O   UNL A   1      34.335  35.784  28.283  1.00  0.00    -0.376 OA
BRANCH   5   6
ATOM      6  C   UNL A   1      33.030  35.921  28.834  1.00  0.00     0.202 C 
BRANCH   6   7
ATOM      7  C   UNL A   1      32.856  36.943  29.953  1.00  0.00     0.261 C 
BRANCH   7   8
ATOM      8  O   UNL A   1      32.317  36.540  31.232  1.00  0.00    -0.460 OA
BRANCH   8   9
ATOM      9  C   UNL A   1      32.496  35.546  32.124  1.00  0.00     0.338 C 
ATOM     10  O   UNL A   1      31.558  35.278  32.876  1.00  0.00    -0.246 OA
BRANCH   9  11
ATOM     11  C   UNL A   1      33.764  34.791  32.331  1.00  0.00     0.060 A 
ATOM     12  C   UNL A   1      33.850  33.577  32.992  1.00  0.00     0.016 A 
ATOM     13  C   UNL A   1      34.950  35.319  31.786  1.00  0.00     0.016 A 
ATOM     14  C   UNL A   1      34.989  32.797  32.949  1.00  0.00     0.010 A 
ATOM     15  C   UNL A   1      36.157  34.617  31.873  1.00  0.00     0.010 A 
ATOM     16  C   UNL A   1      36.161  33.340  32.442  1.00  0.00    -0.014 A 
BRANCH  16  17
ATOM     17  C   UNL A   1      37.386  32.640  32.843  1.00  0.00     0.031 A 
ATOM     18  C   UNL A   1      37.900  32.932  34.220  1.00  0.00     0.074 A 
ATOM     19  C   UNL A   1      37.840  31.612  32.109  1.00  0.00     0.049 A 
ATOM     20  N   UNL A   1      38.944  32.457  34.837  1.00  0.00    -0.248 NA
ATOM     21  C   UNL A   1      37.092  33.862  35.036  1.00  0.00     0.031 C 
ATOM     22  C   UNL A   1      37.228  31.124  30.871  1.00  0.00     0.029 A 
ATOM     23  N   UNL A   1      38.895  30.769  32.318  1.00  0.00    -0.354 N 
ATOM     24  C   UNL A   1      38.930  33.045  36.095  1.00  0.00     0.074 A 
ATOM     25  C   UNL A   1      37.765  33.892  36.173  1.00  0.00     0.031 C 
ATOM     26  C   UNL A   1      37.936  30.076  30.418  1.00  0.00     0.029 A 
ATOM     27  C   UNL A   1      39.080  29.867  31.298  1.00  0.00     0.049 A 
ATOM     28  H   UNL A   1      39.465  30.804  33.119  1.00  0.00     0.167 HD
ATOM     29  C   UNL A   1      39.840  32.901  37.081  1.00  0.00     0.037 A 
ATOM     30  C   UNL A   1      40.106  29.020  31.096  1.00  0.00     0.037 A 
ATOM     31  C   UNL A   1      40.995  32.062  36.944  1.00  0.00     0.049 A 
ATOM     32  C   UNL A   1      41.199  29.004  32.136  1.00  0.00     0.074 A 
ATOM     33  C   UNL A   1      42.058  31.898  37.808  1.00  0.00     0.029 A 
ATOM     34  N   UNL A   1      41.230  31.245  35.844  1.00  0.00    -0.354 N 
ATOM     35  N   UNL A   1      41.257  29.638  33.286  1.00  0.00    -0.248 NA
ATOM     36  C   UNL A   1      42.375  28.178  31.850  1.00  0.00     0.031 C 
ATOM     37  C   UNL A   1      42.969  31.028  37.200  1.00  0.00     0.029 A 
ATOM     38  C   UNL A   1      42.439  30.596  35.990  1.00  0.00     0.049 A 
ATOM     39  H   UNL A   1      40.624  31.145  35.074  1.00  0.00     0.167 HD
ATOM     40  C   UNL A   1      42.458  29.269  33.870  1.00  0.00     0.074 A 
ATOM     41  C   UNL A   1      43.089  28.337  32.955  1.00  0.00     0.031 C 
ATOM     42  C   UNL A   1      43.005  29.661  35.048  1.00  0.00     0.037 A 
BRANCH  29  43
ATOM     43  C   UNL A   1      39.673  33.756  38.301  1.00  0.00     0.064 A 
ATOM     44  C   UNL A   1      40.331  34.985  38.455  1.00  0.00     0.173 A 
ATOM     45  C   UNL A   1      38.865  33.308  39.356  1.00  0.00     0.173 A 
ATOM     46  F   UNL A   1      41.149  35.438  37.494  1.00  0.00    -0.203 F 
ATOM     47  C   UNL A   1      40.198  35.726  39.629  1.00  0.00     0.198 A 
ATOM     48  C   UNL A   1      38.714  34.061  40.517  1.00  0.00     0.198 A 
ATOM     49  F   UNL A   1      38.232  32.128  39.269  1.00  0.00    -0.203 F 
ATOM     50  F   UNL A   1      40.878  36.870  39.778  1.00  0.00    -0.200 F 
ATOM     51  C   UNL A   1      39.385  35.266  40.654  1.00  0.00     0.200 A 
ATOM     52  F   UNL A   1      37.931  33.613  41.507  1.00  0.00    -0.200 F 
ATOM     53  F   UNL A   1      39.260  35.977  41.784  1.00  0.00    -0.200 F 
ENDBRANCH  29  43
BRANCH  30  54
ATOM     54  C   UNL A   1      40.207  28.217  29.845  1.00  0.00     0.064 A 
ATOM     55  C   UNL A   1      40.919  28.680  28.730  1.00  0.00     0.173 A 
ATOM     56  C   UNL A   1      39.529  26.992  29.713  1.00  0.00     0.173 A 
ATOM     57  F   UNL A   1      41.569  29.851  28.789  1.00  0.00    -0.203 F 
ATOM     58  C   UNL A   1      40.916  27.974  27.526  1.00  0.00     0.198 A 
ATOM     59  C   UNL A   1      39.559  26.270  28.522  1.00  0.00     0.198 A 
ATOM     60  F   UNL A   1      38.824  26.497  30.741  1.00  0.00    -0.203 F 
ATOM     61  F   UNL A   1      41.546  28.479  26.456  1.00  0.00    -0.200 F 
ATOM     62  C   UNL A   1      40.239  26.769  27.424  1.00  0.00     0.200 A 
ATOM     63  F   UNL A   1      38.912  25.100  28.434  1.00  0.00    -0.200 F 
ATOM     64  F   UNL A   1      40.227  26.099  26.263  1.00  0.00    -0.200 F 
ENDBRANCH  30  54
BRANCH  42  65
ATOM     65  C   UNL A   1      44.316  29.044  35.425  1.00  0.00     0.064 A 
ATOM     66  C   UNL A   1      45.536  29.617  35.040  1.00  0.00     0.173 A 
ATOM     67  C   UNL A   1      44.345  27.901  36.238  1.00  0.00     0.173 A 
ATOM     68  F   UNL A   1      45.555  30.702  34.252  1.00  0.00    -0.203 F 
ATOM     69  C   UNL A   1      46.742  29.051  35.437  1.00  0.00     0.198 A 
ATOM     70  C   UNL A   1      45.552  27.362  36.664  1.00  0.00     0.198 A 
ATOM     71  F   UNL A   1      43.201  27.327  36.639  1.00  0.00    -0.203 F 
ATOM     72  F   UNL A   1      47.898  29.583  35.020  1.00  0.00    -0.200 F 
ATOM     73  C   UNL A   1      46.749  27.932  36.258  1.00  0.00     0.200 A 
ATOM     74  F   UNL A   1      45.556  26.294  37.475  1.00  0.00    -0.200 F 
ATOM     75  F   UNL A   1      47.912  27.399  36.655  1.00  0.00    -0.200 F 
ENDBRANCH  42  65
ENDBRANCH  16  17
ENDBRANCH   9  11
ENDBRANCH   8   9
ENDBRANCH   7   8
ENDBRANCH   6   7
ENDBRANCH   5   6
ENDBRANCH   4   5
ENDBRANCH   3   4
ENDBRANCH   2   3
ENDBRANCH   1   2
BRANCH   1  76
ATOM     76  C   UNL A   1      35.401  29.884  27.987  1.00  0.00     0.188 C 
BRANCH  76  77
ATOM     77  O   UNL A   1      34.734  28.696  27.602  1.00  0.00    -0.376 OA
BRANCH  77  78
ATOM     78  C   UNL A   1      33.519  28.649  26.874  1.00  0.00     0.202 C 
BRANCH  78  79
ATOM     79  C   UNL A   1      33.461  29.113  25.414  1.00  0.00     0.261 C 
BRANCH  79  80
ATOM     80  O   UNL A   1      32.192  29.710  25.070  1.00  0.00    -0.463 OA
BRANCH  80  81
ATOM     81  C   UNL A   1      31.746  29.460  23.816  1.00  0.00     0.312 C 
ATOM     82  O   UNL A   1      32.468  29.077  22.908  1.00  0.00    -0.252 OA
BRANCH  81  83
ATOM     83  C   UNL A   1      30.246  29.613  23.585  1.00  0.00     0.147 C 
ATOM     84  C   UNL A   1      29.544  28.254  23.516  1.00  0.00     0.128 C 
ATOM     85  C   UNL A   1      29.456  30.387  22.487  1.00  0.00     0.157 C 
ATOM     86  C   UNL A   1      28.274  28.582  22.728  1.00  0.00     0.155 C 
ATOM     87  C   UNL A   1      28.176  30.840  23.130  1.00  0.00     0.004 C 
ATOM     88  O   UNL A   1      28.868  29.343  21.660  1.00  0.00    -0.365 OA
ATOM     89  C   UNL A   1      27.472  29.713  23.338  1.00  0.00     0.004 C 
BRANCH  84  90
ATOM     90  C   UNL A   1      30.400  27.128  22.924  1.00  0.00     0.227 C 
ATOM     91  O   UNL A   1      30.583  27.127  21.699  1.00  0.00    -0.275 OA
ATOM     92  N   UNL A   1      30.957  26.084  23.599  1.00  0.00    -0.352 N 
ATOM     93  H   UNL A   1      31.278  25.367  23.004  1.00  0.00     0.163 HD
BRANCH  92  94
ATOM     94  C   UNL A   1      31.185  25.798  25.011  1.00  0.00     0.151 C 
BRANCH  94  95
ATOM     95  C   UNL A   1      32.517  25.188  25.393  1.00  0.00    -0.026 A 
ATOM     96  C   UNL A   1      32.512  24.166  26.360  1.00  0.00     0.025 A 
ATOM     97  C   UNL A   1      33.738  25.515  24.805  1.00  0.00     0.025 A 
ATOM     98  C   UNL A   1      33.689  23.493  26.648  1.00  0.00     0.111 A 
ATOM     99  C   UNL A   1      34.866  24.784  25.161  1.00  0.00     0.111 A 
ATOM    100  N   UNL A   1      34.863  23.770  26.053  1.00  0.00    -0.265 NA
ENDBRANCH  94  95
ENDBRANCH  92  94
ENDBRANCH  84  90
ENDBRANCH  81  83
ENDBRANCH  80  81
ENDBRANCH  79  80
ENDBRANCH  78  79
ENDBRANCH  77  78
ENDBRANCH  76  77
ENDBRANCH   1  76
TORSDOF 23
ENDMDL
MODEL 3
REMARK VINA RESULT:      -9.5      1.153      7.265
REMARK SMILES O=C(OCCOCCOCCOCCOC(=O)[C@@H]1[C@H](C(=O)NCc2ccncc2)[C@H]2C=C[C@@H]1O2)c1ccc(-c2c3nc(c(-c4c(F)c(F)c(F)c(F)c4F)c4ccc([nH]4)c(-c4c(F)c(F)c(F)c(F)c4F)c4nc(c(-c5c(F)c(F)c(F)c(F)c5F)c5ccc2[nH]5)C=C4)C=C3)cc1
REMARK SMILES IDX 10 1 9 2 8 3 7 4 6 5 5 6 4 7 3 8 2 9 1 10 35 11 36 12 97 13
REMARK SMILES IDX 37 14 96 15 38 16 39 17 40 18 90 19 41 20 95 21 89 22 91 23
REMARK SMILES IDX 42 24 94 25 88 26 87 27 43 29 75 30 55 31 74 32 56 33 59 34
REMARK SMILES IDX 73 35 92 36 57 37 58 38 72 40 93 41 60 42 44 43 45 44 53 45
REMARK SMILES IDX 46 46 47 47 51 48 54 49 48 50 49 51 52 52 50 53 76 54 77 55
REMARK SMILES IDX 85 56 78 57 79 58 83 59 86 60 80 61 81 62 84 63 82 64 61 65
REMARK SMILES IDX 62 66 70 67 63 68 64 69 68 70 71 71 65 72 66 73 69 74 67 75
REMARK SMILES IDX 11 76 12 77 13 78 14 79 15 80 16 81 17 82 18 83 19 84 33 85
REMARK SMILES IDX 30 86 32 87 34 88 31 89 20 90 21 91 22 92 23 94 24 95 25 96
REMARK SMILES IDX 29 97 26 98 28 99 27 100
REMARK H PARENT 91 28 59 39 22 93
REMARK Flexibility Score: inf
ROOT
ATOM      1  C   UNL A   1      32.818  30.771  27.214  1.00  0.00     0.188 C 
ENDROOT
BRANCH   1   2
ATOM      2  O   UNL A   1      31.972  31.868  26.917  1.00  0.00    -0.377 OA
BRANCH   2   3
ATOM      3  C   UNL A   1      32.469  33.136  27.313  1.00  0.00     0.188 C 
BRANCH   3   4
ATOM      4  C   UNL A   1      33.677  32.971  28.210  1.00  0.00     0.188 C 
BRANCH   4   5
ATOM      5  O   UNL A   1      34.024  34.162  28.902  1.00  0.00    -0.376 OA
BRANCH   5   6
ATOM      6  C   UNL A   1      33.244  35.326  28.654  1.00  0.00     0.202 C 
BRANCH   6   7
ATOM      7  C   UNL A   1      33.185  36.369  29.766  1.00  0.00     0.261 C 
BRANCH   7   8
ATOM      8  O   UNL A   1      32.549  36.057  31.026  1.00  0.00    -0.460 OA
BRANCH   8   9
ATOM      9  C   UNL A   1      32.764  35.248  32.081  1.00  0.00     0.338 C 
ATOM     10  O   UNL A   1      31.846  35.110  32.891  1.00  0.00    -0.246 OA
BRANCH   9  11
ATOM     11  C   UNL A   1      34.050  34.564  32.395  1.00  0.00     0.060 A 
ATOM     12  C   UNL A   1      34.144  33.303  32.960  1.00  0.00     0.016 A 
ATOM     13  C   UNL A   1      35.252  35.217  32.061  1.00  0.00     0.016 A 
ATOM     14  C   UNL A   1      35.337  32.607  33.008  1.00  0.00     0.010 A 
ATOM     15  C   UNL A   1      36.488  34.591  32.253  1.00  0.00     0.010 A 
ATOM     16  C   UNL A   1      36.518  33.271  32.710  1.00  0.00    -0.014 A 
BRANCH  16  17
ATOM     17  C   UNL A   1      37.732  32.620  33.214  1.00  0.00     0.031 A 
ATOM     18  C   UNL A   1      38.400  31.649  32.289  1.00  0.00     0.074 A 
ATOM     19  C   UNL A   1      38.328  33.082  34.325  1.00  0.00     0.049 A 
ATOM     20  N   UNL A   1      39.480  30.942  32.462  1.00  0.00    -0.248 NA
ATOM     21  C   UNL A   1      37.786  31.488  30.955  1.00  0.00     0.031 C 
ATOM     22  C   UNL A   1      37.842  34.198  35.140  1.00  0.00     0.029 A 
ATOM     23  N   UNL A   1      39.490  32.700  34.934  1.00  0.00    -0.354 N 
ATOM     24  C   UNL A   1      39.658  30.240  31.278  1.00  0.00     0.074 A 
ATOM     25  C   UNL A   1      38.597  30.619  30.378  1.00  0.00     0.031 C 
ATOM     26  C   UNL A   1      38.694  34.396  36.160  1.00  0.00     0.029 A 
ATOM     27  C   UNL A   1      39.740  33.381  36.101  1.00  0.00     0.049 A 
ATOM     28  H   UNL A   1      40.087  32.006  34.574  1.00  0.00     0.167 HD
ATOM     29  C   UNL A   1      40.618  29.335  30.993  1.00  0.00     0.037 A 
ATOM     30  C   UNL A   1      40.685  33.146  37.030  1.00  0.00     0.037 A 
ATOM     31  C   UNL A   1      41.640  28.977  31.934  1.00  0.00     0.049 A 
ATOM     32  C   UNL A   1      41.644  32.011  36.762  1.00  0.00     0.074 A 
ATOM     33  C   UNL A   1      42.612  28.003  31.834  1.00  0.00     0.029 A 
ATOM     34  N   UNL A   1      41.803  29.595  33.169  1.00  0.00    -0.354 N 
ATOM     35  N   UNL A   1      41.759  31.260  35.689  1.00  0.00    -0.248 NA
ATOM     36  C   UNL A   1      42.588  31.674  37.831  1.00  0.00     0.031 C 
ATOM     37  C   UNL A   1      43.325  27.990  33.037  1.00  0.00     0.029 A 
ATOM     38  C   UNL A   1      42.843  29.002  33.857  1.00  0.00     0.049 A 
ATOM     39  H   UNL A   1      41.258  30.344  33.503  1.00  0.00     0.167 HD
ATOM     40  C   UNL A   1      42.801  30.382  35.943  1.00  0.00     0.074 A 
ATOM     41  C   UNL A   1      43.299  30.709  37.266  1.00  0.00     0.031 C 
ATOM     42  C   UNL A   1      43.304  29.388  35.168  1.00  0.00     0.037 A 
BRANCH  29  43
ATOM     43  C   UNL A   1      40.512  28.608  29.687  1.00  0.00     0.064 A 
ATOM     44  C   UNL A   1      39.745  27.443  29.534  1.00  0.00     0.173 A 
ATOM     45  C   UNL A   1      41.232  29.071  28.576  1.00  0.00     0.173 A 
ATOM     46  F   UNL A   1      39.073  26.935  30.577  1.00  0.00    -0.203 F 
ATOM     47  C   UNL A   1      39.717  26.761  28.319  1.00  0.00     0.198 A 
ATOM     48  C   UNL A   1      41.182  28.401  27.357  1.00  0.00     0.198 A 
ATOM     49  F   UNL A   1      41.999  30.167  28.676  1.00  0.00    -0.203 F 
ATOM     50  F   UNL A   1      39.023  25.620  28.209  1.00  0.00    -0.200 F 
ATOM     51  C   UNL A   1      40.429  27.243  27.231  1.00  0.00     0.200 A 
ATOM     52  F   UNL A   1      41.874  28.868  26.309  1.00  0.00    -0.200 F 
ATOM     53  F   UNL A   1      40.404  26.584  26.064  1.00  0.00    -0.200 F 
ENDBRANCH  29  43
BRANCH  30  54
ATOM     54  C   UNL A   1      40.711  33.902  38.313  1.00  0.00     0.064 A 
ATOM     55  C   UNL A   1      39.858  33.574  39.376  1.00  0.00     0.173 A 
ATOM     56  C   UNL A   1      41.544  35.022  38.477  1.00  0.00     0.173 A 
ATOM     57  F   UNL A   1      39.026  32.528  39.270  1.00  0.00    -0.203 F 
ATOM     58  C   UNL A   1      39.810  34.356  40.532  1.00  0.00     0.198 A 
ATOM     59  C   UNL A   1      41.522  35.780  39.647  1.00  0.00     0.198 A 
ATOM     60  F   UNL A   1      42.378  35.394  37.494  1.00  0.00    -0.203 F 
ATOM     61  F   UNL A   1      38.933  34.059  41.501  1.00  0.00    -0.200 F 
ATOM     62  C   UNL A   1      40.643  35.456  40.667  1.00  0.00     0.200 A 
ATOM     63  F   UNL A   1      42.338  36.834  39.775  1.00  0.00    -0.200 F 
ATOM     64  F   UNL A   1      40.586  36.213  41.771  1.00  0.00    -0.200 F 
ENDBRANCH  30  54
BRANCH  42  65
ATOM     65  C   UNL A   1      44.474  28.631  35.715  1.00  0.00     0.064 A 
ATOM     66  C   UNL A   1      45.792  29.054  35.493  1.00  0.00     0.173 A 
ATOM     67  C   UNL A   1      44.265  27.507  36.527  1.00  0.00     0.173 A 
ATOM     68  F   UNL A   1      46.039  30.116  34.712  1.00  0.00    -0.203 F 
ATOM     69  C   UNL A   1      46.862  28.360  36.046  1.00  0.00     0.198 A 
ATOM     70  C   UNL A   1      45.335  26.840  37.109  1.00  0.00     0.198 A 
ATOM     71  F   UNL A   1      43.019  27.073  36.775  1.00  0.00    -0.203 F 
ATOM     72  F   UNL A   1      48.117  28.749  35.783  1.00  0.00    -0.200 F 
ATOM     73  C   UNL A   1      46.632  27.262  36.862  1.00  0.00     0.200 A 
ATOM     74  F   UNL A   1      45.110  25.793  37.915  1.00  0.00    -0.200 F 
ATOM     75  F   UNL A   1      47.664  26.606  37.410  1.00  0.00    -0.200 F 
ENDBRANCH  42  65
ENDBRANCH  16  17
ENDBRANCH   9  11
ENDBRANCH   8   9
ENDBRANCH   7   8
ENDBRANCH   6   7
ENDBRANCH   5   6
ENDBRANCH   4   5
ENDBRANCH   3   4
ENDBRANCH   2   3
ENDBRANCH   1   2
BRANCH   1  76
ATOM     76  C   UNL A   1      32.451  29.280  27.242  1.00  0.00     0.188 C 
BRANCH  76  77
ATOM     77  O   UNL A   1      32.567  28.422  26.122  1.00  0.00    -0.376 OA
BRANCH  77  78
ATOM     78  C   UNL A   1      33.736  27.704  25.769  1.00  0.00     0.202 C 
BRANCH  78  79
ATOM     79  C   UNL A   1      33.784  26.177  25.884  1.00  0.00     0.261 C 
BRANCH  79  80
ATOM     80  O   UNL A   1      32.473  25.573  25.826  1.00  0.00    -0.463 OA
BRANCH  80  81
ATOM     81  C   UNL A   1      32.353  24.371  26.439  1.00  0.00     0.312 C 
ATOM     82  O   UNL A   1      31.494  24.120  27.269  1.00  0.00    -0.252 OA
BRANCH  81  83
ATOM     83  C   UNL A   1      33.321  23.281  25.991  1.00  0.00     0.147 C 
ATOM     84  C   UNL A   1      33.187  22.984  24.496  1.00  0.00     0.128 C 
ATOM     85  C   UNL A   1      33.561  21.841  26.537  1.00  0.00     0.157 C 
ATOM     86  C   UNL A   1      33.746  21.563  24.393  1.00  0.00     0.155 C 
ATOM     87  C   UNL A   1      35.014  21.538  26.306  1.00  0.00     0.004 C 
ATOM     88  O   UNL A   1      33.040  20.967  25.496  1.00  0.00    -0.365 OA
ATOM     89  C   UNL A   1      35.139  21.431  24.971  1.00  0.00     0.004 C 
BRANCH  84  90
ATOM     90  C   UNL A   1      31.768  23.161  23.941  1.00  0.00     0.227 C 
ATOM     91  O   UNL A   1      30.873  22.442  24.405  1.00  0.00    -0.275 OA
ATOM     92  N   UNL A   1      31.380  24.006  22.945  1.00  0.00    -0.352 N 
ATOM     93  H   UNL A   1      30.480  23.806  22.598  1.00  0.00     0.163 HD
BRANCH  92  94
ATOM     94  C   UNL A   1      32.007  25.144  22.281  1.00  0.00     0.151 C 
BRANCH  94  95
ATOM     95  C   UNL A   1      31.566  26.528  22.706  1.00  0.00    -0.026 A 
ATOM     96  C   UNL A   1      32.441  27.599  22.448  1.00  0.00     0.025 A 
ATOM     97  C   UNL A   1      30.327  26.829  23.271  1.00  0.00     0.025 A 
ATOM     98  C   UNL A   1      32.028  28.897  22.704  1.00  0.00     0.111 A 
ATOM     99  C   UNL A   1      30.003  28.162  23.494  1.00  0.00     0.111 A 
ATOM    100  N   UNL A   1      30.817  29.201  23.205  1.00  0.00    -0.265 NA
ENDBRANCH  94  95
ENDBRANCH  92  94
ENDBRANCH  84  90
ENDBRANCH  81  83
ENDBRANCH  80  81
ENDBRANCH  79  80
ENDBRANCH  78  79
ENDBRANCH  77  78
ENDBRANCH  76  77
ENDBRANCH   1  76
TORSDOF 23
ENDMDL
