MODEL 1
REMARK VINA RESULT:     -10.6      0.000      0.000
REMARK SMILES Cc1cccc(-n2ncc(C(=O)Nc3cccc(C(=O)OCCOCCOCCOCCOC(=O)c4ccc(-c5c6nc(c(-c7c(F)c(F)c(F)c(F)c7F)c7ccc([nH]7)c(-c7c(F)c(F)c(F)c(F)c7F)c7nc(c(-c8c(F)c(F)c(F)c(F)c8F)c8ccc5[nH]8)C=C7)C=C6)cc4)c3C)c2C)c1
REMARK SMILES IDX 26 1 25 2 24 3 23 4 22 5 21 6 19 7 20 8 18 9 14 10 15 11
REMARK SMILES IDX 99 12 16 13 100 14 17 15 13 16 11 17 12 18 10 20 7 21 8 22
REMARK SMILES IDX 101 23 9 24 102 25 6 26 1 27 2 28 3 29 103 30 4 31 5 32
REMARK SMILES IDX 27 33 28 34 29 35 30 36 31 37 32 38 33 39 34 40 35 41 36 42
REMARK SMILES IDX 37 43 98 44 38 45 97 46 39 47 40 48 41 49 91 50 42 51 96 52
REMARK SMILES IDX 90 53 92 54 43 55 95 56 89 57 88 58 44 60 76 61 56 62 75 63
REMARK SMILES IDX 57 64 60 65 74 66 93 67 58 68 59 69 73 71 94 72 61 73 45 74
REMARK SMILES IDX 46 75 54 76 47 77 48 78 52 79 55 80 49 81 50 82 53 83 51 84
REMARK SMILES IDX 77 85 78 86 86 87 79 88 80 89 84 90 87 91 81 92 82 93 85 94
REMARK SMILES IDX 83 95 62 96 63 97 71 98 64 99 65 100 69 101 72 102 66 103
REMARK SMILES IDX 67 104 70 105 68 106
REMARK H PARENT 13 19 92 59 60 70
REMARK Flexibility Score: inf
ROOT
ATOM      1  C   UNL A   1      34.492  33.370  28.856  1.00  0.00     0.188 C 
ENDROOT
BRANCH   1   2
ATOM      2  C   UNL A   1      34.750  31.881  28.532  1.00  0.00     0.188 C 
BRANCH   2   3
ATOM      3  O   UNL A   1      36.055  31.463  28.132  1.00  0.00    -0.376 OA
BRANCH   3   4
ATOM      4  C   UNL A   1      36.177  30.190  27.509  1.00  0.00     0.202 C 
BRANCH   4   5
ATOM      5  C   UNL A   1      34.974  29.250  27.505  1.00  0.00     0.261 C 
BRANCH   5   6
ATOM      6  O   UNL A   1      34.448  29.057  26.196  1.00  0.00    -0.460 OA
BRANCH   6   7
ATOM      7  C   UNL A   1      33.147  29.271  26.002  1.00  0.00     0.338 C 
ATOM      8  O   UNL A   1      32.418  30.137  26.478  1.00  0.00    -0.246 OA
BRANCH   7   9
ATOM      9  C   UNL A   1      32.835  28.534  24.783  1.00  0.00     0.065 A 
ATOM     10  C   UNL A   1      31.606  26.786  23.714  1.00  0.00     0.045 A 
ATOM     11  C   UNL A   1      32.268  27.055  22.510  1.00  0.00     0.026 A 
ATOM     12  C   UNL A   1      31.824  27.557  24.857  1.00  0.00    -0.013 A 
ATOM     13  C   UNL A   1      33.210  28.082  22.445  1.00  0.00     0.003 A 
ATOM     14  C   UNL A   1      31.094  27.252  26.143  1.00  0.00     0.047 C 
ATOM     15  C   UNL A   1      33.517  28.813  23.592  1.00  0.00     0.016 A 
BRANCH  10  16
ATOM     16  N   UNL A   1      30.835  25.632  23.827  1.00  0.00    -0.322 N 
ATOM     17  C   UNL A   1      31.345  24.353  23.950  1.00  0.00     0.259 C 
ATOM     18  O   UNL A   1      30.557  23.447  24.219  1.00  0.00    -0.269 OA
ATOM     19  H   UNL A   1      29.856  25.734  23.818  1.00  0.00     0.170 HD
BRANCH  17  20
ATOM     20  C   UNL A   1      32.773  24.104  23.750  1.00  0.00     0.081 A 
ATOM     21  N   UNL A   1      34.903  23.585  24.148  1.00  0.00    -0.237 N 
ATOM     22  N   UNL A   1      34.867  23.907  22.837  1.00  0.00    -0.175 NA
ATOM     23  C   UNL A   1      33.694  23.868  24.765  1.00  0.00     0.054 A 
ATOM     24  C   UNL A   1      33.588  24.182  22.601  1.00  0.00     0.149 A 
ATOM     25  C   UNL A   1      33.492  24.002  26.232  1.00  0.00     0.068 C 
BRANCH  21  26
ATOM     26  C   UNL A   1      36.098  23.058  24.694  1.00  0.00     0.065 A 
ATOM     27  C   UNL A   1      38.881  24.262  26.991  1.00  0.00     0.044 C 
ATOM     28  C   UNL A   1      38.065  23.395  26.079  1.00  0.00    -0.049 A 
ATOM     29  C   UNL A   1      38.407  22.052  25.884  1.00  0.00     0.003 A 
ATOM     30  C   UNL A   1      36.921  23.902  25.455  1.00  0.00     0.031 A 
ATOM     31  C   UNL A   1      37.624  21.229  25.073  1.00  0.00     0.002 A 
ATOM     32  C   UNL A   1      36.468  21.728  24.477  1.00  0.00     0.028 A 
ENDBRANCH  21  26
ENDBRANCH  17  20
ENDBRANCH  10  16
ENDBRANCH   7   9
ENDBRANCH   6   7
ENDBRANCH   5   6
ENDBRANCH   4   5
ENDBRANCH   3   4
ENDBRANCH   2   3
ENDBRANCH   1   2
BRANCH   1  33
ATOM     33  O   UNL A   1      34.047  33.584  30.187  1.00  0.00    -0.377 OA
BRANCH  33  34
ATOM     34  C   UNL A   1      34.780  32.960  31.236  1.00  0.00     0.188 C 
BRANCH  34  35
ATOM     35  C   UNL A   1      34.351  33.360  32.652  1.00  0.00     0.188 C 
BRANCH  35  36
ATOM     36  O   UNL A   1      35.222  32.758  33.604  1.00  0.00    -0.376 OA
BRANCH  36  37
ATOM     37  C   UNL A   1      36.358  32.089  33.052  1.00  0.00     0.202 C 
BRANCH  37  38
ATOM     38  C   UNL A   1      37.342  31.658  34.138  1.00  0.00     0.261 C 
BRANCH  38  39
ATOM     39  O   UNL A   1      38.650  31.538  33.549  1.00  0.00    -0.460 OA
BRANCH  39  40
ATOM     40  C   UNL A   1      38.895  30.322  32.992  1.00  0.00     0.338 C 
ATOM     41  O   UNL A   1      38.524  29.252  33.447  1.00  0.00    -0.246 OA
BRANCH  40  42
ATOM     42  C   UNL A   1      39.889  30.457  31.887  1.00  0.00     0.060 A 
ATOM     43  C   UNL A   1      39.659  29.803  30.667  1.00  0.00     0.016 A 
ATOM     44  C   UNL A   1      41.144  31.005  32.139  1.00  0.00     0.016 A 
ATOM     45  C   UNL A   1      40.710  29.609  29.752  1.00  0.00     0.010 A 
ATOM     46  C   UNL A   1      42.190  30.746  31.263  1.00  0.00     0.010 A 
ATOM     47  C   UNL A   1      42.009  30.023  30.068  1.00  0.00    -0.014 A 
BRANCH  47  48
ATOM     48  C   UNL A   1      43.239  29.578  29.360  1.00  0.00     0.031 A 
ATOM     49  C   UNL A   1      43.636  28.116  29.309  1.00  0.00     0.074 A 
ATOM     50  C   UNL A   1      43.817  30.408  28.445  1.00  0.00     0.049 A 
ATOM     51  N   UNL A   1      44.593  27.658  28.567  1.00  0.00    -0.248 NA
ATOM     52  C   UNL A   1      43.004  27.026  30.063  1.00  0.00     0.031 C 
ATOM     53  C   UNL A   1      44.437  29.955  27.193  1.00  0.00     0.029 A 
ATOM     54  N   UNL A   1      43.861  31.813  28.316  1.00  0.00    -0.354 N 
ATOM     55  C   UNL A   1      44.390  26.313  28.384  1.00  0.00     0.074 A 
ATOM     56  C   UNL A   1      43.502  25.939  29.453  1.00  0.00     0.031 C 
ATOM     57  C   UNL A   1      44.859  30.988  26.463  1.00  0.00     0.029 A 
ATOM     58  C   UNL A   1      44.864  32.111  27.350  1.00  0.00     0.049 A 
ATOM     59  H   UNL A   1      43.306  32.464  28.801  1.00  0.00     0.167 HD
ATOM     60  C   UNL A   1      44.883  25.712  27.262  1.00  0.00     0.037 A 
ATOM     61  C   UNL A   1      46.031  32.760  27.644  1.00  0.00     0.037 A 
ATOM     62  C   UNL A   1      45.786  26.577  26.498  1.00  0.00     0.049 A 
ATOM     63  C   UNL A   1      47.282  31.941  27.397  1.00  0.00     0.074 A 
ATOM     64  C   UNL A   1      45.828  27.016  25.187  1.00  0.00     0.029 A 
ATOM     65  N   UNL A   1      46.813  27.246  27.163  1.00  0.00    -0.354 N 
ATOM     66  N   UNL A   1      47.249  30.640  27.287  1.00  0.00    -0.248 NA
ATOM     67  C   UNL A   1      48.636  32.458  27.221  1.00  0.00     0.031 C 
ATOM     68  C   UNL A   1      46.868  27.982  25.079  1.00  0.00     0.029 A 
ATOM     69  C   UNL A   1      47.486  28.095  26.314  1.00  0.00     0.049 A 
ATOM     70  H   UNL A   1      47.029  27.127  28.115  1.00  0.00     0.167 HD
ATOM     71  C   UNL A   1      48.485  30.150  26.986  1.00  0.00     0.074 A 
ATOM     72  C   UNL A   1      49.335  31.324  26.997  1.00  0.00     0.031 C 
ATOM     73  C   UNL A   1      48.672  28.816  26.760  1.00  0.00     0.037 A 
BRANCH  60  74
ATOM     74  C   UNL A   1      44.469  24.350  26.737  1.00  0.00     0.064 A 
ATOM     75  C   UNL A   1      45.449  23.398  26.367  1.00  0.00     0.173 A 
ATOM     76  C   UNL A   1      43.139  23.961  26.479  1.00  0.00     0.173 A 
ATOM     77  F   UNL A   1      46.755  23.647  26.536  1.00  0.00    -0.203 F 
ATOM     78  C   UNL A   1      45.121  22.159  25.805  1.00  0.00     0.198 A 
ATOM     79  C   UNL A   1      42.811  22.697  25.975  1.00  0.00     0.198 A 
ATOM     80  F   UNL A   1      42.115  24.805  26.650  1.00  0.00    -0.203 F 
ATOM     81  F   UNL A   1      46.094  21.317  25.429  1.00  0.00    -0.200 F 
ATOM     82  C   UNL A   1      43.801  21.798  25.632  1.00  0.00     0.200 A 
ATOM     83  F   UNL A   1      41.522  22.363  25.807  1.00  0.00    -0.200 F 
ATOM     84  F   UNL A   1      43.483  20.600  25.121  1.00  0.00    -0.200 F 
ENDBRANCH  60  74
BRANCH  61  85
ATOM     85  C   UNL A   1      45.805  33.903  28.552  1.00  0.00     0.064 A 
ATOM     86  C   UNL A   1      45.027  34.944  28.007  1.00  0.00     0.173 A 
ATOM     87  C   UNL A   1      45.750  33.695  29.936  1.00  0.00     0.173 A 
ATOM     88  F   UNL A   1      45.053  35.174  26.684  1.00  0.00    -0.203 F 
ATOM     89  C   UNL A   1      44.080  35.608  28.781  1.00  0.00     0.198 A 
ATOM     90  C   UNL A   1      44.800  34.368  30.708  1.00  0.00     0.198 A 
ATOM     91  F   UNL A   1      46.474  32.718  30.502  1.00  0.00    -0.203 F 
ATOM     92  F   UNL A   1      43.226  36.464  28.200  1.00  0.00    -0.200 F 
ATOM     93  C   UNL A   1      43.937  35.285  30.120  1.00  0.00     0.200 A 
ATOM     94  F   UNL A   1      44.632  34.039  31.996  1.00  0.00    -0.200 F 
ATOM     95  F   UNL A   1      42.928  35.811  30.828  1.00  0.00    -0.200 F 
ENDBRANCH  61  85
BRANCH  73  96
ATOM     96  C   UNL A   1      49.970  28.048  26.870  1.00  0.00     0.064 A 
ATOM     97  C   UNL A   1      50.587  27.737  28.092  1.00  0.00     0.173 A 
ATOM     98  C   UNL A   1      50.522  27.400  25.733  1.00  0.00     0.173 A 
ATOM     99  F   UNL A   1      50.115  28.207  29.254  1.00  0.00    -0.203 F 
ATOM    100  C   UNL A   1      51.678  26.865  28.170  1.00  0.00     0.198 A 
ATOM    101  C   UNL A   1      51.577  26.493  25.822  1.00  0.00     0.198 A 
ATOM    102  F   UNL A   1      50.027  27.586  24.501  1.00  0.00    -0.203 F 
ATOM    103  F   UNL A   1      52.236  26.611  29.363  1.00  0.00    -0.200 F 
ATOM    104  C   UNL A   1      52.160  26.231  27.042  1.00  0.00     0.200 A 
ATOM    105  F   UNL A   1      51.999  25.852  24.723  1.00  0.00    -0.200 F 
ATOM    106  F   UNL A   1      53.166  25.351  27.132  1.00  0.00    -0.200 F 
ENDBRANCH  73  96
ENDBRANCH  47  48
ENDBRANCH  40  42
ENDBRANCH  39  40
ENDBRANCH  38  39
ENDBRANCH  37  38
ENDBRANCH  36  37
ENDBRANCH  35  36
ENDBRANCH  34  35
ENDBRANCH  33  34
ENDBRANCH   1  33
TORSDOF 23
ENDMDL
MODEL 2
REMARK VINA RESULT:     -10.5      6.088     11.083
REMARK SMILES Cc1cccc(-n2ncc(C(=O)Nc3cccc(C(=O)OCCOCCOCCOCCOC(=O)c4ccc(-c5c6nc(c(-c7c(F)c(F)c(F)c(F)c7F)c7ccc([nH]7)c(-c7c(F)c(F)c(F)c(F)c7F)c7nc(c(-c8c(F)c(F)c(F)c(F)c8F)c8ccc5[nH]8)C=C7)C=C6)cc4)c3C)c2C)c1
REMARK SMILES IDX 26 1 25 2 24 3 23 4 22 5 21 6 19 7 20 8 18 9 14 10 15 11
REMARK SMILES IDX 99 12 16 13 100 14 17 15 13 16 11 17 12 18 10 20 7 21 8 22
REMARK SMILES IDX 101 23 9 24 102 25 6 26 1 27 2 28 3 29 103 30 4 31 5 32
REMARK SMILES IDX 27 33 28 34 29 35 30 36 31 37 32 38 33 39 34 40 35 41 36 42
REMARK SMILES IDX 37 43 98 44 38 45 97 46 39 47 40 48 41 49 91 50 42 51 96 52
REMARK SMILES IDX 90 53 92 54 43 55 95 56 89 57 88 58 44 60 76 61 56 62 75 63
REMARK SMILES IDX 57 64 60 65 74 66 93 67 58 68 59 69 73 71 94 72 61 73 45 74
REMARK SMILES IDX 46 75 54 76 47 77 48 78 52 79 55 80 49 81 50 82 53 83 51 84
REMARK SMILES IDX 77 85 78 86 86 87 79 88 80 89 84 90 87 91 81 92 82 93 85 94
REMARK SMILES IDX 83 95 62 96 63 97 71 98 64 99 65 100 69 101 72 102 66 103
REMARK SMILES IDX 67 104 70 105 68 106
REMARK H PARENT 13 19 92 59 60 70
REMARK Flexibility Score: inf
ROOT
ATOM      1  C   UNL A   1      38.035  20.930  25.550  1.00  0.00     0.188 C 
ENDROOT
BRANCH   1   2
ATOM      2  C   UNL A   1      37.401  21.858  24.489  1.00  0.00     0.188 C 
BRANCH   2   3
ATOM      3  O   UNL A   1      35.986  22.047  24.474  1.00  0.00    -0.376 OA
BRANCH   3   4
ATOM      4  C   UNL A   1      35.210  21.289  25.395  1.00  0.00     0.202 C 
BRANCH   4   5
ATOM      5  C   UNL A   1      34.287  22.023  26.365  1.00  0.00     0.261 C 
BRANCH   5   6
ATOM      6  O   UNL A   1      33.029  21.371  26.505  1.00  0.00    -0.460 OA
BRANCH   6   7
ATOM      7  C   UNL A   1      32.356  21.054  25.398  1.00  0.00     0.338 C 
ATOM      8  O   UNL A   1      32.021  19.952  24.976  1.00  0.00    -0.246 OA
BRANCH   7   9
ATOM      9  C   UNL A   1      31.720  22.302  24.991  1.00  0.00     0.065 A 
ATOM     10  C   UNL A   1      31.441  24.004  23.338  1.00  0.00     0.045 A 
ATOM     11  C   UNL A   1      30.597  24.709  24.204  1.00  0.00     0.026 A 
ATOM     12  C   UNL A   1      31.969  22.758  23.683  1.00  0.00    -0.013 A 
ATOM     13  C   UNL A   1      30.305  24.194  25.467  1.00  0.00     0.003 A 
ATOM     14  C   UNL A   1      32.871  22.014  22.729  1.00  0.00     0.047 C 
ATOM     15  C   UNL A   1      30.888  22.996  25.877  1.00  0.00     0.016 A 
BRANCH  10  16
ATOM     16  N   UNL A   1      31.898  24.621  22.176  1.00  0.00    -0.322 N 
ATOM     17  C   UNL A   1      32.841  25.630  22.138  1.00  0.00     0.259 C 
ATOM     18  O   UNL A   1      33.281  25.961  21.037  1.00  0.00    -0.269 OA
ATOM     19  H   UNL A   1      31.520  24.316  21.318  1.00  0.00     0.170 HD
BRANCH  17  20
ATOM     20  C   UNL A   1      33.278  26.281  23.374  1.00  0.00     0.081 A 
ATOM     21  N   UNL A   1      33.573  27.813  24.964  1.00  0.00    -0.237 N 
ATOM     22  N   UNL A   1      34.269  26.737  25.391  1.00  0.00    -0.175 NA
ATOM     23  C   UNL A   1      33.115  27.630  23.668  1.00  0.00     0.054 A 
ATOM     24  C   UNL A   1      34.059  25.818  24.454  1.00  0.00     0.149 A 
ATOM     25  C   UNL A   1      32.659  28.715  22.759  1.00  0.00     0.068 C 
BRANCH  21  26
ATOM     26  C   UNL A   1      33.431  28.926  25.827  1.00  0.00     0.065 A 
ATOM     27  C   UNL A   1      35.574  30.775  28.367  1.00  0.00     0.044 C 
ATOM     28  C   UNL A   1      34.408  30.375  27.514  1.00  0.00    -0.049 A 
ATOM     29  C   UNL A   1      33.254  31.167  27.472  1.00  0.00     0.003 A 
ATOM     30  C   UNL A   1      34.479  29.235  26.708  1.00  0.00     0.031 A 
ATOM     31  C   UNL A   1      32.185  30.823  26.645  1.00  0.00     0.002 A 
ATOM     32  C   UNL A   1      32.270  29.704  25.819  1.00  0.00     0.028 A 
ENDBRANCH  21  26
ENDBRANCH  17  20
ENDBRANCH  10  16
ENDBRANCH   7   9
ENDBRANCH   6   7
ENDBRANCH   5   6
ENDBRANCH   4   5
ENDBRANCH   3   4
ENDBRANCH   2   3
ENDBRANCH   1   2
BRANCH   1  33
ATOM     33  O   UNL A   1      39.403  21.220  25.801  1.00  0.00    -0.377 OA
BRANCH  33  34
ATOM     34  C   UNL A   1      39.697  22.323  26.651  1.00  0.00     0.188 C 
BRANCH  34  35
ATOM     35  C   UNL A   1      41.142  22.830  26.575  1.00  0.00     0.188 C 
BRANCH  35  36
ATOM     36  O   UNL A   1      41.895  21.999  25.698  1.00  0.00    -0.376 OA
BRANCH  36  37
ATOM     37  C   UNL A   1      43.065  22.601  25.142  1.00  0.00     0.202 C 
BRANCH  37  38
ATOM     38  C   UNL A   1      44.342  21.984  25.708  1.00  0.00     0.261 C 
BRANCH  38  39
ATOM     39  O   UNL A   1      45.308  23.032  25.908  1.00  0.00    -0.460 OA
BRANCH  39  40
ATOM     40  C   UNL A   1      44.803  24.141  26.511  1.00  0.00     0.338 C 
ATOM     41  O   UNL A   1      44.421  25.144  25.929  1.00  0.00    -0.246 OA
BRANCH  40  42
ATOM     42  C   UNL A   1      45.010  24.061  27.986  1.00  0.00     0.060 A 
ATOM     43  C   UNL A   1      44.122  23.306  28.769  1.00  0.00     0.016 A 
ATOM     44  C   UNL A   1      45.907  24.921  28.614  1.00  0.00     0.016 A 
ATOM     45  C   UNL A   1      44.064  23.492  30.162  1.00  0.00     0.010 A 
ATOM     46  C   UNL A   1      45.792  25.149  29.979  1.00  0.00     0.010 A 
ATOM     47  C   UNL A   1      44.856  24.465  30.780  1.00  0.00    -0.014 A 
BRANCH  47  48
ATOM     48  C   UNL A   1      44.642  24.988  32.156  1.00  0.00     0.031 A 
ATOM     49  C   UNL A   1      44.063  26.368  32.396  1.00  0.00     0.074 A 
ATOM     50  C   UNL A   1      44.609  24.113  33.202  1.00  0.00     0.049 A 
ATOM     51  N   UNL A   1      43.698  26.801  33.561  1.00  0.00    -0.248 NA
ATOM     52  C   UNL A   1      43.824  27.391  31.370  1.00  0.00     0.031 C 
ATOM     53  C   UNL A   1      43.714  24.241  34.359  1.00  0.00     0.029 A 
ATOM     54  N   UNL A   1      45.218  22.859  33.424  1.00  0.00    -0.354 N 
ATOM     55  C   UNL A   1      42.814  27.834  33.378  1.00  0.00     0.074 A 
ATOM     56  C   UNL A   1      43.051  28.269  32.026  1.00  0.00     0.031 C 
ATOM     57  C   UNL A   1      43.852  23.208  35.191  1.00  0.00     0.029 A 
ATOM     58  C   UNL A   1      45.072  22.566  34.810  1.00  0.00     0.049 A 
ATOM     59  H   UNL A   1      45.659  22.293  32.751  1.00  0.00     0.167 HD
ATOM     60  C   UNL A   1      41.889  28.098  34.346  1.00  0.00     0.037 A 
ATOM     61  C   UNL A   1      46.122  22.491  35.683  1.00  0.00     0.037 A 
ATOM     62  C   UNL A   1      42.129  27.355  35.586  1.00  0.00     0.049 A 
ATOM     63  C   UNL A   1      46.082  23.517  36.798  1.00  0.00     0.074 A 
ATOM     64  C   UNL A   1      41.372  26.497  36.364  1.00  0.00     0.029 A 
ATOM     65  N   UNL A   1      43.407  27.355  36.145  1.00  0.00    -0.354 N 
ATOM     66  N   UNL A   1      45.349  24.595  36.723  1.00  0.00    -0.248 NA
ATOM     67  C   UNL A   1      46.794  23.444  38.071  1.00  0.00     0.031 C 
ATOM     68  C   UNL A   1      42.217  25.956  37.373  1.00  0.00     0.029 A 
ATOM     69  C   UNL A   1      43.475  26.521  37.236  1.00  0.00     0.049 A 
ATOM     70  H   UNL A   1      44.162  27.886  35.802  1.00  0.00     0.167 HD
ATOM     71  C   UNL A   1      45.423  25.311  37.881  1.00  0.00     0.074 A 
ATOM     72  C   UNL A   1      46.376  24.571  38.684  1.00  0.00     0.031 C 
ATOM     73  C   UNL A   1      44.682  26.447  38.049  1.00  0.00     0.037 A 
BRANCH  60  74
ATOM     74  C   UNL A   1      40.647  28.950  34.170  1.00  0.00     0.064 A 
ATOM     75  C   UNL A   1      40.411  30.057  35.020  1.00  0.00     0.173 A 
ATOM     76  C   UNL A   1      39.606  28.673  33.260  1.00  0.00     0.173 A 
ATOM     77  F   UNL A   1      41.308  30.420  35.949  1.00  0.00    -0.203 F 
ATOM     78  C   UNL A   1      39.245  30.827  34.950  1.00  0.00     0.198 A 
ATOM     79  C   UNL A   1      38.469  29.481  33.149  1.00  0.00     0.198 A 
ATOM     80  F   UNL A   1      39.623  27.580  32.486  1.00  0.00    -0.203 F 
ATOM     81  F   UNL A   1      39.056  31.835  35.814  1.00  0.00    -0.200 F 
ATOM     82  C   UNL A   1      38.284  30.554  33.998  1.00  0.00     0.200 A 
ATOM     83  F   UNL A   1      37.541  29.199  32.223  1.00  0.00    -0.200 F 
ATOM     84  F   UNL A   1      37.180  31.308  33.909  1.00  0.00    -0.200 F 
ENDBRANCH  60  74
BRANCH  61  85
ATOM     85  C   UNL A   1      47.266  21.764  35.100  1.00  0.00     0.064 A 
ATOM     86  C   UNL A   1      48.238  22.583  34.490  1.00  0.00     0.173 A 
ATOM     87  C   UNL A   1      47.689  20.554  35.668  1.00  0.00     0.173 A 
ATOM     88  F   UNL A   1      47.872  23.750  33.935  1.00  0.00    -0.203 F 
ATOM     89  C   UNL A   1      49.594  22.306  34.627  1.00  0.00     0.198 A 
ATOM     90  C   UNL A   1      49.052  20.281  35.799  1.00  0.00     0.198 A 
ATOM     91  F   UNL A   1      46.802  19.740  36.258  1.00  0.00    -0.203 F 
ATOM     92  F   UNL A   1      50.503  23.194  34.197  1.00  0.00    -0.200 F 
ATOM     93  C   UNL A   1      49.999  21.179  35.321  1.00  0.00     0.200 A 
ATOM     94  F   UNL A   1      49.453  19.209  36.498  1.00  0.00    -0.200 F 
ATOM     95  F   UNL A   1      51.300  20.990  35.586  1.00  0.00    -0.200 F 
ENDBRANCH  61  85
BRANCH  73  96
ATOM     96  C   UNL A   1      44.958  27.577  39.015  1.00  0.00     0.064 A 
ATOM     97  C   UNL A   1      44.876  27.445  40.410  1.00  0.00     0.173 A 
ATOM     98  C   UNL A   1      45.542  28.789  38.557  1.00  0.00     0.173 A 
ATOM     99  F   UNL A   1      44.429  26.319  40.980  1.00  0.00    -0.203 F 
ATOM    100  C   UNL A   1      45.322  28.448  41.277  1.00  0.00     0.198 A 
ATOM    101  C   UNL A   1      46.032  29.763  39.424  1.00  0.00     0.198 A 
ATOM    102  F   UNL A   1      45.703  29.049  37.251  1.00  0.00    -0.203 F 
ATOM    103  F   UNL A   1      45.210  28.273  42.601  1.00  0.00    -0.200 F 
ATOM    104  C   UNL A   1      45.915  29.596  40.787  1.00  0.00     0.200 A 
ATOM    105  F   UNL A   1      46.646  30.848  38.931  1.00  0.00    -0.200 F 
ATOM    106  F   UNL A   1      46.394  30.525  41.624  1.00  0.00    -0.200 F 
ENDBRANCH  73  96
ENDBRANCH  47  48
ENDBRANCH  40  42
ENDBRANCH  39  40
ENDBRANCH  38  39
ENDBRANCH  37  38
ENDBRANCH  36  37
ENDBRANCH  35  36
ENDBRANCH  34  35
ENDBRANCH  33  34
ENDBRANCH   1  33
TORSDOF 23
ENDMDL
MODEL 3
REMARK VINA RESULT:     -10.4      1.042      2.128
REMARK SMILES Cc1cccc(-n2ncc(C(=O)Nc3cccc(C(=O)OCCOCCOCCOCCOC(=O)c4ccc(-c5c6nc(c(-c7c(F)c(F)c(F)c(F)c7F)c7ccc([nH]7)c(-c7c(F)c(F)c(F)c(F)c7F)c7nc(c(-c8c(F)c(F)c(F)c(F)c8F)c8ccc5[nH]8)C=C7)C=C6)cc4)c3C)c2C)c1
REMARK SMILES IDX 26 1 25 2 24 3 23 4 22 5 21 6 19 7 20 8 18 9 14 10 15 11
REMARK SMILES IDX 99 12 16 13 100 14 17 15 13 16 11 17 12 18 10 20 7 21 8 22
REMARK SMILES IDX 101 23 9 24 102 25 6 26 1 27 2 28 3 29 103 30 4 31 5 32
REMARK SMILES IDX 27 33 28 34 29 35 30 36 31 37 32 38 33 39 34 40 35 41 36 42
REMARK SMILES IDX 37 43 98 44 38 45 97 46 39 47 40 48 41 49 91 50 42 51 96 52
REMARK SMILES IDX 90 53 92 54 43 55 95 56 89 57 88 58 44 60 76 61 56 62 75 63
REMARK SMILES IDX 57 64 60 65 74 66 93 67 58 68 59 69 73 71 94 72 61 73 45 74
REMARK SMILES IDX 46 75 54 76 47 77 48 78 52 79 55 80 49 81 50 82 53 83 51 84
REMARK SMILES IDX 77 85 78 86 86 87 79 88 80 89 84 90 87 91 81 92 82 93 85 94
REMARK SMILES IDX 83 95 62 96 63 97 71 98 64 99 65 100 69 101 72 102 66 103
REMARK SMILES IDX 67 104 70 105 68 106
REMARK H PARENT 13 19 92 59 60 70
REMARK Flexibility Score: inf
ROOT
ATOM      1  C   UNL A   1      34.286  33.401  28.843  1.00  0.00     0.188 C 
ENDROOT
BRANCH   1   2
ATOM      2  C   UNL A   1      34.602  31.919  28.537  1.00  0.00     0.188 C 
BRANCH   2   3
ATOM      3  O   UNL A   1      35.920  31.551  28.127  1.00  0.00    -0.376 OA
BRANCH   3   4
ATOM      4  C   UNL A   1      36.088  30.275  27.520  1.00  0.00     0.202 C 
BRANCH   4   5
ATOM      5  C   UNL A   1      34.948  29.263  27.597  1.00  0.00     0.261 C 
BRANCH   5   6
ATOM      6  O   UNL A   1      34.493  28.868  26.307  1.00  0.00    -0.460 OA
BRANCH   6   7
ATOM      7  C   UNL A   1      33.248  29.191  25.952  1.00  0.00     0.338 C 
ATOM      8  O   UNL A   1      32.528  30.096  26.363  1.00  0.00    -0.246 OA
BRANCH   7   9
ATOM      9  C   UNL A   1      33.049  28.520  24.673  1.00  0.00     0.065 A 
ATOM     10  C   UNL A   1      31.795  26.973  23.354  1.00  0.00     0.045 A 
ATOM     11  C   UNL A   1      32.679  27.162  22.286  1.00  0.00     0.026 A 
ATOM     12  C   UNL A   1      31.919  27.691  24.545  1.00  0.00    -0.013 A 
ATOM     13  C   UNL A   1      33.748  28.049  22.414  1.00  0.00     0.003 A 
ATOM     14  C   UNL A   1      30.949  27.474  25.680  1.00  0.00     0.047 C 
ATOM     15  C   UNL A   1      33.953  28.716  23.622  1.00  0.00     0.016 A 
BRANCH  10  16
ATOM     16  N   UNL A   1      30.867  25.935  23.298  1.00  0.00    -0.322 N 
ATOM     17  C   UNL A   1      31.186  24.590  23.341  1.00  0.00     0.259 C 
ATOM     18  O   UNL A   1      30.261  23.787  23.460  1.00  0.00    -0.269 OA
ATOM     19  H   UNL A   1      29.915  26.176  23.221  1.00  0.00     0.170 HD
BRANCH  17  20
ATOM     20  C   UNL A   1      32.579  24.157  23.232  1.00  0.00     0.081 A 
ATOM     21  N   UNL A   1      34.641  23.516  23.781  1.00  0.00    -0.237 N 
ATOM     22  N   UNL A   1      34.641  23.552  22.431  1.00  0.00    -0.175 NA
ATOM     23  C   UNL A   1      33.469  24.048  24.295  1.00  0.00     0.054 A 
ATOM     24  C   UNL A   1      33.399  23.902  22.112  1.00  0.00     0.149 A 
ATOM     25  C   UNL A   1      33.281  24.514  25.695  1.00  0.00     0.068 C 
BRANCH  21  26
ATOM     26  C   UNL A   1      35.773  22.997  24.455  1.00  0.00     0.065 A 
ATOM     27  C   UNL A   1      38.517  24.327  26.728  1.00  0.00     0.044 C 
ATOM     28  C   UNL A   1      37.690  23.397  25.891  1.00  0.00    -0.049 A 
ATOM     29  C   UNL A   1      37.954  22.022  25.888  1.00  0.00     0.003 A 
ATOM     30  C   UNL A   1      36.612  23.883  25.146  1.00  0.00     0.031 A 
ATOM     31  C   UNL A   1      37.158  21.147  25.147  1.00  0.00     0.002 A 
ATOM     32  C   UNL A   1      36.065  21.631  24.430  1.00  0.00     0.028 A 
ENDBRANCH  21  26
ENDBRANCH  17  20
ENDBRANCH  10  16
ENDBRANCH   7   9
ENDBRANCH   6   7
ENDBRANCH   5   6
ENDBRANCH   4   5
ENDBRANCH   3   4
ENDBRANCH   2   3
ENDBRANCH   1   2
BRANCH   1  33
ATOM     33  O   UNL A   1      33.942  33.631  30.202  1.00  0.00    -0.377 OA
BRANCH  33  34
ATOM     34  C   UNL A   1      34.675  32.922  31.195  1.00  0.00     0.188 C 
BRANCH  34  35
ATOM     35  C   UNL A   1      34.468  33.420  32.630  1.00  0.00     0.188 C 
BRANCH  35  36
ATOM     36  O   UNL A   1      35.368  32.748  33.505  1.00  0.00    -0.376 OA
BRANCH  36  37
ATOM     37  C   UNL A   1      36.389  31.986  32.859  1.00  0.00     0.202 C 
BRANCH  37  38
ATOM     38  C   UNL A   1      37.433  31.482  33.855  1.00  0.00     0.261 C 
BRANCH  38  39
ATOM     39  O   UNL A   1      38.716  31.464  33.204  1.00  0.00    -0.460 OA
BRANCH  39  40
ATOM     40  C   UNL A   1      39.123  30.226  32.818  1.00  0.00     0.338 C 
ATOM     41  O   UNL A   1      38.815  29.181  33.370  1.00  0.00    -0.246 OA
BRANCH  40  42
ATOM     42  C   UNL A   1      40.192  30.338  31.783  1.00  0.00     0.060 A 
ATOM     43  C   UNL A   1      39.941  29.883  30.479  1.00  0.00     0.016 A 
ATOM     44  C   UNL A   1      41.497  30.646  32.156  1.00  0.00     0.016 A 
ATOM     45  C   UNL A   1      41.004  29.639  29.591  1.00  0.00     0.010 A 
ATOM     46  C   UNL A   1      42.543  30.335  31.298  1.00  0.00     0.010 A 
ATOM     47  C   UNL A   1      42.329  29.802  30.012  1.00  0.00    -0.014 A 
BRANCH  47  48
ATOM     48  C   UNL A   1      43.519  29.259  29.304  1.00  0.00     0.031 A 
ATOM     49  C   UNL A   1      43.786  27.768  29.235  1.00  0.00     0.074 A 
ATOM     50  C   UNL A   1      44.172  30.047  28.401  1.00  0.00     0.049 A 
ATOM     51  N   UNL A   1      44.703  27.237  28.492  1.00  0.00    -0.248 NA
ATOM     52  C   UNL A   1      43.057  26.729  29.973  1.00  0.00     0.031 C 
ATOM     53  C   UNL A   1      44.757  29.556  27.146  1.00  0.00     0.029 A 
ATOM     54  N   UNL A   1      44.341  31.444  28.291  1.00  0.00    -0.354 N 
ATOM     55  C   UNL A   1      44.384  25.918  28.291  1.00  0.00     0.074 A 
ATOM     56  C   UNL A   1      43.460  25.611  29.352  1.00  0.00     0.031 C 
ATOM     57  C   UNL A   1      45.272  30.557  26.432  1.00  0.00     0.029 A 
ATOM     58  C   UNL A   1      45.371  31.664  27.333  1.00  0.00     0.049 A 
ATOM     59  H   UNL A   1      43.842  32.135  28.782  1.00  0.00     0.167 HD
ATOM     60  C   UNL A   1      44.828  25.289  27.163  1.00  0.00     0.037 A 
ATOM     61  C   UNL A   1      46.589  32.204  27.641  1.00  0.00     0.037 A 
ATOM     62  C   UNL A   1      45.807  26.081  26.414  1.00  0.00     0.049 A 
ATOM     63  C   UNL A   1      47.765  31.282  27.388  1.00  0.00     0.074 A 
ATOM     64  C   UNL A   1      45.895  26.531  25.109  1.00  0.00     0.029 A 
ATOM     65  N   UNL A   1      46.886  26.650  27.091  1.00  0.00    -0.354 N 
ATOM     66  N   UNL A   1      47.618  29.990  27.261  1.00  0.00    -0.248 NA
ATOM     67  C   UNL A   1      49.160  31.679  27.225  1.00  0.00     0.031 C 
ATOM     68  C   UNL A   1      47.016  27.403  25.018  1.00  0.00     0.029 A 
ATOM     69  C   UNL A   1      47.635  27.446  26.257  1.00  0.00     0.049 A 
ATOM     70  H   UNL A   1      47.085  26.499  28.044  1.00  0.00     0.167 HD
ATOM     71  C   UNL A   1      48.808  29.397  26.959  1.00  0.00     0.074 A 
ATOM     72  C   UNL A   1      49.758  30.491  26.988  1.00  0.00     0.031 C 
ATOM     73  C   UNL A   1      48.877  28.054  26.717  1.00  0.00     0.037 A 
BRANCH  60  74
ATOM     74  C   UNL A   1      44.299  23.976  26.620  1.00  0.00     0.064 A 
ATOM     75  C   UNL A   1      42.909  23.787  26.433  1.00  0.00     0.173 A 
ATOM     76  C   UNL A   1      45.090  22.837  26.364  1.00  0.00     0.173 A 
ATOM     77  F   UNL A   1      42.037  24.780  26.663  1.00  0.00    -0.203 F 
ATOM     78  C   UNL A   1      42.364  22.570  26.009  1.00  0.00     0.198 A 
ATOM     79  C   UNL A   1      44.549  21.640  25.880  1.00  0.00     0.198 A 
ATOM     80  F   UNL A   1      46.402  22.822  26.624  1.00  0.00    -0.203 F 
ATOM     81  F   UNL A   1      41.035  22.435  25.896  1.00  0.00    -0.200 F 
ATOM     82  C   UNL A   1      43.186  21.504  25.709  1.00  0.00     0.200 A 
ATOM     83  F   UNL A   1      45.361  20.611  25.598  1.00  0.00    -0.200 F 
ATOM     84  F   UNL A   1      42.670  20.346  25.274  1.00  0.00    -0.200 F 
ENDBRANCH  60  74
BRANCH  61  85
ATOM     85  C   UNL A   1      46.460  33.351  28.561  1.00  0.00     0.064 A 
ATOM     86  C   UNL A   1      46.911  33.108  29.874  1.00  0.00     0.173 A 
ATOM     87  C   UNL A   1      46.552  34.659  28.066  1.00  0.00     0.173 A 
ATOM     88  F   UNL A   1      46.840  31.868  30.385  1.00  0.00    -0.203 F 
ATOM     89  C   UNL A   1      47.613  34.080  30.580  1.00  0.00     0.198 A 
ATOM     90  C   UNL A   1      47.255  35.631  28.781  1.00  0.00     0.198 A 
ATOM     91  F   UNL A   1      46.134  34.941  26.823  1.00  0.00    -0.203 F 
ATOM     92  F   UNL A   1      48.191  33.768  31.749  1.00  0.00    -0.200 F 
ATOM     93  C   UNL A   1      47.823  35.325  30.012  1.00  0.00     0.200 A 
ATOM     94  F   UNL A   1      47.491  36.828  28.225  1.00  0.00    -0.200 F 
ATOM     95  F   UNL A   1      48.626  36.210  30.621  1.00  0.00    -0.200 F 
ENDBRANCH  61  85
BRANCH  73  96
ATOM     96  C   UNL A   1      50.102  27.174  26.823  1.00  0.00     0.064 A 
ATOM     97  C   UNL A   1      50.732  26.582  25.717  1.00  0.00     0.173 A 
ATOM     98  C   UNL A   1      50.821  27.084  28.045  1.00  0.00     0.173 A 
ATOM     99  F   UNL A   1      50.210  26.668  24.486  1.00  0.00    -0.203 F 
ATOM    100  C   UNL A   1      51.967  25.935  25.825  1.00  0.00     0.198 A 
ATOM    101  C   UNL A   1      52.075  26.484  28.139  1.00  0.00     0.198 A 
ATOM    102  F   UNL A   1      50.353  27.618  29.183  1.00  0.00    -0.203 F 
ATOM    103  F   UNL A   1      52.519  25.377  24.738  1.00  0.00    -0.200 F 
ATOM    104  C   UNL A   1      52.646  25.902  27.029  1.00  0.00     0.200 A 
ATOM    105  F   UNL A   1      52.738  26.503  29.304  1.00  0.00    -0.200 F 
ATOM    106  F   UNL A   1      53.856  25.335  27.112  1.00  0.00    -0.200 F 
ENDBRANCH  73  96
ENDBRANCH  47  48
ENDBRANCH  40  42
ENDBRANCH  39  40
ENDBRANCH  38  39
ENDBRANCH  37  38
ENDBRANCH  36  37
ENDBRANCH  35  36
ENDBRANCH  34  35
ENDBRANCH  33  34
ENDBRANCH   1  33
TORSDOF 23
ENDMDL
