MODEL 1
REMARK VINA RESULT:     -10.5      0.000      0.000
REMARK SMILES O=C(Cc1cccn1-c1ccc2c(c1)OCCO2)OCCOCCOCCOCCOC(=O)c1ccc(-c2c3nc(c(-c4c(F)c(F)c(F)c(F)c4F)c4ccc([nH]4)c(-c4c(F)c(F)c(F)c(F)c4F)c4nc(c(-c5c(F)c(F)c(F)c(F)c5F)c5ccc2[nH]5)C=C4)C=C3)cc1
REMARK SMILES IDX 25 1 24 2 23 3 22 4 21 5 20 6 19 7 2 8 1 9 3 10 4 11 5 12
REMARK SMILES IDX 8 13 6 14 7 15 9 16 10 17 14 18 11 19 13 20 12 21 15 22
REMARK SMILES IDX 18 23 16 24 17 25 26 26 27 27 28 28 29 29 30 30 31 31 32 32
REMARK SMILES IDX 33 33 34 34 35 35 96 36 36 37 95 38 37 39 38 40 39 41 89 42
REMARK SMILES IDX 40 43 94 44 88 45 90 46 41 47 93 48 87 49 86 50 42 52 74 53
REMARK SMILES IDX 54 54 73 55 55 56 58 57 72 58 91 59 56 60 57 61 71 63 92 64
REMARK SMILES IDX 59 65 43 66 44 67 52 68 45 69 46 70 50 71 53 72 47 73 48 74
REMARK SMILES IDX 51 75 49 76 75 77 76 78 84 79 77 80 78 81 82 82 85 83 79 84
REMARK SMILES IDX 80 85 83 86 81 87 60 88 61 89 69 90 62 91 63 92 67 93 70 94
REMARK SMILES IDX 64 95 65 96 68 97 66 98
REMARK H PARENT 90 51 58 62
REMARK Flexibility Score: inf
ROOT
ATOM      1  O   UNL A   1      33.924  36.157  29.955  1.00  0.00    -0.377 OA
ENDROOT
BRANCH   1   2
ATOM      2  C   UNL A   1      33.661  35.789  28.603  1.00  0.00     0.188 C 
BRANCH   2   3
ATOM      3  C   UNL A   1      33.782  34.288  28.345  1.00  0.00     0.188 C 
BRANCH   3   4
ATOM      4  O   UNL A   1      32.624  33.622  27.866  1.00  0.00    -0.376 OA
BRANCH   4   5
ATOM      5  C   UNL A   1      32.614  32.259  27.484  1.00  0.00     0.202 C 
BRANCH   5   6
ATOM      6  C   UNL A   1      33.825  31.376  27.741  1.00  0.00     0.261 C 
BRANCH   6   7
ATOM      7  O   UNL A   1      33.813  30.004  27.296  1.00  0.00    -0.463 OA
BRANCH   7   8
ATOM      8  C   UNL A   1      32.873  29.296  26.638  1.00  0.00     0.311 C 
ATOM      9  O   UNL A   1      31.908  28.866  27.271  1.00  0.00    -0.252 OA
BRANCH   8  10
ATOM     10  C   UNL A   1      33.013  29.005  25.160  1.00  0.00     0.177 C 
BRANCH  10  11
ATOM     11  C   UNL A   1      31.815  28.307  24.599  1.00  0.00     0.034 A 
ATOM     12  C   UNL A   1      30.713  28.903  24.002  1.00  0.00     0.024 A 
ATOM     13  N   UNL A   1      31.651  26.923  24.525  1.00  0.00    -0.320 N 
ATOM     14  C   UNL A   1      29.910  27.888  23.458  1.00  0.00     0.020 A 
ATOM     15  C   UNL A   1      30.514  26.694  23.766  1.00  0.00     0.091 A 
BRANCH  13  16
ATOM     16  C   UNL A   1      32.473  25.879  25.055  1.00  0.00     0.049 A 
ATOM     17  C   UNL A   1      33.786  25.736  24.570  1.00  0.00     0.031 A 
ATOM     18  C   UNL A   1      32.002  24.988  26.028  1.00  0.00     0.077 A 
ATOM     19  C   UNL A   1      34.612  24.716  25.046  1.00  0.00     0.052 A 
ATOM     20  C   UNL A   1      32.832  23.959  26.492  1.00  0.00     0.163 A 
ATOM     21  C   UNL A   1      34.126  23.812  25.982  1.00  0.00     0.161 A 
ATOM     22  O   UNL A   1      32.297  23.103  27.424  1.00  0.00    -0.486 OA
ATOM     23  O   UNL A   1      34.971  22.794  26.344  1.00  0.00    -0.486 OA
ATOM     24  C   UNL A   1      33.293  22.246  28.001  1.00  0.00     0.271 C 
ATOM     25  C   UNL A   1      34.242  21.717  26.939  1.00  0.00     0.271 C 
ENDBRANCH  13  16
ENDBRANCH  10  11
ENDBRANCH   8  10
ENDBRANCH   7   8
ENDBRANCH   6   7
ENDBRANCH   5   6
ENDBRANCH   4   5
ENDBRANCH   3   4
ENDBRANCH   2   3
ENDBRANCH   1   2
BRANCH   1  26
ATOM     26  C   UNL A   1      32.749  36.363  30.717  1.00  0.00     0.188 C 
BRANCH  26  27
ATOM     27  C   UNL A   1      32.706  35.731  32.125  1.00  0.00     0.188 C 
BRANCH  27  28
ATOM     28  O   UNL A   1      33.711  35.848  33.125  1.00  0.00    -0.376 OA
BRANCH  28  29
ATOM     29  C   UNL A   1      34.832  34.984  33.203  1.00  0.00     0.202 C 
BRANCH  29  30
ATOM     30  C   UNL A   1      34.616  33.505  33.530  1.00  0.00     0.261 C 
BRANCH  30  31
ATOM     31  O   UNL A   1      35.223  32.634  32.588  1.00  0.00    -0.460 OA
BRANCH  31  32
ATOM     32  C   UNL A   1      36.266  31.970  33.116  1.00  0.00     0.338 C 
ATOM     33  O   UNL A   1      36.861  32.214  34.152  1.00  0.00    -0.246 OA
BRANCH  32  34
ATOM     34  C   UNL A   1      36.670  30.868  32.241  1.00  0.00     0.060 A 
ATOM     35  C   UNL A   1      37.435  29.868  32.852  1.00  0.00     0.016 A 
ATOM     36  C   UNL A   1      36.609  31.029  30.855  1.00  0.00     0.016 A 
ATOM     37  C   UNL A   1      38.364  29.202  32.094  1.00  0.00     0.010 A 
ATOM     38  C   UNL A   1      37.561  30.380  30.096  1.00  0.00     0.010 A 
ATOM     39  C   UNL A   1      38.491  29.561  30.750  1.00  0.00    -0.014 A 
BRANCH  39  40
ATOM     40  C   UNL A   1      39.713  29.144  30.055  1.00  0.00     0.031 A 
ATOM     41  C   UNL A   1      40.700  30.270  29.886  1.00  0.00     0.074 A 
ATOM     42  C   UNL A   1      39.735  27.835  29.669  1.00  0.00     0.049 A 
ATOM     43  N   UNL A   1      41.715  30.360  29.087  1.00  0.00    -0.248 NA
ATOM     44  C   UNL A   1      40.511  31.505  30.694  1.00  0.00     0.031 C 
ATOM     45  C   UNL A   1      38.629  26.887  29.914  1.00  0.00     0.029 A 
ATOM     46  N   UNL A   1      40.644  27.035  29.007  1.00  0.00    -0.354 N 
ATOM     47  C   UNL A   1      42.396  31.528  29.449  1.00  0.00     0.074 A 
ATOM     48  C   UNL A   1      41.550  32.258  30.343  1.00  0.00     0.031 C 
ATOM     49  C   UNL A   1      38.896  25.688  29.368  1.00  0.00     0.029 A 
ATOM     50  C   UNL A   1      40.201  25.712  28.743  1.00  0.00     0.049 A 
ATOM     51  H   UNL A   1      41.534  27.357  28.738  1.00  0.00     0.167 HD
ATOM     52  C   UNL A   1      43.696  31.756  29.129  1.00  0.00     0.037 A 
ATOM     53  C   UNL A   1      40.828  24.710  28.055  1.00  0.00     0.037 A 
ATOM     54  C   UNL A   1      44.226  30.732  28.293  1.00  0.00     0.049 A 
ATOM     55  C   UNL A   1      42.194  25.206  27.795  1.00  0.00     0.074 A 
ATOM     56  C   UNL A   1      44.068  30.433  26.965  1.00  0.00     0.029 A 
ATOM     57  N   UNL A   1      44.816  29.657  28.913  1.00  0.00    -0.354 N 
ATOM     58  N   UNL A   1      43.109  25.353  28.708  1.00  0.00    -0.248 NA
ATOM     59  C   UNL A   1      42.551  25.657  26.446  1.00  0.00     0.031 C 
ATOM     60  C   UNL A   1      44.274  29.038  26.876  1.00  0.00     0.029 A 
ATOM     61  C   UNL A   1      44.584  28.539  28.145  1.00  0.00     0.049 A 
ATOM     62  H   UNL A   1      45.320  29.683  29.759  1.00  0.00     0.167 HD
ATOM     63  C   UNL A   1      44.007  26.209  28.110  1.00  0.00     0.074 A 
ATOM     64  C   UNL A   1      43.775  26.119  26.689  1.00  0.00     0.031 C 
ATOM     65  C   UNL A   1      44.505  27.257  28.815  1.00  0.00     0.037 A 
BRANCH  52  66
ATOM     66  C   UNL A   1      44.625  32.763  29.715  1.00  0.00     0.064 A 
ATOM     67  C   UNL A   1      45.183  33.743  28.871  1.00  0.00     0.173 A 
ATOM     68  C   UNL A   1      45.214  32.608  30.981  1.00  0.00     0.173 A 
ATOM     69  F   UNL A   1      44.672  33.959  27.648  1.00  0.00    -0.203 F 
ATOM     70  C   UNL A   1      46.313  34.468  29.239  1.00  0.00     0.198 A 
ATOM     71  C   UNL A   1      46.319  33.366  31.363  1.00  0.00     0.198 A 
ATOM     72  F   UNL A   1      44.792  31.659  31.828  1.00  0.00    -0.203 F 
ATOM     73  F   UNL A   1      46.875  35.315  28.366  1.00  0.00    -0.200 F 
ATOM     74  C   UNL A   1      46.887  34.272  30.482  1.00  0.00     0.200 A 
ATOM     75  F   UNL A   1      46.875  33.168  32.567  1.00  0.00    -0.200 F 
ATOM     76  F   UNL A   1      48.006  34.927  30.818  1.00  0.00    -0.200 F 
ENDBRANCH  52  66
BRANCH  53  77
ATOM     77  C   UNL A   1      40.463  23.341  27.509  1.00  0.00     0.064 A 
ATOM     78  C   UNL A   1      39.430  23.055  26.603  1.00  0.00     0.173 A 
ATOM     79  C   UNL A   1      41.259  22.209  27.841  1.00  0.00     0.173 A 
ATOM     80  F   UNL A   1      38.523  23.968  26.255  1.00  0.00    -0.203 F 
ATOM     81  C   UNL A   1      39.271  21.789  26.008  1.00  0.00     0.198 A 
ATOM     82  C   UNL A   1      41.125  20.960  27.227  1.00  0.00     0.198 A 
ATOM     83  F   UNL A   1      42.215  22.273  28.777  1.00  0.00    -0.203 F 
ATOM     84  F   UNL A   1      38.272  21.588  25.137  1.00  0.00    -0.200 F 
ATOM     85  C   UNL A   1      40.137  20.753  26.295  1.00  0.00     0.200 A 
ATOM     86  F   UNL A   1      41.978  19.973  27.534  1.00  0.00    -0.200 F 
ATOM     87  F   UNL A   1      40.016  19.568  25.685  1.00  0.00    -0.200 F 
ENDBRANCH  53  77
BRANCH  65  88
ATOM     88  C   UNL A   1      44.458  27.035  30.314  1.00  0.00     0.064 A 
ATOM     89  C   UNL A   1      45.319  26.108  30.920  1.00  0.00     0.173 A 
ATOM     90  C   UNL A   1      43.480  27.606  31.144  1.00  0.00     0.173 A 
ATOM     91  F   UNL A   1      46.289  25.527  30.200  1.00  0.00    -0.203 F 
ATOM     92  C   UNL A   1      45.188  25.762  32.268  1.00  0.00     0.198 A 
ATOM     93  C   UNL A   1      43.350  27.270  32.491  1.00  0.00     0.198 A 
ATOM     94  F   UNL A   1      42.632  28.514  30.666  1.00  0.00    -0.203 F 
ATOM     95  F   UNL A   1      46.023  24.865  32.811  1.00  0.00    -0.200 F 
ATOM     96  C   UNL A   1      44.200  26.338  33.052  1.00  0.00     0.200 A 
ATOM     97  F   UNL A   1      42.401  27.855  33.239  1.00  0.00    -0.200 F 
ATOM     98  F   UNL A   1      44.078  26.009  34.346  1.00  0.00    -0.200 F 
ENDBRANCH  65  88
ENDBRANCH  39  40
ENDBRANCH  32  34
ENDBRANCH  31  32
ENDBRANCH  30  31
ENDBRANCH  29  30
ENDBRANCH  28  29
ENDBRANCH  27  28
ENDBRANCH  26  27
ENDBRANCH   1  26
TORSDOF 22
ENDMDL
MODEL 2
REMARK VINA RESULT:     -10.4      4.245      9.266
REMARK SMILES O=C(Cc1cccn1-c1ccc2c(c1)OCCO2)OCCOCCOCCOCCOC(=O)c1ccc(-c2c3nc(c(-c4c(F)c(F)c(F)c(F)c4F)c4ccc([nH]4)c(-c4c(F)c(F)c(F)c(F)c4F)c4nc(c(-c5c(F)c(F)c(F)c(F)c5F)c5ccc2[nH]5)C=C4)C=C3)cc1
REMARK SMILES IDX 25 1 24 2 23 3 22 4 21 5 20 6 19 7 2 8 1 9 3 10 4 11 5 12
REMARK SMILES IDX 8 13 6 14 7 15 9 16 10 17 14 18 11 19 13 20 12 21 15 22
REMARK SMILES IDX 18 23 16 24 17 25 26 26 27 27 28 28 29 29 30 30 31 31 32 32
REMARK SMILES IDX 33 33 34 34 35 35 96 36 36 37 95 38 37 39 38 40 39 41 89 42
REMARK SMILES IDX 40 43 94 44 88 45 90 46 41 47 93 48 87 49 86 50 42 52 74 53
REMARK SMILES IDX 54 54 73 55 55 56 58 57 72 58 91 59 56 60 57 61 71 63 92 64
REMARK SMILES IDX 59 65 43 66 44 67 52 68 45 69 46 70 50 71 53 72 47 73 48 74
REMARK SMILES IDX 51 75 49 76 75 77 76 78 84 79 77 80 78 81 82 82 85 83 79 84
REMARK SMILES IDX 80 85 83 86 81 87 60 88 61 89 69 90 62 91 63 92 67 93 70 94
REMARK SMILES IDX 64 95 65 96 68 97 66 98
REMARK H PARENT 90 51 58 62
REMARK Flexibility Score: inf
ROOT
ATOM      1  O   UNL A   1      32.188  30.684  26.627  1.00  0.00    -0.377 OA
ENDROOT
BRANCH   1   2
ATOM      2  C   UNL A   1      31.781  30.044  25.421  1.00  0.00     0.188 C 
BRANCH   2   3
ATOM      3  C   UNL A   1      32.917  29.320  24.701  1.00  0.00     0.188 C 
BRANCH   3   4
ATOM      4  O   UNL A   1      32.665  27.990  24.274  1.00  0.00    -0.376 OA
BRANCH   4   5
ATOM      5  C   UNL A   1      32.406  27.642  22.928  1.00  0.00     0.202 C 
BRANCH   5   6
ATOM      6  C   UNL A   1      33.310  26.662  22.196  1.00  0.00     0.261 C 
BRANCH   6   7
ATOM      7  O   UNL A   1      33.717  25.443  22.851  1.00  0.00    -0.463 OA
BRANCH   7   8
ATOM      8  C   UNL A   1      33.389  24.157  22.610  1.00  0.00     0.311 C 
ATOM      9  O   UNL A   1      34.192  23.449  22.002  1.00  0.00    -0.252 OA
BRANCH   8  10
ATOM     10  C   UNL A   1      32.051  23.603  23.046  1.00  0.00     0.177 C 
BRANCH  10  11
ATOM     11  C   UNL A   1      31.856  23.680  24.527  1.00  0.00     0.034 A 
ATOM     12  C   UNL A   1      31.279  24.725  25.234  1.00  0.00     0.024 A 
ATOM     13  N   UNL A   1      32.165  22.664  25.433  1.00  0.00    -0.320 N 
ATOM     14  C   UNL A   1      31.129  24.319  26.568  1.00  0.00     0.020 A 
ATOM     15  C   UNL A   1      31.651  23.052  26.661  1.00  0.00     0.091 A 
BRANCH  13  16
ATOM     16  C   UNL A   1      32.830  21.418  25.212  1.00  0.00     0.049 A 
ATOM     17  C   UNL A   1      34.220  21.419  24.995  1.00  0.00     0.031 A 
ATOM     18  C   UNL A   1      32.136  20.201  25.187  1.00  0.00     0.077 A 
ATOM     19  C   UNL A   1      34.904  20.226  24.753  1.00  0.00     0.052 A 
ATOM     20  C   UNL A   1      32.825  19.009  24.931  1.00  0.00     0.163 A 
ATOM     21  C   UNL A   1      34.203  19.028  24.691  1.00  0.00     0.161 A 
ATOM     22  O   UNL A   1      32.078  17.857  24.891  1.00  0.00    -0.486 OA
ATOM     23  O   UNL A   1      34.931  17.911  24.374  1.00  0.00    -0.486 OA
ATOM     24  C   UNL A   1      32.903  16.683  24.863  1.00  0.00     0.271 C 
ATOM     25  C   UNL A   1      34.076  16.861  23.913  1.00  0.00     0.271 C 
ENDBRANCH  13  16
ENDBRANCH  10  11
ENDBRANCH   8  10
ENDBRANCH   7   8
ENDBRANCH   6   7
ENDBRANCH   5   6
ENDBRANCH   4   5
ENDBRANCH   3   4
ENDBRANCH   2   3
ENDBRANCH   1   2
BRANCH   1  26
ATOM     26  C   UNL A   1      33.358  30.121  27.192  1.00  0.00     0.188 C 
BRANCH  26  27
ATOM     27  C   UNL A   1      34.426  31.104  27.718  1.00  0.00     0.188 C 
BRANCH  27  28
ATOM     28  O   UNL A   1      34.311  31.922  28.877  1.00  0.00    -0.376 OA
BRANCH  28  29
ATOM     29  C   UNL A   1      34.639  33.301  28.889  1.00  0.00     0.202 C 
BRANCH  29  30
ATOM     30  C   UNL A   1      33.572  34.321  29.293  1.00  0.00     0.261 C 
BRANCH  30  31
ATOM     31  O   UNL A   1      34.022  35.232  30.283  1.00  0.00    -0.460 OA
BRANCH  31  32
ATOM     32  C   UNL A   1      33.356  35.085  31.443  1.00  0.00     0.338 C 
ATOM     33  O   UNL A   1      32.162  35.228  31.642  1.00  0.00    -0.246 OA
BRANCH  32  34
ATOM     34  C   UNL A   1      34.281  34.748  32.527  1.00  0.00     0.060 A 
ATOM     35  C   UNL A   1      35.485  35.461  32.528  1.00  0.00     0.016 A 
ATOM     36  C   UNL A   1      34.108  33.557  33.237  1.00  0.00     0.016 A 
ATOM     37  C   UNL A   1      36.609  34.841  33.012  1.00  0.00     0.010 A 
ATOM     38  C   UNL A   1      35.242  32.922  33.699  1.00  0.00     0.010 A 
ATOM     39  C   UNL A   1      36.485  33.531  33.479  1.00  0.00    -0.014 A 
BRANCH  39  40
ATOM     40  C   UNL A   1      37.716  32.748  33.625  1.00  0.00     0.031 A 
ATOM     41  C   UNL A   1      37.774  31.571  32.687  1.00  0.00     0.074 A 
ATOM     42  C   UNL A   1      38.574  33.204  34.585  1.00  0.00     0.049 A 
ATOM     43  N   UNL A   1      38.529  30.520  32.733  1.00  0.00    -0.248 NA
ATOM     44  C   UNL A   1      36.821  31.528  31.545  1.00  0.00     0.031 C 
ATOM     45  C   UNL A   1      38.309  34.386  35.430  1.00  0.00     0.029 A 
ATOM     46  N   UNL A   1      39.805  32.796  35.057  1.00  0.00    -0.354 N 
ATOM     47  C   UNL A   1      38.306  29.824  31.538  1.00  0.00     0.074 A 
ATOM     48  C   UNL A   1      37.160  30.409  30.910  1.00  0.00     0.031 C 
ATOM     49  C   UNL A   1      39.292  34.561  36.330  1.00  0.00     0.029 A 
ATOM     50  C   UNL A   1      40.307  33.544  36.153  1.00  0.00     0.049 A 
ATOM     51  H   UNL A   1      40.298  32.041  34.663  1.00  0.00     0.167 HD
ATOM     52  C   UNL A   1      39.178  28.911  31.040  1.00  0.00     0.037 A 
ATOM     53  C   UNL A   1      41.448  33.353  36.883  1.00  0.00     0.037 A 
ATOM     54  C   UNL A   1      40.263  28.669  31.930  1.00  0.00     0.049 A 
ATOM     55  C   UNL A   1      42.200  32.302  36.169  1.00  0.00     0.074 A 
ATOM     56  C   UNL A   1      40.372  27.969  33.102  1.00  0.00     0.029 A 
ATOM     57  N   UNL A   1      41.379  29.458  31.789  1.00  0.00    -0.354 N 
ATOM     58  N   UNL A   1      42.786  32.470  35.018  1.00  0.00    -0.248 NA
ATOM     59  C   UNL A   1      42.236  30.943  36.717  1.00  0.00     0.031 C 
ATOM     60  C   UNL A   1      41.417  28.602  33.813  1.00  0.00     0.029 A 
ATOM     61  C   UNL A   1      41.931  29.645  33.036  1.00  0.00     0.049 A 
ATOM     62  H   UNL A   1      41.725  29.824  30.943  1.00  0.00     0.167 HD
ATOM     63  C   UNL A   1      42.959  31.180  34.569  1.00  0.00     0.074 A 
ATOM     64  C   UNL A   1      42.882  30.327  35.731  1.00  0.00     0.031 C 
ATOM     65  C   UNL A   1      42.659  30.873  33.281  1.00  0.00     0.037 A 
BRANCH  52  66
ATOM     66  C   UNL A   1      39.241  28.358  29.657  1.00  0.00     0.064 A 
ATOM     67  C   UNL A   1      39.124  26.966  29.478  1.00  0.00     0.173 A 
ATOM     68  C   UNL A   1      39.714  29.100  28.563  1.00  0.00     0.173 A 
ATOM     69  F   UNL A   1      38.671  26.187  30.473  1.00  0.00    -0.203 F 
ATOM     70  C   UNL A   1      39.534  26.343  28.302  1.00  0.00     0.198 A 
ATOM     71  C   UNL A   1      40.083  28.478  27.371  1.00  0.00     0.198 A 
ATOM     72  F   UNL A   1      39.918  30.422  28.659  1.00  0.00    -0.203 F 
ATOM     73  F   UNL A   1      39.506  25.007  28.210  1.00  0.00    -0.200 F 
ATOM     74  C   UNL A   1      40.023  27.100  27.252  1.00  0.00     0.200 A 
ATOM     75  F   UNL A   1      40.562  29.216  26.359  1.00  0.00    -0.200 F 
ATOM     76  F   UNL A   1      40.470  26.500  26.141  1.00  0.00    -0.200 F 
ENDBRANCH  52  66
BRANCH  53  77
ATOM     77  C   UNL A   1      42.050  33.895  38.167  1.00  0.00     0.064 A 
ATOM     78  C   UNL A   1      43.230  34.646  38.282  1.00  0.00     0.173 A 
ATOM     79  C   UNL A   1      41.356  33.733  39.400  1.00  0.00     0.173 A 
ATOM     80  F   UNL A   1      44.061  34.815  37.253  1.00  0.00    -0.203 F 
ATOM     81  C   UNL A   1      43.624  35.261  39.484  1.00  0.00     0.198 A 
ATOM     82  C   UNL A   1      41.726  34.371  40.587  1.00  0.00     0.198 A 
ATOM     83  F   UNL A   1      40.274  32.950  39.498  1.00  0.00    -0.203 F 
ATOM     84  F   UNL A   1      44.755  35.980  39.520  1.00  0.00    -0.200 F 
ATOM     85  C   UNL A   1      42.856  35.151  40.626  1.00  0.00     0.200 A 
ATOM     86  F   UNL A   1      40.963  34.236  41.681  1.00  0.00    -0.200 F 
ATOM     87  F   UNL A   1      43.205  35.785  41.753  1.00  0.00    -0.200 F 
ENDBRANCH  53  77
BRANCH  65  88
ATOM     88  C   UNL A   1      42.714  32.076  32.360  1.00  0.00     0.064 A 
ATOM     89  C   UNL A   1      43.946  32.665  32.037  1.00  0.00     0.173 A 
ATOM     90  C   UNL A   1      41.569  32.753  31.911  1.00  0.00     0.173 A 
ATOM     91  F   UNL A   1      45.089  32.074  32.416  1.00  0.00    -0.203 F 
ATOM     92  C   UNL A   1      44.018  33.868  31.328  1.00  0.00     0.198 A 
ATOM     93  C   UNL A   1      41.635  33.949  31.198  1.00  0.00     0.198 A 
ATOM     94  F   UNL A   1      40.355  32.261  32.149  1.00  0.00    -0.203 F 
ATOM     95  F   UNL A   1      45.213  34.405  31.045  1.00  0.00    -0.200 F 
ATOM     96  C   UNL A   1      42.863  34.512  30.914  1.00  0.00     0.200 A 
ATOM     97  F   UNL A   1      40.506  34.547  30.786  1.00  0.00    -0.200 F 
ATOM     98  F   UNL A   1      42.933  35.664  30.230  1.00  0.00    -0.200 F 
ENDBRANCH  65  88
ENDBRANCH  39  40
ENDBRANCH  32  34
ENDBRANCH  31  32
ENDBRANCH  30  31
ENDBRANCH  29  30
ENDBRANCH  28  29
ENDBRANCH  27  28
ENDBRANCH  26  27
ENDBRANCH   1  26
TORSDOF 22
ENDMDL
MODEL 3
REMARK VINA RESULT:     -10.4      4.121      9.475
REMARK SMILES O=C(Cc1cccn1-c1ccc2c(c1)OCCO2)OCCOCCOCCOCCOC(=O)c1ccc(-c2c3nc(c(-c4c(F)c(F)c(F)c(F)c4F)c4ccc([nH]4)c(-c4c(F)c(F)c(F)c(F)c4F)c4nc(c(-c5c(F)c(F)c(F)c(F)c5F)c5ccc2[nH]5)C=C4)C=C3)cc1
REMARK SMILES IDX 25 1 24 2 23 3 22 4 21 5 20 6 19 7 2 8 1 9 3 10 4 11 5 12
REMARK SMILES IDX 8 13 6 14 7 15 9 16 10 17 14 18 11 19 13 20 12 21 15 22
REMARK SMILES IDX 18 23 16 24 17 25 26 26 27 27 28 28 29 29 30 30 31 31 32 32
REMARK SMILES IDX 33 33 34 34 35 35 96 36 36 37 95 38 37 39 38 40 39 41 89 42
REMARK SMILES IDX 40 43 94 44 88 45 90 46 41 47 93 48 87 49 86 50 42 52 74 53
REMARK SMILES IDX 54 54 73 55 55 56 58 57 72 58 91 59 56 60 57 61 71 63 92 64
REMARK SMILES IDX 59 65 43 66 44 67 52 68 45 69 46 70 50 71 53 72 47 73 48 74
REMARK SMILES IDX 51 75 49 76 75 77 76 78 84 79 77 80 78 81 82 82 85 83 79 84
REMARK SMILES IDX 80 85 83 86 81 87 60 88 61 89 69 90 62 91 63 92 67 93 70 94
REMARK SMILES IDX 64 95 65 96 68 97 66 98
REMARK H PARENT 90 51 58 62
REMARK Flexibility Score: inf
ROOT
ATOM      1  O   UNL A   1      32.335  29.375  27.296  1.00  0.00    -0.377 OA
ENDROOT
BRANCH   1   2
ATOM      2  C   UNL A   1      32.242  28.169  26.543  1.00  0.00     0.188 C 
BRANCH   2   3
ATOM      3  C   UNL A   1      33.583  27.456  26.365  1.00  0.00     0.188 C 
BRANCH   3   4
ATOM      4  O   UNL A   1      33.541  26.098  25.958  1.00  0.00    -0.376 OA
BRANCH   4   5
ATOM      5  C   UNL A   1      34.395  25.557  24.968  1.00  0.00     0.202 C 
BRANCH   5   6
ATOM      6  C   UNL A   1      34.701  24.068  24.941  1.00  0.00     0.261 C 
BRANCH   6   7
ATOM      7  O   UNL A   1      33.796  23.167  24.270  1.00  0.00    -0.463 OA
BRANCH   7   8
ATOM      8  C   UNL A   1      33.127  23.291  23.105  1.00  0.00     0.311 C 
ATOM      9  O   UNL A   1      33.775  23.406  22.064  1.00  0.00    -0.252 OA
BRANCH   8  10
ATOM     10  C   UNL A   1      31.616  23.321  23.078  1.00  0.00     0.177 C 
BRANCH  10  11
ATOM     11  C   UNL A   1      31.027  23.686  24.404  1.00  0.00     0.034 A 
ATOM     12  C   UNL A   1      30.920  22.865  25.517  1.00  0.00     0.024 A 
ATOM     13  N   UNL A   1      30.552  24.951  24.753  1.00  0.00    -0.320 N 
ATOM     14  C   UNL A   1      30.477  23.646  26.595  1.00  0.00     0.020 A 
ATOM     15  C   UNL A   1      30.285  24.918  26.112  1.00  0.00     0.091 A 
BRANCH  13  16
ATOM     16  C   UNL A   1      30.390  26.118  23.942  1.00  0.00     0.049 A 
ATOM     17  C   UNL A   1      31.484  26.579  23.188  1.00  0.00     0.031 A 
ATOM     18  C   UNL A   1      29.180  26.823  23.892  1.00  0.00     0.077 A 
ATOM     19  C   UNL A   1      31.373  27.728  22.402  1.00  0.00     0.052 A 
ATOM     20  C   UNL A   1      29.079  27.982  23.111  1.00  0.00     0.163 A 
ATOM     21  C   UNL A   1      30.182  28.443  22.388  1.00  0.00     0.161 A 
ATOM     22  O   UNL A   1      27.873  28.640  23.132  1.00  0.00    -0.486 OA
ATOM     23  O   UNL A   1      30.175  29.600  21.652  1.00  0.00    -0.486 OA
ATOM     24  C   UNL A   1      27.801  29.661  22.126  1.00  0.00     0.271 C 
ATOM     25  C   UNL A   1      29.097  30.451  22.054  1.00  0.00     0.271 C 
ENDBRANCH  13  16
ENDBRANCH  10  11
ENDBRANCH   8  10
ENDBRANCH   7   8
ENDBRANCH   6   7
ENDBRANCH   5   6
ENDBRANCH   4   5
ENDBRANCH   3   4
ENDBRANCH   2   3
ENDBRANCH   1   2
BRANCH   1  26
ATOM     26  C   UNL A   1      33.546  30.075  27.086  1.00  0.00     0.188 C 
BRANCH  26  27
ATOM     27  C   UNL A   1      33.638  31.507  27.656  1.00  0.00     0.188 C 
BRANCH  27  28
ATOM     28  O   UNL A   1      34.410  31.911  28.780  1.00  0.00    -0.376 OA
BRANCH  28  29
ATOM     29  C   UNL A   1      34.758  33.261  29.039  1.00  0.00     0.202 C 
BRANCH  29  30
ATOM     30  C   UNL A   1      33.650  34.281  29.308  1.00  0.00     0.261 C 
BRANCH  30  31
ATOM     31  O   UNL A   1      34.016  35.258  30.269  1.00  0.00    -0.460 OA
BRANCH  31  32
ATOM     32  C   UNL A   1      33.351  35.099  31.427  1.00  0.00     0.338 C 
ATOM     33  O   UNL A   1      32.155  35.226  31.626  1.00  0.00    -0.246 OA
BRANCH  32  34
ATOM     34  C   UNL A   1      34.280  34.773  32.511  1.00  0.00     0.060 A 
ATOM     35  C   UNL A   1      35.488  35.479  32.496  1.00  0.00     0.016 A 
ATOM     36  C   UNL A   1      34.105  33.592  33.238  1.00  0.00     0.016 A 
ATOM     37  C   UNL A   1      36.611  34.860  32.983  1.00  0.00     0.010 A 
ATOM     38  C   UNL A   1      35.237  32.958  33.703  1.00  0.00     0.010 A 
ATOM     39  C   UNL A   1      36.483  33.557  33.468  1.00  0.00    -0.014 A 
BRANCH  39  40
ATOM     40  C   UNL A   1      37.711  32.770  33.619  1.00  0.00     0.031 A 
ATOM     41  C   UNL A   1      37.768  31.593  32.679  1.00  0.00     0.074 A 
ATOM     42  C   UNL A   1      38.566  33.222  34.583  1.00  0.00     0.049 A 
ATOM     43  N   UNL A   1      38.520  30.540  32.727  1.00  0.00    -0.248 NA
ATOM     44  C   UNL A   1      36.820  31.555  31.534  1.00  0.00     0.031 C 
ATOM     45  C   UNL A   1      38.301  34.404  35.429  1.00  0.00     0.029 A 
ATOM     46  N   UNL A   1      39.794  32.809  35.060  1.00  0.00    -0.354 N 
ATOM     47  C   UNL A   1      38.299  29.847  31.531  1.00  0.00     0.074 A 
ATOM     48  C   UNL A   1      37.158  30.436  30.899  1.00  0.00     0.031 C 
ATOM     49  C   UNL A   1      39.281  34.574  36.333  1.00  0.00     0.029 A 
ATOM     50  C   UNL A   1      40.293  33.554  36.159  1.00  0.00     0.049 A 
ATOM     51  H   UNL A   1      40.286  32.053  34.667  1.00  0.00     0.167 HD
ATOM     52  C   UNL A   1      39.171  28.931  31.036  1.00  0.00     0.037 A 
ATOM     53  C   UNL A   1      41.431  33.359  36.894  1.00  0.00     0.037 A 
ATOM     54  C   UNL A   1      40.251  28.685  31.930  1.00  0.00     0.049 A 
ATOM     55  C   UNL A   1      42.182  32.306  36.181  1.00  0.00     0.074 A 
ATOM     56  C   UNL A   1      40.353  27.982  33.102  1.00  0.00     0.029 A 
ATOM     57  N   UNL A   1      41.371  29.470  31.795  1.00  0.00    -0.354 N 
ATOM     58  N   UNL A   1      42.774  32.474  35.034  1.00  0.00    -0.248 NA
ATOM     59  C   UNL A   1      42.211  30.946  36.728  1.00  0.00     0.031 C 
ATOM     60  C   UNL A   1      41.397  28.612  33.818  1.00  0.00     0.029 A 
ATOM     61  C   UNL A   1      41.918  29.654  33.045  1.00  0.00     0.049 A 
ATOM     62  H   UNL A   1      41.721  29.836  30.951  1.00  0.00     0.167 HD
ATOM     63  C   UNL A   1      42.944  31.184  34.584  1.00  0.00     0.074 A 
ATOM     64  C   UNL A   1      42.859  30.329  35.744  1.00  0.00     0.031 C 
ATOM     65  C   UNL A   1      42.649  30.879  33.294  1.00  0.00     0.037 A 
BRANCH  52  66
ATOM     66  C   UNL A   1      39.238  28.380  29.652  1.00  0.00     0.064 A 
ATOM     67  C   UNL A   1      39.114  26.989  29.471  1.00  0.00     0.173 A 
ATOM     68  C   UNL A   1      39.722  29.120  28.561  1.00  0.00     0.173 A 
ATOM     69  F   UNL A   1      38.651  26.211  30.462  1.00  0.00    -0.203 F 
ATOM     70  C   UNL A   1      39.526  26.365  28.296  1.00  0.00     0.198 A 
ATOM     71  C   UNL A   1      40.093  28.498  27.371  1.00  0.00     0.198 A 
ATOM     72  F   UNL A   1      39.933  30.440  28.661  1.00  0.00    -0.203 F 
ATOM     73  F   UNL A   1      39.490  25.029  28.202  1.00  0.00    -0.200 F 
ATOM     74  C   UNL A   1      40.025  27.120  27.250  1.00  0.00     0.200 A 
ATOM     75  F   UNL A   1      40.582  29.234  26.363  1.00  0.00    -0.200 F 
ATOM     76  F   UNL A   1      40.474  26.519  26.141  1.00  0.00    -0.200 F 
ENDBRANCH  52  66
BRANCH  53  77
ATOM     77  C   UNL A   1      42.028  33.897  38.181  1.00  0.00     0.064 A 
ATOM     78  C   UNL A   1      43.139  34.749  38.292  1.00  0.00     0.173 A 
ATOM     79  C   UNL A   1      41.399  33.617  39.427  1.00  0.00     0.173 A 
ATOM     80  F   UNL A   1      43.911  35.039  37.245  1.00  0.00    -0.203 F 
ATOM     81  C   UNL A   1      43.520  35.344  39.508  1.00  0.00     0.198 A 
ATOM     82  C   UNL A   1      41.755  34.234  40.630  1.00  0.00     0.198 A 
ATOM     83  F   UNL A   1      40.398  32.733  39.525  1.00  0.00    -0.203 F 
ATOM     84  F   UNL A   1      44.581  36.163  39.540  1.00  0.00    -0.200 F 
ATOM     85  C   UNL A   1      42.809  35.114  40.668  1.00  0.00     0.200 A 
ATOM     86  F   UNL A   1      41.048  33.981  41.741  1.00  0.00    -0.200 F 
ATOM     87  F   UNL A   1      43.141  35.727  41.812  1.00  0.00    -0.200 F 
ENDBRANCH  53  77
BRANCH  65  88
ATOM     88  C   UNL A   1      42.712  32.083  32.375  1.00  0.00     0.064 A 
ATOM     89  C   UNL A   1      43.947  32.669  32.058  1.00  0.00     0.173 A 
ATOM     90  C   UNL A   1      41.571  32.764  31.921  1.00  0.00     0.173 A 
ATOM     91  F   UNL A   1      45.086  32.075  32.443  1.00  0.00    -0.203 F 
ATOM     92  C   UNL A   1      44.026  33.872  31.352  1.00  0.00     0.198 A 
ATOM     93  C   UNL A   1      41.644  33.960  31.209  1.00  0.00     0.198 A 
ATOM     94  F   UNL A   1      40.355  32.274  32.152  1.00  0.00    -0.203 F 
ATOM     95  F   UNL A   1      45.223  34.407  31.075  1.00  0.00    -0.200 F 
ATOM     96  C   UNL A   1      42.875  34.520  30.932  1.00  0.00     0.200 A 
ATOM     97  F   UNL A   1      40.519  34.562  30.793  1.00  0.00    -0.200 F 
ATOM     98  F   UNL A   1      42.951  35.673  30.250  1.00  0.00    -0.200 F 
ENDBRANCH  65  88
ENDBRANCH  39  40
ENDBRANCH  32  34
ENDBRANCH  31  32
ENDBRANCH  30  31
ENDBRANCH  29  30
ENDBRANCH  28  29
ENDBRANCH  27  28
ENDBRANCH  26  27
ENDBRANCH   1  26
TORSDOF 22
ENDMDL
