MODEL 1
REMARK VINA RESULT:      -9.4      0.000      0.000
REMARK SMILES CC[C@H](C)c1ccccc1Oc1cccc(F)c1C(=O)OCCOCCOCCOCCOC(=O)c1ccc(-c2c3nc(c(-c4c(F)c(F)c(F)c(F)c4F)c4ccc([nH]4)c(-c4c(F)c(F)c(F)c(F)c4F)c4nc(c(-c5c(F)c(F)c(F)c(F)c5F)c5ccc2[nH]5)C=C4)C=C3)cc1
REMARK SMILES IDX 26 1 25 2 24 3 23 4 22 5 21 6 19 7 20 8 18 9 12 10 13 11
REMARK SMILES IDX 14 12 16 13 15 14 17 15 11 16 10 17 5 18 6 19 7 20 9 21 8 22
REMARK SMILES IDX 3 23 4 24 2 25 1 26 27 27 28 28 29 29 30 30 31 31 32 32
REMARK SMILES IDX 33 33 34 34 35 35 36 36 37 37 98 38 38 39 97 40 39 41 40 42
REMARK SMILES IDX 41 43 91 44 42 45 96 46 90 47 92 48 43 49 95 50 89 51 88 52
REMARK SMILES IDX 44 54 76 55 56 56 75 57 57 58 60 59 74 60 93 61 58 62 59 63
REMARK SMILES IDX 73 65 94 66 61 67 45 68 46 69 54 70 47 71 48 72 52 73 55 74
REMARK SMILES IDX 49 75 50 76 53 77 51 78 77 79 78 80 86 81 79 82 80 83 84 84
REMARK SMILES IDX 87 85 81 86 82 87 85 88 83 89 62 90 63 91 71 92 64 93 65 94
REMARK SMILES IDX 69 95 72 96 66 97 67 98 70 99 68 100
REMARK H PARENT 92 53 60 64
REMARK Flexibility Score: inf
ROOT
ATOM      1  C   UNL A   1      40.496  21.638  27.650  1.00  0.00     0.188 C 
ENDROOT
BRANCH   1   2
ATOM      2  C   UNL A   1      39.941  22.206  26.325  1.00  0.00     0.188 C 
BRANCH   2   3
ATOM      3  O   UNL A   1      38.569  21.977  26.078  1.00  0.00    -0.376 OA
BRANCH   3   4
ATOM      4  C   UNL A   1      37.689  22.985  25.616  1.00  0.00     0.202 C 
BRANCH   4   5
ATOM      5  C   UNL A   1      36.319  22.756  24.963  1.00  0.00     0.261 C 
BRANCH   5   6
ATOM      6  O   UNL A   1      35.925  21.406  24.752  1.00  0.00    -0.459 OA
BRANCH   6   7
ATOM      7  C   UNL A   1      34.960  20.948  25.574  1.00  0.00     0.345 C 
ATOM      8  O   UNL A   1      34.726  21.359  26.699  1.00  0.00    -0.246 OA
BRANCH   7   9
ATOM      9  C   UNL A   1      34.128  19.948  24.866  1.00  0.00     0.138 A 
ATOM     10  C   UNL A   1      32.792  20.124  24.484  1.00  0.00     0.144 A 
ATOM     11  C   UNL A   1      32.117  19.059  23.855  1.00  0.00     0.048 A 
ATOM     12  C   UNL A   1      32.773  17.876  23.522  1.00  0.00     0.007 A 
ATOM     13  C   UNL A   1      34.779  18.757  24.509  1.00  0.00     0.141 A 
ATOM     14  C   UNL A   1      34.117  17.734  23.837  1.00  0.00     0.040 A 
ATOM     15  F   UNL A   1      36.062  18.548  24.841  1.00  0.00    -0.206 F 
BRANCH  10  16
ATOM     16  O   UNL A   1      31.987  21.229  24.599  1.00  0.00    -0.456 OA
BRANCH  16  17
ATOM     17  C   UNL A   1      32.194  22.398  23.907  1.00  0.00     0.130 A 
ATOM     18  C   UNL A   1      31.852  23.710  24.308  1.00  0.00    -0.002 A 
ATOM     19  C   UNL A   1      32.108  24.731  23.370  1.00  0.00     0.008 A 
ATOM     20  C   UNL A   1      32.740  24.483  22.144  1.00  0.00     0.001 A 
ATOM     21  C   UNL A   1      32.886  22.165  22.701  1.00  0.00     0.047 A 
ATOM     22  C   UNL A   1      33.159  23.202  21.820  1.00  0.00     0.004 A 
BRANCH  18  23
ATOM     23  C   UNL A   1      31.182  24.044  25.648  1.00  0.00     0.019 C 
ATOM     24  C   UNL A   1      32.136  23.991  26.849  1.00  0.00     0.013 C 
BRANCH  23  25
ATOM     25  C   UNL A   1      30.245  25.271  25.680  1.00  0.00     0.005 C 
ATOM     26  C   UNL A   1      30.954  26.542  26.141  1.00  0.00     0.004 C 
ENDBRANCH  23  25
ENDBRANCH  18  23
ENDBRANCH  16  17
ENDBRANCH  10  16
ENDBRANCH   7   9
ENDBRANCH   6   7
ENDBRANCH   5   6
ENDBRANCH   4   5
ENDBRANCH   3   4
ENDBRANCH   2   3
ENDBRANCH   1   2
BRANCH   1  27
ATOM     27  O   UNL A   1      40.787  20.252  27.695  1.00  0.00    -0.377 OA
BRANCH  27  28
ATOM     28  C   UNL A   1      40.866  19.516  26.481  1.00  0.00     0.188 C 
BRANCH  28  29
ATOM     29  C   UNL A   1      42.186  18.884  25.979  1.00  0.00     0.188 C 
BRANCH  29  30
ATOM     30  O   UNL A   1      42.814  19.549  24.898  1.00  0.00    -0.376 OA
BRANCH  30  31
ATOM     31  C   UNL A   1      43.890  20.432  25.144  1.00  0.00     0.202 C 
BRANCH  31  32
ATOM     32  C   UNL A   1      43.823  21.338  26.383  1.00  0.00     0.261 C 
BRANCH  32  33
ATOM     33  O   UNL A   1      44.673  22.491  26.369  1.00  0.00    -0.460 OA
BRANCH  33  34
ATOM     34  C   UNL A   1      44.086  23.684  26.592  1.00  0.00     0.338 C 
ATOM     35  O   UNL A   1      42.954  23.888  27.000  1.00  0.00    -0.246 OA
BRANCH  34  36
ATOM     36  C   UNL A   1      45.117  24.728  26.444  1.00  0.00     0.060 A 
ATOM     37  C   UNL A   1      45.826  25.143  27.579  1.00  0.00     0.016 A 
ATOM     38  C   UNL A   1      45.383  25.291  25.193  1.00  0.00     0.016 A 
ATOM     39  C   UNL A   1      46.768  26.161  27.476  1.00  0.00     0.010 A 
ATOM     40  C   UNL A   1      46.305  26.335  25.096  1.00  0.00     0.010 A 
ATOM     41  C   UNL A   1      46.964  26.803  26.248  1.00  0.00    -0.014 A 
BRANCH  41  42
ATOM     42  C   UNL A   1      47.644  28.118  26.232  1.00  0.00     0.031 A 
ATOM     43  C   UNL A   1      49.120  28.139  25.945  1.00  0.00     0.074 A 
ATOM     44  C   UNL A   1      46.967  29.264  26.411  1.00  0.00     0.049 A 
ATOM     45  N   UNL A   1      49.947  29.151  25.892  1.00  0.00    -0.248 NA
ATOM     46  C   UNL A   1      49.749  26.835  25.677  1.00  0.00     0.031 C 
ATOM     47  C   UNL A   1      45.528  29.370  26.640  1.00  0.00     0.029 A 
ATOM     48  N   UNL A   1      47.411  30.562  26.428  1.00  0.00    -0.354 N 
ATOM     49  C   UNL A   1      51.189  28.605  25.595  1.00  0.00     0.074 A 
ATOM     50  C   UNL A   1      51.019  27.172  25.514  1.00  0.00     0.031 C 
ATOM     51  C   UNL A   1      45.208  30.668  26.787  1.00  0.00     0.029 A 
ATOM     52  C   UNL A   1      46.423  31.477  26.694  1.00  0.00     0.049 A 
ATOM     53  H   UNL A   1      48.348  30.813  26.264  1.00  0.00     0.167 HD
ATOM     54  C   UNL A   1      52.365  29.244  25.397  1.00  0.00     0.037 A 
ATOM     55  C   UNL A   1      46.503  32.811  26.864  1.00  0.00     0.037 A 
ATOM     56  C   UNL A   1      52.530  30.671  25.484  1.00  0.00     0.049 A 
ATOM     57  C   UNL A   1      47.844  33.491  26.720  1.00  0.00     0.074 A 
ATOM     58  C   UNL A   1      53.676  31.421  25.294  1.00  0.00     0.029 A 
ATOM     59  N   UNL A   1      51.513  31.562  25.796  1.00  0.00    -0.354 N 
ATOM     60  N   UNL A   1      49.011  32.975  26.421  1.00  0.00    -0.248 NA
ATOM     61  C   UNL A   1      47.872  34.945  26.933  1.00  0.00     0.031 C 
ATOM     62  C   UNL A   1      53.368  32.759  25.556  1.00  0.00     0.029 A 
ATOM     63  C   UNL A   1      52.014  32.854  25.834  1.00  0.00     0.049 A 
ATOM     64  H   UNL A   1      50.576  31.314  25.967  1.00  0.00     0.167 HD
ATOM     65  C   UNL A   1      49.902  34.040  26.372  1.00  0.00     0.074 A 
ATOM     66  C   UNL A   1      49.135  35.235  26.660  1.00  0.00     0.031 C 
ATOM     67  C   UNL A   1      51.234  34.034  26.112  1.00  0.00     0.037 A 
BRANCH  54  68
ATOM     68  C   UNL A   1      53.572  28.399  25.108  1.00  0.00     0.064 A 
ATOM     69  C   UNL A   1      53.942  28.057  23.797  1.00  0.00     0.173 A 
ATOM     70  C   UNL A   1      54.383  27.941  26.157  1.00  0.00     0.173 A 
ATOM     71  F   UNL A   1      53.191  28.452  22.758  1.00  0.00    -0.203 F 
ATOM     72  C   UNL A   1      55.061  27.265  23.552  1.00  0.00     0.198 A 
ATOM     73  C   UNL A   1      55.521  27.180  25.906  1.00  0.00     0.198 A 
ATOM     74  F   UNL A   1      54.075  28.238  27.429  1.00  0.00    -0.203 F 
ATOM     75  F   UNL A   1      55.363  26.904  22.297  1.00  0.00    -0.200 F 
ATOM     76  C   UNL A   1      55.854  26.835  24.606  1.00  0.00     0.200 A 
ATOM     77  F   UNL A   1      56.293  26.776  26.925  1.00  0.00    -0.200 F 
ATOM     78  F   UNL A   1      56.936  26.080  24.368  1.00  0.00    -0.200 F 
ENDBRANCH  54  68
BRANCH  55  79
ATOM     79  C   UNL A   1      45.286  33.596  27.201  1.00  0.00     0.064 A 
ATOM     80  C   UNL A   1      44.470  34.139  26.199  1.00  0.00     0.173 A 
ATOM     81  C   UNL A   1      44.931  33.846  28.536  1.00  0.00     0.173 A 
ATOM     82  F   UNL A   1      44.780  33.949  24.908  1.00  0.00    -0.203 F 
ATOM     83  C   UNL A   1      43.362  34.922  26.517  1.00  0.00     0.198 A 
ATOM     84  C   UNL A   1      43.804  34.601  28.853  1.00  0.00     0.198 A 
ATOM     85  F   UNL A   1      45.678  33.352  29.534  1.00  0.00    -0.203 F 
ATOM     86  F   UNL A   1      42.633  35.476  25.538  1.00  0.00    -0.200 F 
ATOM     87  C   UNL A   1      43.026  35.147  27.844  1.00  0.00     0.200 A 
ATOM     88  F   UNL A   1      43.476  34.804  30.137  1.00  0.00    -0.200 F 
ATOM     89  F   UNL A   1      41.960  35.899  28.149  1.00  0.00    -0.200 F 
ENDBRANCH  55  79
BRANCH  67  90
ATOM     90  C   UNL A   1      51.938  35.362  26.070  1.00  0.00     0.064 A 
ATOM     91  C   UNL A   1      52.419  35.985  27.231  1.00  0.00     0.173 A 
ATOM     92  C   UNL A   1      52.165  36.003  24.842  1.00  0.00     0.173 A 
ATOM     93  F   UNL A   1      52.221  35.421  28.432  1.00  0.00    -0.203 F 
ATOM     94  C   UNL A   1      53.065  37.218  27.168  1.00  0.00     0.198 A 
ATOM     95  C   UNL A   1      52.845  37.216  24.778  1.00  0.00     0.198 A 
ATOM     96  F   UNL A   1      51.737  35.446  23.698  1.00  0.00    -0.203 F 
ATOM     97  F   UNL A   1      53.459  37.824  28.296  1.00  0.00    -0.200 F 
ATOM     98  C   UNL A   1      53.283  37.829  25.942  1.00  0.00     0.200 A 
ATOM     99  F   UNL A   1      53.072  37.794  23.591  1.00  0.00    -0.200 F 
ATOM    100  F   UNL A   1      53.908  39.013  25.883  1.00  0.00    -0.200 F 
ENDBRANCH  67  90
ENDBRANCH  41  42
ENDBRANCH  34  36
ENDBRANCH  33  34
ENDBRANCH  32  33
ENDBRANCH  31  32
ENDBRANCH  30  31
ENDBRANCH  29  30
ENDBRANCH  28  29
ENDBRANCH  27  28
ENDBRANCH   1  27
TORSDOF 24
ENDMDL
MODEL 2
REMARK VINA RESULT:      -9.2      6.963     10.254
REMARK SMILES CC[C@H](C)c1ccccc1Oc1cccc(F)c1C(=O)OCCOCCOCCOCCOC(=O)c1ccc(-c2c3nc(c(-c4c(F)c(F)c(F)c(F)c4F)c4ccc([nH]4)c(-c4c(F)c(F)c(F)c(F)c4F)c4nc(c(-c5c(F)c(F)c(F)c(F)c5F)c5ccc2[nH]5)C=C4)C=C3)cc1
REMARK SMILES IDX 26 1 25 2 24 3 23 4 22 5 21 6 19 7 20 8 18 9 12 10 13 11
REMARK SMILES IDX 14 12 16 13 15 14 17 15 11 16 10 17 5 18 6 19 7 20 9 21 8 22
REMARK SMILES IDX 3 23 4 24 2 25 1 26 27 27 28 28 29 29 30 30 31 31 32 32
REMARK SMILES IDX 33 33 34 34 35 35 36 36 37 37 98 38 38 39 97 40 39 41 40 42
REMARK SMILES IDX 41 43 91 44 42 45 96 46 90 47 92 48 43 49 95 50 89 51 88 52
REMARK SMILES IDX 44 54 76 55 56 56 75 57 57 58 60 59 74 60 93 61 58 62 59 63
REMARK SMILES IDX 73 65 94 66 61 67 45 68 46 69 54 70 47 71 48 72 52 73 55 74
REMARK SMILES IDX 49 75 50 76 53 77 51 78 77 79 78 80 86 81 79 82 80 83 84 84
REMARK SMILES IDX 87 85 81 86 82 87 85 88 83 89 62 90 63 91 71 92 64 93 65 94
REMARK SMILES IDX 69 95 72 96 66 97 67 98 70 99 68 100
REMARK H PARENT 92 53 60 64
REMARK Flexibility Score: inf
ROOT
ATOM      1  C   UNL A   1      41.082  21.021  26.334  1.00  0.00     0.188 C 
ENDROOT
BRANCH   1   2
ATOM      2  C   UNL A   1      40.747  22.032  27.453  1.00  0.00     0.188 C 
BRANCH   2   3
ATOM      3  O   UNL A   1      39.706  22.945  27.173  1.00  0.00    -0.376 OA
BRANCH   3   4
ATOM      4  C   UNL A   1      38.587  22.617  26.371  1.00  0.00     0.202 C 
BRANCH   4   5
ATOM      5  C   UNL A   1      37.821  23.581  25.453  1.00  0.00     0.261 C 
BRANCH   5   6
ATOM      6  O   UNL A   1      36.420  23.374  25.330  1.00  0.00    -0.459 OA
BRANCH   6   7
ATOM      7  C   UNL A   1      36.023  22.748  24.205  1.00  0.00     0.345 C 
ATOM      8  O   UNL A   1      36.703  22.574  23.205  1.00  0.00    -0.246 OA
BRANCH   7   9
ATOM      9  C   UNL A   1      34.669  22.180  24.395  1.00  0.00     0.138 A 
ATOM     10  C   UNL A   1      33.463  22.868  24.205  1.00  0.00     0.144 A 
ATOM     11  C   UNL A   1      32.250  22.204  24.471  1.00  0.00     0.048 A 
ATOM     12  C   UNL A   1      32.220  20.856  24.825  1.00  0.00     0.007 A 
ATOM     13  C   UNL A   1      34.621  20.820  24.736  1.00  0.00     0.141 A 
ATOM     14  C   UNL A   1      33.414  20.158  24.941  1.00  0.00     0.040 A 
ATOM     15  F   UNL A   1      35.748  20.116  24.916  1.00  0.00    -0.206 F 
BRANCH  10  16
ATOM     16  O   UNL A   1      33.246  24.145  23.752  1.00  0.00    -0.456 OA
BRANCH  16  17
ATOM     17  C   UNL A   1      32.646  25.127  24.503  1.00  0.00     0.130 A 
ATOM     18  C   UNL A   1      31.869  26.214  24.038  1.00  0.00    -0.002 A 
ATOM     19  C   UNL A   1      31.431  27.127  25.020  1.00  0.00     0.008 A 
ATOM     20  C   UNL A   1      31.675  26.933  26.387  1.00  0.00     0.001 A 
ATOM     21  C   UNL A   1      32.834  24.907  25.882  1.00  0.00     0.047 A 
ATOM     22  C   UNL A   1      32.352  25.805  26.823  1.00  0.00     0.004 A 
BRANCH  18  23
ATOM     23  C   UNL A   1      31.548  26.460  22.558  1.00  0.00     0.019 C 
ATOM     24  C   UNL A   1      30.518  27.573  22.323  1.00  0.00     0.013 C 
BRANCH  23  25
ATOM     25  C   UNL A   1      32.743  26.532  21.582  1.00  0.00     0.005 C 
ATOM     26  C   UNL A   1      32.564  25.627  20.364  1.00  0.00     0.004 C 
ENDBRANCH  23  25
ENDBRANCH  18  23
ENDBRANCH  16  17
ENDBRANCH  10  16
ENDBRANCH   7   9
ENDBRANCH   6   7
ENDBRANCH   5   6
ENDBRANCH   4   5
ENDBRANCH   3   4
ENDBRANCH   2   3
ENDBRANCH   1   2
BRANCH   1  27
ATOM     27  O   UNL A   1      42.101  21.378  25.417  1.00  0.00    -0.377 OA
BRANCH  27  28
ATOM     28  C   UNL A   1      42.754  22.633  25.552  1.00  0.00     0.188 C 
BRANCH  28  29
ATOM     29  C   UNL A   1      44.293  22.760  25.655  1.00  0.00     0.188 C 
BRANCH  29  30
ATOM     30  O   UNL A   1      44.966  23.076  24.450  1.00  0.00    -0.376 OA
BRANCH  30  31
ATOM     31  C   UNL A   1      46.268  23.626  24.494  1.00  0.00     0.202 C 
BRANCH  31  32
ATOM     32  C   UNL A   1      46.413  25.148  24.653  1.00  0.00     0.261 C 
BRANCH  32  33
ATOM     33  O   UNL A   1      47.178  25.595  25.779  1.00  0.00    -0.460 OA
BRANCH  33  34
ATOM     34  C   UNL A   1      46.937  24.991  26.959  1.00  0.00     0.338 C 
ATOM     35  O   UNL A   1      47.562  24.070  27.461  1.00  0.00    -0.246 OA
BRANCH  34  36
ATOM     36  C   UNL A   1      45.891  25.762  27.656  1.00  0.00     0.060 A 
ATOM     37  C   UNL A   1      45.966  27.160  27.652  1.00  0.00     0.016 A 
ATOM     38  C   UNL A   1      44.841  25.107  28.305  1.00  0.00     0.016 A 
ATOM     39  C   UNL A   1      45.020  27.910  28.343  1.00  0.00     0.010 A 
ATOM     40  C   UNL A   1      43.910  25.858  29.025  1.00  0.00     0.010 A 
ATOM     41  C   UNL A   1      44.028  27.259  29.084  1.00  0.00    -0.014 A 
BRANCH  41  42
ATOM     42  C   UNL A   1      43.296  28.024  30.120  1.00  0.00     0.031 A 
ATOM     43  C   UNL A   1      43.935  28.156  31.475  1.00  0.00     0.074 A 
ATOM     44  C   UNL A   1      42.128  28.632  29.853  1.00  0.00     0.049 A 
ATOM     45  N   UNL A   1      43.495  28.754  32.551  1.00  0.00    -0.248 NA
ATOM     46  C   UNL A   1      45.256  27.524  31.635  1.00  0.00     0.031 C 
ATOM     47  C   UNL A   1      41.444  28.621  28.563  1.00  0.00     0.029 A 
ATOM     48  N   UNL A   1      41.313  29.378  30.665  1.00  0.00    -0.354 N 
ATOM     49  C   UNL A   1      44.479  28.565  33.513  1.00  0.00     0.074 A 
ATOM     50  C   UNL A   1      45.521  27.767  32.909  1.00  0.00     0.031 C 
ATOM     51  C   UNL A   1      40.301  29.321  28.674  1.00  0.00     0.029 A 
ATOM     52  C   UNL A   1      40.161  29.799  30.049  1.00  0.00     0.049 A 
ATOM     53  H   UNL A   1      41.533  29.592  31.600  1.00  0.00     0.167 HD
ATOM     54  C   UNL A   1      44.514  29.024  34.786  1.00  0.00     0.037 A 
ATOM     55  C   UNL A   1      39.109  30.474  30.552  1.00  0.00     0.037 A 
ATOM     56  C   UNL A   1      43.471  29.815  35.383  1.00  0.00     0.049 A 
ATOM     57  C   UNL A   1      39.134  30.904  31.999  1.00  0.00     0.074 A 
ATOM     58  C   UNL A   1      43.409  30.339  36.662  1.00  0.00     0.029 A 
ATOM     59  N   UNL A   1      42.299  30.188  34.740  1.00  0.00    -0.354 N 
ATOM     60  N   UNL A   1      40.073  30.740  32.900  1.00  0.00    -0.248 NA
ATOM     61  C   UNL A   1      37.952  31.622  32.495  1.00  0.00     0.031 C 
ATOM     62  C   UNL A   1      42.172  30.972  36.813  1.00  0.00     0.029 A 
ATOM     63  C   UNL A   1      41.494  30.909  35.607  1.00  0.00     0.049 A 
ATOM     64  H   UNL A   1      42.072  29.970  33.807  1.00  0.00     0.167 HD
ATOM     65  C   UNL A   1      39.613  31.363  34.053  1.00  0.00     0.074 A 
ATOM     66  C   UNL A   1      38.316  31.922  33.733  1.00  0.00     0.031 C 
ATOM     67  C   UNL A   1      40.209  31.467  35.268  1.00  0.00     0.037 A 
BRANCH  54  68
ATOM     68  C   UNL A   1      45.700  28.649  35.626  1.00  0.00     0.064 A 
ATOM     69  C   UNL A   1      45.727  27.471  36.389  1.00  0.00     0.173 A 
ATOM     70  C   UNL A   1      46.836  29.472  35.652  1.00  0.00     0.173 A 
ATOM     71  F   UNL A   1      44.660  26.659  36.416  1.00  0.00    -0.203 F 
ATOM     72  C   UNL A   1      46.835  27.148  37.168  1.00  0.00     0.198 A 
ATOM     73  C   UNL A   1      47.956  29.127  36.403  1.00  0.00     0.198 A 
ATOM     74  F   UNL A   1      46.864  30.610  34.941  1.00  0.00    -0.203 F 
ATOM     75  F   UNL A   1      46.817  26.047  37.933  1.00  0.00    -0.200 F 
ATOM     76  C   UNL A   1      47.951  27.971  37.167  1.00  0.00     0.200 A 
ATOM     77  F   UNL A   1      49.038  29.918  36.390  1.00  0.00    -0.200 F 
ATOM     78  F   UNL A   1      49.021  27.654  37.910  1.00  0.00    -0.200 F 
ENDBRANCH  54  68
BRANCH  55  79
ATOM     79  C   UNL A   1      37.934  30.775  29.691  1.00  0.00     0.064 A 
ATOM     80  C   UNL A   1      36.977  29.794  29.397  1.00  0.00     0.173 A 
ATOM     81  C   UNL A   1      37.762  32.045  29.117  1.00  0.00     0.173 A 
ATOM     82  F   UNL A   1      37.110  28.559  29.900  1.00  0.00    -0.203 F 
ATOM     83  C   UNL A   1      35.908  30.063  28.543  1.00  0.00     0.198 A 
ATOM     84  C   UNL A   1      36.675  32.321  28.291  1.00  0.00     0.198 A 
ATOM     85  F   UNL A   1      38.649  33.020  29.363  1.00  0.00    -0.203 F 
ATOM     86  F   UNL A   1      35.040  29.089  28.235  1.00  0.00    -0.200 F 
ATOM     87  C   UNL A   1      35.754  31.328  27.997  1.00  0.00     0.200 A 
ATOM     88  F   UNL A   1      36.523  33.550  27.776  1.00  0.00    -0.200 F 
ATOM     89  F   UNL A   1      34.726  31.585  27.178  1.00  0.00    -0.200 F 
ENDBRANCH  55  79
BRANCH  67  90
ATOM     90  C   UNL A   1      39.491  32.259  36.326  1.00  0.00     0.064 A 
ATOM     91  C   UNL A   1      38.449  31.711  37.087  1.00  0.00     0.173 A 
ATOM     92  C   UNL A   1      39.878  33.580  36.605  1.00  0.00     0.173 A 
ATOM     93  F   UNL A   1      38.032  30.456  36.856  1.00  0.00    -0.203 F 
ATOM     94  C   UNL A   1      37.795  32.465  38.059  1.00  0.00     0.198 A 
ATOM     95  C   UNL A   1      39.250  34.319  37.603  1.00  0.00     0.198 A 
ATOM     96  F   UNL A   1      40.878  34.152  35.916  1.00  0.00    -0.203 F 
ATOM     97  F   UNL A   1      36.761  31.940  38.728  1.00  0.00    -0.200 F 
ATOM     98  C   UNL A   1      38.201  33.765  38.320  1.00  0.00     0.200 A 
ATOM     99  F   UNL A   1      39.657  35.568  37.868  1.00  0.00    -0.200 F 
ATOM    100  F   UNL A   1      37.574  34.489  39.259  1.00  0.00    -0.200 F 
ENDBRANCH  67  90
ENDBRANCH  41  42
ENDBRANCH  34  36
ENDBRANCH  33  34
ENDBRANCH  32  33
ENDBRANCH  31  32
ENDBRANCH  30  31
ENDBRANCH  29  30
ENDBRANCH  28  29
ENDBRANCH  27  28
ENDBRANCH   1  27
TORSDOF 24
ENDMDL
MODEL 3
REMARK VINA RESULT:      -8.9      3.615      6.633
REMARK SMILES CC[C@H](C)c1ccccc1Oc1cccc(F)c1C(=O)OCCOCCOCCOCCOC(=O)c1ccc(-c2c3nc(c(-c4c(F)c(F)c(F)c(F)c4F)c4ccc([nH]4)c(-c4c(F)c(F)c(F)c(F)c4F)c4nc(c(-c5c(F)c(F)c(F)c(F)c5F)c5ccc2[nH]5)C=C4)C=C3)cc1
REMARK SMILES IDX 26 1 25 2 24 3 23 4 22 5 21 6 19 7 20 8 18 9 12 10 13 11
REMARK SMILES IDX 14 12 16 13 15 14 17 15 11 16 10 17 5 18 6 19 7 20 9 21 8 22
REMARK SMILES IDX 3 23 4 24 2 25 1 26 27 27 28 28 29 29 30 30 31 31 32 32
REMARK SMILES IDX 33 33 34 34 35 35 36 36 37 37 98 38 38 39 97 40 39 41 40 42
REMARK SMILES IDX 41 43 91 44 42 45 96 46 90 47 92 48 43 49 95 50 89 51 88 52
REMARK SMILES IDX 44 54 76 55 56 56 75 57 57 58 60 59 74 60 93 61 58 62 59 63
REMARK SMILES IDX 73 65 94 66 61 67 45 68 46 69 54 70 47 71 48 72 52 73 55 74
REMARK SMILES IDX 49 75 50 76 53 77 51 78 77 79 78 80 86 81 79 82 80 83 84 84
REMARK SMILES IDX 87 85 81 86 82 87 85 88 83 89 62 90 63 91 71 92 64 93 65 94
REMARK SMILES IDX 69 95 72 96 66 97 67 98 70 99 68 100
REMARK H PARENT 92 53 60 64
REMARK Flexibility Score: inf
ROOT
ATOM      1  C   UNL A   1      40.881  21.354  27.506  1.00  0.00     0.188 C 
ENDROOT
BRANCH   1   2
ATOM      2  C   UNL A   1      40.146  22.015  26.319  1.00  0.00     0.188 C 
BRANCH   2   3
ATOM      3  O   UNL A   1      38.753  22.194  26.475  1.00  0.00    -0.376 OA
BRANCH   3   4
ATOM      4  C   UNL A   1      38.055  23.311  25.956  1.00  0.00     0.202 C 
BRANCH   4   5
ATOM      5  C   UNL A   1      37.031  23.284  24.812  1.00  0.00     0.261 C 
BRANCH   5   6
ATOM      6  O   UNL A   1      36.312  22.072  24.623  1.00  0.00    -0.459 OA
BRANCH   6   7
ATOM      7  C   UNL A   1      35.227  21.914  25.407  1.00  0.00     0.345 C 
ATOM      8  O   UNL A   1      35.237  21.740  26.616  1.00  0.00    -0.246 OA
BRANCH   7   9
ATOM      9  C   UNL A   1      33.995  22.109  24.608  1.00  0.00     0.138 A 
ATOM     10  C   UNL A   1      33.405  23.345  24.310  1.00  0.00     0.144 A 
ATOM     11  C   UNL A   1      32.205  23.368  23.574  1.00  0.00     0.048 A 
ATOM     12  C   UNL A   1      31.645  22.200  23.057  1.00  0.00     0.007 A 
ATOM     13  C   UNL A   1      33.429  20.946  24.067  1.00  0.00     0.141 A 
ATOM     14  C   UNL A   1      32.273  20.985  23.293  1.00  0.00     0.040 A 
ATOM     15  F   UNL A   1      33.966  19.741  24.312  1.00  0.00    -0.206 F 
BRANCH  10  16
ATOM     16  O   UNL A   1      33.835  24.613  24.607  1.00  0.00    -0.456 OA
BRANCH  16  17
ATOM     17  C   UNL A   1      32.987  25.662  24.873  1.00  0.00     0.130 A 
ATOM     18  C   UNL A   1      32.476  26.611  23.957  1.00  0.00    -0.002 A 
ATOM     19  C   UNL A   1      31.680  27.638  24.509  1.00  0.00     0.008 A 
ATOM     20  C   UNL A   1      31.342  27.676  25.869  1.00  0.00     0.001 A 
ATOM     21  C   UNL A   1      32.591  25.672  26.226  1.00  0.00     0.047 A 
ATOM     22  C   UNL A   1      31.772  26.675  26.725  1.00  0.00     0.004 A 
BRANCH  18  23
ATOM     23  C   UNL A   1      32.792  26.603  22.456  1.00  0.00     0.019 C 
ATOM     24  C   UNL A   1      31.556  26.429  21.563  1.00  0.00     0.013 C 
BRANCH  23  25
ATOM     25  C   UNL A   1      33.762  27.686  21.935  1.00  0.00     0.005 C 
ATOM     26  C   UNL A   1      34.251  28.619  23.040  1.00  0.00     0.004 C 
ENDBRANCH  23  25
ENDBRANCH  18  23
ENDBRANCH  16  17
ENDBRANCH  10  16
ENDBRANCH   7   9
ENDBRANCH   6   7
ENDBRANCH   5   6
ENDBRANCH   4   5
ENDBRANCH   3   4
ENDBRANCH   2   3
ENDBRANCH   1   2
BRANCH   1  27
ATOM     27  O   UNL A   1      41.212  19.983  27.386  1.00  0.00    -0.377 OA
BRANCH  27  28
ATOM     28  C   UNL A   1      41.626  19.473  26.125  1.00  0.00     0.188 C 
BRANCH  28  29
ATOM     29  C   UNL A   1      43.117  19.275  25.760  1.00  0.00     0.188 C 
BRANCH  29  30
ATOM     30  O   UNL A   1      43.618  20.125  24.744  1.00  0.00    -0.376 OA
BRANCH  30  31
ATOM     31  C   UNL A   1      44.576  21.115  25.065  1.00  0.00     0.202 C 
BRANCH  31  32
ATOM     32  C   UNL A   1      44.322  22.007  26.290  1.00  0.00     0.261 C 
BRANCH  32  33
ATOM     33  O   UNL A   1      44.687  23.386  26.153  1.00  0.00    -0.460 OA
BRANCH  33  34
ATOM     34  C   UNL A   1      43.766  24.210  25.614  1.00  0.00     0.338 C 
ATOM     35  O   UNL A   1      42.764  23.895  24.991  1.00  0.00    -0.246 OA
BRANCH  34  36
ATOM     36  C   UNL A   1      44.064  25.580  26.071  1.00  0.00     0.060 A 
ATOM     37  C   UNL A   1      44.810  25.754  27.243  1.00  0.00     0.016 A 
ATOM     38  C   UNL A   1      43.612  26.684  25.344  1.00  0.00     0.016 A 
ATOM     39  C   UNL A   1      45.063  27.035  27.723  1.00  0.00     0.010 A 
ATOM     40  C   UNL A   1      43.838  27.969  25.842  1.00  0.00     0.010 A 
ATOM     41  C   UNL A   1      44.523  28.142  27.059  1.00  0.00    -0.014 A 
BRANCH  41  42
ATOM     42  C   UNL A   1      44.447  29.435  27.777  1.00  0.00     0.031 A 
ATOM     43  C   UNL A   1      45.622  30.368  27.664  1.00  0.00     0.074 A 
ATOM     44  C   UNL A   1      43.350  29.799  28.461  1.00  0.00     0.049 A 
ATOM     45  N   UNL A   1      45.811  31.543  28.207  1.00  0.00    -0.248 NA
ATOM     46  C   UNL A   1      46.737  29.910  26.819  1.00  0.00     0.031 C 
ATOM     47  C   UNL A   1      42.132  29.003  28.592  1.00  0.00     0.029 A 
ATOM     48  N   UNL A   1      43.090  30.939  29.177  1.00  0.00    -0.354 N 
ATOM     49  C   UNL A   1      47.065  31.957  27.775  1.00  0.00     0.074 A 
ATOM     50  C   UNL A   1      47.608  30.897  26.957  1.00  0.00     0.031 C 
ATOM     51  C   UNL A   1      41.255  29.677  29.356  1.00  0.00     0.029 A 
ATOM     52  C   UNL A   1      41.863  30.934  29.792  1.00  0.00     0.049 A 
ATOM     53  H   UNL A   1      43.723  31.690  29.244  1.00  0.00     0.167 HD
ATOM     54  C   UNL A   1      47.702  33.123  28.032  1.00  0.00     0.037 A 
ATOM     55  C   UNL A   1      41.311  31.835  30.628  1.00  0.00     0.037 A 
ATOM     56  C   UNL A   1      47.157  34.173  28.851  1.00  0.00     0.049 A 
ATOM     57  C   UNL A   1      42.078  33.091  30.966  1.00  0.00     0.074 A 
ATOM     58  C   UNL A   1      47.716  35.398  29.168  1.00  0.00     0.029 A 
ATOM     59  N   UNL A   1      45.927  34.115  29.491  1.00  0.00    -0.354 N 
ATOM     60  N   UNL A   1      43.253  33.488  30.541  1.00  0.00    -0.248 NA
ATOM     61  C   UNL A   1      41.432  34.028  31.895  1.00  0.00     0.031 C 
ATOM     62  C   UNL A   1      46.854  36.053  30.053  1.00  0.00     0.029 A 
ATOM     63  C   UNL A   1      45.723  35.270  30.227  1.00  0.00     0.049 A 
ATOM     64  H   UNL A   1      45.294  33.363  29.432  1.00  0.00     0.167 HD
ATOM     65  C   UNL A   1      43.472  34.732  31.120  1.00  0.00     0.074 A 
ATOM     66  C   UNL A   1      42.298  35.031  31.915  1.00  0.00     0.031 C 
ATOM     67  C   UNL A   1      44.544  35.556  31.005  1.00  0.00     0.037 A 
BRANCH  54  68
ATOM     68  C   UNL A   1      49.074  33.305  27.451  1.00  0.00     0.064 A 
ATOM     69  C   UNL A   1      50.231  32.902  28.137  1.00  0.00     0.173 A 
ATOM     70  C   UNL A   1      49.233  33.873  26.178  1.00  0.00     0.173 A 
ATOM     71  F   UNL A   1      50.137  32.371  29.365  1.00  0.00    -0.203 F 
ATOM     72  C   UNL A   1      51.494  33.089  27.582  1.00  0.00     0.198 A 
ATOM     73  C   UNL A   1      50.495  34.025  25.611  1.00  0.00     0.198 A 
ATOM     74  F   UNL A   1      48.161  34.276  25.478  1.00  0.00    -0.203 F 
ATOM     75  F   UNL A   1      52.588  32.748  28.279  1.00  0.00    -0.200 F 
ATOM     76  C   UNL A   1      51.625  33.642  26.317  1.00  0.00     0.200 A 
ATOM     77  F   UNL A   1      50.618  34.548  24.383  1.00  0.00    -0.200 F 
ATOM     78  F   UNL A   1      52.841  33.812  25.781  1.00  0.00    -0.200 F 
ENDBRANCH  54  68
BRANCH  55  79
ATOM     79  C   UNL A   1      39.970  31.583  31.218  1.00  0.00     0.064 A 
ATOM     80  C   UNL A   1      39.825  30.870  32.417  1.00  0.00     0.173 A 
ATOM     81  C   UNL A   1      38.801  32.022  30.578  1.00  0.00     0.173 A 
ATOM     82  F   UNL A   1      40.910  30.408  33.055  1.00  0.00    -0.203 F 
ATOM     83  C   UNL A   1      38.564  30.585  32.938  1.00  0.00     0.198 A 
ATOM     84  C   UNL A   1      37.542  31.765  31.117  1.00  0.00     0.198 A 
ATOM     85  F   UNL A   1      38.881  32.706  29.427  1.00  0.00    -0.203 F 
ATOM     86  F   UNL A   1      38.455  29.854  34.056  1.00  0.00    -0.200 F 
ATOM     87  C   UNL A   1      37.424  31.039  32.292  1.00  0.00     0.200 A 
ATOM     88  F   UNL A   1      36.444  32.218  30.496  1.00  0.00    -0.200 F 
ATOM     89  F   UNL A   1      36.213  30.766  32.795  1.00  0.00    -0.200 F 
ENDBRANCH  55  79
BRANCH  67  90
ATOM     90  C   UNL A   1      44.477  36.883  31.709  1.00  0.00     0.064 A 
ATOM     91  C   UNL A   1      43.932  38.022  31.098  1.00  0.00     0.173 A 
ATOM     92  C   UNL A   1      44.935  37.007  33.030  1.00  0.00     0.173 A 
ATOM     93  F   UNL A   1      43.488  37.964  29.833  1.00  0.00    -0.203 F 
ATOM     94  C   UNL A   1      43.885  39.243  31.769  1.00  0.00     0.198 A 
ATOM     95  C   UNL A   1      44.851  38.217  33.711  1.00  0.00     0.198 A 
ATOM     96  F   UNL A   1      45.455  35.946  33.668  1.00  0.00    -0.203 F 
ATOM     97  F   UNL A   1      43.418  40.331  31.142  1.00  0.00    -0.200 F 
ATOM     98  C   UNL A   1      44.338  39.337  33.076  1.00  0.00     0.200 A 
ATOM     99  F   UNL A   1      45.271  38.301  34.981  1.00  0.00    -0.200 F 
ATOM    100  F   UNL A   1      44.287  40.511  33.721  1.00  0.00    -0.200 F 
ENDBRANCH  67  90
ENDBRANCH  41  42
ENDBRANCH  34  36
ENDBRANCH  33  34
ENDBRANCH  32  33
ENDBRANCH  31  32
ENDBRANCH  30  31
ENDBRANCH  29  30
ENDBRANCH  28  29
ENDBRANCH  27  28
ENDBRANCH   1  27
TORSDOF 24
ENDMDL
