MODEL 1
REMARK VINA RESULT:      -7.2      0.000      0.000
REMARK SMILES [NH3+][C@@H](C[NH+](CCO)CCO)C(=O)OCCOCCOCCOCCOC(=O)c1ccc(-c2c3nc(c(-c4c(F)c(F)c(F)c(F)c4F)c4ccc([nH]4)c(-c4c(F)c(F)c(F)c(F)c4F)c4nc(c(-c5c(F)c(F)c(F)c(F)c5F)c5ccc2[nH]5)C=C4)C=C3)cc1
REMARK SMILES IDX 17 1 16 2 15 3 14 4 13 5 11 6 12 7 2 8 1 9 3 13 4 14 5 16
REMARK SMILES IDX 6 17 7 18 8 20 9 21 10 22 18 24 19 25 20 26 21 27 22 28
REMARK SMILES IDX 23 29 24 30 25 31 26 32 27 33 28 34 29 35 90 36 30 37 89 38
REMARK SMILES IDX 31 39 32 40 33 41 83 42 34 43 88 44 82 45 84 46 35 47 87 48
REMARK SMILES IDX 81 49 80 50 36 52 68 53 48 54 67 55 49 56 52 57 66 58 85 59
REMARK SMILES IDX 50 60 51 61 65 63 86 64 53 65 37 66 38 67 46 68 39 69 40 70
REMARK SMILES IDX 44 71 47 72 41 73 42 74 45 75 43 76 69 77 70 78 78 79 71 80
REMARK SMILES IDX 72 81 76 82 79 83 73 84 74 85 77 86 75 87 54 88 55 89 63 90
REMARK SMILES IDX 56 91 57 92 61 93 64 94 58 95 59 96 62 97 60 98
REMARK H PARENT 1 10 1 11 1 12 4 15 7 19 10 23 84 51 52 62
REMARK Flexibility Score: inf
ROOT
ATOM      1  C   UNL A   1      44.578  19.927  24.154  1.00  0.00     0.188 C 
ENDROOT
BRANCH   1   2
ATOM      2  O   UNL A   1      44.306  21.200  24.728  1.00  0.00    -0.376 OA
BRANCH   2   3
ATOM      3  C   UNL A   1      45.113  21.754  25.757  1.00  0.00     0.202 C 
BRANCH   3   4
ATOM      4  C   UNL A   1      45.965  23.026  25.598  1.00  0.00     0.261 C 
BRANCH   4   5
ATOM      5  O   UNL A   1      46.599  23.518  26.776  1.00  0.00    -0.459 OA
BRANCH   5   6
ATOM      6  C   UNL A   1      46.391  24.834  27.057  1.00  0.00     0.370 C 
ATOM      7  O   UNL A   1      45.359  25.447  26.814  1.00  0.00    -0.245 OA
BRANCH   6   8
ATOM      8  C   UNL A   1      47.627  25.483  27.694  1.00  0.00     0.347 C 
BRANCH   8   9
ATOM      9  N   UNL A   1      48.898  24.903  27.232  1.00  0.00    -0.341 N 
ATOM     10  H   UNL A   1      49.133  24.095  27.809  1.00  0.00     0.345 HD
ATOM     11  H   UNL A   1      49.638  25.601  27.308  1.00  0.00     0.345 HD
ATOM     12  H   UNL A   1      48.805  24.611  26.259  1.00  0.00     0.345 HD
ENDBRANCH   8   9
BRANCH   8  13
ATOM     13  C   UNL A   1      47.557  27.009  27.526  1.00  0.00     0.340 C 
BRANCH  13  14
ATOM     14  N   UNL A   1      48.148  27.649  26.346  1.00  0.00    -0.326 N 
ATOM     15  H   UNL A   1      47.463  28.404  26.319  1.00  0.00     0.348 HD
BRANCH  14  16
ATOM     16  C   UNL A   1      49.488  28.200  26.560  1.00  0.00     0.291 C 
BRANCH  16  17
ATOM     17  C   UNL A   1      50.560  27.736  25.564  1.00  0.00     0.217 C 
BRANCH  17  18
ATOM     18  O   UNL A   1      51.156  26.517  25.983  1.00  0.00    -0.391 OA
ATOM     19  H   UNL A   1      51.738  26.686  26.741  1.00  0.00     0.210 HD
ENDBRANCH  17  18
ENDBRANCH  16  17
ENDBRANCH  14  16
BRANCH  14  20
ATOM     20  C   UNL A   1      47.774  27.322  24.970  1.00  0.00     0.291 C 
BRANCH  20  21
ATOM     21  C   UNL A   1      46.495  27.907  24.334  1.00  0.00     0.217 C 
BRANCH  21  22
ATOM     22  O   UNL A   1      46.672  28.346  22.993  1.00  0.00    -0.391 OA
ATOM     23  H   UNL A   1      47.266  27.736  22.528  1.00  0.00     0.210 HD
ENDBRANCH  21  22
ENDBRANCH  20  21
ENDBRANCH  14  20
ENDBRANCH  13  14
ENDBRANCH   8  13
ENDBRANCH   6   8
ENDBRANCH   5   6
ENDBRANCH   4   5
ENDBRANCH   3   4
ENDBRANCH   2   3
ENDBRANCH   1   2
BRANCH   1  24
ATOM     24  C   UNL A   1      45.021  18.753  25.041  1.00  0.00     0.188 C 
BRANCH  24  25
ATOM     25  O   UNL A   1      43.972  18.195  25.807  1.00  0.00    -0.377 OA
BRANCH  25  26
ATOM     26  C   UNL A   1      42.738  18.902  25.747  1.00  0.00     0.188 C 
BRANCH  26  27
ATOM     27  C   UNL A   1      42.218  19.600  27.030  1.00  0.00     0.188 C 
BRANCH  27  28
ATOM     28  O   UNL A   1      40.808  19.733  27.131  1.00  0.00    -0.376 OA
BRANCH  28  29
ATOM     29  C   UNL A   1      40.042  20.115  25.997  1.00  0.00     0.202 C 
BRANCH  29  30
ATOM     30  C   UNL A   1      39.356  21.494  25.982  1.00  0.00     0.261 C 
BRANCH  30  31
ATOM     31  O   UNL A   1      39.888  22.483  26.874  1.00  0.00    -0.460 OA
BRANCH  31  32
ATOM     32  C   UNL A   1      40.948  23.198  26.450  1.00  0.00     0.338 C 
ATOM     33  O   UNL A   1      41.748  22.890  25.582  1.00  0.00    -0.246 OA
BRANCH  32  34
ATOM     34  C   UNL A   1      40.864  24.538  27.069  1.00  0.00     0.060 A 
ATOM     35  C   UNL A   1      41.545  25.602  26.465  1.00  0.00     0.016 A 
ATOM     36  C   UNL A   1      40.116  24.745  28.230  1.00  0.00     0.016 A 
ATOM     37  C   UNL A   1      41.516  26.870  27.043  1.00  0.00     0.010 A 
ATOM     38  C   UNL A   1      40.111  26.008  28.826  1.00  0.00     0.010 A 
ATOM     39  C   UNL A   1      40.843  27.065  28.256  1.00  0.00    -0.014 A 
BRANCH  39  40
ATOM     40  C   UNL A   1      41.097  28.300  29.036  1.00  0.00     0.031 A 
ATOM     41  C   UNL A   1      42.469  28.498  29.621  1.00  0.00     0.074 A 
ATOM     42  C   UNL A   1      40.151  29.241  29.193  1.00  0.00     0.049 A 
ATOM     43  N   UNL A   1      42.921  29.460  30.382  1.00  0.00    -0.248 NA
ATOM     44  C   UNL A   1      43.467  27.463  29.300  1.00  0.00     0.031 C 
ATOM     45  C   UNL A   1      38.806  29.193  28.625  1.00  0.00     0.029 A 
ATOM     46  N   UNL A   1      40.182  30.424  29.889  1.00  0.00    -0.354 N 
ATOM     47  C   UNL A   1      44.249  29.144  30.636  1.00  0.00     0.074 A 
ATOM     48  C   UNL A   1      44.522  27.885  29.979  1.00  0.00     0.031 C 
ATOM     49  C   UNL A   1      38.135  30.294  29.005  1.00  0.00     0.029 A 
ATOM     50  C   UNL A   1      38.990  31.103  29.873  1.00  0.00     0.049 A 
ATOM     51  H   UNL A   1      40.985  30.754  30.355  1.00  0.00     0.167 HD
ATOM     52  C   UNL A   1      45.163  29.846  31.347  1.00  0.00     0.037 A 
ATOM     53  C   UNL A   1      38.629  32.234  30.510  1.00  0.00     0.037 A 
ATOM     54  C   UNL A   1      44.885  31.096  32.004  1.00  0.00     0.049 A 
ATOM     55  C   UNL A   1      39.636  32.948  31.377  1.00  0.00     0.074 A 
ATOM     56  C   UNL A   1      45.742  31.890  32.745  1.00  0.00     0.029 A 
ATOM     57  N   UNL A   1      43.651  31.730  32.003  1.00  0.00    -0.354 N 
ATOM     58  N   UNL A   1      40.894  32.653  31.606  1.00  0.00    -0.248 NA
ATOM     59  C   UNL A   1      39.172  34.156  32.076  1.00  0.00     0.031 C 
ATOM     60  C   UNL A   1      45.011  32.970  33.247  1.00  0.00     0.029 A 
ATOM     61  C   UNL A   1      43.716  32.891  32.758  1.00  0.00     0.049 A 
ATOM     62  H   UNL A   1      42.849  31.404  31.537  1.00  0.00     0.167 HD
ATOM     63  C   UNL A   1      41.380  33.654  32.439  1.00  0.00     0.074 A 
ATOM     64  C   UNL A   1      40.283  34.572  32.666  1.00  0.00     0.031 C 
ATOM     65  C   UNL A   1      42.621  33.802  32.966  1.00  0.00     0.037 A 
BRANCH  52  66
ATOM     66  C   UNL A   1      46.539  29.261  31.479  1.00  0.00     0.064 A 
ATOM     67  C   UNL A   1      46.882  28.406  32.537  1.00  0.00     0.173 A 
ATOM     68  C   UNL A   1      47.521  29.538  30.516  1.00  0.00     0.173 A 
ATOM     69  F   UNL A   1      45.986  28.122  33.495  1.00  0.00    -0.203 F 
ATOM     70  C   UNL A   1      48.165  27.872  32.641  1.00  0.00     0.198 A 
ATOM     71  C   UNL A   1      48.792  28.976  30.604  1.00  0.00     0.198 A 
ATOM     72  F   UNL A   1      47.247  30.348  29.483  1.00  0.00    -0.203 F 
ATOM     73  F   UNL A   1      48.485  27.101  33.689  1.00  0.00    -0.200 F 
ATOM     74  C   UNL A   1      49.116  28.151  31.670  1.00  0.00     0.200 A 
ATOM     75  F   UNL A   1      49.705  29.235  29.657  1.00  0.00    -0.200 F 
ATOM     76  F   UNL A   1      50.345  27.629  31.766  1.00  0.00    -0.200 F 
ENDBRANCH  52  66
BRANCH  53  77
ATOM     77  C   UNL A   1      37.244  32.763  30.369  1.00  0.00     0.064 A 
ATOM     78  C   UNL A   1      36.277  32.527  31.355  1.00  0.00     0.173 A 
ATOM     79  C   UNL A   1      36.852  33.484  29.232  1.00  0.00     0.173 A 
ATOM     80  F   UNL A   1      36.593  31.818  32.448  1.00  0.00    -0.203 F 
ATOM     81  C   UNL A   1      34.964  32.973  31.199  1.00  0.00     0.198 A 
ATOM     82  C   UNL A   1      35.550  33.958  29.092  1.00  0.00     0.198 A 
ATOM     83  F   UNL A   1      37.737  33.735  28.256  1.00  0.00    -0.203 F 
ATOM     84  F   UNL A   1      34.046  32.685  32.131  1.00  0.00    -0.200 F 
ATOM     85  C   UNL A   1      34.604  33.693  30.071  1.00  0.00     0.200 A 
ATOM     86  F   UNL A   1      35.210  34.666  28.006  1.00  0.00    -0.200 F 
ATOM     87  F   UNL A   1      33.344  34.123  29.921  1.00  0.00    -0.200 F 
ENDBRANCH  53  77
BRANCH  65  88
ATOM     88  C   UNL A   1      42.882  35.027  33.798  1.00  0.00     0.064 A 
ATOM     89  C   UNL A   1      42.776  35.012  35.197  1.00  0.00     0.173 A 
ATOM     90  C   UNL A   1      43.289  36.223  33.187  1.00  0.00     0.173 A 
ATOM     91  F   UNL A   1      42.379  33.898  35.832  1.00  0.00    -0.203 F 
ATOM     92  C   UNL A   1      43.038  36.155  35.948  1.00  0.00     0.198 A 
ATOM     93  C   UNL A   1      43.587  37.354  33.943  1.00  0.00     0.198 A 
ATOM     94  F   UNL A   1      43.418  36.292  31.853  1.00  0.00    -0.203 F 
ATOM     95  F   UNL A   1      42.877  36.132  37.278  1.00  0.00    -0.200 F 
ATOM     96  C   UNL A   1      43.452  37.321  35.321  1.00  0.00     0.200 A 
ATOM     97  F   UNL A   1      44.005  38.473  33.336  1.00  0.00    -0.200 F 
ATOM     98  F   UNL A   1      43.713  38.417  36.047  1.00  0.00    -0.200 F 
ENDBRANCH  65  88
ENDBRANCH  39  40
ENDBRANCH  32  34
ENDBRANCH  31  32
ENDBRANCH  30  31
ENDBRANCH  29  30
ENDBRANCH  28  29
ENDBRANCH  27  28
ENDBRANCH  26  27
ENDBRANCH  25  26
ENDBRANCH  24  25
ENDBRANCH   1  24
TORSDOF 29
ENDMDL
MODEL 2
REMARK VINA RESULT:      -6.9      1.246      1.830
REMARK SMILES [NH3+][C@@H](C[NH+](CCO)CCO)C(=O)OCCOCCOCCOCCOC(=O)c1ccc(-c2c3nc(c(-c4c(F)c(F)c(F)c(F)c4F)c4ccc([nH]4)c(-c4c(F)c(F)c(F)c(F)c4F)c4nc(c(-c5c(F)c(F)c(F)c(F)c5F)c5ccc2[nH]5)C=C4)C=C3)cc1
REMARK SMILES IDX 17 1 16 2 15 3 14 4 13 5 11 6 12 7 2 8 1 9 3 13 4 14 5 16
REMARK SMILES IDX 6 17 7 18 8 20 9 21 10 22 18 24 19 25 20 26 21 27 22 28
REMARK SMILES IDX 23 29 24 30 25 31 26 32 27 33 28 34 29 35 90 36 30 37 89 38
REMARK SMILES IDX 31 39 32 40 33 41 83 42 34 43 88 44 82 45 84 46 35 47 87 48
REMARK SMILES IDX 81 49 80 50 36 52 68 53 48 54 67 55 49 56 52 57 66 58 85 59
REMARK SMILES IDX 50 60 51 61 65 63 86 64 53 65 37 66 38 67 46 68 39 69 40 70
REMARK SMILES IDX 44 71 47 72 41 73 42 74 45 75 43 76 69 77 70 78 78 79 71 80
REMARK SMILES IDX 72 81 76 82 79 83 73 84 74 85 77 86 75 87 54 88 55 89 63 90
REMARK SMILES IDX 56 91 57 92 61 93 64 94 58 95 59 96 62 97 60 98
REMARK H PARENT 1 10 1 11 1 12 4 15 7 19 10 23 84 51 52 62
REMARK Flexibility Score: inf
ROOT
ATOM      1  C   UNL A   1      44.884  19.831  24.408  1.00  0.00     0.188 C 
ENDROOT
BRANCH   1   2
ATOM      2  O   UNL A   1      44.695  21.133  24.949  1.00  0.00    -0.376 OA
BRANCH   2   3
ATOM      3  C   UNL A   1      45.784  21.995  25.249  1.00  0.00     0.202 C 
BRANCH   3   4
ATOM      4  C   UNL A   1      46.410  22.979  24.246  1.00  0.00     0.261 C 
BRANCH   4   5
ATOM      5  O   UNL A   1      45.887  24.305  24.244  1.00  0.00    -0.459 OA
BRANCH   5   6
ATOM      6  C   UNL A   1      46.494  25.185  25.086  1.00  0.00     0.370 C 
ATOM      7  O   UNL A   1      47.248  24.873  26.000  1.00  0.00    -0.245 OA
BRANCH   6   8
ATOM      8  C   UNL A   1      46.095  26.635  24.781  1.00  0.00     0.347 C 
BRANCH   8   9
ATOM      9  N   UNL A   1      44.710  26.955  25.162  1.00  0.00    -0.341 N 
ATOM     10  H   UNL A   1      44.715  27.608  25.946  1.00  0.00     0.345 HD
ATOM     11  H   UNL A   1      44.226  26.099  25.436  1.00  0.00     0.345 HD
ATOM     12  H   UNL A   1      44.228  27.379  24.369  1.00  0.00     0.345 HD
ENDBRANCH   8   9
BRANCH   8  13
ATOM     13  C   UNL A   1      47.130  27.597  25.386  1.00  0.00     0.340 C 
BRANCH  13  14
ATOM     14  N   UNL A   1      46.829  28.320  26.625  1.00  0.00    -0.326 N 
ATOM     15  H   UNL A   1      47.801  28.356  26.931  1.00  0.00     0.348 HD
BRANCH  14  16
ATOM     16  C   UNL A   1      46.321  29.680  26.427  1.00  0.00     0.291 C 
BRANCH  16  17
ATOM     17  C   UNL A   1      45.000  30.003  27.141  1.00  0.00     0.217 C 
BRANCH  17  18
ATOM     18  O   UNL A   1      43.886  29.551  26.385  1.00  0.00    -0.391 OA
ATOM     19  H   UNL A   1      43.509  28.761  26.804  1.00  0.00     0.210 HD
ENDBRANCH  17  18
ENDBRANCH  16  17
ENDBRANCH  14  16
BRANCH  14  20
ATOM     20  C   UNL A   1      46.502  27.665  27.892  1.00  0.00     0.291 C 
BRANCH  20  21
ATOM     21  C   UNL A   1      47.599  26.999  28.747  1.00  0.00     0.217 C 
BRANCH  21  22
ATOM     22  O   UNL A   1      48.908  27.487  28.483  1.00  0.00    -0.391 OA
ATOM     23  H   UNL A   1      49.366  27.659  29.321  1.00  0.00     0.210 HD
ENDBRANCH  21  22
ENDBRANCH  20  21
ENDBRANCH  14  20
ENDBRANCH  13  14
ENDBRANCH   8  13
ENDBRANCH   6   8
ENDBRANCH   5   6
ENDBRANCH   4   5
ENDBRANCH   3   4
ENDBRANCH   2   3
ENDBRANCH   1   2
BRANCH   1  24
ATOM     24  C   UNL A   1      45.020  18.616  25.338  1.00  0.00     0.188 C 
BRANCH  24  25
ATOM     25  O   UNL A   1      43.824  18.286  26.017  1.00  0.00    -0.377 OA
BRANCH  25  26
ATOM     26  C   UNL A   1      42.738  19.179  25.795  1.00  0.00     0.188 C 
BRANCH  26  27
ATOM     27  C   UNL A   1      42.029  19.809  27.021  1.00  0.00     0.188 C 
BRANCH  27  28
ATOM     28  O   UNL A   1      40.613  19.868  26.952  1.00  0.00    -0.376 OA
BRANCH  28  29
ATOM     29  C   UNL A   1      39.977  20.538  25.872  1.00  0.00     0.202 C 
BRANCH  29  30
ATOM     30  C   UNL A   1      39.239  21.864  26.139  1.00  0.00     0.261 C 
BRANCH  30  31
ATOM     31  O   UNL A   1      39.845  22.752  27.088  1.00  0.00    -0.460 OA
BRANCH  31  32
ATOM     32  C   UNL A   1      40.883  23.500  26.668  1.00  0.00     0.338 C 
ATOM     33  O   UNL A   1      41.666  23.239  25.769  1.00  0.00    -0.246 OA
BRANCH  32  34
ATOM     34  C   UNL A   1      40.796  24.813  27.342  1.00  0.00     0.060 A 
ATOM     35  C   UNL A   1      41.634  25.849  26.911  1.00  0.00     0.016 A 
ATOM     36  C   UNL A   1      39.892  25.023  28.386  1.00  0.00     0.016 A 
ATOM     37  C   UNL A   1      41.602  27.087  27.549  1.00  0.00     0.010 A 
ATOM     38  C   UNL A   1      39.881  26.254  29.045  1.00  0.00     0.010 A 
ATOM     39  C   UNL A   1      40.764  27.277  28.655  1.00  0.00    -0.014 A 
BRANCH  39  40
ATOM     40  C   UNL A   1      40.976  28.452  29.534  1.00  0.00     0.031 A 
ATOM     41  C   UNL A   1      42.296  28.572  30.246  1.00  0.00     0.074 A 
ATOM     42  C   UNL A   1      40.043  29.408  29.670  1.00  0.00     0.049 A 
ATOM     43  N   UNL A   1      42.702  29.470  31.105  1.00  0.00    -0.248 NA
ATOM     44  C   UNL A   1      43.294  27.532  29.945  1.00  0.00     0.031 C 
ATOM     45  C   UNL A   1      38.752  29.435  28.987  1.00  0.00     0.029 A 
ATOM     46  N   UNL A   1      40.040  30.543  30.443  1.00  0.00    -0.354 N 
ATOM     47  C   UNL A   1      43.995  29.100  31.451  1.00  0.00     0.074 A 
ATOM     48  C   UNL A   1      44.294  27.878  30.738  1.00  0.00     0.031 C 
ATOM     49  C   UNL A   1      38.076  30.529  29.379  1.00  0.00     0.029 A 
ATOM     50  C   UNL A   1      38.870  31.255  30.369  1.00  0.00     0.049 A 
ATOM     51  H   UNL A   1      40.806  30.819  30.997  1.00  0.00     0.167 HD
ATOM     52  C   UNL A   1      44.859  29.728  32.283  1.00  0.00     0.037 A 
ATOM     53  C   UNL A   1      38.481  32.354  31.046  1.00  0.00     0.037 A 
ATOM     54  C   UNL A   1      44.554  30.942  32.995  1.00  0.00     0.049 A 
ATOM     55  C   UNL A   1      39.425  32.982  32.042  1.00  0.00     0.074 A 
ATOM     56  C   UNL A   1      45.361  31.662  33.858  1.00  0.00     0.029 A 
ATOM     57  N   UNL A   1      43.340  31.610  32.930  1.00  0.00    -0.354 N 
ATOM     58  N   UNL A   1      40.651  32.636  32.358  1.00  0.00    -0.248 NA
ATOM     59  C   UNL A   1      38.930  34.155  32.776  1.00  0.00     0.031 C 
ATOM     60  C   UNL A   1      44.614  32.729  34.365  1.00  0.00     0.029 A 
ATOM     61  C   UNL A   1      43.366  32.718  33.763  1.00  0.00     0.049 A 
ATOM     62  H   UNL A   1      42.574  31.338  32.375  1.00  0.00     0.167 HD
ATOM     63  C   UNL A   1      41.085  33.568  33.294  1.00  0.00     0.074 A 
ATOM     64  C   UNL A   1      39.994  34.501  33.486  1.00  0.00     0.031 C 
ATOM     65  C   UNL A   1      42.277  33.646  33.934  1.00  0.00     0.037 A 
BRANCH  52  66
ATOM     66  C   UNL A   1      46.203  29.097  32.494  1.00  0.00     0.064 A 
ATOM     67  C   UNL A   1      46.425  28.145  33.501  1.00  0.00     0.173 A 
ATOM     68  C   UNL A   1      47.281  29.427  31.658  1.00  0.00     0.173 A 
ATOM     69  F   UNL A   1      45.435  27.806  34.341  1.00  0.00    -0.203 F 
ATOM     70  C   UNL A   1      47.682  27.570  33.680  1.00  0.00     0.198 A 
ATOM     71  C   UNL A   1      48.526  28.824  31.817  1.00  0.00     0.198 A 
ATOM     72  F   UNL A   1      47.123  30.330  30.677  1.00  0.00    -0.203 F 
ATOM     73  F   UNL A   1      47.883  26.703  34.683  1.00  0.00    -0.200 F 
ATOM     74  C   UNL A   1      48.728  27.903  32.833  1.00  0.00     0.200 A 
ATOM     75  F   UNL A   1      49.531  29.138  30.987  1.00  0.00    -0.200 F 
ATOM     76  F   UNL A   1      49.932  27.341  33.000  1.00  0.00    -0.200 F 
ENDBRANCH  52  66
BRANCH  53  77
ATOM     77  C   UNL A   1      37.127  32.930  30.821  1.00  0.00     0.064 A 
ATOM     78  C   UNL A   1      36.085  32.705  31.731  1.00  0.00     0.173 A 
ATOM     79  C   UNL A   1      36.839  33.690  29.678  1.00  0.00     0.173 A 
ATOM     80  F   UNL A   1      36.301  31.962  32.826  1.00  0.00    -0.203 F 
ATOM     81  C   UNL A   1      34.802  33.196  31.495  1.00  0.00     0.198 A 
ATOM     82  C   UNL A   1      35.565  34.209  29.459  1.00  0.00     0.198 A 
ATOM     83  F   UNL A   1      37.798  33.933  28.772  1.00  0.00    -0.203 F 
ATOM     84  F   UNL A   1      33.812  32.918  32.353  1.00  0.00    -0.200 F 
ATOM     85  C   UNL A   1      34.545  33.953  30.362  1.00  0.00     0.200 A 
ATOM     86  F   UNL A   1      35.325  34.951  28.370  1.00  0.00    -0.200 F 
ATOM     87  F   UNL A   1      33.313  34.427  30.136  1.00  0.00    -0.200 F 
ENDBRANCH  53  77
BRANCH  65  88
ATOM     88  C   UNL A   1      42.493  34.807  34.865  1.00  0.00     0.064 A 
ATOM     89  C   UNL A   1      42.243  34.712  36.242  1.00  0.00     0.173 A 
ATOM     90  C   UNL A   1      43.002  36.020  34.375  1.00  0.00     0.173 A 
ATOM     91  F   UNL A   1      41.745  33.579  36.762  1.00  0.00    -0.203 F 
ATOM     92  C   UNL A   1      42.465  35.797  37.088  1.00  0.00     0.198 A 
ATOM     93  C   UNL A   1      43.259  37.091  35.228  1.00  0.00     0.198 A 
ATOM     94  F   UNL A   1      43.269  36.164  33.068  1.00  0.00    -0.203 F 
ATOM     95  F   UNL A   1      42.168  35.700  38.391  1.00  0.00    -0.200 F 
ATOM     96  C   UNL A   1      42.981  36.981  36.581  1.00  0.00     0.200 A 
ATOM     97  F   UNL A   1      43.775  38.227  34.739  1.00  0.00    -0.200 F 
ATOM     98  F   UNL A   1      43.204  38.019  37.398  1.00  0.00    -0.200 F 
ENDBRANCH  65  88
ENDBRANCH  39  40
ENDBRANCH  32  34
ENDBRANCH  31  32
ENDBRANCH  30  31
ENDBRANCH  29  30
ENDBRANCH  28  29
ENDBRANCH  27  28
ENDBRANCH  26  27
ENDBRANCH  25  26
ENDBRANCH  24  25
ENDBRANCH   1  24
TORSDOF 29
ENDMDL
MODEL 3
REMARK VINA RESULT:      -6.9      5.046      8.258
REMARK SMILES [NH3+][C@@H](C[NH+](CCO)CCO)C(=O)OCCOCCOCCOCCOC(=O)c1ccc(-c2c3nc(c(-c4c(F)c(F)c(F)c(F)c4F)c4ccc([nH]4)c(-c4c(F)c(F)c(F)c(F)c4F)c4nc(c(-c5c(F)c(F)c(F)c(F)c5F)c5ccc2[nH]5)C=C4)C=C3)cc1
REMARK SMILES IDX 17 1 16 2 15 3 14 4 13 5 11 6 12 7 2 8 1 9 3 13 4 14 5 16
REMARK SMILES IDX 6 17 7 18 8 20 9 21 10 22 18 24 19 25 20 26 21 27 22 28
REMARK SMILES IDX 23 29 24 30 25 31 26 32 27 33 28 34 29 35 90 36 30 37 89 38
REMARK SMILES IDX 31 39 32 40 33 41 83 42 34 43 88 44 82 45 84 46 35 47 87 48
REMARK SMILES IDX 81 49 80 50 36 52 68 53 48 54 67 55 49 56 52 57 66 58 85 59
REMARK SMILES IDX 50 60 51 61 65 63 86 64 53 65 37 66 38 67 46 68 39 69 40 70
REMARK SMILES IDX 44 71 47 72 41 73 42 74 45 75 43 76 69 77 70 78 78 79 71 80
REMARK SMILES IDX 72 81 76 82 79 83 73 84 74 85 77 86 75 87 54 88 55 89 63 90
REMARK SMILES IDX 56 91 57 92 61 93 64 94 58 95 59 96 62 97 60 98
REMARK H PARENT 1 10 1 11 1 12 4 15 7 19 10 23 84 51 52 62
REMARK Flexibility Score: inf
ROOT
ATOM      1  C   UNL A   1      45.313  25.172  28.744  1.00  0.00     0.188 C 
ENDROOT
BRANCH   1   2
ATOM      2  O   UNL A   1      46.073  25.674  27.651  1.00  0.00    -0.376 OA
BRANCH   2   3
ATOM      3  C   UNL A   1      45.487  26.442  26.610  1.00  0.00     0.202 C 
BRANCH   3   4
ATOM      4  C   UNL A   1      44.839  25.841  25.351  1.00  0.00     0.261 C 
BRANCH   4   5
ATOM      5  O   UNL A   1      44.523  24.452  25.398  1.00  0.00    -0.459 OA
BRANCH   5   6
ATOM      6  C   UNL A   1      45.241  23.650  24.565  1.00  0.00     0.370 C 
ATOM      7  O   UNL A   1      46.347  23.921  24.114  1.00  0.00    -0.245 OA
BRANCH   6   8
ATOM      8  C   UNL A   1      44.483  22.362  24.221  1.00  0.00     0.347 C 
BRANCH   8   9
ATOM      9  N   UNL A   1      44.481  22.049  22.783  1.00  0.00    -0.341 N 
ATOM     10  H   UNL A   1      43.725  21.394  22.579  1.00  0.00     0.345 HD
ATOM     11  H   UNL A   1      45.374  21.628  22.525  1.00  0.00     0.345 HD
ATOM     12  H   UNL A   1      44.341  22.906  22.248  1.00  0.00     0.345 HD
ENDBRANCH   8   9
BRANCH   8  13
ATOM     13  C   UNL A   1      44.998  21.206  25.095  1.00  0.00     0.340 C 
BRANCH  13  14
ATOM     14  N   UNL A   1      44.114  20.086  25.432  1.00  0.00    -0.326 N 
ATOM     15  H   UNL A   1      43.492  20.238  24.637  1.00  0.00     0.348 HD
BRANCH  14  16
ATOM     16  C   UNL A   1      44.739  18.765  25.327  1.00  0.00     0.291 C 
BRANCH  16  17
ATOM     17  C   UNL A   1      46.266  18.744  25.479  1.00  0.00     0.217 C 
BRANCH  17  18
ATOM     18  O   UNL A   1      46.744  17.419  25.664  1.00  0.00    -0.391 OA
ATOM     19  H   UNL A   1      47.669  17.446  25.954  1.00  0.00     0.210 HD
ENDBRANCH  17  18
ENDBRANCH  16  17
ENDBRANCH  14  16
BRANCH  14  20
ATOM     20  C   UNL A   1      42.948  20.204  26.308  1.00  0.00     0.291 C 
BRANCH  20  21
ATOM     21  C   UNL A   1      42.026  18.995  26.570  1.00  0.00     0.217 C 
BRANCH  21  22
ATOM     22  O   UNL A   1      40.954  18.880  25.644  1.00  0.00    -0.391 OA
ATOM     23  H   UNL A   1      40.651  17.958  25.611  1.00  0.00     0.210 HD
ENDBRANCH  21  22
ENDBRANCH  20  21
ENDBRANCH  14  20
ENDBRANCH  13  14
ENDBRANCH   8  13
ENDBRANCH   6   8
ENDBRANCH   5   6
ENDBRANCH   4   5
ENDBRANCH   3   4
ENDBRANCH   2   3
ENDBRANCH   1   2
BRANCH   1  24
ATOM     24  C   UNL A   1      45.180  23.657  28.967  1.00  0.00     0.188 C 
BRANCH  24  25
ATOM     25  O   UNL A   1      44.063  23.084  28.317  1.00  0.00    -0.377 OA
BRANCH  25  26
ATOM     26  C   UNL A   1      42.874  23.026  29.099  1.00  0.00     0.188 C 
BRANCH  26  27
ATOM     27  C   UNL A   1      41.518  22.818  28.377  1.00  0.00     0.188 C 
BRANCH  27  28
ATOM     28  O   UNL A   1      41.191  23.783  27.389  1.00  0.00    -0.376 OA
BRANCH  28  29
ATOM     29  C   UNL A   1      40.226  24.789  27.663  1.00  0.00     0.202 C 
BRANCH  29  30
ATOM     30  C   UNL A   1      40.219  26.076  26.815  1.00  0.00     0.261 C 
BRANCH  30  31
ATOM     31  O   UNL A   1      40.478  27.302  27.512  1.00  0.00    -0.460 OA
BRANCH  31  32
ATOM     32  C   UNL A   1      41.742  27.768  27.504  1.00  0.00     0.338 C 
ATOM     33  O   UNL A   1      42.426  28.029  26.528  1.00  0.00    -0.246 OA
BRANCH  32  34
ATOM     34  C   UNL A   1      42.102  28.121  28.893  1.00  0.00     0.060 A 
ATOM     35  C   UNL A   1      43.346  28.719  29.135  1.00  0.00     0.016 A 
ATOM     36  C   UNL A   1      41.221  27.871  29.947  1.00  0.00     0.016 A 
ATOM     37  C   UNL A   1      43.730  29.031  30.438  1.00  0.00     0.010 A 
ATOM     38  C   UNL A   1      41.619  28.155  31.255  1.00  0.00     0.010 A 
ATOM     39  C   UNL A   1      42.891  28.699  31.508  1.00  0.00    -0.014 A 
BRANCH  39  40
ATOM     40  C   UNL A   1      43.434  28.710  32.887  1.00  0.00     0.031 A 
ATOM     41  C   UNL A   1      44.085  27.454  33.400  1.00  0.00     0.074 A 
ATOM     42  C   UNL A   1      43.389  29.812  33.654  1.00  0.00     0.049 A 
ATOM     43  N   UNL A   1      44.584  27.195  34.581  1.00  0.00    -0.248 NA
ATOM     44  C   UNL A   1      44.184  26.337  32.446  1.00  0.00     0.031 C 
ATOM     45  C   UNL A   1      42.841  31.104  33.249  1.00  0.00     0.029 A 
ATOM     46  N   UNL A   1      43.810  30.013  34.946  1.00  0.00    -0.354 N 
ATOM     47  C   UNL A   1      45.047  25.888  34.513  1.00  0.00     0.074 A 
ATOM     48  C   UNL A   1      44.740  25.394  33.189  1.00  0.00     0.031 C 
ATOM     49  C   UNL A   1      42.949  31.963  34.278  1.00  0.00     0.029 A 
ATOM     50  C   UNL A   1      43.537  31.270  35.423  1.00  0.00     0.049 A 
ATOM     51  H   UNL A   1      44.264  29.320  35.479  1.00  0.00     0.167 HD
ATOM     52  C   UNL A   1      45.681  25.166  35.467  1.00  0.00     0.037 A 
ATOM     53  C   UNL A   1      43.721  31.788  36.654  1.00  0.00     0.037 A 
ATOM     54  C   UNL A   1      45.981  25.660  36.786  1.00  0.00     0.049 A 
ATOM     55  C   UNL A   1      44.341  30.932  37.731  1.00  0.00     0.074 A 
ATOM     56  C   UNL A   1      46.623  25.012  37.825  1.00  0.00     0.029 A 
ATOM     57  N   UNL A   1      45.648  26.926  37.248  1.00  0.00    -0.354 N 
ATOM     58  N   UNL A   1      44.789  29.701  37.660  1.00  0.00    -0.248 NA
ATOM     59  C   UNL A   1      44.481  31.541  39.062  1.00  0.00     0.031 C 
ATOM     60  C   UNL A   1      46.622  25.860  38.936  1.00  0.00     0.029 A 
ATOM     61  C   UNL A   1      46.045  27.065  38.568  1.00  0.00     0.049 A 
ATOM     62  H   UNL A   1      45.196  27.620  36.717  1.00  0.00     0.167 HD
ATOM     63  C   UNL A   1      45.297  29.403  38.919  1.00  0.00     0.074 A 
ATOM     64  C   UNL A   1      45.112  30.587  39.732  1.00  0.00     0.031 C 
ATOM     65  C   UNL A   1      45.866  28.254  39.362  1.00  0.00     0.037 A 
BRANCH  52  66
ATOM     66  C   UNL A   1      46.064  23.755  35.131  1.00  0.00     0.064 A 
ATOM     67  C   UNL A   1      47.379  23.406  34.783  1.00  0.00     0.173 A 
ATOM     68  C   UNL A   1      45.108  22.730  35.183  1.00  0.00     0.173 A 
ATOM     69  F   UNL A   1      48.329  24.350  34.700  1.00  0.00    -0.203 F 
ATOM     70  C   UNL A   1      47.714  22.090  34.475  1.00  0.00     0.198 A 
ATOM     71  C   UNL A   1      45.454  21.409  34.908  1.00  0.00     0.198 A 
ATOM     72  F   UNL A   1      43.836  23.007  35.511  1.00  0.00    -0.203 F 
ATOM     73  F   UNL A   1      48.963  21.789  34.095  1.00  0.00    -0.200 F 
ATOM     74  C   UNL A   1      46.754  21.091  34.546  1.00  0.00     0.200 A 
ATOM     75  F   UNL A   1      44.527  20.445  34.992  1.00  0.00    -0.200 F 
ATOM     76  F   UNL A   1      47.080  19.824  34.260  1.00  0.00    -0.200 F 
ENDBRANCH  52  66
BRANCH  53  77
ATOM     77  C   UNL A   1      43.302  33.186  36.947  1.00  0.00     0.064 A 
ATOM     78  C   UNL A   1      44.203  34.253  36.821  1.00  0.00     0.173 A 
ATOM     79  C   UNL A   1      42.005  33.480  37.391  1.00  0.00     0.173 A 
ATOM     80  F   UNL A   1      45.464  34.021  36.427  1.00  0.00    -0.203 F 
ATOM     81  C   UNL A   1      43.829  35.555  37.149  1.00  0.00     0.198 A 
ATOM     82  C   UNL A   1      41.622  34.786  37.687  1.00  0.00     0.198 A 
ATOM     83  F   UNL A   1      41.103  32.497  37.533  1.00  0.00    -0.203 F 
ATOM     84  F   UNL A   1      44.727  36.547  37.073  1.00  0.00    -0.200 F 
ATOM     85  C   UNL A   1      42.537  35.821  37.575  1.00  0.00     0.200 A 
ATOM     86  F   UNL A   1      40.368  35.040  38.085  1.00  0.00    -0.200 F 
ATOM     87  F   UNL A   1      42.177  37.073  37.889  1.00  0.00    -0.200 F 
ENDBRANCH  53  77
BRANCH  65  88
ATOM     88  C   UNL A   1      46.382  28.233  40.774  1.00  0.00     0.064 A 
ATOM     89  C   UNL A   1      47.697  28.608  41.091  1.00  0.00     0.173 A 
ATOM     90  C   UNL A   1      45.532  27.874  41.832  1.00  0.00     0.173 A 
ATOM     91  F   UNL A   1      48.555  28.949  40.117  1.00  0.00    -0.203 F 
ATOM     92  C   UNL A   1      48.148  28.595  42.409  1.00  0.00     0.198 A 
ATOM     93  C   UNL A   1      45.975  27.898  43.152  1.00  0.00     0.198 A 
ATOM     94  F   UNL A   1      44.262  27.516  41.588  1.00  0.00    -0.203 F 
ATOM     95  F   UNL A   1      49.422  28.906  42.681  1.00  0.00    -0.200 F 
ATOM     96  C   UNL A   1      47.284  28.249  43.437  1.00  0.00     0.200 A 
ATOM     97  F   UNL A   1      45.133  27.582  44.145  1.00  0.00    -0.200 F 
ATOM     98  F   UNL A   1      47.718  28.248  44.705  1.00  0.00    -0.200 F 
ENDBRANCH  65  88
ENDBRANCH  39  40
ENDBRANCH  32  34
ENDBRANCH  31  32
ENDBRANCH  30  31
ENDBRANCH  29  30
ENDBRANCH  28  29
ENDBRANCH  27  28
ENDBRANCH  26  27
ENDBRANCH  25  26
ENDBRANCH  24  25
ENDBRANCH   1  24
TORSDOF 29
ENDMDL
