MODEL 1
REMARK VINA RESULT:     -10.5      0.000      0.000
REMARK SMILES CCOC(=O)C1=NN(c2ccc([N+](=O)[O-])cc2C(F)(F)F)[C@@](C)(C(=O)OCCOCCOCCOCCOC(=O)c2ccc(-c3c4nc(c(-c5c(F)c(F)c(F)c(F)c5F)c5ccc([nH]5)c(-c5c(F)c(F)c(F)c(F)c5F)c5nc(c(-c6c(F)c(F)c(F)c(F)c6F)c6ccc3[nH]6)C=C5)C=C4)cc2)C1
REMARK SMILES IDX 31 1 30 2 29 3 28 4 27 5 26 6 24 7 25 8 22 9 6 10 7 11
REMARK SMILES IDX 104 12 8 13 23 14 4 15 5 16 3 17 2 18 1 19 9 20 10 21 17 22
REMARK SMILES IDX 11 23 16 24 12 25 18 26 19 27 20 28 21 29 13 30 14 31 15 32
REMARK SMILES IDX 32 33 33 34 34 35 35 36 36 37 37 38 38 39 39 40 40 41 41 42
REMARK SMILES IDX 42 43 103 44 43 45 102 46 44 47 45 48 46 49 96 50 47 51
REMARK SMILES IDX 101 52 95 53 97 54 48 55 100 56 94 57 93 58 49 60 81 61
REMARK SMILES IDX 61 62 80 63 62 64 65 65 79 66 98 67 63 68 64 69 78 71 99 72
REMARK SMILES IDX 66 73 50 74 51 75 59 76 52 77 53 78 57 79 60 80 54 81 55 82
REMARK SMILES IDX 58 83 56 84 82 85 83 86 91 87 84 88 85 89 89 90 92 91 86 92
REMARK SMILES IDX 87 93 90 94 88 95 67 96 68 97 76 98 69 99 70 100 74 101
REMARK SMILES IDX 77 102 71 103 72 104 75 105 73 106
REMARK H PARENT 97 59 65 70
REMARK Flexibility Score: inf
ROOT
ATOM      1  C   UNL A   1      33.994  28.836  23.605  1.00  0.00     0.188 C 
ENDROOT
BRANCH   1   2
ATOM      2  C   UNL A   1      33.174  28.325  22.410  1.00  0.00     0.188 C 
BRANCH   2   3
ATOM      3  O   UNL A   1      31.770  28.105  22.498  1.00  0.00    -0.376 OA
BRANCH   3   4
ATOM      4  C   UNL A   1      31.183  26.922  21.989  1.00  0.00     0.202 C 
BRANCH   4   5
ATOM      5  C   UNL A   1      32.111  25.738  21.648  1.00  0.00     0.261 C 
BRANCH   5   6
ATOM      6  O   UNL A   1      32.202  24.652  22.600  1.00  0.00    -0.461 OA
BRANCH   6   7
ATOM      7  C   UNL A   1      33.197  23.766  22.348  1.00  0.00     0.334 C 
ATOM      8  O   UNL A   1      33.368  23.265  21.236  1.00  0.00    -0.249 OA
BRANCH   7   9
ATOM      9  C   UNL A   1      34.023  23.295  23.570  1.00  0.00     0.163 C 
ATOM     10  C   UNL A   1      33.021  23.864  25.592  1.00  0.00     0.149 C 
ATOM     11  N   UNL A   1      32.823  22.587  25.514  1.00  0.00    -0.169 NA
ATOM     12  C   UNL A   1      33.963  24.455  24.601  1.00  0.00     0.108 C 
ATOM     13  N   UNL A   1      33.514  22.147  24.406  1.00  0.00    -0.247 N 
ATOM     14  C   UNL A   1      35.418  23.108  22.991  1.00  0.00     0.050 C 
BRANCH  10  15
ATOM     15  C   UNL A   1      32.309  24.740  26.588  1.00  0.00     0.354 C 
ATOM     16  O   UNL A   1      32.541  25.934  26.643  1.00  0.00    -0.245 OA
BRANCH  15  17
ATOM     17  O   UNL A   1      31.423  24.031  27.310  1.00  0.00    -0.461 OA
BRANCH  17  18
ATOM     18  C   UNL A   1      30.105  23.943  26.744  1.00  0.00     0.230 C 
ATOM     19  C   UNL A   1      29.356  22.741  27.290  1.00  0.00     0.049 C 
ENDBRANCH  17  18
ENDBRANCH  15  17
ENDBRANCH  10  15
BRANCH  13  20
ATOM     20  C   UNL A   1      33.623  20.764  24.307  1.00  0.00     0.073 A 
ATOM     21  C   UNL A   1      32.436  20.009  24.116  1.00  0.00     0.036 A 
ATOM     22  C   UNL A   1      34.783  20.018  24.593  1.00  0.00     0.088 A 
ATOM     23  C   UNL A   1      32.399  18.609  24.082  1.00  0.00     0.088 A 
ATOM     24  C   UNL A   1      34.769  18.599  24.486  1.00  0.00     0.101 A 
ATOM     25  C   UNL A   1      33.583  17.905  24.235  1.00  0.00     0.270 A 
BRANCH  22  26
ATOM     26  C   UNL A   1      36.046  20.616  25.162  1.00  0.00     0.418 C 
ATOM     27  F   UNL A   1      36.974  19.662  25.476  1.00  0.00    -0.166 F 
ATOM     28  F   UNL A   1      36.673  21.437  24.276  1.00  0.00    -0.166 F 
ATOM     29  F   UNL A   1      35.882  21.329  26.309  1.00  0.00    -0.166 F 
ENDBRANCH  22  26
BRANCH  25  30
ATOM     30  N   UNL A   1      33.579  16.437  24.203  1.00  0.00     0.062 N 
ATOM     31  O   UNL A   1      34.436  15.873  23.507  1.00  0.00    -0.258 OA
ATOM     32  O   UNL A   1      32.717  15.851  24.873  1.00  0.00    -0.258 OA
ENDBRANCH  25  30
ENDBRANCH  13  20
ENDBRANCH   7   9
ENDBRANCH   6   7
ENDBRANCH   5   6
ENDBRANCH   4   5
ENDBRANCH   3   4
ENDBRANCH   2   3
ENDBRANCH   1   2
BRANCH   1  33
ATOM     33  O   UNL A   1      33.420  28.645  24.884  1.00  0.00    -0.377 OA
BRANCH  33  34
ATOM     34  C   UNL A   1      33.030  29.810  25.585  1.00  0.00     0.188 C 
BRANCH  34  35
ATOM     35  C   UNL A   1      32.246  29.584  26.885  1.00  0.00     0.188 C 
BRANCH  35  36
ATOM     36  O   UNL A   1      31.421  30.689  27.229  1.00  0.00    -0.376 OA
BRANCH  36  37
ATOM     37  C   UNL A   1      31.317  31.787  26.338  1.00  0.00     0.202 C 
BRANCH  37  38
ATOM     38  C   UNL A   1      31.784  33.170  26.828  1.00  0.00     0.261 C 
BRANCH  38  39
ATOM     39  O   UNL A   1      33.126  33.270  27.331  1.00  0.00    -0.460 OA
BRANCH  39  40
ATOM     40  C   UNL A   1      33.368  34.132  28.339  1.00  0.00     0.338 C 
ATOM     41  O   UNL A   1      32.693  35.094  28.662  1.00  0.00    -0.246 OA
BRANCH  40  42
ATOM     42  C   UNL A   1      34.488  33.586  29.138  1.00  0.00     0.060 A 
ATOM     43  C   UNL A   1      35.787  34.045  28.880  1.00  0.00     0.016 A 
ATOM     44  C   UNL A   1      34.262  32.652  30.153  1.00  0.00     0.016 A 
ATOM     45  C   UNL A   1      36.867  33.549  29.612  1.00  0.00     0.010 A 
ATOM     46  C   UNL A   1      35.348  32.132  30.864  1.00  0.00     0.010 A 
ATOM     47  C   UNL A   1      36.658  32.553  30.573  1.00  0.00    -0.014 A 
BRANCH  47  48
ATOM     48  C   UNL A   1      37.820  31.804  31.111  1.00  0.00     0.031 A 
ATOM     49  C   UNL A   1      38.290  32.131  32.502  1.00  0.00     0.074 A 
ATOM     50  C   UNL A   1      38.426  30.836  30.402  1.00  0.00     0.049 A 
ATOM     51  N   UNL A   1      39.304  31.652  33.176  1.00  0.00    -0.248 NA
ATOM     52  C   UNL A   1      37.506  33.140  33.233  1.00  0.00     0.031 C 
ATOM     53  C   UNL A   1      38.033  30.394  29.067  1.00  0.00     0.029 A 
ATOM     54  N   UNL A   1      39.514  30.056  30.710  1.00  0.00    -0.354 N 
ATOM     55  C   UNL A   1      39.283  32.304  34.402  1.00  0.00     0.074 A 
ATOM     56  C   UNL A   1      38.176  33.234  34.372  1.00  0.00     0.031 C 
ATOM     57  C   UNL A   1      38.880  29.430  28.661  1.00  0.00     0.029 A 
ATOM     58  C   UNL A   1      39.893  29.214  29.694  1.00  0.00     0.049 A 
ATOM     59  H   UNL A   1      39.977  30.096  31.577  1.00  0.00     0.167 HD
ATOM     60  C   UNL A   1      40.110  32.137  35.460  1.00  0.00     0.037 A 
ATOM     61  C   UNL A   1      40.954  28.387  29.601  1.00  0.00     0.037 A 
ATOM     62  C   UNL A   1      41.213  31.214  35.485  1.00  0.00     0.049 A 
ATOM     63  C   UNL A   1      41.911  28.282  30.765  1.00  0.00     0.074 A 
ATOM     64  C   UNL A   1      42.100  30.958  36.516  1.00  0.00     0.029 A 
ATOM     65  N   UNL A   1      41.586  30.404  34.424  1.00  0.00    -0.354 N 
ATOM     66  N   UNL A   1      41.869  28.879  31.932  1.00  0.00    -0.248 NA
ATOM     67  C   UNL A   1      43.063  27.384  30.598  1.00  0.00     0.031 C 
ATOM     68  C   UNL A   1      43.049  30.041  36.056  1.00  0.00     0.029 A 
ATOM     69  C   UNL A   1      42.711  29.669  34.764  1.00  0.00     0.049 A 
ATOM     70  H   UNL A   1      41.122  30.356  33.557  1.00  0.00     0.167 HD
ATOM     71  C   UNL A   1      42.962  28.402  32.648  1.00  0.00     0.074 A 
ATOM     72  C   UNL A   1      43.640  27.456  31.788  1.00  0.00     0.031 C 
ATOM     73  C   UNL A   1      43.367  28.718  33.903  1.00  0.00     0.037 A 
BRANCH  60  74
ATOM     74  C   UNL A   1      39.874  32.994  36.670  1.00  0.00     0.064 A 
ATOM     75  C   UNL A   1      38.912  32.664  37.636  1.00  0.00     0.173 A 
ATOM     76  C   UNL A   1      40.652  34.142  36.886  1.00  0.00     0.173 A 
ATOM     77  F   UNL A   1      38.131  31.585  37.471  1.00  0.00    -0.203 F 
ATOM     78  C   UNL A   1      38.723  33.463  38.762  1.00  0.00     0.198 A 
ATOM     79  C   UNL A   1      40.483  34.920  38.027  1.00  0.00     0.198 A 
ATOM     80  F   UNL A   1      41.587  34.504  35.993  1.00  0.00    -0.203 F 
ATOM     81  F   UNL A   1      37.767  33.153  39.648  1.00  0.00    -0.200 F 
ATOM     82  C   UNL A   1      39.515  34.583  38.961  1.00  0.00     0.200 A 
ATOM     83  F   UNL A   1      41.258  35.996  38.224  1.00  0.00    -0.200 F 
ATOM     84  F   UNL A   1      39.340  35.344  40.051  1.00  0.00    -0.200 F 
ENDBRANCH  60  74
BRANCH  61  85
ATOM     85  C   UNL A   1      41.190  27.606  28.357  1.00  0.00     0.064 A 
ATOM     86  C   UNL A   1      40.599  26.349  28.165  1.00  0.00     0.173 A 
ATOM     87  C   UNL A   1      42.048  28.079  27.352  1.00  0.00     0.173 A 
ATOM     88  F   UNL A   1      39.791  25.838  29.107  1.00  0.00    -0.203 F 
ATOM     89  C   UNL A   1      40.875  25.587  27.031  1.00  0.00     0.198 A 
ATOM     90  C   UNL A   1      42.296  27.331  26.204  1.00  0.00     0.198 A 
ATOM     91  F   UNL A   1      42.644  29.273  27.485  1.00  0.00    -0.203 F 
ATOM     92  F   UNL A   1      40.342  24.364  26.903  1.00  0.00    -0.200 F 
ATOM     93  C   UNL A   1      41.719  26.081  26.049  1.00  0.00     0.200 A 
ATOM     94  F   UNL A   1      43.103  27.819  25.251  1.00  0.00    -0.200 F 
ATOM     95  F   UNL A   1      41.985  25.347  24.960  1.00  0.00    -0.200 F 
ENDBRANCH  61  85
BRANCH  73  96
ATOM     96  C   UNL A   1      44.568  27.998  34.449  1.00  0.00     0.064 A 
ATOM     97  C   UNL A   1      45.869  28.499  34.295  1.00  0.00     0.173 A 
ATOM     98  C   UNL A   1      44.407  26.811  35.183  1.00  0.00     0.173 A 
ATOM     99  F   UNL A   1      46.080  29.622  33.592  1.00  0.00    -0.203 F 
ATOM    100  C   UNL A   1      46.964  27.825  34.829  1.00  0.00     0.198 A 
ATOM    101  C   UNL A   1      45.500  26.160  35.746  1.00  0.00     0.198 A 
ATOM    102  F   UNL A   1      43.184  26.293  35.372  1.00  0.00    -0.203 F 
ATOM    103  F   UNL A   1      48.202  28.295  34.623  1.00  0.00    -0.200 F 
ATOM    104  C   UNL A   1      46.778  26.662  35.561  1.00  0.00     0.200 A 
ATOM    105  F   UNL A   1      45.315  25.048  36.471  1.00  0.00    -0.200 F 
ATOM    106  F   UNL A   1      47.833  26.021  36.083  1.00  0.00    -0.200 F 
ENDBRANCH  73  96
ENDBRANCH  47  48
ENDBRANCH  40  42
ENDBRANCH  39  40
ENDBRANCH  38  39
ENDBRANCH  37  38
ENDBRANCH  36  37
ENDBRANCH  35  36
ENDBRANCH  34  35
ENDBRANCH  33  34
ENDBRANCH   1  33
TORSDOF 26
ENDMDL
MODEL 2
REMARK VINA RESULT:     -10.2      1.405      6.978
REMARK SMILES CCOC(=O)C1=NN(c2ccc([N+](=O)[O-])cc2C(F)(F)F)[C@@](C)(C(=O)OCCOCCOCCOCCOC(=O)c2ccc(-c3c4nc(c(-c5c(F)c(F)c(F)c(F)c5F)c5ccc([nH]5)c(-c5c(F)c(F)c(F)c(F)c5F)c5nc(c(-c6c(F)c(F)c(F)c(F)c6F)c6ccc3[nH]6)C=C5)C=C4)cc2)C1
REMARK SMILES IDX 31 1 30 2 29 3 28 4 27 5 26 6 24 7 25 8 22 9 6 10 7 11
REMARK SMILES IDX 104 12 8 13 23 14 4 15 5 16 3 17 2 18 1 19 9 20 10 21 17 22
REMARK SMILES IDX 11 23 16 24 12 25 18 26 19 27 20 28 21 29 13 30 14 31 15 32
REMARK SMILES IDX 32 33 33 34 34 35 35 36 36 37 37 38 38 39 39 40 40 41 41 42
REMARK SMILES IDX 42 43 103 44 43 45 102 46 44 47 45 48 46 49 96 50 47 51
REMARK SMILES IDX 101 52 95 53 97 54 48 55 100 56 94 57 93 58 49 60 81 61
REMARK SMILES IDX 61 62 80 63 62 64 65 65 79 66 98 67 63 68 64 69 78 71 99 72
REMARK SMILES IDX 66 73 50 74 51 75 59 76 52 77 53 78 57 79 60 80 54 81 55 82
REMARK SMILES IDX 58 83 56 84 82 85 83 86 91 87 84 88 85 89 89 90 92 91 86 92
REMARK SMILES IDX 87 93 90 94 88 95 67 96 68 97 76 98 69 99 70 100 74 101
REMARK SMILES IDX 77 102 71 103 72 104 75 105 73 106
REMARK H PARENT 97 59 65 70
REMARK Flexibility Score: inf
ROOT
ATOM      1  C   UNL A   1      34.188  28.999  23.097  1.00  0.00     0.188 C 
ENDROOT
BRANCH   1   2
ATOM      2  C   UNL A   1      33.510  28.227  21.954  1.00  0.00     0.188 C 
BRANCH   2   3
ATOM      3  O   UNL A   1      32.314  27.480  22.153  1.00  0.00    -0.376 OA
BRANCH   3   4
ATOM      4  C   UNL A   1      32.358  26.136  22.594  1.00  0.00     0.202 C 
BRANCH   4   5
ATOM      5  C   UNL A   1      33.740  25.475  22.778  1.00  0.00     0.261 C 
BRANCH   5   6
ATOM      6  O   UNL A   1      34.279  25.394  24.118  1.00  0.00    -0.461 OA
BRANCH   6   7
ATOM      7  C   UNL A   1      34.671  24.152  24.492  1.00  0.00     0.334 C 
ATOM      8  O   UNL A   1      35.552  23.531  23.895  1.00  0.00    -0.249 OA
BRANCH   7   9
ATOM      9  C   UNL A   1      33.852  23.483  25.623  1.00  0.00     0.163 C 
ATOM     10  C   UNL A   1      31.693  24.336  25.777  1.00  0.00     0.149 C 
ATOM     11  N   UNL A   1      31.510  23.166  25.256  1.00  0.00    -0.169 NA
ATOM     12  C   UNL A   1      33.054  24.627  26.307  1.00  0.00     0.108 C 
ATOM     13  N   UNL A   1      32.735  22.536  25.263  1.00  0.00    -0.247 N 
ATOM     14  C   UNL A   1      34.927  22.905  26.532  1.00  0.00     0.050 C 
BRANCH  10  15
ATOM     15  C   UNL A   1      30.617  25.390  25.812  1.00  0.00     0.354 C 
ATOM     16  O   UNL A   1      30.418  26.043  26.821  1.00  0.00    -0.245 OA
BRANCH  15  17
ATOM     17  O   UNL A   1      30.002  25.494  24.620  1.00  0.00    -0.461 OA
BRANCH  17  18
ATOM     18  C   UNL A   1      29.478  26.796  24.314  1.00  0.00     0.230 C 
ATOM     19  C   UNL A   1      28.036  26.707  23.846  1.00  0.00     0.049 C 
ENDBRANCH  17  18
ENDBRANCH  15  17
ENDBRANCH  10  15
BRANCH  13  20
ATOM     20  C   UNL A   1      32.685  21.176  24.971  1.00  0.00     0.073 A 
ATOM     21  C   UNL A   1      33.196  20.265  25.932  1.00  0.00     0.036 A 
ATOM     22  C   UNL A   1      32.367  20.627  23.714  1.00  0.00     0.088 A 
ATOM     23  C   UNL A   1      33.279  18.881  25.727  1.00  0.00     0.088 A 
ATOM     24  C   UNL A   1      32.377  19.216  23.523  1.00  0.00     0.101 A 
ATOM     25  C   UNL A   1      32.833  18.355  24.525  1.00  0.00     0.270 A 
BRANCH  22  26
ATOM     26  C   UNL A   1      32.147  21.450  22.469  1.00  0.00     0.418 C 
ATOM     27  F   UNL A   1      33.188  22.298  22.219  1.00  0.00    -0.166 F 
ATOM     28  F   UNL A   1      32.045  20.679  21.352  1.00  0.00    -0.166 F 
ATOM     29  F   UNL A   1      31.047  22.251  22.494  1.00  0.00    -0.166 F 
ENDBRANCH  22  26
BRANCH  25  30
ATOM     30  N   UNL A   1      32.904  16.909  24.279  1.00  0.00     0.062 N 
ATOM     31  O   UNL A   1      32.762  16.151  25.250  1.00  0.00    -0.258 OA
ATOM     32  O   UNL A   1      33.104  16.535  23.115  1.00  0.00    -0.258 OA
ENDBRANCH  25  30
ENDBRANCH  13  20
ENDBRANCH   7   9
ENDBRANCH   6   7
ENDBRANCH   5   6
ENDBRANCH   4   5
ENDBRANCH   3   4
ENDBRANCH   2   3
ENDBRANCH   1   2
BRANCH   1  33
ATOM     33  O   UNL A   1      33.842  28.600  24.410  1.00  0.00    -0.377 OA
BRANCH  33  34
ATOM     34  C   UNL A   1      33.294  29.596  25.252  1.00  0.00     0.188 C 
BRANCH  34  35
ATOM     35  C   UNL A   1      32.357  29.100  26.362  1.00  0.00     0.188 C 
BRANCH  35  36
ATOM     36  O   UNL A   1      31.402  30.077  26.755  1.00  0.00    -0.376 OA
BRANCH  36  37
ATOM     37  C   UNL A   1      31.329  31.304  26.048  1.00  0.00     0.202 C 
BRANCH  37  38
ATOM     38  C   UNL A   1      31.677  32.600  26.801  1.00  0.00     0.261 C 
BRANCH  38  39
ATOM     39  O   UNL A   1      32.813  32.564  27.681  1.00  0.00    -0.460 OA
BRANCH  39  40
ATOM     40  C   UNL A   1      33.264  33.728  28.191  1.00  0.00     0.338 C 
ATOM     41  O   UNL A   1      32.729  34.821  28.116  1.00  0.00    -0.246 OA
BRANCH  40  42
ATOM     42  C   UNL A   1      34.426  33.421  29.055  1.00  0.00     0.060 A 
ATOM     43  C   UNL A   1      35.686  33.917  28.693  1.00  0.00     0.016 A 
ATOM     44  C   UNL A   1      34.275  32.674  30.227  1.00  0.00     0.016 A 
ATOM     45  C   UNL A   1      36.803  33.643  29.483  1.00  0.00     0.010 A 
ATOM     46  C   UNL A   1      35.400  32.373  31.001  1.00  0.00     0.010 A 
ATOM     47  C   UNL A   1      36.673  32.827  30.614  1.00  0.00    -0.014 A 
BRANCH  47  48
ATOM     48  C   UNL A   1      37.891  32.275  31.257  1.00  0.00     0.031 A 
ATOM     49  C   UNL A   1      38.656  31.207  30.525  1.00  0.00     0.074 A 
ATOM     50  C   UNL A   1      38.329  32.727  32.445  1.00  0.00     0.049 A 
ATOM     51  N   UNL A   1      39.718  30.538  30.893  1.00  0.00    -0.248 NA
ATOM     52  C   UNL A   1      38.149  30.843  29.191  1.00  0.00     0.031 C 
ATOM     53  C   UNL A   1      37.705  33.791  33.227  1.00  0.00     0.029 A 
ATOM     54  N   UNL A   1      39.405  32.335  33.204  1.00  0.00    -0.354 N 
ATOM     55  C   UNL A   1      40.001  29.673  29.844  1.00  0.00     0.074 A 
ATOM     56  C   UNL A   1      38.985  29.878  28.836  1.00  0.00     0.031 C 
ATOM     57  C   UNL A   1      38.400  33.956  34.368  1.00  0.00     0.029 A 
ATOM     58  C   UNL A   1      39.494  32.986  34.410  1.00  0.00     0.049 A 
ATOM     59  H   UNL A   1      40.050  31.651  32.912  1.00  0.00     0.167 HD
ATOM     60  C   UNL A   1      41.021  28.792  29.728  1.00  0.00     0.037 A 
ATOM     61  C   UNL A   1      40.346  32.798  35.438  1.00  0.00     0.037 A 
ATOM     62  C   UNL A   1      42.029  28.587  30.735  1.00  0.00     0.049 A 
ATOM     63  C   UNL A   1      41.425  31.747  35.319  1.00  0.00     0.074 A 
ATOM     64  C   UNL A   1      43.113  27.729  30.707  1.00  0.00     0.029 A 
ATOM     65  N   UNL A   1      42.066  29.241  31.957  1.00  0.00    -0.354 N 
ATOM     66  N   UNL A   1      41.705  30.954  34.312  1.00  0.00    -0.248 NA
ATOM     67  C   UNL A   1      42.309  31.569  36.480  1.00  0.00     0.031 C 
ATOM     68  C   UNL A   1      43.770  27.817  31.938  1.00  0.00     0.029 A 
ATOM     69  C   UNL A   1      43.138  28.783  32.705  1.00  0.00     0.049 A 
ATOM     70  H   UNL A   1      41.426  29.929  32.250  1.00  0.00     0.167 HD
ATOM     71  C   UNL A   1      42.815  30.214  34.704  1.00  0.00     0.074 A 
ATOM     72  C   UNL A   1      43.165  30.662  36.035  1.00  0.00     0.031 C 
ATOM     73  C   UNL A   1      43.484  29.250  34.023  1.00  0.00     0.037 A 
BRANCH  60  74
ATOM     74  C   UNL A   1      41.083  27.956  28.483  1.00  0.00     0.064 A 
ATOM     75  C   UNL A   1      40.364  26.757  28.359  1.00  0.00     0.173 A 
ATOM     76  C   UNL A   1      41.840  28.382  27.382  1.00  0.00     0.173 A 
ATOM     77  F   UNL A   1      39.636  26.296  29.388  1.00  0.00    -0.203 F 
ATOM     78  C   UNL A   1      40.420  26.005  27.187  1.00  0.00     0.198 A 
ATOM     79  C   UNL A   1      41.868  27.646  26.201  1.00  0.00     0.198 A 
ATOM     80  F   UNL A   1      42.547  29.522  27.447  1.00  0.00    -0.203 F 
ATOM     81  F   UNL A   1      39.763  24.841  27.108  1.00  0.00    -0.200 F 
ATOM     82  C   UNL A   1      41.164  26.456  26.107  1.00  0.00     0.200 A 
ATOM     83  F   UNL A   1      42.577  28.089  25.153  1.00  0.00    -0.200 F 
ATOM     84  F   UNL A   1      41.206  25.738  24.975  1.00  0.00    -0.200 F 
ENDBRANCH  60  74
BRANCH  61  85
ATOM     85  C   UNL A   1      40.209  33.601  36.683  1.00  0.00     0.064 A 
ATOM     86  C   UNL A   1      40.980  34.752  36.894  1.00  0.00     0.173 A 
ATOM     87  C   UNL A   1      39.334  33.209  37.708  1.00  0.00     0.173 A 
ATOM     88  F   UNL A   1      41.852  35.155  35.958  1.00  0.00    -0.203 F 
ATOM     89  C   UNL A   1      40.902  35.464  38.090  1.00  0.00     0.198 A 
ATOM     90  C   UNL A   1      39.231  33.941  38.889  1.00  0.00     0.198 A 
ATOM     91  F   UNL A   1      38.574  32.113  37.561  1.00  0.00    -0.203 F 
ATOM     92  F   UNL A   1      41.695  36.526  38.288  1.00  0.00    -0.200 F 
ATOM     93  C   UNL A   1      40.024  35.061  39.084  1.00  0.00     0.200 A 
ATOM     94  F   UNL A   1      38.371  33.555  39.842  1.00  0.00    -0.200 F 
ATOM     95  F   UNL A   1      39.949  35.746  40.234  1.00  0.00    -0.200 F 
ENDBRANCH  61  85
BRANCH  73  96
ATOM     96  C   UNL A   1      44.697  28.649  34.678  1.00  0.00     0.064 A 
ATOM     97  C   UNL A   1      45.962  29.249  34.593  1.00  0.00     0.173 A 
ATOM     98  C   UNL A   1      44.577  27.479  35.445  1.00  0.00     0.173 A 
ATOM     99  F   UNL A   1      46.134  30.361  33.863  1.00  0.00    -0.203 F 
ATOM    100  C   UNL A   1      47.066  28.684  35.227  1.00  0.00     0.198 A 
ATOM    101  C   UNL A   1      45.675  26.938  36.107  1.00  0.00     0.198 A 
ATOM    102  F   UNL A   1      43.388  26.870  35.570  1.00  0.00    -0.203 F 
ATOM    103  F   UNL A   1      48.275  29.246  35.088  1.00  0.00    -0.200 F 
ATOM    104  C   UNL A   1      46.921  27.535  35.990  1.00  0.00     0.200 A 
ATOM    105  F   UNL A   1      45.527  25.839  36.860  1.00  0.00    -0.200 F 
ATOM    106  F   UNL A   1      47.983  27.000  36.608  1.00  0.00    -0.200 F 
ENDBRANCH  73  96
ENDBRANCH  47  48
ENDBRANCH  40  42
ENDBRANCH  39  40
ENDBRANCH  38  39
ENDBRANCH  37  38
ENDBRANCH  36  37
ENDBRANCH  35  36
ENDBRANCH  34  35
ENDBRANCH  33  34
ENDBRANCH   1  33
TORSDOF 26
ENDMDL
MODEL 3
REMARK VINA RESULT:     -10.0      4.651      9.296
REMARK SMILES CCOC(=O)C1=NN(c2ccc([N+](=O)[O-])cc2C(F)(F)F)[C@@](C)(C(=O)OCCOCCOCCOCCOC(=O)c2ccc(-c3c4nc(c(-c5c(F)c(F)c(F)c(F)c5F)c5ccc([nH]5)c(-c5c(F)c(F)c(F)c(F)c5F)c5nc(c(-c6c(F)c(F)c(F)c(F)c6F)c6ccc3[nH]6)C=C5)C=C4)cc2)C1
REMARK SMILES IDX 31 1 30 2 29 3 28 4 27 5 26 6 24 7 25 8 22 9 6 10 7 11
REMARK SMILES IDX 104 12 8 13 23 14 4 15 5 16 3 17 2 18 1 19 9 20 10 21 17 22
REMARK SMILES IDX 11 23 16 24 12 25 18 26 19 27 20 28 21 29 13 30 14 31 15 32
REMARK SMILES IDX 32 33 33 34 34 35 35 36 36 37 37 38 38 39 39 40 40 41 41 42
REMARK SMILES IDX 42 43 103 44 43 45 102 46 44 47 45 48 46 49 96 50 47 51
REMARK SMILES IDX 101 52 95 53 97 54 48 55 100 56 94 57 93 58 49 60 81 61
REMARK SMILES IDX 61 62 80 63 62 64 65 65 79 66 98 67 63 68 64 69 78 71 99 72
REMARK SMILES IDX 66 73 50 74 51 75 59 76 52 77 53 78 57 79 60 80 54 81 55 82
REMARK SMILES IDX 58 83 56 84 82 85 83 86 91 87 84 88 85 89 89 90 92 91 86 92
REMARK SMILES IDX 87 93 90 94 88 95 67 96 68 97 76 98 69 99 70 100 74 101
REMARK SMILES IDX 77 102 71 103 72 104 75 105 73 106
REMARK H PARENT 97 59 65 70
REMARK Flexibility Score: inf
ROOT
ATOM      1  C   UNL A   1      34.505  31.860  28.401  1.00  0.00     0.188 C 
ENDROOT
BRANCH   1   2
ATOM      2  C   UNL A   1      33.274  31.595  27.520  1.00  0.00     0.188 C 
BRANCH   2   3
ATOM      3  O   UNL A   1      33.026  30.321  26.933  1.00  0.00    -0.376 OA
BRANCH   3   4
ATOM      4  C   UNL A   1      31.820  29.625  27.184  1.00  0.00     0.202 C 
BRANCH   4   5
ATOM      5  C   UNL A   1      31.873  28.085  27.268  1.00  0.00     0.261 C 
BRANCH   5   6
ATOM      6  O   UNL A   1      33.063  27.420  26.786  1.00  0.00    -0.461 OA
BRANCH   6   7
ATOM      7  C   UNL A   1      32.832  26.438  25.880  1.00  0.00     0.334 C 
ATOM      8  O   UNL A   1      32.497  25.300  26.214  1.00  0.00    -0.249 OA
BRANCH   7   9
ATOM      9  C   UNL A   1      33.153  26.773  24.404  1.00  0.00     0.163 C 
ATOM     10  C   UNL A   1      33.115  24.890  23.037  1.00  0.00     0.149 C 
ATOM     11  N   UNL A   1      32.029  25.512  22.710  1.00  0.00    -0.169 NA
ATOM     12  C   UNL A   1      34.078  25.633  23.897  1.00  0.00     0.108 C 
ATOM     13  N   UNL A   1      32.049  26.718  23.378  1.00  0.00    -0.247 N 
ATOM     14  C   UNL A   1      33.881  28.106  24.504  1.00  0.00     0.050 C 
BRANCH  10  15
ATOM     15  C   UNL A   1      33.394  23.467  22.629  1.00  0.00     0.354 C 
ATOM     16  O   UNL A   1      33.678  23.196  21.476  1.00  0.00    -0.245 OA
BRANCH  15  17
ATOM     17  O   UNL A   1      33.318  22.637  23.684  1.00  0.00    -0.461 OA
BRANCH  17  18
ATOM     18  C   UNL A   1      34.569  22.073  24.110  1.00  0.00     0.230 C 
ATOM     19  C   UNL A   1      34.835  22.380  25.573  1.00  0.00     0.049 C 
ENDBRANCH  17  18
ENDBRANCH  15  17
ENDBRANCH  10  15
BRANCH  13  20
ATOM     20  C   UNL A   1      31.085  27.626  22.954  1.00  0.00     0.073 A 
ATOM     21  C   UNL A   1      31.519  28.879  22.448  1.00  0.00     0.036 A 
ATOM     22  C   UNL A   1      29.699  27.504  23.179  1.00  0.00     0.088 A 
ATOM     23  C   UNL A   1      30.651  29.910  22.065  1.00  0.00     0.088 A 
ATOM     24  C   UNL A   1      28.806  28.515  22.724  1.00  0.00     0.101 A 
ATOM     25  C   UNL A   1      29.284  29.708  22.175  1.00  0.00     0.270 A 
BRANCH  22  26
ATOM     26  C   UNL A   1      29.078  26.416  24.018  1.00  0.00     0.418 C 
ATOM     27  F   UNL A   1      29.596  26.378  25.282  1.00  0.00    -0.166 F 
ATOM     28  F   UNL A   1      27.740  26.599  24.193  1.00  0.00    -0.166 F 
ATOM     29  F   UNL A   1      29.242  25.153  23.540  1.00  0.00    -0.166 F 
ENDBRANCH  22  26
BRANCH  25  30
ATOM     30  N   UNL A   1      28.346  30.767  21.782  1.00  0.00     0.062 N 
ATOM     31  O   UNL A   1      27.662  30.583  20.765  1.00  0.00    -0.258 OA
ATOM     32  O   UNL A   1      28.298  31.782  22.491  1.00  0.00    -0.258 OA
ENDBRANCH  25  30
ENDBRANCH  13  20
ENDBRANCH   7   9
ENDBRANCH   6   7
ENDBRANCH   5   6
ENDBRANCH   4   5
ENDBRANCH   3   4
ENDBRANCH   2   3
ENDBRANCH   1   2
BRANCH   1  33
ATOM     33  O   UNL A   1      34.354  32.845  29.405  1.00  0.00    -0.377 OA
BRANCH  33  34
ATOM     34  C   UNL A   1      34.157  34.175  28.964  1.00  0.00     0.188 C 
BRANCH  34  35
ATOM     35  C   UNL A   1      33.832  35.206  30.053  1.00  0.00     0.188 C 
BRANCH  35  36
ATOM     36  O   UNL A   1      33.483  34.606  31.294  1.00  0.00    -0.376 OA
BRANCH  36  37
ATOM     37  C   UNL A   1      34.355  34.741  32.404  1.00  0.00     0.202 C 
BRANCH  37  38
ATOM     38  C   UNL A   1      35.850  34.443  32.196  1.00  0.00     0.261 C 
BRANCH  38  39
ATOM     39  O   UNL A   1      36.390  33.293  32.867  1.00  0.00    -0.460 OA
BRANCH  39  40
ATOM     40  C   UNL A   1      36.366  32.107  32.225  1.00  0.00     0.338 C 
ATOM     41  O   UNL A   1      35.382  31.449  31.933  1.00  0.00    -0.246 OA
BRANCH  40  42
ATOM     42  C   UNL A   1      37.735  31.833  31.734  1.00  0.00     0.060 A 
ATOM     43  C   UNL A   1      38.044  32.125  30.398  1.00  0.00     0.016 A 
ATOM     44  C   UNL A   1      38.716  31.318  32.586  1.00  0.00     0.016 A 
ATOM     45  C   UNL A   1      39.324  31.875  29.902  1.00  0.00     0.010 A 
ATOM     46  C   UNL A   1      39.989  31.037  32.080  1.00  0.00     0.010 A 
ATOM     47  C   UNL A   1      40.288  31.283  30.727  1.00  0.00    -0.014 A 
BRANCH  47  48
ATOM     48  C   UNL A   1      41.522  30.725  30.122  1.00  0.00     0.031 A 
ATOM     49  C   UNL A   1      41.452  29.352  29.511  1.00  0.00     0.074 A 
ATOM     50  C   UNL A   1      42.669  31.425  30.084  1.00  0.00     0.049 A 
ATOM     51  N   UNL A   1      42.397  28.632  28.964  1.00  0.00    -0.248 NA
ATOM     52  C   UNL A   1      40.130  28.703  29.520  1.00  0.00     0.031 C 
ATOM     53  C   UNL A   1      42.850  32.780  30.596  1.00  0.00     0.029 A 
ATOM     54  N   UNL A   1      43.906  31.079  29.596  1.00  0.00    -0.354 N 
ATOM     55  C   UNL A   1      41.788  27.447  28.572  1.00  0.00     0.074 A 
ATOM     56  C   UNL A   1      40.399  27.529  28.968  1.00  0.00     0.031 C 
ATOM     57  C   UNL A   1      44.131  33.148  30.411  1.00  0.00     0.029 A 
ATOM     58  C   UNL A   1      44.866  32.040  29.800  1.00  0.00     0.049 A 
ATOM     59  H   UNL A   1      44.087  30.225  29.144  1.00  0.00     0.167 HD
ATOM     60  C   UNL A   1      42.335  26.387  27.933  1.00  0.00     0.037 A 
ATOM     61  C   UNL A   1      46.190  32.012  29.548  1.00  0.00     0.037 A 
ATOM     62  C   UNL A   1      43.718  26.307  27.544  1.00  0.00     0.049 A 
ATOM     63  C   UNL A   1      46.794  30.782  28.911  1.00  0.00     0.074 A 
ATOM     64  C   UNL A   1      44.368  25.283  26.877  1.00  0.00     0.029 A 
ATOM     65  N   UNL A   1      44.667  27.285  27.799  1.00  0.00    -0.354 N 
ATOM     66  N   UNL A   1      46.207  29.678  28.516  1.00  0.00    -0.248 NA
ATOM     67  C   UNL A   1      48.246  30.799  28.682  1.00  0.00     0.031 C 
ATOM     68  C   UNL A   1      45.723  25.614  26.786  1.00  0.00     0.029 A 
ATOM     69  C   UNL A   1      45.905  26.875  27.330  1.00  0.00     0.049 A 
ATOM     70  H   UNL A   1      44.489  28.143  28.246  1.00  0.00     0.167 HD
ATOM     71  C   UNL A   1      47.208  28.888  27.961  1.00  0.00     0.074 A 
ATOM     72  C   UNL A   1      48.437  29.646  28.057  1.00  0.00     0.031 C 
ATOM     73  C   UNL A   1      47.118  27.648  27.419  1.00  0.00     0.037 A 
BRANCH  60  74
ATOM     74  C   UNL A   1      41.447  25.213  27.642  1.00  0.00     0.064 A 
ATOM     75  C   UNL A   1      40.405  25.286  26.706  1.00  0.00     0.173 A 
ATOM     76  C   UNL A   1      41.668  23.983  28.282  1.00  0.00     0.173 A 
ATOM     77  F   UNL A   1      40.141  26.442  26.077  1.00  0.00    -0.203 F 
ATOM     78  C   UNL A   1      39.604  24.179  26.436  1.00  0.00     0.198 A 
ATOM     79  C   UNL A   1      40.887  22.870  27.986  1.00  0.00     0.198 A 
ATOM     80  F   UNL A   1      42.651  23.858  29.186  1.00  0.00    -0.203 F 
ATOM     81  F   UNL A   1      38.586  24.284  25.571  1.00  0.00    -0.200 F 
ATOM     82  C   UNL A   1      39.852  22.970  27.069  1.00  0.00     0.200 A 
ATOM     83  F   UNL A   1      41.136  21.699  28.590  1.00  0.00    -0.200 F 
ATOM     84  F   UNL A   1      39.088  21.902  26.799  1.00  0.00    -0.200 F 
ENDBRANCH  60  74
BRANCH  61  85
ATOM     85  C   UNL A   1      47.049  33.171  29.914  1.00  0.00     0.064 A 
ATOM     86  C   UNL A   1      47.703  33.227  31.153  1.00  0.00     0.173 A 
ATOM     87  C   UNL A   1      47.199  34.267  29.051  1.00  0.00     0.173 A 
ATOM     88  F   UNL A   1      47.571  32.218  32.027  1.00  0.00    -0.203 F 
ATOM     89  C   UNL A   1      48.451  34.344  31.524  1.00  0.00     0.198 A 
ATOM     90  C   UNL A   1      47.974  35.367  29.408  1.00  0.00     0.198 A 
ATOM     91  F   UNL A   1      46.592  34.267  27.854  1.00  0.00    -0.203 F 
ATOM     92  F   UNL A   1      49.015  34.396  32.738  1.00  0.00    -0.200 F 
ATOM     93  C   UNL A   1      48.590  35.411  30.649  1.00  0.00     0.200 A 
ATOM     94  F   UNL A   1      48.117  36.390  28.554  1.00  0.00    -0.200 F 
ATOM     95  F   UNL A   1      49.309  36.484  31.006  1.00  0.00    -0.200 F 
ENDBRANCH  61  85
BRANCH  73  96
ATOM     96  C   UNL A   1      48.368  27.049  26.838  1.00  0.00     0.064 A 
ATOM     97  C   UNL A   1      49.236  26.255  27.601  1.00  0.00     0.173 A 
ATOM     98  C   UNL A   1      48.674  27.234  25.479  1.00  0.00     0.173 A 
ATOM     99  F   UNL A   1      48.997  26.056  28.906  1.00  0.00    -0.203 F 
ATOM    100  C   UNL A   1      50.378  25.693  27.034  1.00  0.00     0.198 A 
ATOM    101  C   UNL A   1      49.796  26.642  24.908  1.00  0.00     0.198 A 
ATOM    102  F   UNL A   1      47.872  27.976  24.700  1.00  0.00    -0.203 F 
ATOM    103  F   UNL A   1      51.220  24.982  27.796  1.00  0.00    -0.200 F 
ATOM    104  C   UNL A   1      50.652  25.879  25.688  1.00  0.00     0.200 A 
ATOM    105  F   UNL A   1      50.047  26.806  23.602  1.00  0.00    -0.200 F 
ATOM    106  F   UNL A   1      51.745  25.329  25.142  1.00  0.00    -0.200 F 
ENDBRANCH  73  96
ENDBRANCH  47  48
ENDBRANCH  40  42
ENDBRANCH  39  40
ENDBRANCH  38  39
ENDBRANCH  37  38
ENDBRANCH  36  37
ENDBRANCH  35  36
ENDBRANCH  34  35
ENDBRANCH  33  34
ENDBRANCH   1  33
TORSDOF 26
ENDMDL
