MODEL 1
REMARK VINA RESULT:     -10.0      0.000      0.000
REMARK SMILES C[C@H]1[C@H](C(=O)OCCOCCOCCOCCOC(=O)c2ccc(-c3c4nc(c(-c5c(F)c(F)c(F)c(F)c5F)c5ccc([nH]5)c(-c5c(F)c(F)c(F)c(F)c5F)c5nc(c(-c6c(F)c(F)c(F)c(F)c6F)c6ccc3[nH]6)C=C5)C=C4)cc2)CC[N@@H+]1Cc1cnn(-c2ccccc2)c1
REMARK SMILES IDX 11 1 10 2 9 3 8 4 7 5 6 6 4 7 5 8 3 9 1 10 2 11 86 12 84 13
REMARK SMILES IDX 85 14 87 16 88 17 89 18 98 19 90 20 91 21 92 22 93 23 97 24
REMARK SMILES IDX 94 25 96 26 95 27 12 28 13 29 14 30 15 31 16 32 17 33 18 34
REMARK SMILES IDX 19 35 20 36 21 37 22 38 83 39 23 40 82 41 24 42 25 43 26 44
REMARK SMILES IDX 76 45 27 46 81 47 75 48 77 49 28 50 80 51 74 52 73 53 29 55
REMARK SMILES IDX 61 56 41 57 60 58 42 59 45 60 59 61 78 62 43 63 44 64 58 66
REMARK SMILES IDX 79 67 46 68 30 69 31 70 39 71 32 72 33 73 37 74 40 75 34 76
REMARK SMILES IDX 35 77 38 78 36 79 62 80 63 81 71 82 64 83 65 84 69 85 72 86
REMARK SMILES IDX 66 87 67 88 70 89 68 90 47 91 48 92 56 93 49 94 50 95 54 96
REMARK SMILES IDX 57 97 51 98 52 99 55 100 53 101
REMARK H PARENT 86 15 77 54 45 65
REMARK Flexibility Score: inf
ROOT
ATOM      1  C   UNL A   1      40.486  22.982  26.939  1.00  0.00     0.188 C 
ENDROOT
BRANCH   1   2
ATOM      2  C   UNL A   1      39.543  24.147  26.645  1.00  0.00     0.188 C 
BRANCH   2   3
ATOM      3  O   UNL A   1      38.153  23.969  26.844  1.00  0.00    -0.376 OA
BRANCH   3   4
ATOM      4  C   UNL A   1      37.232  23.748  25.789  1.00  0.00     0.202 C 
BRANCH   4   5
ATOM      5  C   UNL A   1      37.363  22.645  24.720  1.00  0.00     0.261 C 
BRANCH   5   6
ATOM      6  O   UNL A   1      36.168  21.926  24.361  1.00  0.00    -0.463 OA
BRANCH   6   7
ATOM      7  C   UNL A   1      36.073  20.659  24.828  1.00  0.00     0.315 C 
ATOM      8  O   UNL A   1      36.927  19.799  24.628  1.00  0.00    -0.252 OA
BRANCH   7   9
ATOM      9  C   UNL A   1      34.800  20.332  25.598  1.00  0.00     0.162 C 
ATOM     10  C   UNL A   1      33.632  21.454  27.552  1.00  0.00     0.076 C 
ATOM     11  C   UNL A   1      33.797  21.419  26.020  1.00  0.00     0.195 C 
ATOM     12  N   UNL A   1      32.492  21.041  25.478  1.00  0.00    -0.328 N 
ATOM     13  C   UNL A   1      33.989  19.329  24.791  1.00  0.00     0.083 C 
ATOM     14  C   UNL A   1      32.537  19.641  25.094  1.00  0.00     0.263 C 
ATOM     15  H   UNL A   1      31.793  21.121  26.217  1.00  0.00     0.348 HD
BRANCH  12  16
ATOM     16  C   UNL A   1      31.867  21.986  24.558  1.00  0.00     0.302 C 
BRANCH  16  17
ATOM     17  C   UNL A   1      31.698  23.375  25.080  1.00  0.00     0.045 A 
ATOM     18  C   UNL A   1      30.970  23.783  26.213  1.00  0.00     0.145 A 
ATOM     19  C   UNL A   1      32.298  24.546  24.645  1.00  0.00     0.124 A 
ATOM     20  N   UNL A   1      31.132  25.073  26.503  1.00  0.00    -0.176 NA
ATOM     21  N   UNL A   1      31.940  25.549  25.524  1.00  0.00    -0.240 N 
BRANCH  21  22
ATOM     22  C   UNL A   1      32.294  26.926  25.495  1.00  0.00     0.065 A 
ATOM     23  C   UNL A   1      31.477  27.856  26.158  1.00  0.00     0.028 A 
ATOM     24  C   UNL A   1      33.416  27.377  24.791  1.00  0.00     0.028 A 
ATOM     25  C   UNL A   1      31.774  29.219  26.112  1.00  0.00     0.002 A 
ATOM     26  C   UNL A   1      33.681  28.749  24.708  1.00  0.00     0.002 A 
ATOM     27  C   UNL A   1      32.866  29.667  25.372  1.00  0.00     0.000 A 
ENDBRANCH  21  22
ENDBRANCH  16  17
ENDBRANCH  12  16
ENDBRANCH   7   9
ENDBRANCH   6   7
ENDBRANCH   5   6
ENDBRANCH   4   5
ENDBRANCH   3   4
ENDBRANCH   2   3
ENDBRANCH   1   2
BRANCH   1  28
ATOM     28  O   UNL A   1      39.997  21.667  27.010  1.00  0.00    -0.377 OA
BRANCH  28  29
ATOM     29  C   UNL A   1      40.978  20.671  26.875  1.00  0.00     0.188 C 
BRANCH  29  30
ATOM     30  C   UNL A   1      42.030  21.020  25.825  1.00  0.00     0.188 C 
BRANCH  30  31
ATOM     31  O   UNL A   1      43.374  21.331  26.174  1.00  0.00    -0.376 OA
BRANCH  31  32
ATOM     32  C   UNL A   1      44.314  21.798  25.220  1.00  0.00     0.202 C 
BRANCH  32  33
ATOM     33  C   UNL A   1      44.196  23.235  24.670  1.00  0.00     0.261 C 
BRANCH  33  34
ATOM     34  O   UNL A   1      45.222  24.171  25.034  1.00  0.00    -0.460 OA
BRANCH  34  35
ATOM     35  C   UNL A   1      45.540  24.209  26.344  1.00  0.00     0.338 C 
ATOM     36  O   UNL A   1      46.563  23.794  26.872  1.00  0.00    -0.246 OA
BRANCH  35  37
ATOM     37  C   UNL A   1      44.510  24.967  27.085  1.00  0.00     0.060 A 
ATOM     38  C   UNL A   1      44.521  26.365  26.989  1.00  0.00     0.016 A 
ATOM     39  C   UNL A   1      43.585  24.326  27.913  1.00  0.00     0.016 A 
ATOM     40  C   UNL A   1      43.652  27.129  27.764  1.00  0.00     0.010 A 
ATOM     41  C   UNL A   1      42.734  25.095  28.717  1.00  0.00     0.010 A 
ATOM     42  C   UNL A   1      42.806  26.499  28.684  1.00  0.00    -0.014 A 
BRANCH  42  43
ATOM     43  C   UNL A   1      42.221  27.324  29.771  1.00  0.00     0.031 A 
ATOM     44  C   UNL A   1      42.930  27.355  31.097  1.00  0.00     0.074 A 
ATOM     45  C   UNL A   1      41.149  28.106  29.564  1.00  0.00     0.049 A 
ATOM     46  N   UNL A   1      42.650  28.040  32.176  1.00  0.00    -0.248 NA
ATOM     47  C   UNL A   1      44.117  26.493  31.224  1.00  0.00     0.031 C 
ATOM     48  C   UNL A   1      40.398  28.182  28.318  1.00  0.00     0.029 A 
ATOM     49  N   UNL A   1      40.513  28.992  30.397  1.00  0.00    -0.354 N 
ATOM     50  C   UNL A   1      43.617  27.685  33.108  1.00  0.00     0.074 A 
ATOM     51  C   UNL A   1      44.469  26.698  32.482  1.00  0.00     0.031 C 
ATOM     52  C   UNL A   1      39.410  29.081  28.456  1.00  0.00     0.029 A 
ATOM     53  C   UNL A   1      39.437  29.617  29.815  1.00  0.00     0.049 A 
ATOM     54  H   UNL A   1      40.802  29.165  31.322  1.00  0.00     0.167 HD
ATOM     55  C   UNL A   1      43.786  28.150  34.368  1.00  0.00     0.037 A 
ATOM     56  C   UNL A   1      38.565  30.505  30.331  1.00  0.00     0.037 A 
ATOM     57  C   UNL A   1      42.934  29.129  34.989  1.00  0.00     0.049 A 
ATOM     58  C   UNL A   1      38.740  30.961  31.758  1.00  0.00     0.074 A 
ATOM     59  C   UNL A   1      43.025  29.670  36.258  1.00  0.00     0.029 A 
ATOM     60  N   UNL A   1      41.828  29.709  34.384  1.00  0.00    -0.354 N 
ATOM     61  N   UNL A   1      39.670  30.639  32.625  1.00  0.00    -0.248 NA
ATOM     62  C   UNL A   1      37.742  31.908  32.276  1.00  0.00     0.031 C 
ATOM     63  C   UNL A   1      41.937  30.529  36.446  1.00  0.00     0.029 A 
ATOM     64  C   UNL A   1      41.211  30.583  35.267  1.00  0.00     0.049 A 
ATOM     65  H   UNL A   1      41.525  29.526  33.466  1.00  0.00     0.167 HD
ATOM     66  C   UNL A   1      39.390  31.366  33.776  1.00  0.00     0.074 A 
ATOM     67  C   UNL A   1      38.215  32.162  33.488  1.00  0.00     0.031 C 
ATOM     68  C   UNL A   1      40.044  31.374  34.964  1.00  0.00     0.037 A 
BRANCH  55  69
ATOM     69  C   UNL A   1      44.917  27.571  35.170  1.00  0.00     0.064 A 
ATOM     70  C   UNL A   1      44.737  26.463  36.013  1.00  0.00     0.173 A 
ATOM     71  C   UNL A   1      46.203  28.125  35.082  1.00  0.00     0.173 A 
ATOM     72  F   UNL A   1      43.524  25.907  36.150  1.00  0.00    -0.203 F 
ATOM     73  C   UNL A   1      45.796  25.951  36.760  1.00  0.00     0.198 A 
ATOM     74  C   UNL A   1      47.267  27.589  35.801  1.00  0.00     0.198 A 
ATOM     75  F   UNL A   1      46.430  29.185  34.291  1.00  0.00    -0.203 F 
ATOM     76  F   UNL A   1      45.589  24.929  37.602  1.00  0.00    -0.200 F 
ATOM     77  C   UNL A   1      47.062  26.509  36.646  1.00  0.00     0.200 A 
ATOM     78  F   UNL A   1      48.490  28.121  35.680  1.00  0.00    -0.200 F 
ATOM     79  F   UNL A   1      48.081  26.011  37.359  1.00  0.00    -0.200 F 
ENDBRANCH  55  69
BRANCH  56  80
ATOM     80  C   UNL A   1      37.440  31.019  29.502  1.00  0.00     0.064 A 
ATOM     81  C   UNL A   1      37.438  32.334  29.014  1.00  0.00     0.173 A 
ATOM     82  C   UNL A   1      36.327  30.217  29.209  1.00  0.00     0.173 A 
ATOM     83  F   UNL A   1      38.467  33.151  29.287  1.00  0.00    -0.203 F 
ATOM     84  C   UNL A   1      36.358  32.833  28.290  1.00  0.00     0.198 A 
ATOM     85  C   UNL A   1      35.264  30.704  28.453  1.00  0.00     0.198 A 
ATOM     86  F   UNL A   1      36.275  28.953  29.654  1.00  0.00    -0.203 F 
ATOM     87  F   UNL A   1      36.357  34.111  27.887  1.00  0.00    -0.200 F 
ATOM     88  C   UNL A   1      35.274  32.016  28.004  1.00  0.00     0.200 A 
ATOM     89  F   UNL A   1      34.225  29.908  28.169  1.00  0.00    -0.200 F 
ATOM     90  F   UNL A   1      34.236  32.495  27.306  1.00  0.00    -0.200 F 
ENDBRANCH  56  80
BRANCH  68  91
ATOM     91  C   UNL A   1      39.535  32.309  36.026  1.00  0.00     0.064 A 
ATOM     92  C   UNL A   1      38.494  31.952  36.896  1.00  0.00     0.173 A 
ATOM     93  C   UNL A   1      40.112  33.579  36.185  1.00  0.00     0.173 A 
ATOM     94  F   UNL A   1      37.899  30.754  36.782  1.00  0.00    -0.203 F 
ATOM     95  C   UNL A   1      38.020  32.846  37.854  1.00  0.00     0.198 A 
ATOM     96  C   UNL A   1      39.663  34.455  37.170  1.00  0.00     0.198 A 
ATOM     97  F   UNL A   1      41.119  33.970  35.390  1.00  0.00    -0.203 F 
ATOM     98  F   UNL A   1      36.978  32.507  38.626  1.00  0.00    -0.200 F 
ATOM     99  C   UNL A   1      38.608  34.093  37.994  1.00  0.00     0.200 A 
ATOM    100  F   UNL A   1      40.247  35.653  37.316  1.00  0.00    -0.200 F 
ATOM    101  F   UNL A   1      38.152  34.952  38.916  1.00  0.00    -0.200 F 
ENDBRANCH  68  91
ENDBRANCH  42  43
ENDBRANCH  35  37
ENDBRANCH  34  35
ENDBRANCH  33  34
ENDBRANCH  32  33
ENDBRANCH  31  32
ENDBRANCH  30  31
ENDBRANCH  29  30
ENDBRANCH  28  29
ENDBRANCH   1  28
TORSDOF 23
ENDMDL
MODEL 2
REMARK VINA RESULT:      -9.8      5.285     10.777
REMARK SMILES C[C@H]1[C@H](C(=O)OCCOCCOCCOCCOC(=O)c2ccc(-c3c4nc(c(-c5c(F)c(F)c(F)c(F)c5F)c5ccc([nH]5)c(-c5c(F)c(F)c(F)c(F)c5F)c5nc(c(-c6c(F)c(F)c(F)c(F)c6F)c6ccc3[nH]6)C=C5)C=C4)cc2)CC[N@@H+]1Cc1cnn(-c2ccccc2)c1
REMARK SMILES IDX 11 1 10 2 9 3 8 4 7 5 6 6 4 7 5 8 3 9 1 10 2 11 86 12 84 13
REMARK SMILES IDX 85 14 87 16 88 17 89 18 98 19 90 20 91 21 92 22 93 23 97 24
REMARK SMILES IDX 94 25 96 26 95 27 12 28 13 29 14 30 15 31 16 32 17 33 18 34
REMARK SMILES IDX 19 35 20 36 21 37 22 38 83 39 23 40 82 41 24 42 25 43 26 44
REMARK SMILES IDX 76 45 27 46 81 47 75 48 77 49 28 50 80 51 74 52 73 53 29 55
REMARK SMILES IDX 61 56 41 57 60 58 42 59 45 60 59 61 78 62 43 63 44 64 58 66
REMARK SMILES IDX 79 67 46 68 30 69 31 70 39 71 32 72 33 73 37 74 40 75 34 76
REMARK SMILES IDX 35 77 38 78 36 79 62 80 63 81 71 82 64 83 65 84 69 85 72 86
REMARK SMILES IDX 66 87 67 88 70 89 68 90 47 91 48 92 56 93 49 94 50 95 54 96
REMARK SMILES IDX 57 97 51 98 52 99 55 100 53 101
REMARK H PARENT 86 15 77 54 45 65
REMARK Flexibility Score: inf
ROOT
ATOM      1  C   UNL A   1      34.595  33.018  28.339  1.00  0.00     0.188 C 
ENDROOT
BRANCH   1   2
ATOM      2  C   UNL A   1      33.216  33.257  27.726  1.00  0.00     0.188 C 
BRANCH   2   3
ATOM      3  O   UNL A   1      32.360  32.150  27.517  1.00  0.00    -0.376 OA
BRANCH   3   4
ATOM      4  C   UNL A   1      32.818  30.812  27.413  1.00  0.00     0.202 C 
BRANCH   4   5
ATOM      5  C   UNL A   1      33.262  30.130  26.105  1.00  0.00     0.261 C 
BRANCH   5   6
ATOM      6  O   UNL A   1      32.312  29.267  25.452  1.00  0.00    -0.463 OA
BRANCH   6   7
ATOM      7  C   UNL A   1      32.554  27.938  25.543  1.00  0.00     0.315 C 
ATOM      8  O   UNL A   1      33.045  27.407  26.536  1.00  0.00    -0.252 OA
BRANCH   7   9
ATOM      9  C   UNL A   1      32.219  27.119  24.303  1.00  0.00     0.162 C 
ATOM     10  C   UNL A   1      33.528  25.405  22.965  1.00  0.00     0.076 C 
ATOM     11  C   UNL A   1      32.602  25.635  24.175  1.00  0.00     0.195 C 
ATOM     12  N   UNL A   1      31.373  24.892  23.894  1.00  0.00    -0.328 N 
ATOM     13  C   UNL A   1      30.715  27.167  24.081  1.00  0.00     0.083 C 
ATOM     14  C   UNL A   1      30.351  25.831  23.466  1.00  0.00     0.263 C 
ATOM     15  H   UNL A   1      31.540  24.262  23.109  1.00  0.00     0.348 HD
BRANCH  12  16
ATOM     16  C   UNL A   1      30.998  23.860  24.856  1.00  0.00     0.302 C 
BRANCH  16  17
ATOM     17  C   UNL A   1      31.921  22.689  24.934  1.00  0.00     0.045 A 
ATOM     18  C   UNL A   1      32.922  22.447  25.894  1.00  0.00     0.145 A 
ATOM     19  C   UNL A   1      31.931  21.537  24.164  1.00  0.00     0.124 A 
ATOM     20  N   UNL A   1      33.477  21.242  25.780  1.00  0.00    -0.176 NA
ATOM     21  N   UNL A   1      32.876  20.685  24.699  1.00  0.00    -0.240 N 
BRANCH  21  22
ATOM     22  C   UNL A   1      33.262  19.391  24.254  1.00  0.00     0.065 A 
ATOM     23  C   UNL A   1      34.472  18.843  24.710  1.00  0.00     0.028 A 
ATOM     24  C   UNL A   1      32.481  18.668  23.344  1.00  0.00     0.028 A 
ATOM     25  C   UNL A   1      34.899  17.594  24.257  1.00  0.00     0.002 A 
ATOM     26  C   UNL A   1      32.938  17.438  22.858  1.00  0.00     0.002 A 
ATOM     27  C   UNL A   1      34.141  16.900  23.318  1.00  0.00     0.000 A 
ENDBRANCH  21  22
ENDBRANCH  16  17
ENDBRANCH  12  16
ENDBRANCH   7   9
ENDBRANCH   6   7
ENDBRANCH   5   6
ENDBRANCH   4   5
ENDBRANCH   3   4
ENDBRANCH   2   3
ENDBRANCH   1   2
BRANCH   1  28
ATOM     28  O   UNL A   1      35.011  33.742  29.468  1.00  0.00    -0.377 OA
BRANCH  28  29
ATOM     29  C   UNL A   1      34.144  34.780  29.847  1.00  0.00     0.188 C 
BRANCH  29  30
ATOM     30  C   UNL A   1      34.049  34.943  31.362  1.00  0.00     0.188 C 
BRANCH  30  31
ATOM     31  O   UNL A   1      34.919  35.805  32.088  1.00  0.00    -0.376 OA
BRANCH  31  32
ATOM     32  C   UNL A   1      35.451  35.452  33.354  1.00  0.00     0.202 C 
BRANCH  32  33
ATOM     33  C   UNL A   1      35.286  34.010  33.878  1.00  0.00     0.261 C 
BRANCH  33  34
ATOM     34  O   UNL A   1      36.113  32.993  33.293  1.00  0.00    -0.460 OA
BRANCH  34  35
ATOM     35  C   UNL A   1      35.478  32.111  32.494  1.00  0.00     0.338 C 
ATOM     36  O   UNL A   1      34.285  32.082  32.221  1.00  0.00    -0.246 OA
BRANCH  35  37
ATOM     37  C   UNL A   1      36.466  31.219  31.853  1.00  0.00     0.060 A 
ATOM     38  C   UNL A   1      37.640  30.917  32.556  1.00  0.00     0.016 A 
ATOM     39  C   UNL A   1      36.280  30.734  30.555  1.00  0.00     0.016 A 
ATOM     40  C   UNL A   1      38.655  30.185  31.947  1.00  0.00     0.010 A 
ATOM     41  C   UNL A   1      37.314  30.025  29.931  1.00  0.00     0.010 A 
ATOM     42  C   UNL A   1      38.526  29.798  30.608  1.00  0.00    -0.014 A 
BRANCH  42  43
ATOM     43  C   UNL A   1      39.756  29.411  29.873  1.00  0.00     0.031 A 
ATOM     44  C   UNL A   1      40.863  30.423  29.763  1.00  0.00     0.074 A 
ATOM     45  C   UNL A   1      39.933  28.167  29.400  1.00  0.00     0.049 A 
ATOM     46  N   UNL A   1      42.050  30.304  29.223  1.00  0.00    -0.248 NA
ATOM     47  C   UNL A   1      40.595  31.751  30.339  1.00  0.00     0.031 C 
ATOM     48  C   UNL A   1      38.947  27.097  29.472  1.00  0.00     0.029 A 
ATOM     49  N   UNL A   1      41.011  27.592  28.775  1.00  0.00    -0.354 N 
ATOM     50  C   UNL A   1      42.662  31.540  29.387  1.00  0.00     0.074 A 
ATOM     51  C   UNL A   1      41.705  32.405  30.042  1.00  0.00     0.031 C 
ATOM     52  C   UNL A   1      39.468  25.984  28.930  1.00  0.00     0.029 A 
ATOM     53  C   UNL A   1      40.812  26.275  28.437  1.00  0.00     0.049 A 
ATOM     54  H   UNL A   1      41.847  28.076  28.588  1.00  0.00     0.167 HD
ATOM     55  C   UNL A   1      43.913  31.917  29.034  1.00  0.00     0.037 A 
ATOM     56  C   UNL A   1      41.620  25.413  27.789  1.00  0.00     0.037 A 
ATOM     57  C   UNL A   1      44.861  31.054  28.379  1.00  0.00     0.049 A 
ATOM     58  C   UNL A   1      42.987  25.876  27.352  1.00  0.00     0.074 A 
ATOM     59  C   UNL A   1      46.156  31.338  27.985  1.00  0.00     0.029 A 
ATOM     60  N   UNL A   1      44.610  29.740  28.014  1.00  0.00    -0.354 N 
ATOM     61  N   UNL A   1      43.567  27.038  27.532  1.00  0.00    -0.248 NA
ATOM     62  C   UNL A   1      43.813  24.902  26.624  1.00  0.00     0.031 C 
ATOM     63  C   UNL A   1      46.667  30.216  27.324  1.00  0.00     0.029 A 
ATOM     64  C   UNL A   1      45.719  29.207  27.374  1.00  0.00     0.049 A 
ATOM     65  H   UNL A   1      43.769  29.256  28.184  1.00  0.00     0.167 HD
ATOM     66  C   UNL A   1      44.834  26.925  26.970  1.00  0.00     0.074 A 
ATOM     67  C   UNL A   1      44.943  25.573  26.463  1.00  0.00     0.031 C 
ATOM     68  C   UNL A   1      45.817  27.856  26.880  1.00  0.00     0.037 A 
BRANCH  55  69
ATOM     69  C   UNL A   1      44.312  33.337  29.316  1.00  0.00     0.064 A 
ATOM     70  C   UNL A   1      44.077  34.371  28.396  1.00  0.00     0.173 A 
ATOM     71  C   UNL A   1      44.925  33.671  30.534  1.00  0.00     0.173 A 
ATOM     72  F   UNL A   1      43.512  34.104  27.209  1.00  0.00    -0.203 F 
ATOM     73  C   UNL A   1      44.468  35.679  28.673  1.00  0.00     0.198 A 
ATOM     74  C   UNL A   1      45.282  34.985  30.822  1.00  0.00     0.198 A 
ATOM     75  F   UNL A   1      45.173  32.722  31.448  1.00  0.00    -0.203 F 
ATOM     76  F   UNL A   1      44.286  36.639  27.756  1.00  0.00    -0.200 F 
ATOM     77  C   UNL A   1      45.062  35.986  29.888  1.00  0.00     0.200 A 
ATOM     78  F   UNL A   1      45.843  35.281  32.001  1.00  0.00    -0.200 F 
ATOM     79  F   UNL A   1      45.431  37.246  30.156  1.00  0.00    -0.200 F 
ENDBRANCH  55  69
BRANCH  56  80
ATOM     80  C   UNL A   1      41.160  24.026  27.503  1.00  0.00     0.064 A 
ATOM     81  C   UNL A   1      41.781  22.917  28.095  1.00  0.00     0.173 A 
ATOM     82  C   UNL A   1      40.111  23.780  26.604  1.00  0.00     0.173 A 
ATOM     83  F   UNL A   1      42.805  23.096  28.943  1.00  0.00    -0.203 F 
ATOM     84  C   UNL A   1      41.389  21.618  27.780  1.00  0.00     0.198 A 
ATOM     85  C   UNL A   1      39.695  22.482  26.318  1.00  0.00     0.198 A 
ATOM     86  F   UNL A   1      39.484  24.804  26.006  1.00  0.00    -0.203 F 
ATOM     87  F   UNL A   1      42.040  20.575  28.316  1.00  0.00    -0.200 F 
ATOM     88  C   UNL A   1      40.343  21.401  26.896  1.00  0.00     0.200 A 
ATOM     89  F   UNL A   1      38.676  22.278  25.474  1.00  0.00    -0.200 F 
ATOM     90  F   UNL A   1      39.964  20.151  26.595  1.00  0.00    -0.200 F 
ENDBRANCH  56  80
BRANCH  68  91
ATOM     91  C   UNL A   1      47.116  27.429  26.253  1.00  0.00     0.064 A 
ATOM     92  C   UNL A   1      47.366  27.578  24.881  1.00  0.00     0.173 A 
ATOM     93  C   UNL A   1      48.134  26.877  27.047  1.00  0.00     0.173 A 
ATOM     94  F   UNL A   1      46.423  28.090  24.075  1.00  0.00    -0.203 F 
ATOM     95  C   UNL A   1      48.566  27.149  24.320  1.00  0.00     0.198 A 
ATOM     96  C   UNL A   1      49.349  26.487  26.489  1.00  0.00     0.198 A 
ATOM     97  F   UNL A   1      47.957  26.722  28.367  1.00  0.00    -0.203 F 
ATOM     98  F   UNL A   1      48.753  27.237  22.995  1.00  0.00    -0.200 F 
ATOM     99  C   UNL A   1      49.558  26.610  25.123  1.00  0.00     0.200 A 
ATOM    100  F   UNL A   1      50.314  25.984  27.271  1.00  0.00    -0.200 F 
ATOM    101  F   UNL A   1      50.713  26.199  24.582  1.00  0.00    -0.200 F 
ENDBRANCH  68  91
ENDBRANCH  42  43
ENDBRANCH  35  37
ENDBRANCH  34  35
ENDBRANCH  33  34
ENDBRANCH  32  33
ENDBRANCH  31  32
ENDBRANCH  30  31
ENDBRANCH  29  30
ENDBRANCH  28  29
ENDBRANCH   1  28
TORSDOF 23
ENDMDL
MODEL 3
REMARK VINA RESULT:      -9.4      5.281     10.825
REMARK SMILES C[C@H]1[C@H](C(=O)OCCOCCOCCOCCOC(=O)c2ccc(-c3c4nc(c(-c5c(F)c(F)c(F)c(F)c5F)c5ccc([nH]5)c(-c5c(F)c(F)c(F)c(F)c5F)c5nc(c(-c6c(F)c(F)c(F)c(F)c6F)c6ccc3[nH]6)C=C5)C=C4)cc2)CC[N@@H+]1Cc1cnn(-c2ccccc2)c1
REMARK SMILES IDX 11 1 10 2 9 3 8 4 7 5 6 6 4 7 5 8 3 9 1 10 2 11 86 12 84 13
REMARK SMILES IDX 85 14 87 16 88 17 89 18 98 19 90 20 91 21 92 22 93 23 97 24
REMARK SMILES IDX 94 25 96 26 95 27 12 28 13 29 14 30 15 31 16 32 17 33 18 34
REMARK SMILES IDX 19 35 20 36 21 37 22 38 83 39 23 40 82 41 24 42 25 43 26 44
REMARK SMILES IDX 76 45 27 46 81 47 75 48 77 49 28 50 80 51 74 52 73 53 29 55
REMARK SMILES IDX 61 56 41 57 60 58 42 59 45 60 59 61 78 62 43 63 44 64 58 66
REMARK SMILES IDX 79 67 46 68 30 69 31 70 39 71 32 72 33 73 37 74 40 75 34 76
REMARK SMILES IDX 35 77 38 78 36 79 62 80 63 81 71 82 64 83 65 84 69 85 72 86
REMARK SMILES IDX 66 87 67 88 70 89 68 90 47 91 48 92 56 93 49 94 50 95 54 96
REMARK SMILES IDX 57 97 51 98 52 99 55 100 53 101
REMARK H PARENT 86 15 77 54 45 65
REMARK Flexibility Score: inf
ROOT
ATOM      1  C   UNL A   1      34.936  32.404  28.159  1.00  0.00     0.188 C 
ENDROOT
BRANCH   1   2
ATOM      2  C   UNL A   1      33.515  32.616  27.639  1.00  0.00     0.188 C 
BRANCH   2   3
ATOM      3  O   UNL A   1      32.689  31.487  27.426  1.00  0.00    -0.376 OA
BRANCH   3   4
ATOM      4  C   UNL A   1      33.189  30.193  27.133  1.00  0.00     0.202 C 
BRANCH   4   5
ATOM      5  C   UNL A   1      33.320  29.597  25.718  1.00  0.00     0.261 C 
BRANCH   5   6
ATOM      6  O   UNL A   1      32.331  28.633  25.311  1.00  0.00    -0.463 OA
BRANCH   6   7
ATOM      7  C   UNL A   1      32.699  27.333  25.389  1.00  0.00     0.315 C 
ATOM      8  O   UNL A   1      33.212  26.834  26.388  1.00  0.00    -0.252 OA
BRANCH   7   9
ATOM      9  C   UNL A   1      32.479  26.507  24.128  1.00  0.00     0.162 C 
ATOM     10  C   UNL A   1      33.960  24.895  22.845  1.00  0.00     0.076 C 
ATOM     11  C   UNL A   1      32.963  25.052  24.008  1.00  0.00     0.195 C 
ATOM     12  N   UNL A   1      31.800  24.234  23.662  1.00  0.00    -0.328 N 
ATOM     13  C   UNL A   1      30.987  26.460  23.833  1.00  0.00     0.083 C 
ATOM     14  C   UNL A   1      30.742  25.109  23.191  1.00  0.00     0.263 C 
ATOM     15  H   UNL A   1      32.046  23.625  22.882  1.00  0.00     0.348 HD
BRANCH  12  16
ATOM     16  C   UNL A   1      31.447  23.170  24.597  1.00  0.00     0.302 C 
BRANCH  16  17
ATOM     17  C   UNL A   1      32.325  21.963  24.559  1.00  0.00     0.045 A 
ATOM     18  C   UNL A   1      33.723  21.913  24.712  1.00  0.00     0.145 A 
ATOM     19  C   UNL A   1      31.963  20.627  24.479  1.00  0.00     0.124 A 
ATOM     20  N   UNL A   1      34.199  20.671  24.776  1.00  0.00    -0.176 NA
ATOM     21  N   UNL A   1      33.113  19.875  24.615  1.00  0.00    -0.240 N 
BRANCH  21  22
ATOM     22  C   UNL A   1      33.259  18.461  24.589  1.00  0.00     0.065 A 
ATOM     23  C   UNL A   1      32.726  17.699  25.641  1.00  0.00     0.028 A 
ATOM     24  C   UNL A   1      33.953  17.818  23.557  1.00  0.00     0.028 A 
ATOM     25  C   UNL A   1      32.891  16.312  25.665  1.00  0.00     0.002 A 
ATOM     26  C   UNL A   1      34.156  16.434  23.613  1.00  0.00     0.002 A 
ATOM     27  C   UNL A   1      33.620  15.683  24.660  1.00  0.00     0.000 A 
ENDBRANCH  21  22
ENDBRANCH  16  17
ENDBRANCH  12  16
ENDBRANCH   7   9
ENDBRANCH   6   7
ENDBRANCH   5   6
ENDBRANCH   4   5
ENDBRANCH   3   4
ENDBRANCH   2   3
ENDBRANCH   1   2
BRANCH   1  28
ATOM     28  O   UNL A   1      35.408  33.128  29.266  1.00  0.00    -0.377 OA
BRANCH  28  29
ATOM     29  C   UNL A   1      34.652  34.268  29.582  1.00  0.00     0.188 C 
BRANCH  29  30
ATOM     30  C   UNL A   1      34.525  34.492  31.087  1.00  0.00     0.188 C 
BRANCH  30  31
ATOM     31  O   UNL A   1      35.304  35.462  31.778  1.00  0.00    -0.376 OA
BRANCH  31  32
ATOM     32  C   UNL A   1      35.764  35.258  33.104  1.00  0.00     0.202 C 
BRANCH  32  33
ATOM     33  C   UNL A   1      35.603  33.874  33.766  1.00  0.00     0.261 C 
BRANCH  33  34
ATOM     34  O   UNL A   1      36.435  32.808  33.286  1.00  0.00    -0.460 OA
BRANCH  34  35
ATOM     35  C   UNL A   1      35.805  31.847  32.579  1.00  0.00     0.338 C 
ATOM     36  O   UNL A   1      34.602  31.740  32.381  1.00  0.00    -0.246 OA
BRANCH  35  37
ATOM     37  C   UNL A   1      36.802  30.970  31.930  1.00  0.00     0.060 A 
ATOM     38  C   UNL A   1      38.055  30.828  32.542  1.00  0.00     0.016 A 
ATOM     39  C   UNL A   1      36.542  30.347  30.707  1.00  0.00     0.016 A 
ATOM     40  C   UNL A   1      39.069  30.115  31.908  1.00  0.00     0.010 A 
ATOM     41  C   UNL A   1      37.571  29.657  30.054  1.00  0.00     0.010 A 
ATOM     42  C   UNL A   1      38.853  29.588  30.629  1.00  0.00    -0.014 A 
BRANCH  42  43
ATOM     43  C   UNL A   1      40.040  29.222  29.817  1.00  0.00     0.031 A 
ATOM     44  C   UNL A   1      41.128  30.247  29.649  1.00  0.00     0.074 A 
ATOM     45  C   UNL A   1      40.204  27.982  29.325  1.00  0.00     0.049 A 
ATOM     46  N   UNL A   1      42.280  30.147  29.037  1.00  0.00    -0.248 NA
ATOM     47  C   UNL A   1      40.879  31.568  30.250  1.00  0.00     0.031 C 
ATOM     48  C   UNL A   1      39.236  26.900  29.448  1.00  0.00     0.029 A 
ATOM     49  N   UNL A   1      41.248  27.425  28.632  1.00  0.00    -0.354 N 
ATOM     50  C   UNL A   1      42.887  31.389  29.173  1.00  0.00     0.074 A 
ATOM     51  C   UNL A   1      41.962  32.238  29.892  1.00  0.00     0.031 C 
ATOM     52  C   UNL A   1      39.736  25.798  28.867  1.00  0.00     0.029 A 
ATOM     53  C   UNL A   1      41.045  26.109  28.296  1.00  0.00     0.049 A 
ATOM     54  H   UNL A   1      42.066  27.921  28.397  1.00  0.00     0.167 HD
ATOM     55  C   UNL A   1      44.110  31.783  28.748  1.00  0.00     0.037 A 
ATOM     56  C   UNL A   1      41.821  25.262  27.593  1.00  0.00     0.037 A 
ATOM     57  C   UNL A   1      45.026  30.937  28.029  1.00  0.00     0.049 A 
ATOM     58  C   UNL A   1      43.154  25.744  27.078  1.00  0.00     0.074 A 
ATOM     59  C   UNL A   1      46.291  31.240  27.560  1.00  0.00     0.029 A 
ATOM     60  N   UNL A   1      44.769  29.622  27.671  1.00  0.00    -0.354 N 
ATOM     61  N   UNL A   1      43.730  26.912  27.231  1.00  0.00    -0.248 NA
ATOM     62  C   UNL A   1      43.945  24.785  26.293  1.00  0.00     0.031 C 
ATOM     63  C   UNL A   1      46.775  30.128  26.861  1.00  0.00     0.029 A 
ATOM     64  C   UNL A   1      45.843  29.107  26.960  1.00  0.00     0.049 A 
ATOM     65  H   UNL A   1      43.946  29.127  27.887  1.00  0.00     0.167 HD
ATOM     66  C   UNL A   1      44.962  26.818  26.592  1.00  0.00     0.074 A 
ATOM     67  C   UNL A   1      45.056  25.471  26.069  1.00  0.00     0.031 C 
ATOM     68  C   UNL A   1      45.926  27.761  26.450  1.00  0.00     0.037 A 
BRANCH  55  69
ATOM     69  C   UNL A   1      44.508  33.207  29.017  1.00  0.00     0.064 A 
ATOM     70  C   UNL A   1      45.195  33.577  30.184  1.00  0.00     0.173 A 
ATOM     71  C   UNL A   1      44.212  34.212  28.084  1.00  0.00     0.173 A 
ATOM     72  F   UNL A   1      45.486  32.658  31.118  1.00  0.00    -0.203 F 
ATOM     73  C   UNL A   1      45.542  34.905  30.420  1.00  0.00     0.198 A 
ATOM     74  C   UNL A   1      44.592  35.532  28.307  1.00  0.00     0.198 A 
ATOM     75  F   UNL A   1      43.557  33.913  26.953  1.00  0.00    -0.203 F 
ATOM     76  F   UNL A   1      46.145  35.245  31.568  1.00  0.00    -0.200 F 
ATOM     77  C   UNL A   1      45.248  35.880  29.478  1.00  0.00     0.200 A 
ATOM     78  F   UNL A   1      44.319  36.470  27.390  1.00  0.00    -0.200 F 
ATOM     79  F   UNL A   1      45.589  37.156  29.703  1.00  0.00    -0.200 F 
ENDBRANCH  55  69
BRANCH  56  80
ATOM     80  C   UNL A   1      41.361  23.871  27.325  1.00  0.00     0.064 A 
ATOM     81  C   UNL A   1      40.262  23.617  26.493  1.00  0.00     0.173 A 
ATOM     82  C   UNL A   1      41.990  22.769  27.923  1.00  0.00     0.173 A 
ATOM     83  F   UNL A   1      39.608  24.636  25.915  1.00  0.00    -0.203 F 
ATOM     84  C   UNL A   1      39.795  22.319  26.291  1.00  0.00     0.198 A 
ATOM     85  C   UNL A   1      41.547  21.470  27.691  1.00  0.00     0.198 A 
ATOM     86  F   UNL A   1      43.044  22.955  28.732  1.00  0.00    -0.203 F 
ATOM     87  F   UNL A   1      38.706  22.111  25.537  1.00  0.00    -0.200 F 
ATOM     88  C   UNL A   1      40.441  21.246  26.885  1.00  0.00     0.200 A 
ATOM     89  F   UNL A   1      42.182  20.436  28.258  1.00  0.00    -0.200 F 
ATOM     90  F   UNL A   1      39.993  19.998  26.689  1.00  0.00    -0.200 F 
ENDBRANCH  56  80
BRANCH  68  91
ATOM     91  C   UNL A   1      47.190  27.355  25.743  1.00  0.00     0.064 A 
ATOM     92  C   UNL A   1      48.262  26.753  26.419  1.00  0.00     0.173 A 
ATOM     93  C   UNL A   1      47.322  27.559  24.360  1.00  0.00     0.173 A 
ATOM     94  F   UNL A   1      48.193  26.544  27.743  1.00  0.00    -0.203 F 
ATOM     95  C   UNL A   1      49.432  26.411  25.747  1.00  0.00     0.198 A 
ATOM     96  C   UNL A   1      48.478  27.179  23.684  1.00  0.00     0.198 A 
ATOM     97  F   UNL A   1      46.325  28.119  23.659  1.00  0.00    -0.203 F 
ATOM     98  F   UNL A   1      50.469  25.902  26.428  1.00  0.00    -0.200 F 
ATOM     99  C   UNL A   1      49.538  26.619  24.381  1.00  0.00     0.200 A 
ATOM    100  F   UNL A   1      48.570  27.362  22.360  1.00  0.00    -0.200 F 
ATOM    101  F   UNL A   1      50.665  26.289  23.735  1.00  0.00    -0.200 F 
ENDBRANCH  68  91
ENDBRANCH  42  43
ENDBRANCH  35  37
ENDBRANCH  34  35
ENDBRANCH  33  34
ENDBRANCH  32  33
ENDBRANCH  31  32
ENDBRANCH  30  31
ENDBRANCH  29  30
ENDBRANCH  28  29
ENDBRANCH   1  28
TORSDOF 23
ENDMDL
