MODEL 1
REMARK VINA RESULT:     -13.3      0.000      0.000
REMARK SMILES Cc1ccccc1[C@@H]1[NH2+][C@H](C(=O)OCCOCCOCCOCCOC(=O)c2ccc(-c3c4nc(c(-c5c(F)c(F)c(F)c(F)c5F)c5ccc([nH]5)c(-c5c(F)c(F)c(F)c(F)c5F)c5nc(c(-c6c(F)c(F)c(F)c(F)c6F)c6ccc3[nH]6)C=C5)C=C4)cc2)CC2=c3ccccc3=N[C@@H]21
REMARK SMILES IDX 20 1 19 2 18 3 17 4 16 5 15 6 14 7 13 8 11 9 12 10 10 11
REMARK SMILES IDX 8 12 9 13 100 14 92 17 99 18 91 19 93 20 98 21 94 22 97 23
REMARK SMILES IDX 95 24 96 25 7 26 1 27 2 28 3 29 4 30 6 31 5 32 21 33 22 34
REMARK SMILES IDX 23 35 24 36 25 37 26 38 27 39 28 40 29 41 90 42 30 43 89 44
REMARK SMILES IDX 31 45 32 46 33 47 83 48 34 49 88 50 82 51 84 52 35 53 87 54
REMARK SMILES IDX 81 55 80 56 36 58 68 59 48 60 67 61 49 62 52 63 66 64 85 65
REMARK SMILES IDX 50 66 51 67 65 69 86 70 53 71 37 72 38 73 46 74 39 75 40 76
REMARK SMILES IDX 44 77 47 78 41 79 42 80 45 81 43 82 69 83 70 84 78 85 71 86
REMARK SMILES IDX 72 87 76 88 79 89 73 90 74 91 77 92 75 93 54 94 55 95 63 96
REMARK SMILES IDX 56 97 57 98 61 99 64 100 58 101 59 102 62 103 60 104
REMARK H PARENT 9 15 9 16 84 57 52 68
REMARK Flexibility Score: inf
ROOT
ATOM      1  C   UNL A   1      45.359  27.010  25.142  1.00  0.00     0.188 C 
ENDROOT
BRANCH   1   2
ATOM      2  O   UNL A   1      44.646  27.640  26.268  1.00  0.00    -0.377 OA
BRANCH   2   3
ATOM      3  C   UNL A   1      44.273  29.109  26.536  1.00  0.00     0.188 C 
BRANCH   3   4
ATOM      4  C   UNL A   1      43.794  30.116  28.060  1.00  0.00     0.188 C 
BRANCH   4   5
ATOM      5  O   UNL A   1      42.425  29.922  29.380  1.00  0.00    -0.376 OA
BRANCH   5   6
ATOM      6  C   UNL A   1      40.713  28.963  29.423  1.00  0.00     0.202 C 
BRANCH   6   7
ATOM      7  C   UNL A   1      39.804  28.960  27.724  1.00  0.00     0.261 C 
BRANCH   7   8
ATOM      8  O   UNL A   1      40.359  27.717  26.420  1.00  0.00    -0.459 OA
BRANCH   8   9
ATOM      9  C   UNL A   1      41.125  26.372  26.087  1.00  0.00     0.365 C 
ATOM     10  O   UNL A   1      41.852  26.397  25.078  1.00  0.00    -0.245 OA
BRANCH   9  11
ATOM     11  C   UNL A   1      41.105  24.724  27.003  1.00  0.00     0.298 C 
ATOM     12  C   UNL A   1      39.616  22.293  26.332  1.00  0.00     0.243 C 
ATOM     13  N   UNL A   1      40.447  23.569  26.333  1.00  0.00    -0.326 N 
ATOM     14  C   UNL A   1      41.070  21.481  26.949  1.00  0.00     0.196 C 
ATOM     15  H   UNL A   1      39.888  24.098  25.664  1.00  0.00     0.347 HD
ATOM     16  H   UNL A   1      41.256  23.002  26.590  1.00  0.00     0.347 HD
ATOM     17  C   UNL A   1      42.366  22.475  27.330  1.00  0.00    -0.024 C 
ATOM     18  N   UNL A   1      41.757  20.539  26.051  1.00  0.00    -0.270 NA
ATOM     19  C   UNL A   1      42.229  23.973  27.758  1.00  0.00     0.111 C 
ATOM     20  C   UNL A   1      43.495  22.008  26.791  1.00  0.00     0.002 A 
ATOM     21  C   UNL A   1      43.026  20.849  26.022  1.00  0.00     0.066 A 
ATOM     22  C   UNL A   1      44.798  22.587  26.578  1.00  0.00     0.010 A 
ATOM     23  C   UNL A   1      44.077  20.236  25.142  1.00  0.00     0.028 A 
ATOM     24  C   UNL A   1      45.617  22.058  25.653  1.00  0.00     0.001 A 
ATOM     25  C   UNL A   1      45.247  20.860  24.936  1.00  0.00     0.002 A 
BRANCH  12  26
ATOM     26  C   UNL A   1      37.864  22.224  25.379  1.00  0.00     0.015 A 
ATOM     27  C   UNL A   1      37.485  19.365  24.824  1.00  0.00     0.045 C 
ATOM     28  C   UNL A   1      36.747  20.706  25.001  1.00  0.00    -0.042 A 
ATOM     29  C   UNL A   1      34.701  20.848  25.166  1.00  0.00     0.004 A 
ATOM     30  C   UNL A   1      33.977  22.322  25.903  1.00  0.00     0.000 A 
ATOM     31  C   UNL A   1      36.838  23.643  25.986  1.00  0.00     0.010 A 
ATOM     32  C   UNL A   1      35.039  23.658  26.296  1.00  0.00     0.001 A 
ENDBRANCH  12  26
ENDBRANCH   9  11
ENDBRANCH   8   9
ENDBRANCH   7   8
ENDBRANCH   6   7
ENDBRANCH   5   6
ENDBRANCH   4   5
ENDBRANCH   3   4
ENDBRANCH   2   3
ENDBRANCH   1   2
BRANCH   1  33
ATOM     33  C   UNL A   1      46.416  27.821  24.397  1.00  0.00     0.188 C 
BRANCH  33  34
ATOM     34  O   UNL A   1      47.404  27.035  23.840  1.00  0.00    -0.376 OA
BRANCH  34  35
ATOM     35  C   UNL A   1      48.300  26.333  24.673  1.00  0.00     0.202 C 
BRANCH  35  36
ATOM     36  C   UNL A   1      49.125  27.524  25.088  1.00  0.00     0.261 C 
BRANCH  36  37
ATOM     37  O   UNL A   1      49.358  27.318  26.564  1.00  0.00    -0.460 OA
BRANCH  37  38
ATOM     38  C   UNL A   1      48.385  27.684  27.467  1.00  0.00     0.338 C 
ATOM     39  O   UNL A   1      47.941  28.828  27.529  1.00  0.00    -0.246 OA
BRANCH  38  40
ATOM     40  C   UNL A   1      48.027  26.655  28.585  1.00  0.00     0.060 A 
ATOM     41  C   UNL A   1      46.795  25.664  27.971  1.00  0.00     0.016 A 
ATOM     42  C   UNL A   1      48.326  26.789  30.334  1.00  0.00     0.016 A 
ATOM     43  C   UNL A   1      45.646  24.871  29.097  1.00  0.00     0.010 A 
ATOM     44  C   UNL A   1      47.249  26.062  31.601  1.00  0.00     0.010 A 
ATOM     45  C   UNL A   1      45.754  25.071  31.137  1.00  0.00    -0.014 A 
BRANCH  45  46
ATOM     46  C   UNL A   1      44.660  25.184  32.813  1.00  0.00     0.031 A 
ATOM     47  C   UNL A   1      43.895  26.581  32.712  1.00  0.00     0.074 A 
ATOM     48  C   UNL A   1      44.855  24.058  34.237  1.00  0.00     0.049 A 
ATOM     49  N   UNL A   1      43.029  26.889  33.601  1.00  0.00    -0.248 NA
ATOM     50  C   UNL A   1      44.132  27.762  31.862  1.00  0.00     0.031 C 
ATOM     51  C   UNL A   1      44.466  23.617  35.869  1.00  0.00     0.029 A 
ATOM     52  N   UNL A   1      46.059  23.035  34.490  1.00  0.00    -0.354 N 
ATOM     53  C   UNL A   1      42.751  28.193  33.648  1.00  0.00     0.074 A 
ATOM     54  C   UNL A   1      43.308  28.681  32.412  1.00  0.00     0.031 C 
ATOM     55  C   UNL A   1      45.294  22.740  36.477  1.00  0.00     0.029 A 
ATOM     56  C   UNL A   1      46.457  22.494  35.669  1.00  0.00     0.049 A 
ATOM     57  H   UNL A   1      46.574  22.767  33.696  1.00  0.00     0.167 HD
ATOM     58  C   UNL A   1      41.925  28.482  34.684  1.00  0.00     0.037 A 
ATOM     59  C   UNL A   1      47.775  22.518  36.028  1.00  0.00     0.037 A 
ATOM     60  C   UNL A   1      42.242  27.632  35.933  1.00  0.00     0.049 A 
ATOM     61  C   UNL A   1      47.627  23.811  36.997  1.00  0.00     0.074 A 
ATOM     62  C   UNL A   1      41.574  26.643  36.646  1.00  0.00     0.029 A 
ATOM     63  N   UNL A   1      43.568  27.572  36.475  1.00  0.00    -0.354 N 
ATOM     64  N   UNL A   1      46.811  24.851  36.785  1.00  0.00    -0.248 NA
ATOM     65  C   UNL A   1      47.922  23.713  38.420  1.00  0.00     0.031 C 
ATOM     66  C   UNL A   1      42.518  25.950  37.521  1.00  0.00     0.029 A 
ATOM     67  C   UNL A   1      43.820  26.469  37.372  1.00  0.00     0.049 A 
ATOM     68  H   UNL A   1      44.258  28.237  36.251  1.00  0.00     0.167 HD
ATOM     69  C   UNL A   1      46.249  25.373  37.983  1.00  0.00     0.074 A 
ATOM     70  C   UNL A   1      47.071  24.616  38.961  1.00  0.00     0.031 C 
ATOM     71  C   UNL A   1      45.153  26.286  38.200  1.00  0.00     0.037 A 
BRANCH  58  72
ATOM     72  C   UNL A   1      40.638  29.225  34.350  1.00  0.00     0.064 A 
ATOM     73  C   UNL A   1      40.184  30.268  35.173  1.00  0.00     0.173 A 
ATOM     74  C   UNL A   1      39.740  28.880  33.298  1.00  0.00     0.173 A 
ATOM     75  F   UNL A   1      40.885  30.648  36.249  1.00  0.00    -0.203 F 
ATOM     76  C   UNL A   1      38.982  30.947  34.927  1.00  0.00     0.198 A 
ATOM     77  C   UNL A   1      38.568  29.590  33.026  1.00  0.00     0.198 A 
ATOM     78  F   UNL A   1      39.916  27.811  32.514  1.00  0.00    -0.203 F 
ATOM     79  F   UNL A   1      38.590  31.924  35.758  1.00  0.00    -0.200 F 
ATOM     80  C   UNL A   1      38.190  30.632  33.837  1.00  0.00     0.200 A 
ATOM     81  F   UNL A   1      37.808  29.243  31.975  1.00  0.00    -0.200 F 
ATOM     82  F   UNL A   1      37.068  31.316  33.580  1.00  0.00    -0.200 F 
ENDBRANCH  58  72
BRANCH  59  83
ATOM     83  C   UNL A   1      48.845  21.987  34.913  1.00  0.00     0.064 A 
ATOM     84  C   UNL A   1      49.650  22.906  34.146  1.00  0.00     0.173 A 
ATOM     85  C   UNL A   1      49.358  20.695  34.742  1.00  0.00     0.173 A 
ATOM     86  F   UNL A   1      49.028  23.814  33.390  1.00  0.00    -0.203 F 
ATOM     87  C   UNL A   1      51.007  22.729  33.756  1.00  0.00     0.198 A 
ATOM     88  C   UNL A   1      50.674  20.442  34.174  1.00  0.00     0.198 A 
ATOM     89  F   UNL A   1      48.686  19.649  35.228  1.00  0.00    -0.203 F 
ATOM     90  F   UNL A   1      51.765  23.766  33.350  1.00  0.00    -0.200 F 
ATOM     91  C   UNL A   1      51.537  21.473  33.799  1.00  0.00     0.200 A 
ATOM     92  F   UNL A   1      51.171  19.197  34.189  1.00  0.00    -0.200 F 
ATOM     93  F   UNL A   1      52.845  21.269  33.565  1.00  0.00    -0.200 F 
ENDBRANCH  59  83
BRANCH  71  94
ATOM     94  C   UNL A   1      45.255  27.378  39.294  1.00  0.00     0.064 A 
ATOM     95  C   UNL A   1      44.897  27.203  40.636  1.00  0.00     0.173 A 
ATOM     96  C   UNL A   1      45.960  28.598  39.046  1.00  0.00     0.173 A 
ATOM     97  F   UNL A   1      44.292  26.102  41.084  1.00  0.00    -0.203 F 
ATOM     98  C   UNL A   1      45.208  28.143  41.622  1.00  0.00     0.198 A 
ATOM     99  C   UNL A   1      46.371  29.468  40.046  1.00  0.00     0.198 A 
ATOM    100  F   UNL A   1      46.318  29.016  37.828  1.00  0.00    -0.203 F 
ATOM    101  F   UNL A   1      44.787  27.929  42.875  1.00  0.00    -0.200 F 
ATOM    102  C   UNL A   1      45.976  29.250  41.338  1.00  0.00     0.200 A 
ATOM    103  F   UNL A   1      47.169  30.499  39.738  1.00  0.00    -0.200 F 
ATOM    104  F   UNL A   1      46.337  30.100  42.304  1.00  0.00    -0.200 F 
ENDBRANCH  71  94
ENDBRANCH  45  46
ENDBRANCH  38  40
ENDBRANCH  37  38
ENDBRANCH  36  37
ENDBRANCH  35  36
ENDBRANCH  34  35
ENDBRANCH  33  34
ENDBRANCH   1  33
TORSDOF 21
ENDMDL
MODEL 2
REMARK VINA RESULT:     -13.2      5.961     11.553
REMARK SMILES Cc1ccccc1[C@@H]1[NH2+][C@H](C(=O)OCCOCCOCCOCCOC(=O)c2ccc(-c3c4nc(c(-c5c(F)c(F)c(F)c(F)c5F)c5ccc([nH]5)c(-c5c(F)c(F)c(F)c(F)c5F)c5nc(c(-c6c(F)c(F)c(F)c(F)c6F)c6ccc3[nH]6)C=C5)C=C4)cc2)CC2=c3ccccc3=N[C@@H]21
REMARK SMILES IDX 20 1 19 2 18 3 17 4 16 5 15 6 14 7 13 8 11 9 12 10 10 11
REMARK SMILES IDX 8 12 9 13 100 14 92 17 99 18 91 19 93 20 98 21 94 22 97 23
REMARK SMILES IDX 95 24 96 25 7 26 1 27 2 28 3 29 4 30 6 31 5 32 21 33 22 34
REMARK SMILES IDX 23 35 24 36 25 37 26 38 27 39 28 40 29 41 90 42 30 43 89 44
REMARK SMILES IDX 31 45 32 46 33 47 83 48 34 49 88 50 82 51 84 52 35 53 87 54
REMARK SMILES IDX 81 55 80 56 36 58 68 59 48 60 67 61 49 62 52 63 66 64 85 65
REMARK SMILES IDX 50 66 51 67 65 69 86 70 53 71 37 72 38 73 46 74 39 75 40 76
REMARK SMILES IDX 44 77 47 78 41 79 42 80 45 81 43 82 69 83 70 84 78 85 71 86
REMARK SMILES IDX 72 87 76 88 79 89 73 90 74 91 77 92 75 93 54 94 55 95 63 96
REMARK SMILES IDX 56 97 57 98 61 99 64 100 58 101 59 102 62 103 60 104
REMARK H PARENT 9 15 9 16 84 57 52 68
REMARK Flexibility Score: inf
ROOT
ATOM      1  C   UNL A   1      34.126  29.710  26.854  1.00  0.00     0.188 C 
ENDROOT
BRANCH   1   2
ATOM      2  O   UNL A   1      33.894  28.395  26.232  1.00  0.00    -0.377 OA
BRANCH   2   3
ATOM      3  C   UNL A   1      33.007  27.978  25.046  1.00  0.00     0.188 C 
BRANCH   3   4
ATOM      4  C   UNL A   1      33.318  27.347  23.293  1.00  0.00     0.188 C 
BRANCH   4   5
ATOM      5  O   UNL A   1      34.075  25.736  22.596  1.00  0.00    -0.376 OA
BRANCH   5   6
ATOM      6  C   UNL A   1      34.575  24.018  23.401  1.00  0.00     0.202 C 
BRANCH   6   7
ATOM      7  C   UNL A   1      35.250  24.192  25.199  1.00  0.00     0.261 C 
BRANCH   7   8
ATOM      8  O   UNL A   1      37.101  23.973  25.479  1.00  0.00    -0.459 OA
BRANCH   8   9
ATOM      9  C   UNL A   1      38.277  23.071  26.038  1.00  0.00     0.365 C 
ATOM     10  O   UNL A   1      38.227  21.866  25.733  1.00  0.00    -0.245 OA
BRANCH   9  11
ATOM     11  C   UNL A   1      39.758  23.555  27.098  1.00  0.00     0.298 C 
ATOM     12  C   UNL A   1      42.606  23.294  26.466  1.00  0.00     0.243 C 
ATOM     13  N   UNL A   1      41.103  23.535  26.459  1.00  0.00    -0.326 N 
ATOM     14  C   UNL A   1      42.732  24.826  27.356  1.00  0.00     0.196 C 
ATOM     15  H   UNL A   1      40.871  22.932  25.670  1.00  0.00     0.347 HD
ATOM     16  H   UNL A   1      41.280  24.447  26.881  1.00  0.00     0.347 HD
ATOM     17  C   UNL A   1      41.284  25.534  27.816  1.00  0.00    -0.024 C 
ATOM     18  N   UNL A   1      43.339  25.970  26.660  1.00  0.00    -0.270 NA
ATOM     19  C   UNL A   1      39.959  24.743  28.073  1.00  0.00     0.111 C 
ATOM     20  C   UNL A   1      41.265  26.829  27.489  1.00  0.00     0.002 A 
ATOM     21  C   UNL A   1      42.539  26.996  26.778  1.00  0.00     0.066 A 
ATOM     22  C   UNL A   1      40.211  27.809  27.404  1.00  0.00     0.010 A 
ATOM     23  C   UNL A   1      42.696  28.335  26.118  1.00  0.00     0.028 A 
ATOM     24  C   UNL A   1      40.388  28.913  26.659  1.00  0.00     0.001 A 
ATOM     25  C   UNL A   1      41.655  29.177  26.017  1.00  0.00     0.002 A 
BRANCH  12  26
ATOM     26  C   UNL A   1      43.416  21.901  25.289  1.00  0.00     0.015 A 
ATOM     27  C   UNL A   1      45.988  23.073  24.492  1.00  0.00     0.045 C 
ATOM     28  C   UNL A   1      45.227  21.745  24.663  1.00  0.00    -0.042 A 
ATOM     29  C   UNL A   1      46.143  19.905  24.567  1.00  0.00     0.004 A 
ATOM     30  C   UNL A   1      45.331  18.477  25.303  1.00  0.00     0.000 A 
ATOM     31  C   UNL A   1      42.785  20.252  25.853  1.00  0.00     0.010 A 
ATOM     32  C   UNL A   1      43.706  18.677  25.925  1.00  0.00     0.001 A 
ENDBRANCH  12  26
ENDBRANCH   9  11
ENDBRANCH   8   9
ENDBRANCH   7   8
ENDBRANCH   6   7
ENDBRANCH   5   6
ENDBRANCH   4   5
ENDBRANCH   3   4
ENDBRANCH   2   3
ENDBRANCH   1   2
BRANCH   1  33
ATOM     33  C   UNL A   1      35.502  30.010  27.447  1.00  0.00     0.188 C 
BRANCH  33  34
ATOM     34  O   UNL A   1      35.538  31.196  28.151  1.00  0.00    -0.376 OA
BRANCH  34  35
ATOM     35  C   UNL A   1      35.659  31.178  29.557  1.00  0.00     0.202 C 
BRANCH  35  36
ATOM     36  C   UNL A   1      35.502  32.663  29.764  1.00  0.00     0.261 C 
BRANCH  36  37
ATOM     37  O   UNL A   1      36.916  33.170  29.904  1.00  0.00    -0.460 OA
BRANCH  37  38
ATOM     38  C   UNL A   1      37.258  33.949  30.987  1.00  0.00     0.338 C 
ATOM     39  O   UNL A   1      36.426  34.350  31.798  1.00  0.00    -0.246 OA
BRANCH  38  40
ATOM     40  C   UNL A   1      38.711  34.517  31.026  1.00  0.00     0.060 A 
ATOM     41  C   UNL A   1      39.105  34.982  29.443  1.00  0.00     0.016 A 
ATOM     42  C   UNL A   1      39.970  34.223  32.249  1.00  0.00     0.016 A 
ATOM     43  C   UNL A   1      40.822  35.005  28.924  1.00  0.00     0.010 A 
ATOM     44  C   UNL A   1      41.747  34.193  31.881  1.00  0.00     0.010 A 
ATOM     45  C   UNL A   1      42.379  34.519  30.171  1.00  0.00    -0.014 A 
BRANCH  45  46
ATOM     46  C   UNL A   1      44.191  33.665  30.240  1.00  0.00     0.031 A 
ATOM     47  C   UNL A   1      45.074  34.488  29.195  1.00  0.00     0.074 A 
ATOM     48  C   UNL A   1      44.540  32.078  31.072  1.00  0.00     0.049 A 
ATOM     49  N   UNL A   1      46.323  34.237  29.094  1.00  0.00    -0.248 NA
ATOM     50  C   UNL A   1      44.692  35.404  28.105  1.00  0.00     0.031 C 
ATOM     51  C   UNL A   1      45.630  30.777  31.432  1.00  0.00     0.029 A 
ATOM     52  N   UNL A   1      43.464  31.019  31.603  1.00  0.00    -0.354 N 
ATOM     53  C   UNL A   1      46.867  34.679  27.959  1.00  0.00     0.074 A 
ATOM     54  C   UNL A   1      45.863  35.580  27.456  1.00  0.00     0.031 C 
ATOM     55  C   UNL A   1      45.083  29.639  31.911  1.00  0.00     0.029 A 
ATOM     56  C   UNL A   1      43.647  29.697  31.847  1.00  0.00     0.049 A 
ATOM     57  H   UNL A   1      42.559  31.368  31.773  1.00  0.00     0.167 HD
ATOM     58  C   UNL A   1      48.159  34.280  27.846  1.00  0.00     0.037 A 
ATOM     59  C   UNL A   1      42.770  28.776  31.348  1.00  0.00     0.037 A 
ATOM     60  C   UNL A   1      48.378  32.855  28.398  1.00  0.00     0.049 A 
ATOM     61  C   UNL A   1      43.698  28.381  30.077  1.00  0.00     0.074 A 
ATOM     62  C   UNL A   1      49.080  32.311  29.466  1.00  0.00     0.029 A 
ATOM     63  N   UNL A   1      47.572  31.755  27.955  1.00  0.00    -0.354 N 
ATOM     64  N   UNL A   1      44.483  29.225  29.397  1.00  0.00    -0.248 NA
ATOM     65  C   UNL A   1      44.197  27.021  29.913  1.00  0.00     0.031 C 
ATOM     66  C   UNL A   1      48.623  30.943  29.706  1.00  0.00     0.029 A 
ATOM     67  C   UNL A   1      47.598  30.588  28.805  1.00  0.00     0.049 A 
ATOM     68  H   UNL A   1      47.039  31.793  27.129  1.00  0.00     0.167 HD
ATOM     69  C   UNL A   1      45.699  28.628  28.959  1.00  0.00     0.074 A 
ATOM     70  C   UNL A   1      45.382  27.215  29.288  1.00  0.00     0.031 C 
ATOM     71  C   UNL A   1      46.913  29.211  28.443  1.00  0.00     0.037 A 
BRANCH  58  72
ATOM     72  C   UNL A   1      49.197  35.371  27.614  1.00  0.00     0.064 A 
ATOM     73  C   UNL A   1      49.428  35.870  26.322  1.00  0.00     0.173 A 
ATOM     74  C   UNL A   1      50.084  35.886  28.603  1.00  0.00     0.173 A 
ATOM     75  F   UNL A   1      48.724  35.418  25.276  1.00  0.00    -0.203 F 
ATOM     76  C   UNL A   1      50.404  36.842  26.057  1.00  0.00     0.198 A 
ATOM     77  C   UNL A   1      51.022  36.889  28.347  1.00  0.00     0.198 A 
ATOM     78  F   UNL A   1      50.131  35.412  29.854  1.00  0.00    -0.203 F 
ATOM     79  F   UNL A   1      50.592  37.267  24.800  1.00  0.00    -0.200 F 
ATOM     80  C   UNL A   1      51.178  37.374  27.072  1.00  0.00     0.200 A 
ATOM     81  F   UNL A   1      51.776  37.368  29.349  1.00  0.00    -0.200 F 
ATOM     82  F   UNL A   1      52.076  38.336  26.821  1.00  0.00    -0.200 F 
ENDBRANCH  58  72
BRANCH  59  83
ATOM     83  C   UNL A   1      41.184  29.060  31.616  1.00  0.00     0.064 A 
ATOM     84  C   UNL A   1      40.422  29.936  30.760  1.00  0.00     0.173 A 
ATOM     85  C   UNL A   1      40.294  28.343  32.427  1.00  0.00     0.173 A 
ATOM     86  F   UNL A   1      40.820  31.205  30.637  1.00  0.00    -0.203 F 
ATOM     87  C   UNL A   1      39.071  29.759  30.345  1.00  0.00     0.198 A 
ATOM     88  C   UNL A   1      38.866  28.277  32.155  1.00  0.00     0.198 A 
ATOM     89  F   UNL A   1      40.769  27.582  33.414  1.00  0.00    -0.203 F 
ATOM     90  F   UNL A   1      38.564  30.428  29.292  1.00  0.00    -0.200 F 
ATOM     91  C   UNL A   1      38.287  28.889  31.042  1.00  0.00     0.200 A 
ATOM     92  F   UNL A   1      38.096  27.445  32.872  1.00  0.00    -0.200 F 
ATOM     93  F   UNL A   1      37.047  28.589  30.619  1.00  0.00    -0.200 F 
ENDBRANCH  59  83
BRANCH  71  94
ATOM     94  C   UNL A   1      47.660  28.538  27.264  1.00  0.00     0.064 A 
ATOM     95  C   UNL A   1      48.895  27.887  27.365  1.00  0.00     0.173 A 
ATOM     96  C   UNL A   1      47.005  28.330  26.009  1.00  0.00     0.173 A 
ATOM     97  F   UNL A   1      49.630  27.904  28.478  1.00  0.00    -0.203 F 
ATOM     98  C   UNL A   1      49.420  27.114  26.327  1.00  0.00     0.198 A 
ATOM     99  C   UNL A   1      47.475  27.465  25.029  1.00  0.00     0.198 A 
ATOM    100  F   UNL A   1      45.863  28.927  25.656  1.00  0.00    -0.203 F 
ATOM    101  F   UNL A   1      50.631  26.565  26.480  1.00  0.00    -0.200 F 
ATOM    102  C   UNL A   1      48.697  26.870  25.180  1.00  0.00     0.200 A 
ATOM    103  F   UNL A   1      46.713  27.206  23.957  1.00  0.00    -0.200 F 
ATOM    104  F   UNL A   1      49.174  26.062  24.229  1.00  0.00    -0.200 F 
ENDBRANCH  71  94
ENDBRANCH  45  46
ENDBRANCH  38  40
ENDBRANCH  37  38
ENDBRANCH  36  37
ENDBRANCH  35  36
ENDBRANCH  34  35
ENDBRANCH  33  34
ENDBRANCH   1  33
TORSDOF 21
ENDMDL
MODEL 3
REMARK VINA RESULT:     -12.5      7.155     12.250
REMARK SMILES Cc1ccccc1[C@@H]1[NH2+][C@H](C(=O)OCCOCCOCCOCCOC(=O)c2ccc(-c3c4nc(c(-c5c(F)c(F)c(F)c(F)c5F)c5ccc([nH]5)c(-c5c(F)c(F)c(F)c(F)c5F)c5nc(c(-c6c(F)c(F)c(F)c(F)c6F)c6ccc3[nH]6)C=C5)C=C4)cc2)CC2=c3ccccc3=N[C@@H]21
REMARK SMILES IDX 20 1 19 2 18 3 17 4 16 5 15 6 14 7 13 8 11 9 12 10 10 11
REMARK SMILES IDX 8 12 9 13 100 14 92 17 99 18 91 19 93 20 98 21 94 22 97 23
REMARK SMILES IDX 95 24 96 25 7 26 1 27 2 28 3 29 4 30 6 31 5 32 21 33 22 34
REMARK SMILES IDX 23 35 24 36 25 37 26 38 27 39 28 40 29 41 90 42 30 43 89 44
REMARK SMILES IDX 31 45 32 46 33 47 83 48 34 49 88 50 82 51 84 52 35 53 87 54
REMARK SMILES IDX 81 55 80 56 36 58 68 59 48 60 67 61 49 62 52 63 66 64 85 65
REMARK SMILES IDX 50 66 51 67 65 69 86 70 53 71 37 72 38 73 46 74 39 75 40 76
REMARK SMILES IDX 44 77 47 78 41 79 42 80 45 81 43 82 69 83 70 84 78 85 71 86
REMARK SMILES IDX 72 87 76 88 79 89 73 90 74 91 77 92 75 93 54 94 55 95 63 96
REMARK SMILES IDX 56 97 57 98 61 99 64 100 58 101 59 102 62 103 60 104
REMARK H PARENT 9 15 9 16 84 57 52 68
REMARK Flexibility Score: inf
ROOT
ATOM      1  C   UNL A   1      34.360  31.730  28.335  1.00  0.00     0.188 C 
ENDROOT
BRANCH   1   2
ATOM      2  O   UNL A   1      33.409  31.048  27.440  1.00  0.00    -0.377 OA
BRANCH   2   3
ATOM      3  C   UNL A   1      33.367  29.601  26.919  1.00  0.00     0.188 C 
BRANCH   3   4
ATOM      4  C   UNL A   1      33.606  28.771  25.239  1.00  0.00     0.188 C 
BRANCH   4   5
ATOM      5  O   UNL A   1      33.850  26.954  24.699  1.00  0.00    -0.376 OA
BRANCH   5   6
ATOM      6  C   UNL A   1      34.169  25.283  25.678  1.00  0.00     0.202 C 
BRANCH   6   7
ATOM      7  C   UNL A   1      35.531  24.181  24.875  1.00  0.00     0.261 C 
BRANCH   7   8
ATOM      8  O   UNL A   1      36.879  23.478  25.989  1.00  0.00    -0.459 OA
BRANCH   8   9
ATOM      9  C   UNL A   1      38.324  22.841  26.111  1.00  0.00     0.365 C 
ATOM     10  O   UNL A   1      38.537  21.842  25.401  1.00  0.00    -0.245 OA
BRANCH   9  11
ATOM     11  C   UNL A   1      39.784  23.379  27.175  1.00  0.00     0.298 C 
ATOM     12  C   UNL A   1      42.638  23.282  26.525  1.00  0.00     0.243 C 
ATOM     13  N   UNL A   1      41.124  23.444  26.530  1.00  0.00    -0.326 N 
ATOM     14  C   UNL A   1      42.688  24.798  27.448  1.00  0.00     0.196 C 
ATOM     15  H   UNL A   1      40.919  22.846  25.729  1.00  0.00     0.347 HD
ATOM     16  H   UNL A   1      41.255  24.355  26.971  1.00  0.00     0.347 HD
ATOM     17  C   UNL A   1      41.207  25.420  27.929  1.00  0.00    -0.024 C 
ATOM     18  N   UNL A   1      43.230  25.988  26.774  1.00  0.00    -0.270 NA
ATOM     19  C   UNL A   1      39.928  24.554  28.175  1.00  0.00     0.111 C 
ATOM     20  C   UNL A   1      41.119  26.718  27.631  1.00  0.00     0.002 A 
ATOM     21  C   UNL A   1      42.378  26.968  26.918  1.00  0.00     0.066 A 
ATOM     22  C   UNL A   1      40.015  27.643  27.573  1.00  0.00     0.010 A 
ATOM     23  C   UNL A   1      42.461  28.327  26.287  1.00  0.00     0.028 A 
ATOM     24  C   UNL A   1      40.129  28.771  26.851  1.00  0.00     0.001 A 
ATOM     25  C   UNL A   1      41.377  29.115  26.209  1.00  0.00     0.002 A 
BRANCH  12  26
ATOM     26  C   UNL A   1      43.513  21.959  25.313  1.00  0.00     0.015 A 
ATOM     27  C   UNL A   1      46.081  23.218  24.647  1.00  0.00     0.045 C 
ATOM     28  C   UNL A   1      45.344  21.868  24.737  1.00  0.00    -0.042 A 
ATOM     29  C   UNL A   1      46.303  20.053  24.589  1.00  0.00     0.004 A 
ATOM     30  C   UNL A   1      45.501  18.578  25.237  1.00  0.00     0.000 A 
ATOM     31  C   UNL A   1      42.901  20.274  25.785  1.00  0.00     0.010 A 
ATOM     32  C   UNL A   1      43.854  18.717  25.816  1.00  0.00     0.001 A 
ENDBRANCH  12  26
ENDBRANCH   9  11
ENDBRANCH   8   9
ENDBRANCH   7   8
ENDBRANCH   6   7
ENDBRANCH   5   6
ENDBRANCH   4   5
ENDBRANCH   3   4
ENDBRANCH   2   3
ENDBRANCH   1   2
BRANCH   1  33
ATOM     33  C   UNL A   1      34.386  33.256  28.354  1.00  0.00     0.188 C 
BRANCH  33  34
ATOM     34  O   UNL A   1      33.771  33.791  29.468  1.00  0.00    -0.376 OA
BRANCH  34  35
ATOM     35  C   UNL A   1      34.252  34.992  30.032  1.00  0.00     0.202 C 
BRANCH  35  36
ATOM     36  C   UNL A   1      33.040  35.286  30.877  1.00  0.00     0.261 C 
BRANCH  36  37
ATOM     37  O   UNL A   1      33.394  34.739  32.238  1.00  0.00    -0.460 OA
BRANCH  37  38
ATOM     38  C   UNL A   1      34.363  35.361  32.993  1.00  0.00     0.338 C 
ATOM     39  O   UNL A   1      34.342  36.568  33.227  1.00  0.00    -0.246 OA
BRANCH  38  40
ATOM     40  C   UNL A   1      35.634  34.529  33.348  1.00  0.00     0.060 A 
ATOM     41  C   UNL A   1      35.458  34.012  34.954  1.00  0.00     0.016 A 
ATOM     42  C   UNL A   1      37.228  34.569  32.555  1.00  0.00     0.016 A 
ATOM     43  C   UNL A   1      36.913  33.671  35.945  1.00  0.00     0.010 A 
ATOM     44  C   UNL A   1      38.793  34.266  33.421  1.00  0.00     0.010 A 
ATOM     45  C   UNL A   1      38.828  33.843  35.224  1.00  0.00    -0.014 A 
BRANCH  45  46
ATOM     46  C   UNL A   1      40.706  34.339  35.719  1.00  0.00     0.031 A 
ATOM     47  C   UNL A   1      40.558  35.283  36.998  1.00  0.00     0.074 A 
ATOM     48  C   UNL A   1      42.158  34.028  34.657  1.00  0.00     0.049 A 
ATOM     49  N   UNL A   1      41.607  35.680  37.610  1.00  0.00    -0.248 NA
ATOM     50  C   UNL A   1      39.396  36.007  37.545  1.00  0.00     0.031 C 
ATOM     51  C   UNL A   1      43.849  34.228  34.326  1.00  0.00     0.029 A 
ATOM     52  N   UNL A   1      42.142  33.595  33.117  1.00  0.00    -0.354 N 
ATOM     53  C   UNL A   1      41.403  36.743  38.389  1.00  0.00     0.074 A 
ATOM     54  C   UNL A   1      39.966  36.798  38.480  1.00  0.00     0.031 C 
ATOM     55  C   UNL A   1      44.258  33.965  33.066  1.00  0.00     0.029 A 
ATOM     56  C   UNL A   1      43.132  33.740  32.201  1.00  0.00     0.049 A 
ATOM     57  H   UNL A   1      41.313  33.173  32.794  1.00  0.00     0.167 HD
ATOM     58  C   UNL A   1      42.567  37.197  38.917  1.00  0.00     0.037 A 
ATOM     59  C   UNL A   1      42.865  34.286  30.978  1.00  0.00     0.037 A 
ATOM     60  C   UNL A   1      43.740  37.083  37.919  1.00  0.00     0.049 A 
ATOM     61  C   UNL A   1      43.398  35.767  31.371  1.00  0.00     0.074 A 
ATOM     62  C   UNL A   1      44.915  36.345  37.863  1.00  0.00     0.029 A 
ATOM     63  N   UNL A   1      43.649  37.636  36.599  1.00  0.00    -0.354 N 
ATOM     64  N   UNL A   1      43.277  36.341  32.574  1.00  0.00    -0.248 NA
ATOM     65  C   UNL A   1      44.519  36.368  30.660  1.00  0.00     0.031 C 
ATOM     66  C   UNL A   1      45.453  36.385  36.504  1.00  0.00     0.029 A 
ATOM     67  C   UNL A   1      44.618  37.137  35.652  1.00  0.00     0.049 A 
ATOM     68  H   UNL A   1      42.973  38.309  36.356  1.00  0.00     0.167 HD
ATOM     69  C   UNL A   1      44.401  37.139  32.927  1.00  0.00     0.074 A 
ATOM     70  C   UNL A   1      45.097  37.133  31.616  1.00  0.00     0.031 C 
ATOM     71  C   UNL A   1      44.804  37.706  34.190  1.00  0.00     0.037 A 
BRANCH  58  72
ATOM     72  C   UNL A   1      42.628  37.331  40.433  1.00  0.00     0.064 A 
ATOM     73  C   UNL A   1      43.151  36.292  41.219  1.00  0.00     0.173 A 
ATOM     74  C   UNL A   1      42.078  38.409  41.185  1.00  0.00     0.173 A 
ATOM     75  F   UNL A   1      43.629  35.177  40.652  1.00  0.00    -0.203 F 
ATOM     76  C   UNL A   1      43.184  36.356  42.620  1.00  0.00     0.198 A 
ATOM     77  C   UNL A   1      42.157  38.493  42.577  1.00  0.00     0.198 A 
ATOM     78  F   UNL A   1      41.390  39.410  40.624  1.00  0.00    -0.203 F 
ATOM     79  F   UNL A   1      43.679  35.324  43.318  1.00  0.00    -0.200 F 
ATOM     80  C   UNL A   1      42.718  37.467  43.298  1.00  0.00     0.200 A 
ATOM     81  F   UNL A   1      41.672  39.575  43.208  1.00  0.00    -0.200 F 
ATOM     82  F   UNL A   1      42.796  37.543  44.632  1.00  0.00    -0.200 F 
ENDBRANCH  58  72
BRANCH  59  83
ATOM     83  C   UNL A   1      41.596  33.659  30.161  1.00  0.00     0.064 A 
ATOM     84  C   UNL A   1      41.313  32.244  30.182  1.00  0.00     0.173 A 
ATOM     85  C   UNL A   1      40.489  34.327  29.621  1.00  0.00     0.173 A 
ATOM     86  F   UNL A   1      42.252  31.404  29.741  1.00  0.00    -0.203 F 
ATOM     87  C   UNL A   1      40.028  31.634  30.222  1.00  0.00     0.198 A 
ATOM     88  C   UNL A   1      39.189  33.693  29.466  1.00  0.00     0.198 A 
ATOM     89  F   UNL A   1      40.574  35.632  29.353  1.00  0.00    -0.203 F 
ATOM     90  F   UNL A   1      39.871  30.345  30.582  1.00  0.00    -0.200 F 
ATOM     91  C   UNL A   1      38.941  32.384  29.884  1.00  0.00     0.200 A 
ATOM     92  F   UNL A   1      38.133  34.433  29.098  1.00  0.00    -0.200 F 
ATOM     93  F   UNL A   1      37.696  31.897  30.025  1.00  0.00    -0.200 F 
ENDBRANCH  59  83
BRANCH  71  94
ATOM     94  C   UNL A   1      45.394  39.138  34.248  1.00  0.00     0.064 A 
ATOM     95  C   UNL A   1      46.757  39.440  34.349  1.00  0.00     0.173 A 
ATOM     96  C   UNL A   1      44.577  40.276  33.957  1.00  0.00     0.173 A 
ATOM     97  F   UNL A   1      47.689  38.508  34.550  1.00  0.00    -0.203 F 
ATOM     98  C   UNL A   1      47.250  40.736  34.180  1.00  0.00     0.198 A 
ATOM     99  C   UNL A   1      45.085  41.537  33.672  1.00  0.00     0.198 A 
ATOM    100  F   UNL A   1      43.242  40.242  33.906  1.00  0.00    -0.203 F 
ATOM    101  F   UNL A   1      48.561  40.954  34.343  1.00  0.00    -0.200 F 
ATOM    102  C   UNL A   1      46.426  41.772  33.804  1.00  0.00     0.200 A 
ATOM    103  F   UNL A   1      44.257  42.502  33.248  1.00  0.00    -0.200 F 
ATOM    104  F   UNL A   1      46.922  42.990  33.564  1.00  0.00    -0.200 F 
ENDBRANCH  71  94
ENDBRANCH  45  46
ENDBRANCH  38  40
ENDBRANCH  37  38
ENDBRANCH  36  37
ENDBRANCH  35  36
ENDBRANCH  34  35
ENDBRANCH  33  34
ENDBRANCH   1  33
TORSDOF 21
ENDMDL
