MODEL 1
REMARK VINA RESULT:     -10.0      0.000      0.000
REMARK SMILES CCC[C@H](C)C(=O)N1CC[C@H](C(=O)OCCOCCOCCOCCOC(=O)c2ccc(-c3c4nc(c(-c5c(F)c(F)c(F)c(F)c5F)c5ccc([nH]5)c(-c5c(F)c(F)c(F)c(F)c5F)c5nc(c(-c6c(F)c(F)c(F)c(F)c6F)c6ccc3[nH]6)C=C5)C=C4)cc2)[C@@H]1C
REMARK SMILES IDX 19 1 18 2 17 3 16 4 15 5 14 6 12 7 13 8 11 9 8 10 9 11 92 12
REMARK SMILES IDX 10 13 93 14 6 15 7 16 4 17 5 18 3 19 2 20 1 21 20 22 21 23
REMARK SMILES IDX 22 24 23 25 24 26 25 27 26 28 27 29 28 30 29 31 30 32 91 33
REMARK SMILES IDX 31 34 90 35 32 36 33 37 34 38 84 39 35 40 89 41 83 42 85 43
REMARK SMILES IDX 36 44 88 45 82 46 81 47 37 49 69 50 49 51 68 52 50 53 53 54
REMARK SMILES IDX 67 55 86 56 51 57 52 58 66 60 87 61 54 62 38 63 39 64 47 65
REMARK SMILES IDX 40 66 41 67 45 68 48 69 42 70 43 71 46 72 44 73 70 74 71 75
REMARK SMILES IDX 79 76 72 77 73 78 77 79 80 80 74 81 75 82 78 83 76 84 55 85
REMARK SMILES IDX 56 86 64 87 57 88 58 89 62 90 65 91 59 92 60 93 63 94 61 95
REMARK H PARENT 85 48 53 59
REMARK Flexibility Score: inf
ROOT
ATOM      1  C   UNL A   1      38.712  21.316  25.549  1.00  0.00     0.188 C 
ENDROOT
BRANCH   1   2
ATOM      2  C   UNL A   1      37.634  22.357  25.921  1.00  0.00     0.188 C 
BRANCH   2   3
ATOM      3  O   UNL A   1      36.336  21.819  26.045  1.00  0.00    -0.376 OA
BRANCH   3   4
ATOM      4  C   UNL A   1      35.909  20.786  25.188  1.00  0.00     0.202 C 
BRANCH   4   5
ATOM      5  C   UNL A   1      34.426  20.628  24.816  1.00  0.00     0.261 C 
BRANCH   5   6
ATOM      6  O   UNL A   1      33.502  21.553  25.405  1.00  0.00    -0.463 OA
BRANCH   6   7
ATOM      7  C   UNL A   1      33.415  22.790  24.877  1.00  0.00     0.311 C 
ATOM      8  O   UNL A   1      33.307  23.003  23.674  1.00  0.00    -0.252 OA
BRANCH   7   9
ATOM      9  C   UNL A   1      33.381  23.926  25.900  1.00  0.00     0.123 C 
ATOM     10  N   UNL A   1      32.438  26.139  25.989  1.00  0.00    -0.339 N 
ATOM     11  C   UNL A   1      33.779  26.316  25.479  1.00  0.00     0.121 C 
ATOM     12  C   UNL A   1      32.116  24.738  26.275  1.00  0.00     0.096 C 
ATOM     13  C   UNL A   1      34.464  24.967  25.569  1.00  0.00     0.039 C 
ATOM     14  C   UNL A   1      30.781  24.306  25.662  1.00  0.00     0.032 C 
BRANCH  10  15
ATOM     15  C   UNL A   1      31.717  27.283  26.269  1.00  0.00     0.225 C 
ATOM     16  O   UNL A   1      31.140  27.405  27.355  1.00  0.00    -0.275 OA
BRANCH  15  17
ATOM     17  C   UNL A   1      31.350  28.232  25.123  1.00  0.00     0.075 C 
ATOM     18  C   UNL A   1      31.982  29.616  25.094  1.00  0.00     0.018 C 
BRANCH  17  19
ATOM     19  C   UNL A   1      31.541  27.480  23.784  1.00  0.00     0.013 C 
BRANCH  19  20
ATOM     20  C   UNL A   1      30.421  27.758  22.778  1.00  0.00    -0.003 C 
ATOM     21  C   UNL A   1      29.037  27.726  23.403  1.00  0.00     0.004 C 
ENDBRANCH  19  20
ENDBRANCH  17  19
ENDBRANCH  15  17
ENDBRANCH  10  15
ENDBRANCH   7   9
ENDBRANCH   6   7
ENDBRANCH   5   6
ENDBRANCH   4   5
ENDBRANCH   3   4
ENDBRANCH   2   3
ENDBRANCH   1   2
BRANCH   1  22
ATOM     22  O   UNL A   1      39.944  21.139  26.235  1.00  0.00    -0.377 OA
BRANCH  22  23
ATOM     23  C   UNL A   1      40.579  19.878  26.198  1.00  0.00     0.188 C 
BRANCH  23  24
ATOM     24  C   UNL A   1      42.100  19.922  26.423  1.00  0.00     0.188 C 
BRANCH  24  25
ATOM     25  O   UNL A   1      42.849  19.958  25.221  1.00  0.00    -0.376 OA
BRANCH  25  26
ATOM     26  C   UNL A   1      44.259  20.113  25.267  1.00  0.00     0.202 C 
BRANCH  26  27
ATOM     27  C   UNL A   1      44.982  21.467  25.423  1.00  0.00     0.261 C 
BRANCH  27  28
ATOM     28  O   UNL A   1      44.276  22.560  26.019  1.00  0.00    -0.460 OA
BRANCH  28  29
ATOM     29  C   UNL A   1      43.616  23.412  25.218  1.00  0.00     0.338 C 
ATOM     30  O   UNL A   1      43.413  23.305  24.018  1.00  0.00    -0.246 OA
BRANCH  29  31
ATOM     31  C   UNL A   1      43.003  24.430  26.096  1.00  0.00     0.060 A 
ATOM     32  C   UNL A   1      43.507  25.738  26.078  1.00  0.00     0.016 A 
ATOM     33  C   UNL A   1      41.913  24.102  26.906  1.00  0.00     0.016 A 
ATOM     34  C   UNL A   1      42.937  26.717  26.891  1.00  0.00     0.010 A 
ATOM     35  C   UNL A   1      41.364  25.074  27.747  1.00  0.00     0.010 A 
ATOM     36  C   UNL A   1      41.896  26.376  27.764  1.00  0.00    -0.014 A 
BRANCH  36  37
ATOM     37  C   UNL A   1      41.527  27.314  28.851  1.00  0.00     0.031 A 
ATOM     38  C   UNL A   1      42.353  27.288  30.108  1.00  0.00     0.074 A 
ATOM     39  C   UNL A   1      40.521  28.193  28.713  1.00  0.00     0.049 A 
ATOM     40  N   UNL A   1      42.204  27.963  31.218  1.00  0.00    -0.248 NA
ATOM     41  C   UNL A   1      43.511  26.377  30.108  1.00  0.00     0.031 C 
ATOM     42  C   UNL A   1      39.696  28.357  27.519  1.00  0.00     0.029 A 
ATOM     43  N   UNL A   1      40.022  29.118  29.598  1.00  0.00    -0.354 N 
ATOM     44  C   UNL A   1      43.249  27.563  32.041  1.00  0.00     0.074 A 
ATOM     45  C   UNL A   1      44.001  26.558  31.324  1.00  0.00     0.031 C 
ATOM     46  C   UNL A   1      38.779  29.314  27.751  1.00  0.00     0.029 A 
ATOM     47  C   UNL A   1      38.931  29.803  29.121  1.00  0.00     0.049 A 
ATOM     48  H   UNL A   1      40.408  29.274  30.489  1.00  0.00     0.167 HD
ATOM     49  C   UNL A   1      43.563  28.008  33.279  1.00  0.00     0.037 A 
ATOM     50  C   UNL A   1      38.135  30.698  29.738  1.00  0.00     0.037 A 
ATOM     51  C   UNL A   1      42.803  28.996  33.997  1.00  0.00     0.049 A 
ATOM     52  C   UNL A   1      38.436  31.082  31.168  1.00  0.00     0.074 A 
ATOM     53  C   UNL A   1      43.017  29.495  35.268  1.00  0.00     0.029 A 
ATOM     54  N   UNL A   1      41.675  29.633  33.500  1.00  0.00    -0.354 N 
ATOM     55  N   UNL A   1      39.428  30.708  31.941  1.00  0.00    -0.248 NA
ATOM     56  C   UNL A   1      37.503  32.019  31.813  1.00  0.00     0.031 C 
ATOM     57  C   UNL A   1      41.990  30.397  35.561  1.00  0.00     0.029 A 
ATOM     58  C   UNL A   1      41.173  30.508  34.448  1.00  0.00     0.049 A 
ATOM     59  H   UNL A   1      41.290  29.485  32.607  1.00  0.00     0.167 HD
ATOM     60  C   UNL A   1      39.263  31.395  33.139  1.00  0.00     0.074 A 
ATOM     61  C   UNL A   1      38.085  32.220  32.986  1.00  0.00     0.031 C 
ATOM     62  C   UNL A   1      40.016  31.346  34.265  1.00  0.00     0.037 A 
BRANCH  49  63
ATOM     63  C   UNL A   1      44.773  27.419  33.944  1.00  0.00     0.064 A 
ATOM     64  C   UNL A   1      46.036  28.021  33.834  1.00  0.00     0.173 A 
ATOM     65  C   UNL A   1      44.662  26.266  34.735  1.00  0.00     0.173 A 
ATOM     66  F   UNL A   1      46.198  29.115  33.074  1.00  0.00    -0.203 F 
ATOM     67  C   UNL A   1      47.146  27.480  34.477  1.00  0.00     0.198 A 
ATOM     68  C   UNL A   1      45.767  25.747  35.403  1.00  0.00     0.198 A 
ATOM     69  F   UNL A   1      43.477  25.652  34.874  1.00  0.00    -0.203 F 
ATOM     70  F   UNL A   1      48.350  28.049  34.324  1.00  0.00    -0.200 F 
ATOM     71  C   UNL A   1      47.008  26.350  35.269  1.00  0.00     0.200 A 
ATOM     72  F   UNL A   1      45.631  24.663  36.180  1.00  0.00    -0.200 F 
ATOM     73  F   UNL A   1      48.074  25.840  35.902  1.00  0.00    -0.200 F 
ENDBRANCH  49  63
BRANCH  50  74
ATOM     74  C   UNL A   1      36.956  31.281  29.039  1.00  0.00     0.064 A 
ATOM     75  C   UNL A   1      36.928  32.635  28.671  1.00  0.00     0.173 A 
ATOM     76  C   UNL A   1      35.803  30.519  28.794  1.00  0.00     0.173 A 
ATOM     77  F   UNL A   1      37.994  33.415  28.905  1.00  0.00    -0.203 F 
ATOM     78  C   UNL A   1      35.780  33.212  28.128  1.00  0.00     0.198 A 
ATOM     79  C   UNL A   1      34.670  31.088  28.216  1.00  0.00     0.198 A 
ATOM     80  F   UNL A   1      35.772  29.220  29.126  1.00  0.00    -0.203 F 
ATOM     81  F   UNL A   1      35.756  34.524  27.861  1.00  0.00    -0.200 F 
ATOM     82  C   UNL A   1      34.654  32.437  27.899  1.00  0.00     0.200 A 
ATOM     83  F   UNL A   1      33.588  30.332  27.984  1.00  0.00    -0.200 F 
ATOM     84  F   UNL A   1      33.547  32.994  27.388  1.00  0.00    -0.200 F 
ENDBRANCH  50  74
BRANCH  62  85
ATOM     85  C   UNL A   1      39.631  32.257  35.397  1.00  0.00     0.064 A 
ATOM     86  C   UNL A   1      40.164  33.548  35.526  1.00  0.00     0.173 A 
ATOM     87  C   UNL A   1      38.678  31.843  36.342  1.00  0.00     0.173 A 
ATOM     88  F   UNL A   1      41.086  33.988  34.657  1.00  0.00    -0.203 F 
ATOM     89  C   UNL A   1      39.781  34.378  36.577  1.00  0.00     0.198 A 
ATOM     90  C   UNL A   1      38.272  32.689  37.370  1.00  0.00     0.198 A 
ATOM     91  F   UNL A   1      38.130  30.622  36.260  1.00  0.00    -0.203 F 
ATOM     92  F   UNL A   1      40.346  35.586  36.712  1.00  0.00    -0.200 F 
ATOM     93  C   UNL A   1      38.830  33.952  37.491  1.00  0.00     0.200 A 
ATOM     94  F   UNL A   1      37.338  32.283  38.240  1.00  0.00    -0.200 F 
ATOM     95  F   UNL A   1      38.456  34.757  38.496  1.00  0.00    -0.200 F 
ENDBRANCH  62  85
ENDBRANCH  36  37
ENDBRANCH  29  31
ENDBRANCH  28  29
ENDBRANCH  27  28
ENDBRANCH  26  27
ENDBRANCH  25  26
ENDBRANCH  24  25
ENDBRANCH  23  24
ENDBRANCH  22  23
ENDBRANCH   1  22
TORSDOF 24
ENDMDL
MODEL 2
REMARK VINA RESULT:      -9.0      1.096      2.241
REMARK SMILES CCC[C@H](C)C(=O)N1CC[C@H](C(=O)OCCOCCOCCOCCOC(=O)c2ccc(-c3c4nc(c(-c5c(F)c(F)c(F)c(F)c5F)c5ccc([nH]5)c(-c5c(F)c(F)c(F)c(F)c5F)c5nc(c(-c6c(F)c(F)c(F)c(F)c6F)c6ccc3[nH]6)C=C5)C=C4)cc2)[C@@H]1C
REMARK SMILES IDX 19 1 18 2 17 3 16 4 15 5 14 6 12 7 13 8 11 9 8 10 9 11 92 12
REMARK SMILES IDX 10 13 93 14 6 15 7 16 4 17 5 18 3 19 2 20 1 21 20 22 21 23
REMARK SMILES IDX 22 24 23 25 24 26 25 27 26 28 27 29 28 30 29 31 30 32 91 33
REMARK SMILES IDX 31 34 90 35 32 36 33 37 34 38 84 39 35 40 89 41 83 42 85 43
REMARK SMILES IDX 36 44 88 45 82 46 81 47 37 49 69 50 49 51 68 52 50 53 53 54
REMARK SMILES IDX 67 55 86 56 51 57 52 58 66 60 87 61 54 62 38 63 39 64 47 65
REMARK SMILES IDX 40 66 41 67 45 68 48 69 42 70 43 71 46 72 44 73 70 74 71 75
REMARK SMILES IDX 79 76 72 77 73 78 77 79 80 80 74 81 75 82 78 83 76 84 55 85
REMARK SMILES IDX 56 86 64 87 57 88 58 89 62 90 65 91 59 92 60 93 63 94 61 95
REMARK H PARENT 85 48 53 59
REMARK Flexibility Score: inf
ROOT
ATOM      1  C   UNL A   1      38.168  21.353  25.313  1.00  0.00     0.188 C 
ENDROOT
BRANCH   1   2
ATOM      2  C   UNL A   1      36.771  21.984  25.493  1.00  0.00     0.188 C 
BRANCH   2   3
ATOM      3  O   UNL A   1      35.829  21.577  24.525  1.00  0.00    -0.376 OA
BRANCH   3   4
ATOM      4  C   UNL A   1      34.643  20.926  24.916  1.00  0.00     0.202 C 
BRANCH   4   5
ATOM      5  C   UNL A   1      33.272  21.414  24.424  1.00  0.00     0.261 C 
BRANCH   5   6
ATOM      6  O   UNL A   1      33.233  22.091  23.161  1.00  0.00    -0.463 OA
BRANCH   6   7
ATOM      7  C   UNL A   1      33.445  23.422  23.144  1.00  0.00     0.311 C 
ATOM      8  O   UNL A   1      33.573  24.071  22.111  1.00  0.00    -0.252 OA
BRANCH   7   9
ATOM      9  C   UNL A   1      33.434  24.094  24.517  1.00  0.00     0.123 C 
ATOM     10  N   UNL A   1      32.482  26.098  25.450  1.00  0.00    -0.339 N 
ATOM     11  C   UNL A   1      33.806  26.475  25.008  1.00  0.00     0.121 C 
ATOM     12  C   UNL A   1      32.177  24.686  25.200  1.00  0.00     0.096 C 
ATOM     13  C   UNL A   1      34.501  25.200  24.570  1.00  0.00     0.039 C 
ATOM     14  C   UNL A   1      30.827  24.493  24.506  1.00  0.00     0.032 C 
BRANCH  10  15
ATOM     15  C   UNL A   1      31.764  27.043  26.156  1.00  0.00     0.225 C 
ATOM     16  O   UNL A   1      31.094  26.709  27.139  1.00  0.00    -0.275 OA
BRANCH  15  17
ATOM     17  C   UNL A   1      31.522  28.419  25.525  1.00  0.00     0.075 C 
ATOM     18  C   UNL A   1      32.727  29.285  25.186  1.00  0.00     0.018 C 
BRANCH  17  19
ATOM     19  C   UNL A   1      30.577  28.243  24.313  1.00  0.00     0.013 C 
BRANCH  19  20
ATOM     20  C   UNL A   1      30.672  29.395  23.309  1.00  0.00    -0.003 C 
ATOM     21  C   UNL A   1      29.817  29.180  22.072  1.00  0.00     0.004 C 
ENDBRANCH  19  20
ENDBRANCH  17  19
ENDBRANCH  15  17
ENDBRANCH  10  15
ENDBRANCH   7   9
ENDBRANCH   6   7
ENDBRANCH   5   6
ENDBRANCH   4   5
ENDBRANCH   3   4
ENDBRANCH   2   3
ENDBRANCH   1   2
BRANCH   1  22
ATOM     22  O   UNL A   1      39.342  21.760  26.004  1.00  0.00    -0.377 OA
BRANCH  22  23
ATOM     23  C   UNL A   1      40.301  20.790  26.367  1.00  0.00     0.188 C 
BRANCH  23  24
ATOM     24  C   UNL A   1      41.704  21.353  26.650  1.00  0.00     0.188 C 
BRANCH  24  25
ATOM     25  O   UNL A   1      42.091  22.382  25.759  1.00  0.00    -0.376 OA
BRANCH  25  26
ATOM     26  C   UNL A   1      43.184  22.184  24.875  1.00  0.00     0.202 C 
BRANCH  26  27
ATOM     27  C   UNL A   1      44.663  22.405  25.253  1.00  0.00     0.261 C 
BRANCH  27  28
ATOM     28  O   UNL A   1      44.987  23.443  26.183  1.00  0.00    -0.460 OA
BRANCH  28  29
ATOM     29  C   UNL A   1      45.050  24.709  25.737  1.00  0.00     0.338 C 
ATOM     30  O   UNL A   1      45.552  25.111  24.699  1.00  0.00    -0.246 OA
BRANCH  29  31
ATOM     31  C   UNL A   1      44.222  25.522  26.652  1.00  0.00     0.060 A 
ATOM     32  C   UNL A   1      44.298  26.919  26.579  1.00  0.00     0.016 A 
ATOM     33  C   UNL A   1      43.349  24.905  27.553  1.00  0.00     0.016 A 
ATOM     34  C   UNL A   1      43.518  27.706  27.425  1.00  0.00     0.010 A 
ATOM     35  C   UNL A   1      42.594  25.693  28.425  1.00  0.00     0.010 A 
ATOM     36  C   UNL A   1      42.700  27.095  28.385  1.00  0.00    -0.014 A 
BRANCH  36  37
ATOM     37  C   UNL A   1      42.143  27.914  29.488  1.00  0.00     0.031 A 
ATOM     38  C   UNL A   1      42.885  27.920  30.797  1.00  0.00     0.074 A 
ATOM     39  C   UNL A   1      41.042  28.665  29.323  1.00  0.00     0.049 A 
ATOM     40  N   UNL A   1      42.578  28.504  31.926  1.00  0.00    -0.248 NA
ATOM     41  C   UNL A   1      44.149  27.165  30.833  1.00  0.00     0.031 C 
ATOM     42  C   UNL A   1      40.280  28.791  28.083  1.00  0.00     0.029 A 
ATOM     43  N   UNL A   1      40.371  29.465  30.215  1.00  0.00    -0.354 N 
ATOM     44  C   UNL A   1      43.612  28.193  32.800  1.00  0.00     0.074 A 
ATOM     45  C   UNL A   1      44.533  27.336  32.088  1.00  0.00     0.031 C 
ATOM     46  C   UNL A   1      39.233  29.609  28.298  1.00  0.00     0.029 A 
ATOM     47  C   UNL A   1      39.233  30.033  29.697  1.00  0.00     0.049 A 
ATOM     48  H   UNL A   1      40.676  29.617  31.138  1.00  0.00     0.167 HD
ATOM     49  C   UNL A   1      43.787  28.602  34.078  1.00  0.00     0.037 A 
ATOM     50  C   UNL A   1      38.289  30.783  30.300  1.00  0.00     0.037 A 
ATOM     51  C   UNL A   1      42.860  29.442  34.788  1.00  0.00     0.049 A 
ATOM     52  C   UNL A   1      38.446  31.118  31.765  1.00  0.00     0.074 A 
ATOM     53  C   UNL A   1      42.926  29.889  36.095  1.00  0.00     0.029 A 
ATOM     54  N   UNL A   1      41.692  29.959  34.245  1.00  0.00    -0.354 N 
ATOM     55  N   UNL A   1      39.427  30.829  32.587  1.00  0.00    -0.248 NA
ATOM     56  C   UNL A   1      37.360  31.890  32.388  1.00  0.00     0.031 C 
ATOM     57  C   UNL A   1      41.773  30.635  36.359  1.00  0.00     0.029 A 
ATOM     58  C   UNL A   1      41.021  30.706  35.198  1.00  0.00     0.049 A 
ATOM     59  H   UNL A   1      41.387  29.814  33.321  1.00  0.00     0.167 HD
ATOM     60  C   UNL A   1      39.098  31.417  33.802  1.00  0.00     0.074 A 
ATOM     61  C   UNL A   1      37.835  32.094  33.608  1.00  0.00     0.031 C 
ATOM     62  C   UNL A   1      39.778  31.399  34.975  1.00  0.00     0.037 A 
BRANCH  49  63
ATOM     63  C   UNL A   1      45.018  28.134  34.796  1.00  0.00     0.064 A 
ATOM     64  C   UNL A   1      45.032  26.929  35.516  1.00  0.00     0.173 A 
ATOM     65  C   UNL A   1      46.208  28.872  34.729  1.00  0.00     0.173 A 
ATOM     66  F   UNL A   1      43.915  26.195  35.626  1.00  0.00    -0.203 F 
ATOM     67  C   UNL A   1      46.188  26.491  36.156  1.00  0.00     0.198 A 
ATOM     68  C   UNL A   1      47.371  28.415  35.342  1.00  0.00     0.198 A 
ATOM     69  F   UNL A   1      46.249  30.030  34.052  1.00  0.00    -0.203 F 
ATOM     70  F   UNL A   1      46.167  25.358  36.873  1.00  0.00    -0.200 F 
ATOM     71  C   UNL A   1      47.359  27.229  36.060  1.00  0.00     0.200 A 
ATOM     72  F   UNL A   1      48.505  29.121  35.237  1.00  0.00    -0.200 F 
ATOM     73  F   UNL A   1      48.475  26.797  36.663  1.00  0.00    -0.200 F 
ENDBRANCH  49  63
BRANCH  50  74
ATOM     74  C   UNL A   1      37.091  31.251  29.550  1.00  0.00     0.064 A 
ATOM     75  C   UNL A   1      36.073  30.359  29.181  1.00  0.00     0.173 A 
ATOM     76  C   UNL A   1      36.975  32.581  29.119  1.00  0.00     0.173 A 
ATOM     77  F   UNL A   1      36.146  29.070  29.545  1.00  0.00    -0.203 F 
ATOM     78  C   UNL A   1      35.012  30.769  28.374  1.00  0.00     0.198 A 
ATOM     79  C   UNL A   1      35.894  32.998  28.345  1.00  0.00     0.198 A 
ATOM     80  F   UNL A   1      37.919  33.478  29.440  1.00  0.00    -0.203 F 
ATOM     81  F   UNL A   1      34.097  29.877  27.971  1.00  0.00    -0.200 F 
ATOM     82  C   UNL A   1      34.922  32.088  27.959  1.00  0.00     0.200 A 
ATOM     83  F   UNL A   1      35.804  34.278  27.957  1.00  0.00    -0.200 F 
ATOM     84  F   UNL A   1      33.908  32.479  27.174  1.00  0.00    -0.200 F 
ENDBRANCH  50  74
BRANCH  62  85
ATOM     85  C   UNL A   1      39.207  32.186  36.121  1.00  0.00     0.064 A 
ATOM     86  C   UNL A   1      38.274  31.634  37.010  1.00  0.00     0.173 A 
ATOM     87  C   UNL A   1      39.640  33.502  36.358  1.00  0.00     0.173 A 
ATOM     88  F   UNL A   1      37.819  30.386  36.822  1.00  0.00    -0.203 F 
ATOM     89  C   UNL A   1      37.770  32.380  38.073  1.00  0.00     0.198 A 
ATOM     90  C   UNL A   1      39.161  34.230  37.443  1.00  0.00     0.198 A 
ATOM     91  F   UNL A   1      40.539  34.075  35.545  1.00  0.00    -0.203 F 
ATOM     92  F   UNL A   1      36.836  31.850  38.876  1.00  0.00    -0.200 F 
ATOM     93  C   UNL A   1      38.220  33.672  38.294  1.00  0.00     0.200 A 
ATOM     94  F   UNL A   1      39.613  35.472  37.666  1.00  0.00    -0.200 F 
ATOM     95  F   UNL A   1      37.741  34.383  39.324  1.00  0.00    -0.200 F 
ENDBRANCH  62  85
ENDBRANCH  36  37
ENDBRANCH  29  31
ENDBRANCH  28  29
ENDBRANCH  27  28
ENDBRANCH  26  27
ENDBRANCH  25  26
ENDBRANCH  24  25
ENDBRANCH  23  24
ENDBRANCH  22  23
ENDBRANCH   1  22
TORSDOF 24
ENDMDL
MODEL 3
REMARK VINA RESULT:      -8.6      1.619      7.430
REMARK SMILES CCC[C@H](C)C(=O)N1CC[C@H](C(=O)OCCOCCOCCOCCOC(=O)c2ccc(-c3c4nc(c(-c5c(F)c(F)c(F)c(F)c5F)c5ccc([nH]5)c(-c5c(F)c(F)c(F)c(F)c5F)c5nc(c(-c6c(F)c(F)c(F)c(F)c6F)c6ccc3[nH]6)C=C5)C=C4)cc2)[C@@H]1C
REMARK SMILES IDX 19 1 18 2 17 3 16 4 15 5 14 6 12 7 13 8 11 9 8 10 9 11 92 12
REMARK SMILES IDX 10 13 93 14 6 15 7 16 4 17 5 18 3 19 2 20 1 21 20 22 21 23
REMARK SMILES IDX 22 24 23 25 24 26 25 27 26 28 27 29 28 30 29 31 30 32 91 33
REMARK SMILES IDX 31 34 90 35 32 36 33 37 34 38 84 39 35 40 89 41 83 42 85 43
REMARK SMILES IDX 36 44 88 45 82 46 81 47 37 49 69 50 49 51 68 52 50 53 53 54
REMARK SMILES IDX 67 55 86 56 51 57 52 58 66 60 87 61 54 62 38 63 39 64 47 65
REMARK SMILES IDX 40 66 41 67 45 68 48 69 42 70 43 71 46 72 44 73 70 74 71 75
REMARK SMILES IDX 79 76 72 77 73 78 77 79 80 80 74 81 75 82 78 83 76 84 55 85
REMARK SMILES IDX 56 86 64 87 57 88 58 89 62 90 65 91 59 92 60 93 63 94 61 95
REMARK H PARENT 85 48 53 59
REMARK Flexibility Score: inf
ROOT
ATOM      1  C   UNL A   1      37.958  21.491  25.486  1.00  0.00     0.188 C 
ENDROOT
BRANCH   1   2
ATOM      2  C   UNL A   1      36.550  22.002  25.858  1.00  0.00     0.188 C 
BRANCH   2   3
ATOM      3  O   UNL A   1      35.669  22.106  24.761  1.00  0.00    -0.376 OA
BRANCH   3   4
ATOM      4  C   UNL A   1      34.660  21.144  24.564  1.00  0.00     0.202 C 
BRANCH   4   5
ATOM      5  C   UNL A   1      33.362  21.177  25.386  1.00  0.00     0.261 C 
BRANCH   5   6
ATOM      6  O   UNL A   1      32.433  22.230  25.100  1.00  0.00    -0.463 OA
BRANCH   6   7
ATOM      7  C   UNL A   1      32.392  23.288  25.934  1.00  0.00     0.311 C 
ATOM      8  O   UNL A   1      32.766  23.240  27.101  1.00  0.00    -0.252 OA
BRANCH   7   9
ATOM      9  C   UNL A   1      31.914  24.594  25.297  1.00  0.00     0.123 C 
ATOM     10  N   UNL A   1      31.887  26.915  25.934  1.00  0.00    -0.339 N 
ATOM     11  C   UNL A   1      30.617  26.384  26.374  1.00  0.00     0.121 C 
ATOM     12  C   UNL A   1      32.727  25.912  25.272  1.00  0.00     0.096 C 
ATOM     13  C   UNL A   1      30.525  24.968  25.840  1.00  0.00     0.039 C 
ATOM     14  C   UNL A   1      34.154  25.884  25.826  1.00  0.00     0.032 C 
BRANCH  10  15
ATOM     15  C   UNL A   1      32.075  28.277  26.056  1.00  0.00     0.225 C 
ATOM     16  O   UNL A   1      31.969  28.824  27.159  1.00  0.00    -0.275 OA
BRANCH  15  17
ATOM     17  C   UNL A   1      32.071  29.146  24.793  1.00  0.00     0.075 C 
ATOM     18  C   UNL A   1      33.306  29.141  23.904  1.00  0.00     0.018 C 
BRANCH  17  19
ATOM     19  C   UNL A   1      30.782  28.844  23.995  1.00  0.00     0.013 C 
BRANCH  19  20
ATOM     20  C   UNL A   1      31.061  28.334  22.579  1.00  0.00    -0.003 C 
ATOM     21  C   UNL A   1      30.811  26.844  22.422  1.00  0.00     0.004 C 
ENDBRANCH  19  20
ENDBRANCH  17  19
ENDBRANCH  15  17
ENDBRANCH  10  15
ENDBRANCH   7   9
ENDBRANCH   6   7
ENDBRANCH   5   6
ENDBRANCH   4   5
ENDBRANCH   3   4
ENDBRANCH   2   3
ENDBRANCH   1   2
BRANCH   1  22
ATOM     22  O   UNL A   1      39.177  22.116  25.864  1.00  0.00    -0.377 OA
BRANCH  22  23
ATOM     23  C   UNL A   1      40.160  21.360  26.540  1.00  0.00     0.188 C 
BRANCH  23  24
ATOM     24  C   UNL A   1      41.293  22.193  27.162  1.00  0.00     0.188 C 
BRANCH  24  25
ATOM     25  O   UNL A   1      41.748  23.241  26.326  1.00  0.00    -0.376 OA
BRANCH  25  26
ATOM     26  C   UNL A   1      42.811  23.010  25.412  1.00  0.00     0.202 C 
BRANCH  26  27
ATOM     27  C   UNL A   1      44.193  22.450  25.806  1.00  0.00     0.261 C 
BRANCH  27  28
ATOM     28  O   UNL A   1      44.834  22.962  26.978  1.00  0.00    -0.460 OA
BRANCH  28  29
ATOM     29  C   UNL A   1      45.470  24.143  26.900  1.00  0.00     0.338 C 
ATOM     30  O   UNL A   1      46.385  24.451  26.152  1.00  0.00    -0.246 OA
BRANCH  29  31
ATOM     31  C   UNL A   1      44.727  25.082  27.766  1.00  0.00     0.060 A 
ATOM     32  C   UNL A   1      44.986  26.455  27.661  1.00  0.00     0.016 A 
ATOM     33  C   UNL A   1      43.754  24.610  28.651  1.00  0.00     0.016 A 
ATOM     34  C   UNL A   1      44.290  27.361  28.460  1.00  0.00     0.010 A 
ATOM     35  C   UNL A   1      43.082  25.514  29.477  1.00  0.00     0.010 A 
ATOM     36  C   UNL A   1      43.370  26.888  29.406  1.00  0.00    -0.014 A 
BRANCH  36  37
ATOM     37  C   UNL A   1      42.892  27.804  30.469  1.00  0.00     0.031 A 
ATOM     38  C   UNL A   1      41.617  28.560  30.219  1.00  0.00     0.074 A 
ATOM     39  C   UNL A   1      43.542  27.927  31.639  1.00  0.00     0.049 A 
ATOM     40  N   UNL A   1      41.020  29.458  30.960  1.00  0.00    -0.248 NA
ATOM     41  C   UNL A   1      40.916  28.257  28.960  1.00  0.00     0.031 C 
ATOM     42  C   UNL A   1      44.748  27.196  32.020  1.00  0.00     0.029 A 
ATOM     43  N   UNL A   1      43.272  28.724  32.725  1.00  0.00    -0.354 N 
ATOM     44  C   UNL A   1      39.876  29.819  30.261  1.00  0.00     0.074 A 
ATOM     45  C   UNL A   1      39.879  29.078  29.019  1.00  0.00     0.031 C 
ATOM     46  C   UNL A   1      45.124  27.591  33.250  1.00  0.00     0.029 A 
ATOM     47  C   UNL A   1      44.208  28.627  33.725  1.00  0.00     0.049 A 
ATOM     48  H   UNL A   1      42.483  29.309  32.781  1.00  0.00     0.167 HD
ATOM     49  C   UNL A   1      38.899  30.679  30.630  1.00  0.00     0.037 A 
ATOM     50  C   UNL A   1      44.321  29.322  34.874  1.00  0.00     0.037 A 
ATOM     51  C   UNL A   1      38.907  31.426  31.859  1.00  0.00     0.049 A 
ATOM     52  C   UNL A   1      43.282  30.369  35.201  1.00  0.00     0.074 A 
ATOM     53  C   UNL A   1      37.983  32.348  32.316  1.00  0.00     0.029 A 
ATOM     54  N   UNL A   1      39.898  31.338  32.826  1.00  0.00    -0.354 N 
ATOM     55  N   UNL A   1      42.198  30.703  34.542  1.00  0.00    -0.248 NA
ATOM     56  C   UNL A   1      43.483  31.138  36.439  1.00  0.00     0.031 C 
ATOM     57  C   UNL A   1      38.439  32.855  33.536  1.00  0.00     0.029 A 
ATOM     58  C   UNL A   1      39.615  32.203  33.870  1.00  0.00     0.049 A 
ATOM     59  H   UNL A   1      40.685  30.750  32.777  1.00  0.00     0.167 HD
ATOM     60  C   UNL A   1      41.570  31.682  35.304  1.00  0.00     0.074 A 
ATOM     61  C   UNL A   1      42.385  31.878  36.483  1.00  0.00     0.031 C 
ATOM     62  C   UNL A   1      40.424  32.360  35.052  1.00  0.00     0.037 A 
BRANCH  49  63
ATOM     63  C   UNL A   1      37.747  30.870  29.688  1.00  0.00     0.064 A 
ATOM     64  C   UNL A   1      36.764  29.882  29.523  1.00  0.00     0.173 A 
ATOM     65  C   UNL A   1      37.599  32.069  28.975  1.00  0.00     0.173 A 
ATOM     66  F   UNL A   1      36.869  28.710  30.167  1.00  0.00    -0.203 F 
ATOM     67  C   UNL A   1      35.685  30.081  28.665  1.00  0.00     0.198 A 
ATOM     68  C   UNL A   1      36.502  32.278  28.144  1.00  0.00     0.198 A 
ATOM     69  F   UNL A   1      38.510  33.046  29.098  1.00  0.00    -0.203 F 
ATOM     70  F   UNL A   1      34.781  29.108  28.492  1.00  0.00    -0.200 F 
ATOM     71  C   UNL A   1      35.550  31.283  27.985  1.00  0.00     0.200 A 
ATOM     72  F   UNL A   1      36.365  33.444  27.498  1.00  0.00    -0.200 F 
ATOM     73  F   UNL A   1      34.502  31.480  27.174  1.00  0.00    -0.200 F 
ENDBRANCH  49  63
BRANCH  50  74
ATOM     74  C   UNL A   1      45.465  29.089  35.798  1.00  0.00     0.064 A 
ATOM     75  C   UNL A   1      46.657  29.818  35.674  1.00  0.00     0.173 A 
ATOM     76  C   UNL A   1      45.421  28.082  36.775  1.00  0.00     0.173 A 
ATOM     77  F   UNL A   1      46.763  30.776  34.740  1.00  0.00    -0.203 F 
ATOM     78  C   UNL A   1      47.772  29.518  36.456  1.00  0.00     0.198 A 
ATOM     79  C   UNL A   1      46.523  27.809  37.582  1.00  0.00     0.198 A 
ATOM     80  F   UNL A   1      44.308  27.351  36.938  1.00  0.00    -0.203 F 
ATOM     81  F   UNL A   1      48.921  30.177  36.259  1.00  0.00    -0.200 F 
ATOM     82  C   UNL A   1      47.703  28.516  37.411  1.00  0.00     0.200 A 
ATOM     83  F   UNL A   1      46.447  26.848  38.513  1.00  0.00    -0.200 F 
ATOM     84  F   UNL A   1      48.778  28.220  38.155  1.00  0.00    -0.200 F 
ENDBRANCH  50  74
BRANCH  62  85
ATOM     85  C   UNL A   1      39.945  33.328  36.097  1.00  0.00     0.064 A 
ATOM     86  C   UNL A   1      39.076  32.940  37.127  1.00  0.00     0.173 A 
ATOM     87  C   UNL A   1      40.402  34.656  36.091  1.00  0.00     0.173 A 
ATOM     88  F   UNL A   1      38.600  31.686  37.173  1.00  0.00    -0.203 F 
ATOM     89  C   UNL A   1      38.657  33.853  38.092  1.00  0.00     0.198 A 
ATOM     90  C   UNL A   1      40.010  35.555  37.078  1.00  0.00     0.198 A 
ATOM     91  F   UNL A   1      41.242  35.078  35.134  1.00  0.00    -0.203 F 
ATOM     92  F   UNL A   1      37.782  33.473  39.033  1.00  0.00    -0.200 F 
ATOM     93  C   UNL A   1      39.131  35.155  38.072  1.00  0.00     0.200 A 
ATOM     94  F   UNL A   1      40.485  36.808  37.068  1.00  0.00    -0.200 F 
ATOM     95  F   UNL A   1      38.734  36.029  39.008  1.00  0.00    -0.200 F 
ENDBRANCH  62  85
ENDBRANCH  36  37
ENDBRANCH  29  31
ENDBRANCH  28  29
ENDBRANCH  27  28
ENDBRANCH  26  27
ENDBRANCH  25  26
ENDBRANCH  24  25
ENDBRANCH  23  24
ENDBRANCH  22  23
ENDBRANCH   1  22
TORSDOF 24
ENDMDL
