MODEL 1
REMARK VINA RESULT:     -11.3      0.000      0.000
REMARK SMILES O=C(OCCOCCOCCOCCOC(=O)c1ccc(-c2c3nc(c(-c4c(F)c(F)c(F)c(F)c4F)c4ccc([nH]4)c(-c4c(F)c(F)c(F)c(F)c4F)c4nc(c(-c5c(F)c(F)c(F)c(F)c5F)c5ccc2[nH]5)C=C4)C=C3)cc1)C1=NN(c2ccc([N+](=O)[O-])cc2)[C@H](c2ccccc2)C1
REMARK SMILES IDX 9 1 8 2 7 3 6 4 5 5 4 6 3 7 2 8 1 9 81 10 82 11 100 12 83 13
REMARK SMILES IDX 93 14 84 15 85 16 92 17 86 18 91 19 87 20 88 21 89 22 90 23
REMARK SMILES IDX 94 24 95 25 99 26 96 27 98 28 97 29 10 30 11 31 12 32 13 33
REMARK SMILES IDX 14 34 15 35 16 36 17 37 18 38 19 39 80 40 20 41 79 42 21 43
REMARK SMILES IDX 22 44 23 45 73 46 24 47 78 48 72 49 74 50 25 51 77 52 71 53
REMARK SMILES IDX 70 54 26 56 58 57 38 58 57 59 39 60 42 61 56 62 75 63 40 64
REMARK SMILES IDX 41 65 55 67 76 68 43 69 27 70 28 71 36 72 29 73 30 74 34 75
REMARK SMILES IDX 37 76 31 77 32 78 35 79 33 80 59 81 60 82 68 83 61 84 62 85
REMARK SMILES IDX 66 86 69 87 63 88 64 89 67 90 65 91 44 92 45 93 53 94 46 95
REMARK SMILES IDX 47 96 51 97 54 98 48 99 49 100 52 101 50 102
REMARK H PARENT 74 55 42 66
REMARK Flexibility Score: inf
ROOT
ATOM      1  O   UNL A   1      38.580  21.180  25.758  1.00  0.00    -0.377 OA
ENDROOT
BRANCH   1   2
ATOM      2  C   UNL A   1      37.459  21.972  25.386  1.00  0.00     0.188 C 
BRANCH   2   3
ATOM      3  C   UNL A   1      36.121  21.256  25.210  1.00  0.00     0.188 C 
BRANCH   3   4
ATOM      4  O   UNL A   1      35.016  21.595  26.028  1.00  0.00    -0.376 OA
BRANCH   4   5
ATOM      5  C   UNL A   1      33.774  20.925  26.104  1.00  0.00     0.202 C 
BRANCH   5   6
ATOM      6  C   UNL A   1      32.537  21.428  25.367  1.00  0.00     0.261 C 
BRANCH   6   7
ATOM      7  O   UNL A   1      32.687  22.613  24.586  1.00  0.00    -0.459 OA
BRANCH   7   8
ATOM      8  C   UNL A   1      31.647  23.104  23.894  1.00  0.00     0.354 C 
ATOM      9  O   UNL A   1      31.312  22.668  22.801  1.00  0.00    -0.245 OA
BRANCH   8  10
ATOM     10  C   UNL A   1      31.026  24.398  24.367  1.00  0.00     0.148 C 
ATOM     11  N   UNL A   1      30.958  25.497  23.675  1.00  0.00    -0.169 NA
ATOM     12  C   UNL A   1      30.363  24.446  25.718  1.00  0.00     0.098 C 
ATOM     13  N   UNL A   1      30.228  26.335  24.449  1.00  0.00    -0.257 N 
ATOM     14  C   UNL A   1      30.323  25.972  25.864  1.00  0.00     0.144 C 
BRANCH  13  15
ATOM     15  C   UNL A   1      29.638  27.470  23.927  1.00  0.00     0.061 A 
ATOM     16  C   UNL A   1      30.359  28.667  23.806  1.00  0.00     0.035 A 
ATOM     17  C   UNL A   1      28.303  27.451  23.505  1.00  0.00     0.035 A 
ATOM     18  C   UNL A   1      29.778  29.808  23.238  1.00  0.00     0.088 A 
ATOM     19  C   UNL A   1      27.716  28.568  22.908  1.00  0.00     0.088 A 
ATOM     20  C   UNL A   1      28.462  29.744  22.768  1.00  0.00     0.269 A 
BRANCH  20  21
ATOM     21  N   UNL A   1      27.860  30.910  22.112  1.00  0.00     0.062 N 
ATOM     22  O   UNL A   1      27.605  31.901  22.812  1.00  0.00    -0.258 OA
ATOM     23  O   UNL A   1      27.652  30.840  20.892  1.00  0.00    -0.258 OA
ENDBRANCH  20  21
ENDBRANCH  13  15
BRANCH  14  24
ATOM     24  C   UNL A   1      31.617  26.614  26.386  1.00  0.00    -0.023 A 
ATOM     25  C   UNL A   1      32.884  26.306  25.857  1.00  0.00     0.006 A 
ATOM     26  C   UNL A   1      31.508  27.725  27.240  1.00  0.00     0.006 A 
ATOM     27  C   UNL A   1      33.976  27.143  26.079  1.00  0.00     0.000 A 
ATOM     28  C   UNL A   1      32.602  28.562  27.459  1.00  0.00     0.000 A 
ATOM     29  C   UNL A   1      33.828  28.284  26.859  1.00  0.00     0.000 A 
ENDBRANCH  14  24
ENDBRANCH   8  10
ENDBRANCH   7   8
ENDBRANCH   6   7
ENDBRANCH   5   6
ENDBRANCH   4   5
ENDBRANCH   3   4
ENDBRANCH   2   3
ENDBRANCH   1   2
BRANCH   1  30
ATOM     30  C   UNL A   1      39.605  21.902  26.424  1.00  0.00     0.188 C 
BRANCH  30  31
ATOM     31  C   UNL A   1      40.933  21.124  26.525  1.00  0.00     0.188 C 
BRANCH  31  32
ATOM     32  O   UNL A   1      41.909  21.805  27.304  1.00  0.00    -0.376 OA
BRANCH  32  33
ATOM     33  C   UNL A   1      43.247  21.779  26.823  1.00  0.00     0.202 C 
BRANCH  33  34
ATOM     34  C   UNL A   1      44.170  22.964  27.160  1.00  0.00     0.261 C 
BRANCH  34  35
ATOM     35  O   UNL A   1      44.575  23.804  26.063  1.00  0.00    -0.460 OA
BRANCH  35  36
ATOM     36  C   UNL A   1      43.621  24.345  25.277  1.00  0.00     0.338 C 
ATOM     37  O   UNL A   1      43.278  23.969  24.170  1.00  0.00    -0.246 OA
BRANCH  36  38
ATOM     38  C   UNL A   1      42.878  25.337  26.096  1.00  0.00     0.060 A 
ATOM     39  C   UNL A   1      43.540  26.512  26.481  1.00  0.00     0.016 A 
ATOM     40  C   UNL A   1      41.527  25.157  26.415  1.00  0.00     0.016 A 
ATOM     41  C   UNL A   1      42.877  27.474  27.243  1.00  0.00     0.010 A 
ATOM     42  C   UNL A   1      40.867  26.110  27.201  1.00  0.00     0.010 A 
ATOM     43  C   UNL A   1      41.561  27.241  27.667  1.00  0.00    -0.014 A 
BRANCH  43  44
ATOM     44  C   UNL A   1      41.068  27.982  28.854  1.00  0.00     0.031 A 
ATOM     45  C   UNL A   1      41.834  27.794  30.139  1.00  0.00     0.074 A 
ATOM     46  C   UNL A   1      40.041  28.847  28.796  1.00  0.00     0.049 A 
ATOM     47  N   UNL A   1      41.666  28.359  31.306  1.00  0.00    -0.248 NA
ATOM     48  C   UNL A   1      42.950  26.832  30.095  1.00  0.00     0.031 C 
ATOM     49  C   UNL A   1      39.249  29.150  27.607  1.00  0.00     0.029 A 
ATOM     50  N   UNL A   1      39.497  29.642  29.776  1.00  0.00    -0.354 N 
ATOM     51  C   UNL A   1      42.652  27.823  32.125  1.00  0.00     0.074 A 
ATOM     52  C   UNL A   1      43.388  26.860  31.341  1.00  0.00     0.031 C 
ATOM     53  C   UNL A   1      38.319  30.068  27.926  1.00  0.00     0.029 A 
ATOM     54  C   UNL A   1      38.439  30.403  29.346  1.00  0.00     0.049 A 
ATOM     55  H   UNL A   1      39.833  29.662  30.701  1.00  0.00     0.167 HD
ATOM     56  C   UNL A   1      42.932  28.116  33.417  1.00  0.00     0.037 A 
ATOM     57  C   UNL A   1      37.661  31.268  30.028  1.00  0.00     0.037 A 
ATOM     58  C   UNL A   1      42.198  29.069  34.201  1.00  0.00     0.049 A 
ATOM     59  C   UNL A   1      37.951  31.529  31.487  1.00  0.00     0.074 A 
ATOM     60  C   UNL A   1      42.400  29.445  35.515  1.00  0.00     0.029 A 
ATOM     61  N   UNL A   1      41.108  29.793  33.738  1.00  0.00    -0.354 N 
ATOM     62  N   UNL A   1      38.906  31.046  32.246  1.00  0.00    -0.248 NA
ATOM     63  C   UNL A   1      37.060  32.470  32.181  1.00  0.00     0.031 C 
ATOM     64  C   UNL A   1      41.398  30.354  35.866  1.00  0.00     0.029 A 
ATOM     65  C   UNL A   1      40.613  30.596  34.750  1.00  0.00     0.049 A 
ATOM     66  H   UNL A   1      40.742  29.741  32.825  1.00  0.00     0.167 HD
ATOM     67  C   UNL A   1      38.759  31.656  33.486  1.00  0.00     0.074 A 
ATOM     68  C   UNL A   1      37.625  32.551  33.376  1.00  0.00     0.031 C 
ATOM     69  C   UNL A   1      39.497  31.497  34.613  1.00  0.00     0.037 A 
BRANCH  56  70
ATOM     70  C   UNL A   1      44.057  27.361  34.063  1.00  0.00     0.064 A 
ATOM     71  C   UNL A   1      45.372  27.851  34.069  1.00  0.00     0.173 A 
ATOM     72  C   UNL A   1      43.814  26.128  34.685  1.00  0.00     0.173 A 
ATOM     73  F   UNL A   1      45.663  29.015  33.467  1.00  0.00    -0.203 F 
ATOM     74  C   UNL A   1      46.406  27.120  34.648  1.00  0.00     0.198 A 
ATOM     75  C   UNL A   1      44.844  25.415  35.291  1.00  0.00     0.198 A 
ATOM     76  F   UNL A   1      42.576  25.612  34.703  1.00  0.00    -0.203 F 
ATOM     77  F   UNL A   1      47.664  27.579  34.590  1.00  0.00    -0.200 F 
ATOM     78  C   UNL A   1      46.140  25.906  35.264  1.00  0.00     0.200 A 
ATOM     79  F   UNL A   1      44.583  24.247  35.894  1.00  0.00    -0.200 F 
ATOM     80  F   UNL A   1      47.136  25.205  35.824  1.00  0.00    -0.200 F 
ENDBRANCH  56  70
BRANCH  57  81
ATOM     81  C   UNL A   1      36.538  31.968  29.347  1.00  0.00     0.064 A 
ATOM     82  C   UNL A   1      36.587  33.348  29.095  1.00  0.00     0.173 A 
ATOM     83  C   UNL A   1      35.373  31.282  28.973  1.00  0.00     0.173 A 
ATOM     84  F   UNL A   1      37.666  34.056  29.459  1.00  0.00    -0.203 F 
ATOM     85  C   UNL A   1      35.508  34.015  28.519  1.00  0.00     0.198 A 
ATOM     86  C   UNL A   1      34.307  31.946  28.369  1.00  0.00     0.198 A 
ATOM     87  F   UNL A   1      35.270  29.963  29.196  1.00  0.00    -0.203 F 
ATOM     88  F   UNL A   1      35.562  35.343  28.341  1.00  0.00    -0.200 F 
ATOM     89  C   UNL A   1      34.371  33.313  28.152  1.00  0.00     0.200 A 
ATOM     90  F   UNL A   1      33.213  31.261  28.007  1.00  0.00    -0.200 F 
ATOM     91  F   UNL A   1      33.333  33.956  27.599  1.00  0.00    -0.200 F 
ENDBRANCH  57  81
BRANCH  69  92
ATOM     92  C   UNL A   1      39.151  32.357  35.797  1.00  0.00     0.064 A 
ATOM     93  C   UNL A   1      39.615  33.674  35.923  1.00  0.00     0.173 A 
ATOM     94  C   UNL A   1      38.310  31.858  36.805  1.00  0.00     0.173 A 
ATOM     95  F   UNL A   1      40.428  34.196  34.993  1.00  0.00    -0.203 F 
ATOM     96  C   UNL A   1      39.282  34.446  37.033  1.00  0.00     0.198 A 
ATOM     97  C   UNL A   1      37.949  32.647  37.895  1.00  0.00     0.198 A 
ATOM     98  F   UNL A   1      37.826  30.609  36.728  1.00  0.00    -0.203 F 
ATOM     99  F   UNL A   1      39.786  35.682  37.162  1.00  0.00    -0.200 F 
ATOM    100  C   UNL A   1      38.445  33.935  38.014  1.00  0.00     0.200 A 
ATOM    101  F   UNL A   1      37.124  32.157  38.830  1.00  0.00    -0.200 F 
ATOM    102  F   UNL A   1      38.122  34.682  39.078  1.00  0.00    -0.200 F 
ENDBRANCH  69  92
ENDBRANCH  43  44
ENDBRANCH  36  38
ENDBRANCH  35  36
ENDBRANCH  34  35
ENDBRANCH  33  34
ENDBRANCH  32  33
ENDBRANCH  31  32
ENDBRANCH  30  31
ENDBRANCH   1  30
TORSDOF 23
ENDMDL
MODEL 2
REMARK VINA RESULT:     -10.8      5.458     10.798
REMARK SMILES O=C(OCCOCCOCCOCCOC(=O)c1ccc(-c2c3nc(c(-c4c(F)c(F)c(F)c(F)c4F)c4ccc([nH]4)c(-c4c(F)c(F)c(F)c(F)c4F)c4nc(c(-c5c(F)c(F)c(F)c(F)c5F)c5ccc2[nH]5)C=C4)C=C3)cc1)C1=NN(c2ccc([N+](=O)[O-])cc2)[C@H](c2ccccc2)C1
REMARK SMILES IDX 9 1 8 2 7 3 6 4 5 5 4 6 3 7 2 8 1 9 81 10 82 11 100 12 83 13
REMARK SMILES IDX 93 14 84 15 85 16 92 17 86 18 91 19 87 20 88 21 89 22 90 23
REMARK SMILES IDX 94 24 95 25 99 26 96 27 98 28 97 29 10 30 11 31 12 32 13 33
REMARK SMILES IDX 14 34 15 35 16 36 17 37 18 38 19 39 80 40 20 41 79 42 21 43
REMARK SMILES IDX 22 44 23 45 73 46 24 47 78 48 72 49 74 50 25 51 77 52 71 53
REMARK SMILES IDX 70 54 26 56 58 57 38 58 57 59 39 60 42 61 56 62 75 63 40 64
REMARK SMILES IDX 41 65 55 67 76 68 43 69 27 70 28 71 36 72 29 73 30 74 34 75
REMARK SMILES IDX 37 76 31 77 32 78 35 79 33 80 59 81 60 82 68 83 61 84 62 85
REMARK SMILES IDX 66 86 69 87 63 88 64 89 67 90 65 91 44 92 45 93 53 94 46 95
REMARK SMILES IDX 47 96 51 97 54 98 48 99 49 100 52 101 50 102
REMARK H PARENT 74 55 42 66
REMARK Flexibility Score: inf
ROOT
ATOM      1  O   UNL A   1      33.636  30.836  27.041  1.00  0.00    -0.377 OA
ENDROOT
BRANCH   1   2
ATOM      2  C   UNL A   1      33.113  29.532  27.259  1.00  0.00     0.188 C 
BRANCH   2   3
ATOM      3  C   UNL A   1      31.795  29.179  26.572  1.00  0.00     0.188 C 
BRANCH   3   4
ATOM      4  O   UNL A   1      31.714  29.140  25.159  1.00  0.00    -0.376 OA
BRANCH   4   5
ATOM      5  C   UNL A   1      30.634  28.671  24.378  1.00  0.00     0.202 C 
BRANCH   5   6
ATOM      6  C   UNL A   1      30.210  27.206  24.380  1.00  0.00     0.261 C 
BRANCH   6   7
ATOM      7  O   UNL A   1      30.990  26.308  25.169  1.00  0.00    -0.459 OA
BRANCH   7   8
ATOM      8  C   UNL A   1      30.572  25.049  25.375  1.00  0.00     0.354 C 
ATOM      9  O   UNL A   1      29.739  24.757  26.222  1.00  0.00    -0.245 OA
BRANCH   8  10
ATOM     10  C   UNL A   1      31.338  23.929  24.710  1.00  0.00     0.148 C 
ATOM     11  N   UNL A   1      31.734  22.838  25.296  1.00  0.00    -0.169 NA
ATOM     12  C   UNL A   1      31.631  24.011  23.235  1.00  0.00     0.098 C 
ATOM     13  N   UNL A   1      32.265  22.095  24.296  1.00  0.00    -0.257 N 
ATOM     14  C   UNL A   1      32.728  22.939  23.193  1.00  0.00     0.144 C 
BRANCH  13  15
ATOM     15  C   UNL A   1      32.475  20.737  24.438  1.00  0.00     0.061 A 
ATOM     16  C   UNL A   1      32.747  20.177  25.695  1.00  0.00     0.035 A 
ATOM     17  C   UNL A   1      32.423  19.887  23.327  1.00  0.00     0.035 A 
ATOM     18  C   UNL A   1      32.918  18.795  25.851  1.00  0.00     0.088 A 
ATOM     19  C   UNL A   1      32.560  18.504  23.466  1.00  0.00     0.088 A 
ATOM     20  C   UNL A   1      32.799  17.961  24.733  1.00  0.00     0.269 A 
BRANCH  20  21
ATOM     21  N   UNL A   1      32.912  16.506  24.888  1.00  0.00     0.062 N 
ATOM     22  O   UNL A   1      33.191  15.836  23.883  1.00  0.00    -0.258 OA
ATOM     23  O   UNL A   1      32.733  16.033  26.020  1.00  0.00    -0.258 OA
ENDBRANCH  20  21
ENDBRANCH  13  15
BRANCH  14  24
ATOM     24  C   UNL A   1      34.132  23.424  23.582  1.00  0.00    -0.023 A 
ATOM     25  C   UNL A   1      34.363  24.286  24.670  1.00  0.00     0.006 A 
ATOM     26  C   UNL A   1      35.238  22.788  22.995  1.00  0.00     0.006 A 
ATOM     27  C   UNL A   1      35.636  24.417  25.223  1.00  0.00     0.000 A 
ATOM     28  C   UNL A   1      36.511  22.919  23.551  1.00  0.00     0.000 A 
ATOM     29  C   UNL A   1      36.705  23.714  24.678  1.00  0.00     0.000 A 
ENDBRANCH  14  24
ENDBRANCH   8  10
ENDBRANCH   7   8
ENDBRANCH   6   7
ENDBRANCH   5   6
ENDBRANCH   4   5
ENDBRANCH   3   4
ENDBRANCH   2   3
ENDBRANCH   1   2
BRANCH   1  30
ATOM     30  C   UNL A   1      34.681  31.198  27.930  1.00  0.00     0.188 C 
BRANCH  30  31
ATOM     31  C   UNL A   1      34.879  32.723  28.051  1.00  0.00     0.188 C 
BRANCH  31  32
ATOM     32  O   UNL A   1      34.124  33.290  29.115  1.00  0.00    -0.376 OA
BRANCH  32  33
ATOM     33  C   UNL A   1      34.801  34.207  29.965  1.00  0.00     0.202 C 
BRANCH  33  34
ATOM     34  C   UNL A   1      35.134  33.766  31.402  1.00  0.00     0.261 C 
BRANCH  34  35
ATOM     35  O   UNL A   1      36.496  33.384  31.664  1.00  0.00    -0.460 OA
BRANCH  35  36
ATOM     36  C   UNL A   1      36.729  32.248  32.353  1.00  0.00     0.338 C 
ATOM     37  O   UNL A   1      36.078  31.803  33.282  1.00  0.00    -0.246 OA
BRANCH  36  38
ATOM     38  C   UNL A   1      37.777  31.491  31.623  1.00  0.00     0.060 A 
ATOM     39  C   UNL A   1      38.821  30.916  32.364  1.00  0.00     0.016 A 
ATOM     40  C   UNL A   1      37.698  31.277  30.242  1.00  0.00     0.016 A 
ATOM     41  C   UNL A   1      39.822  30.190  31.719  1.00  0.00     0.010 A 
ATOM     42  C   UNL A   1      38.715  30.569  29.590  1.00  0.00     0.010 A 
ATOM     43  C   UNL A   1      39.811  30.077  30.322  1.00  0.00    -0.014 A 
BRANCH  43  44
ATOM     44  C   UNL A   1      41.091  29.773  29.636  1.00  0.00     0.031 A 
ATOM     45  C   UNL A   1      41.256  28.375  29.093  1.00  0.00     0.074 A 
ATOM     46  C   UNL A   1      42.041  30.700  29.425  1.00  0.00     0.049 A 
ATOM     47  N   UNL A   1      42.236  27.854  28.402  1.00  0.00    -0.248 NA
ATOM     48  C   UNL A   1      40.153  27.438  29.369  1.00  0.00     0.031 C 
ATOM     49  C   UNL A   1      41.983  32.092  29.860  1.00  0.00     0.029 A 
ATOM     50  N   UNL A   1      43.246  30.599  28.772  1.00  0.00    -0.354 N 
ATOM     51  C   UNL A   1      41.864  26.537  28.163  1.00  0.00     0.074 A 
ATOM     52  C   UNL A   1      40.593  26.322  28.814  1.00  0.00     0.031 C 
ATOM     53  C   UNL A   1      43.104  32.720  29.459  1.00  0.00     0.029 A 
ATOM     54  C   UNL A   1      43.965  31.768  28.757  1.00  0.00     0.049 A 
ATOM     55  H   UNL A   1      43.564  29.766  28.354  1.00  0.00     0.167 HD
ATOM     56  C   UNL A   1      42.516  25.588  27.451  1.00  0.00     0.037 A 
ATOM     57  C   UNL A   1      45.181  32.029  28.235  1.00  0.00     0.037 A 
ATOM     58  C   UNL A   1      43.783  25.797  26.808  1.00  0.00     0.049 A 
ATOM     59  C   UNL A   1      45.920  30.935  27.501  1.00  0.00     0.074 A 
ATOM     60  C   UNL A   1      44.528  24.907  26.058  1.00  0.00     0.029 A 
ATOM     61  N   UNL A   1      44.497  26.986  26.849  1.00  0.00    -0.354 N 
ATOM     62  N   UNL A   1      45.548  29.703  27.250  1.00  0.00    -0.248 NA
ATOM     63  C   UNL A   1      47.247  31.276  26.968  1.00  0.00     0.031 C 
ATOM     64  C   UNL A   1      45.720  25.538  25.693  1.00  0.00     0.029 A 
ATOM     65  C   UNL A   1      45.686  26.844  26.157  1.00  0.00     0.049 A 
ATOM     66  H   UNL A   1      44.201  27.808  27.304  1.00  0.00     0.167 HD
ATOM     67  C   UNL A   1      46.568  29.139  26.492  1.00  0.00     0.074 A 
ATOM     68  C   UNL A   1      47.574  30.168  26.320  1.00  0.00     0.031 C 
ATOM     69  C   UNL A   1      46.664  27.887  25.978  1.00  0.00     0.037 A 
BRANCH  56  70
ATOM     70  C   UNL A   1      41.880  24.231  27.372  1.00  0.00     0.064 A 
ATOM     71  C   UNL A   1      42.398  23.127  28.066  1.00  0.00     0.173 A 
ATOM     72  C   UNL A   1      40.734  24.034  26.587  1.00  0.00     0.173 A 
ATOM     73  F   UNL A   1      43.506  23.256  28.811  1.00  0.00    -0.203 F 
ATOM     74  C   UNL A   1      41.810  21.870  27.953  1.00  0.00     0.198 A 
ATOM     75  C   UNL A   1      40.130  22.783  26.502  1.00  0.00     0.198 A 
ATOM     76  F   UNL A   1      40.202  25.055  25.899  1.00  0.00    -0.203 F 
ATOM     77  F   UNL A   1      42.356  20.817  28.577  1.00  0.00    -0.200 F 
ATOM     78  C   UNL A   1      40.673  21.700  27.177  1.00  0.00     0.200 A 
ATOM     79  F   UNL A   1      39.026  22.624  25.760  1.00  0.00    -0.200 F 
ATOM     80  F   UNL A   1      40.106  20.491  27.072  1.00  0.00    -0.200 F 
ENDBRANCH  56  70
BRANCH  57  81
ATOM     81  C   UNL A   1      45.781  33.385  28.367  1.00  0.00     0.064 A 
ATOM     82  C   UNL A   1      45.486  34.403  27.449  1.00  0.00     0.173 A 
ATOM     83  C   UNL A   1      46.696  33.679  29.390  1.00  0.00     0.173 A 
ATOM     84  F   UNL A   1      44.640  34.166  26.436  1.00  0.00    -0.203 F 
ATOM     85  C   UNL A   1      46.099  35.651  27.533  1.00  0.00     0.198 A 
ATOM     86  C   UNL A   1      47.285  34.937  29.491  1.00  0.00     0.198 A 
ATOM     87  F   UNL A   1      47.018  32.740  30.292  1.00  0.00    -0.203 F 
ATOM     88  F   UNL A   1      45.840  36.588  26.609  1.00  0.00    -0.200 F 
ATOM     89  C   UNL A   1      46.995  35.919  28.557  1.00  0.00     0.200 A 
ATOM     90  F   UNL A   1      48.143  35.195  30.488  1.00  0.00    -0.200 F 
ATOM     91  F   UNL A   1      47.586  37.120  28.638  1.00  0.00    -0.200 F 
ENDBRANCH  57  81
BRANCH  69  92
ATOM     92  C   UNL A   1      47.861  27.577  25.122  1.00  0.00     0.064 A 
ATOM     93  C   UNL A   1      49.059  27.090  25.665  1.00  0.00     0.173 A 
ATOM     94  C   UNL A   1      47.789  27.740  23.730  1.00  0.00     0.173 A 
ATOM     95  F   UNL A   1      49.183  26.925  26.990  1.00  0.00    -0.203 F 
ATOM     96  C   UNL A   1      50.154  26.816  24.848  1.00  0.00     0.198 A 
ATOM     97  C   UNL A   1      48.874  27.429  22.913  1.00  0.00     0.198 A 
ATOM     98  F   UNL A   1      46.663  28.191  23.156  1.00  0.00    -0.203 F 
ATOM     99  F   UNL A   1      51.308  26.409  25.394  1.00  0.00    -0.200 F 
ATOM    100  C   UNL A   1      50.058  26.979  23.474  1.00  0.00     0.200 A 
ATOM    101  F   UNL A   1      48.772  27.569  21.584  1.00  0.00    -0.200 F 
ATOM    102  F   UNL A   1      51.111  26.709  22.691  1.00  0.00    -0.200 F 
ENDBRANCH  69  92
ENDBRANCH  43  44
ENDBRANCH  36  38
ENDBRANCH  35  36
ENDBRANCH  34  35
ENDBRANCH  33  34
ENDBRANCH  32  33
ENDBRANCH  31  32
ENDBRANCH  30  31
ENDBRANCH   1  30
TORSDOF 23
ENDMDL
MODEL 3
REMARK VINA RESULT:     -10.5      4.362      6.129
REMARK SMILES O=C(OCCOCCOCCOCCOC(=O)c1ccc(-c2c3nc(c(-c4c(F)c(F)c(F)c(F)c4F)c4ccc([nH]4)c(-c4c(F)c(F)c(F)c(F)c4F)c4nc(c(-c5c(F)c(F)c(F)c(F)c5F)c5ccc2[nH]5)C=C4)C=C3)cc1)C1=NN(c2ccc([N+](=O)[O-])cc2)[C@H](c2ccccc2)C1
REMARK SMILES IDX 9 1 8 2 7 3 6 4 5 5 4 6 3 7 2 8 1 9 81 10 82 11 100 12 83 13
REMARK SMILES IDX 93 14 84 15 85 16 92 17 86 18 91 19 87 20 88 21 89 22 90 23
REMARK SMILES IDX 94 24 95 25 99 26 96 27 98 28 97 29 10 30 11 31 12 32 13 33
REMARK SMILES IDX 14 34 15 35 16 36 17 37 18 38 19 39 80 40 20 41 79 42 21 43
REMARK SMILES IDX 22 44 23 45 73 46 24 47 78 48 72 49 74 50 25 51 77 52 71 53
REMARK SMILES IDX 70 54 26 56 58 57 38 58 57 59 39 60 42 61 56 62 75 63 40 64
REMARK SMILES IDX 41 65 55 67 76 68 43 69 27 70 28 71 36 72 29 73 30 74 34 75
REMARK SMILES IDX 37 76 31 77 32 78 35 79 33 80 59 81 60 82 68 83 61 84 62 85
REMARK SMILES IDX 66 86 69 87 63 88 64 89 67 90 65 91 44 92 45 93 53 94 46 95
REMARK SMILES IDX 47 96 51 97 54 98 48 99 49 100 52 101 50 102
REMARK H PARENT 74 55 42 66
REMARK Flexibility Score: inf
ROOT
ATOM      1  O   UNL A   1      43.105  19.502  25.157  1.00  0.00    -0.377 OA
ENDROOT
BRANCH   1   2
ATOM      2  C   UNL A   1      42.458  19.799  26.387  1.00  0.00     0.188 C 
BRANCH   2   3
ATOM      3  C   UNL A   1      41.067  20.427  26.315  1.00  0.00     0.188 C 
BRANCH   3   4
ATOM      4  O   UNL A   1      40.748  21.551  27.116  1.00  0.00    -0.376 OA
BRANCH   4   5
ATOM      5  C   UNL A   1      40.504  22.871  26.675  1.00  0.00     0.202 C 
BRANCH   5   6
ATOM      6  C   UNL A   1      39.376  23.721  27.251  1.00  0.00     0.261 C 
BRANCH   6   7
ATOM      7  O   UNL A   1      38.318  24.080  26.362  1.00  0.00    -0.459 OA
BRANCH   7   8
ATOM      8  C   UNL A   1      37.498  23.137  25.870  1.00  0.00     0.354 C 
ATOM      9  O   UNL A   1      37.755  21.943  25.921  1.00  0.00    -0.245 OA
BRANCH   8  10
ATOM     10  C   UNL A   1      36.342  23.583  25.005  1.00  0.00     0.148 C 
ATOM     11  N   UNL A   1      35.347  24.320  25.400  1.00  0.00    -0.169 NA
ATOM     12  C   UNL A   1      36.335  23.220  23.543  1.00  0.00     0.098 C 
ATOM     13  N   UNL A   1      34.635  24.553  24.272  1.00  0.00    -0.257 N 
ATOM     14  C   UNL A   1      34.850  23.498  23.278  1.00  0.00     0.144 C 
BRANCH  13  15
ATOM     15  C   UNL A   1      33.707  25.574  24.201  1.00  0.00     0.061 A 
ATOM     16  C   UNL A   1      33.497  26.276  23.005  1.00  0.00     0.035 A 
ATOM     17  C   UNL A   1      32.953  25.932  25.325  1.00  0.00     0.035 A 
ATOM     18  C   UNL A   1      32.527  27.284  22.918  1.00  0.00     0.088 A 
ATOM     19  C   UNL A   1      31.961  26.911  25.250  1.00  0.00     0.088 A 
ATOM     20  C   UNL A   1      31.745  27.579  24.040  1.00  0.00     0.269 A 
BRANCH  20  21
ATOM     21  N   UNL A   1      30.681  28.586  23.948  1.00  0.00     0.062 N 
ATOM     22  O   UNL A   1      29.600  28.242  23.448  1.00  0.00    -0.258 OA
ATOM     23  O   UNL A   1      30.923  29.720  24.387  1.00  0.00    -0.258 OA
ENDBRANCH  20  21
ENDBRANCH  13  15
BRANCH  14  24
ATOM     24  C   UNL A   1      33.894  22.355  23.650  1.00  0.00    -0.023 A 
ATOM     25  C   UNL A   1      32.693  22.113  22.957  1.00  0.00     0.006 A 
ATOM     26  C   UNL A   1      34.354  21.371  24.540  1.00  0.00     0.006 A 
ATOM     27  C   UNL A   1      32.039  20.887  23.062  1.00  0.00     0.000 A 
ATOM     28  C   UNL A   1      33.699  20.143  24.642  1.00  0.00     0.000 A 
ATOM     29  C   UNL A   1      32.556  19.894  23.886  1.00  0.00     0.000 A 
ENDBRANCH  14  24
ENDBRANCH   8  10
ENDBRANCH   7   8
ENDBRANCH   6   7
ENDBRANCH   5   6
ENDBRANCH   4   5
ENDBRANCH   3   4
ENDBRANCH   2   3
ENDBRANCH   1   2
BRANCH   1  30
ATOM     30  C   UNL A   1      44.369  18.873  25.304  1.00  0.00     0.188 C 
BRANCH  30  31
ATOM     31  C   UNL A   1      45.485  19.546  24.478  1.00  0.00     0.188 C 
BRANCH  31  32
ATOM     32  O   UNL A   1      46.306  20.404  25.262  1.00  0.00    -0.376 OA
BRANCH  32  33
ATOM     33  C   UNL A   1      45.831  21.726  25.478  1.00  0.00     0.202 C 
BRANCH  33  34
ATOM     34  C   UNL A   1      46.166  22.805  24.431  1.00  0.00     0.261 C 
BRANCH  34  35
ATOM     35  O   UNL A   1      45.300  23.954  24.383  1.00  0.00    -0.460 OA
BRANCH  35  36
ATOM     36  C   UNL A   1      43.995  23.793  24.685  1.00  0.00     0.338 C 
ATOM     37  O   UNL A   1      43.301  22.818  24.454  1.00  0.00    -0.246 OA
BRANCH  36  38
ATOM     38  C   UNL A   1      43.602  24.914  25.575  1.00  0.00     0.060 A 
ATOM     39  C   UNL A   1      43.129  26.097  24.987  1.00  0.00     0.016 A 
ATOM     40  C   UNL A   1      43.618  24.783  26.969  1.00  0.00     0.016 A 
ATOM     41  C   UNL A   1      42.741  27.172  25.787  1.00  0.00     0.010 A 
ATOM     42  C   UNL A   1      43.251  25.869  27.772  1.00  0.00     0.010 A 
ATOM     43  C   UNL A   1      42.871  27.086  27.180  1.00  0.00    -0.014 A 
BRANCH  43  44
ATOM     44  C   UNL A   1      42.953  28.350  27.953  1.00  0.00     0.031 A 
ATOM     45  C   UNL A   1      44.315  28.985  28.075  1.00  0.00     0.074 A 
ATOM     46  C   UNL A   1      41.870  28.963  28.463  1.00  0.00     0.049 A 
ATOM     47  N   UNL A   1      44.668  30.113  28.635  1.00  0.00    -0.248 NA
ATOM     48  C   UNL A   1      45.434  28.240  27.472  1.00  0.00     0.031 C 
ATOM     49  C   UNL A   1      40.496  28.475  28.375  1.00  0.00     0.029 A 
ATOM     50  N   UNL A   1      41.765  30.147  29.151  1.00  0.00    -0.354 N 
ATOM     51  C   UNL A   1      46.042  30.207  28.450  1.00  0.00     0.074 A 
ATOM     52  C   UNL A   1      46.468  29.009  27.765  1.00  0.00     0.031 C 
ATOM     53  C   UNL A   1      39.683  29.356  28.987  1.00  0.00     0.029 A 
ATOM     54  C   UNL A   1      40.481  30.458  29.524  1.00  0.00     0.049 A 
ATOM     55  H   UNL A   1      42.539  30.719  29.359  1.00  0.00     0.167 HD
ATOM     56  C   UNL A   1      46.878  31.209  28.807  1.00  0.00     0.037 A 
ATOM     57  C   UNL A   1      40.014  31.514  30.221  1.00  0.00     0.037 A 
ATOM     58  C   UNL A   1      46.458  32.398  29.494  1.00  0.00     0.049 A 
ATOM     59  C   UNL A   1      40.977  32.588  30.667  1.00  0.00     0.074 A 
ATOM     60  C   UNL A   1      47.221  33.477  29.898  1.00  0.00     0.029 A 
ATOM     61  N   UNL A   1      45.152  32.657  29.887  1.00  0.00    -0.354 N 
ATOM     62  N   UNL A   1      42.269  32.689  30.459  1.00  0.00    -0.248 NA
ATOM     63  C   UNL A   1      40.411  33.707  31.436  1.00  0.00     0.031 C 
ATOM     64  C   UNL A   1      46.388  34.365  30.586  1.00  0.00     0.029 A 
ATOM     65  C   UNL A   1      45.094  33.870  30.550  1.00  0.00     0.049 A 
ATOM     66  H   UNL A   1      44.384  32.066  29.719  1.00  0.00     0.167 HD
ATOM     67  C   UNL A   1      42.658  33.895  31.026  1.00  0.00     0.074 A 
ATOM     68  C   UNL A   1      41.464  34.497  31.583  1.00  0.00     0.031 C 
ATOM     69  C   UNL A   1      43.890  34.462  31.078  1.00  0.00     0.037 A 
BRANCH  56  70
ATOM     70  C   UNL A   1      48.335  31.033  28.491  1.00  0.00     0.064 A 
ATOM     71  C   UNL A   1      49.195  30.309  29.331  1.00  0.00     0.173 A 
ATOM     72  C   UNL A   1      48.878  31.601  27.329  1.00  0.00     0.173 A 
ATOM     73  F   UNL A   1      48.730  29.766  30.467  1.00  0.00    -0.203 F 
ATOM     74  C   UNL A   1      50.549  30.185  29.034  1.00  0.00     0.198 A 
ATOM     75  C   UNL A   1      50.227  31.448  27.019  1.00  0.00     0.198 A 
ATOM     76  F   UNL A   1      48.101  32.308  26.495  1.00  0.00    -0.203 F 
ATOM     77  F   UNL A   1      51.363  29.539  29.881  1.00  0.00    -0.200 F 
ATOM     78  C   UNL A   1      51.062  30.748  27.876  1.00  0.00     0.200 A 
ATOM     79  F   UNL A   1      50.718  31.984  25.894  1.00  0.00    -0.200 F 
ATOM     80  F   UNL A   1      52.366  30.625  27.589  1.00  0.00    -0.200 F 
ENDBRANCH  56  70
BRANCH  57  81
ATOM     81  C   UNL A   1      38.564  31.626  30.535  1.00  0.00     0.064 A 
ATOM     82  C   UNL A   1      37.673  32.247  29.646  1.00  0.00     0.173 A 
ATOM     83  C   UNL A   1      38.043  31.153  31.749  1.00  0.00     0.173 A 
ATOM     84  F   UNL A   1      38.125  32.741  28.484  1.00  0.00    -0.203 F 
ATOM     85  C   UNL A   1      36.328  32.412  29.969  1.00  0.00     0.198 A 
ATOM     86  C   UNL A   1      36.692  31.292  32.057  1.00  0.00     0.198 A 
ATOM     87  F   UNL A   1      38.851  30.556  32.638  1.00  0.00    -0.203 F 
ATOM     88  F   UNL A   1      35.513  33.058  29.124  1.00  0.00    -0.200 F 
ATOM     89  C   UNL A   1      35.837  31.930  31.172  1.00  0.00     0.200 A 
ATOM     90  F   UNL A   1      36.219  30.815  33.218  1.00  0.00    -0.200 F 
ATOM     91  F   UNL A   1      34.543  32.089  31.483  1.00  0.00    -0.200 F 
ENDBRANCH  57  81
BRANCH  69  92
ATOM     92  C   UNL A   1      44.002  35.828  31.695  1.00  0.00     0.064 A 
ATOM     93  C   UNL A   1      44.257  36.011  33.062  1.00  0.00     0.173 A 
ATOM     94  C   UNL A   1      43.884  36.973  30.891  1.00  0.00     0.173 A 
ATOM     95  F   UNL A   1      44.370  34.950  33.875  1.00  0.00    -0.203 F 
ATOM     96  C   UNL A   1      44.352  37.289  33.607  1.00  0.00     0.198 A 
ATOM     97  C   UNL A   1      44.016  38.249  31.434  1.00  0.00     0.198 A 
ATOM     98  F   UNL A   1      43.652  36.857  29.574  1.00  0.00    -0.203 F 
ATOM     99  F   UNL A   1      44.536  37.439  34.926  1.00  0.00    -0.200 F 
ATOM    100  C   UNL A   1      44.238  38.406  32.792  1.00  0.00     0.200 A 
ATOM    101  F   UNL A   1      43.925  39.325  30.641  1.00  0.00    -0.200 F 
ATOM    102  F   UNL A   1      44.334  39.633  33.319  1.00  0.00    -0.200 F 
ENDBRANCH  69  92
ENDBRANCH  43  44
ENDBRANCH  36  38
ENDBRANCH  35  36
ENDBRANCH  34  35
ENDBRANCH  33  34
ENDBRANCH  32  33
ENDBRANCH  31  32
ENDBRANCH  30  31
ENDBRANCH   1  30
TORSDOF 23
ENDMDL
