MODEL 1
REMARK VINA RESULT:      -9.8      0.000      0.000
REMARK SMILES C[NH+]1CCC2(CC1)OC[C@H](C(=O)OCCOCCOCCOCCOC(=O)c1ccc(-c3c4nc(c(-c5c(F)c(F)c(F)c(F)c5F)c5ccc([nH]5)c(-c5c(F)c(F)c(F)c(F)c5F)c5nc(c(-c6c(F)c(F)c(F)c(F)c6F)c6ccc3[nH]6)C=C5)C=C4)cc1)N2C(=O)c1cc(C(F)(F)F)cc(C(F)(F)F)c1
REMARK SMILES IDX 18 1 17 2 16 3 15 4 14 5 13 6 11 7 12 8 10 9 1 10 2 11 3 12
REMARK SMILES IDX 7 13 4 15 6 16 5 17 8 18 91 19 9 20 92 21 93 22 94 23 95 24
REMARK SMILES IDX 107 25 96 26 102 27 101 28 97 29 98 30 99 31 100 32 103 33
REMARK SMILES IDX 104 34 105 35 106 36 19 37 20 38 21 39 22 40 23 41 24 42
REMARK SMILES IDX 25 43 26 44 27 45 28 46 29 47 90 48 30 49 89 50 31 51 32 52
REMARK SMILES IDX 33 53 83 54 34 55 88 56 82 57 84 58 35 59 87 60 81 61 80 62
REMARK SMILES IDX 36 64 68 65 48 66 67 67 49 68 52 69 66 70 85 71 50 72 51 73
REMARK SMILES IDX 65 75 86 76 53 77 37 78 38 79 46 80 39 81 40 82 44 83 47 84
REMARK SMILES IDX 41 85 42 86 45 87 43 88 69 89 70 90 78 91 71 92 72 93 76 94
REMARK SMILES IDX 79 95 73 96 74 97 77 98 75 99 54 100 55 101 63 102 56 103
REMARK SMILES IDX 57 104 61 105 64 106 58 107 59 108 62 109 60 110
REMARK H PARENT 2 14 84 63 52 74
REMARK Flexibility Score: inf
ROOT
ATOM      1  C   UNL A   1      35.088  34.059  28.111  1.00  0.00     0.188 C 
ENDROOT
BRANCH   1   2
ATOM      2  C   UNL A   1      33.984  32.993  28.167  1.00  0.00     0.188 C 
BRANCH   2   3
ATOM      3  O   UNL A   1      34.077  31.904  29.074  1.00  0.00    -0.376 OA
BRANCH   3   4
ATOM      4  C   UNL A   1      35.079  30.902  28.937  1.00  0.00     0.202 C 
BRANCH   4   5
ATOM      5  C   UNL A   1      35.344  30.199  27.600  1.00  0.00     0.261 C 
BRANCH   5   6
ATOM      6  O   UNL A   1      34.291  29.310  27.211  1.00  0.00    -0.462 OA
BRANCH   6   7
ATOM      7  C   UNL A   1      33.664  29.592  26.049  1.00  0.00     0.331 C 
ATOM      8  O   UNL A   1      34.251  29.707  24.978  1.00  0.00    -0.250 OA
BRANCH   7   9
ATOM      9  C   UNL A   1      32.134  29.730  26.203  1.00  0.00     0.224 C 
ATOM     10  C   UNL A   1      31.435  26.260  21.208  1.00  0.00     0.332 C 
ATOM     11  N   UNL A   1      31.655  26.192  22.647  1.00  0.00    -0.337 N 
ATOM     12  C   UNL A   1      32.759  27.056  23.059  1.00  0.00     0.267 C 
ATOM     13  C   UNL A   1      30.398  26.340  23.390  1.00  0.00     0.267 C 
ATOM     14  H   UNL A   1      31.974  25.255  22.899  1.00  0.00     0.347 HD
ATOM     15  C   UNL A   1      32.347  28.471  23.356  1.00  0.00     0.120 C 
ATOM     16  C   UNL A   1      30.027  27.727  23.891  1.00  0.00     0.120 C 
ATOM     17  C   UNL A   1      31.213  28.537  24.390  1.00  0.00     0.155 C 
ATOM     18  O   UNL A   1      30.761  29.916  24.274  1.00  0.00    -0.352 OA
ATOM     19  N   UNL A   1      31.597  28.448  25.816  1.00  0.00    -0.293 N 
ATOM     20  C   UNL A   1      31.361  30.684  25.322  1.00  0.00     0.200 C 
BRANCH  19  21
ATOM     21  C   UNL A   1      31.605  27.500  26.831  1.00  0.00     0.256 C 
ATOM     22  O   UNL A   1      31.401  27.789  28.011  1.00  0.00    -0.269 OA
BRANCH  21  23
ATOM     23  C   UNL A   1      31.865  26.090  26.576  1.00  0.00     0.041 A 
ATOM     24  C   UNL A   1      30.869  25.158  26.855  1.00  0.00     0.027 A 
ATOM     25  C   UNL A   1      33.119  25.681  26.131  1.00  0.00     0.027 A 
ATOM     26  C   UNL A   1      31.073  23.810  26.537  1.00  0.00     0.057 A 
ATOM     27  C   UNL A   1      33.296  24.373  25.669  1.00  0.00     0.057 A 
ATOM     28  C   UNL A   1      32.271  23.436  25.896  1.00  0.00     0.026 A 
BRANCH  26  29
ATOM     29  C   UNL A   1      29.999  22.803  26.860  1.00  0.00     0.416 C 
ATOM     30  F   UNL A   1      29.953  21.789  25.956  1.00  0.00    -0.166 F 
ATOM     31  F   UNL A   1      30.187  22.219  28.075  1.00  0.00    -0.166 F 
ATOM     32  F   UNL A   1      28.748  23.339  26.891  1.00  0.00    -0.166 F 
ENDBRANCH  26  29
BRANCH  27  33
ATOM     33  C   UNL A   1      34.499  24.010  24.825  1.00  0.00     0.416 C 
ATOM     34  F   UNL A   1      35.588  24.773  25.112  1.00  0.00    -0.166 F 
ATOM     35  F   UNL A   1      34.891  22.719  25.020  1.00  0.00    -0.166 F 
ATOM     36  F   UNL A   1      34.290  24.140  23.485  1.00  0.00    -0.166 F 
ENDBRANCH  27  33
ENDBRANCH  21  23
ENDBRANCH  19  21
ENDBRANCH   7   9
ENDBRANCH   6   7
ENDBRANCH   5   6
ENDBRANCH   4   5
ENDBRANCH   3   4
ENDBRANCH   2   3
ENDBRANCH   1   2
BRANCH   1  37
ATOM     37  O   UNL A   1      34.951  35.112  29.044  1.00  0.00    -0.377 OA
BRANCH  37  38
ATOM     38  C   UNL A   1      33.646  35.530  29.409  1.00  0.00     0.188 C 
BRANCH  38  39
ATOM     39  C   UNL A   1      33.180  35.345  30.863  1.00  0.00     0.188 C 
BRANCH  39  40
ATOM     40  O   UNL A   1      33.951  36.051  31.820  1.00  0.00    -0.376 OA
BRANCH  40  41
ATOM     41  C   UNL A   1      34.535  35.360  32.914  1.00  0.00     0.202 C 
BRANCH  41  42
ATOM     42  C   UNL A   1      36.018  34.953  32.861  1.00  0.00     0.261 C 
BRANCH  42  43
ATOM     43  O   UNL A   1      36.357  33.735  32.181  1.00  0.00    -0.460 OA
BRANCH  43  44
ATOM     44  C   UNL A   1      36.758  32.671  32.902  1.00  0.00     0.338 C 
ATOM     45  O   UNL A   1      36.310  32.286  33.970  1.00  0.00    -0.246 OA
BRANCH  44  46
ATOM     46  C   UNL A   1      37.732  31.921  32.081  1.00  0.00     0.060 A 
ATOM     47  C   UNL A   1      38.725  31.154  32.712  1.00  0.00     0.016 A 
ATOM     48  C   UNL A   1      37.667  31.982  30.689  1.00  0.00     0.016 A 
ATOM     49  C   UNL A   1      39.688  30.490  31.949  1.00  0.00     0.010 A 
ATOM     50  C   UNL A   1      38.644  31.337  29.927  1.00  0.00     0.010 A 
ATOM     51  C   UNL A   1      39.683  30.626  30.555  1.00  0.00    -0.014 A 
BRANCH  51  52
ATOM     52  C   UNL A   1      40.877  30.259  29.755  1.00  0.00     0.031 A 
ATOM     53  C   UNL A   1      40.909  28.882  29.147  1.00  0.00     0.074 A 
ATOM     54  C   UNL A   1      41.913  31.098  29.589  1.00  0.00     0.049 A 
ATOM     55  N   UNL A   1      41.893  28.246  28.567  1.00  0.00    -0.248 NA
ATOM     56  C   UNL A   1      39.654  28.112  29.217  1.00  0.00     0.031 C 
ATOM     57  C   UNL A   1      41.976  32.476  30.066  1.00  0.00     0.029 A 
ATOM     58  N   UNL A   1      43.132  30.894  28.986  1.00  0.00    -0.354 N 
ATOM     59  C   UNL A   1      41.381  27.004  28.215  1.00  0.00     0.074 A 
ATOM     60  C   UNL A   1      40.011  26.959  28.674  1.00  0.00     0.031 C 
ATOM     61  C   UNL A   1      43.183  32.988  29.763  1.00  0.00     0.029 A 
ATOM     62  C   UNL A   1      43.992  31.957  29.114  1.00  0.00     0.049 A 
ATOM     63  H   UNL A   1      43.364  30.065  28.508  1.00  0.00     0.167 HD
ATOM     64  C   UNL A   1      41.998  25.992  27.563  1.00  0.00     0.037 A 
ATOM     65  C   UNL A   1      45.295  32.062  28.781  1.00  0.00     0.037 A 
ATOM     66  C   UNL A   1      43.363  26.039  27.115  1.00  0.00     0.049 A 
ATOM     67  C   UNL A   1      45.993  30.876  28.152  1.00  0.00     0.074 A 
ATOM     68  C   UNL A   1      44.091  25.061  26.462  1.00  0.00     0.029 A 
ATOM     69  N   UNL A   1      44.205  27.128  27.276  1.00  0.00    -0.354 N 
ATOM     70  N   UNL A   1      45.509  29.701  27.828  1.00  0.00    -0.248 NA
ATOM     71  C   UNL A   1      47.424  31.033  27.843  1.00  0.00     0.031 C 
ATOM     72  C   UNL A   1      45.391  25.540  26.273  1.00  0.00     0.029 A 
ATOM     73  C   UNL A   1      45.451  26.841  26.744  1.00  0.00     0.049 A 
ATOM     74  H   UNL A   1      43.956  27.979  27.706  1.00  0.00     0.167 HD
ATOM     75  C   UNL A   1      46.554  29.006  27.228  1.00  0.00     0.074 A 
ATOM     76  C   UNL A   1      47.701  29.889  27.236  1.00  0.00     0.031 C 
ATOM     77  C   UNL A   1      46.564  27.752  26.715  1.00  0.00     0.037 A 
BRANCH  64  78
ATOM     78  C   UNL A   1      41.211  24.741  27.307  1.00  0.00     0.064 A 
ATOM     79  C   UNL A   1      41.498  23.543  27.978  1.00  0.00     0.173 A 
ATOM     80  C   UNL A   1      40.124  24.753  26.421  1.00  0.00     0.173 A 
ATOM     81  F   UNL A   1      42.538  23.473  28.822  1.00  0.00    -0.203 F 
ATOM     82  C   UNL A   1      40.734  22.399  27.759  1.00  0.00     0.198 A 
ATOM     83  C   UNL A   1      39.342  23.617  26.229  1.00  0.00     0.198 A 
ATOM     84  F   UNL A   1      39.806  25.874  25.754  1.00  0.00    -0.203 F 
ATOM     85  F   UNL A   1      41.052  21.255  28.380  1.00  0.00    -0.200 F 
ATOM     86  C   UNL A   1      39.651  22.440  26.894  1.00  0.00     0.200 A 
ATOM     87  F   UNL A   1      38.288  23.664  25.403  1.00  0.00    -0.200 F 
ATOM     88  F   UNL A   1      38.907  21.343  26.697  1.00  0.00    -0.200 F 
ENDBRANCH  64  78
BRANCH  65  89
ATOM     89  C   UNL A   1      46.054  33.313  29.055  1.00  0.00     0.064 A 
ATOM     90  C   UNL A   1      46.111  34.344  28.105  1.00  0.00     0.173 A 
ATOM     91  C   UNL A   1      46.797  33.477  30.234  1.00  0.00     0.173 A 
ATOM     92  F   UNL A   1      45.440  34.227  26.950  1.00  0.00    -0.203 F 
ATOM     93  C   UNL A   1      46.915  35.466  28.304  1.00  0.00     0.198 A 
ATOM     94  C   UNL A   1      47.569  34.617  30.449  1.00  0.00     0.198 A 
ATOM     95  F   UNL A   1      46.781  32.524  31.178  1.00  0.00    -0.203 F 
ATOM     96  F   UNL A   1      47.010  36.397  27.344  1.00  0.00    -0.200 F 
ATOM     97  C   UNL A   1      47.640  35.603  29.477  1.00  0.00     0.200 A 
ATOM     98  F   UNL A   1      48.258  34.751  31.589  1.00  0.00    -0.200 F 
ATOM     99  F   UNL A   1      48.421  36.676  29.662  1.00  0.00    -0.200 F 
ENDBRANCH  65  89
BRANCH  77 100
ATOM    100  C   UNL A   1      47.815  27.284  26.024  1.00  0.00     0.064 A 
ATOM    101  C   UNL A   1      48.034  27.489  24.655  1.00  0.00     0.173 A 
ATOM    102  C   UNL A   1      48.844  26.687  26.773  1.00  0.00     0.173 A 
ATOM    103  F   UNL A   1      47.080  28.045  23.894  1.00  0.00    -0.203 F 
ATOM    104  C   UNL A   1      49.229  27.096  24.057  1.00  0.00     0.198 A 
ATOM    105  C   UNL A   1      50.048  26.328  26.177  1.00  0.00     0.198 A 
ATOM    106  F   UNL A   1      48.689  26.478  28.088  1.00  0.00    -0.203 F 
ATOM    107  F   UNL A   1      49.402  27.263  22.738  1.00  0.00    -0.200 F 
ATOM    108  C   UNL A   1      50.239  26.527  24.819  1.00  0.00     0.200 A 
ATOM    109  F   UNL A   1      51.029  25.797  26.921  1.00  0.00    -0.200 F 
ATOM    110  F   UNL A   1      51.394  26.167  24.243  1.00  0.00    -0.200 F 
ENDBRANCH  77 100
ENDBRANCH  51  52
ENDBRANCH  44  46
ENDBRANCH  43  44
ENDBRANCH  42  43
ENDBRANCH  41  42
ENDBRANCH  40  41
ENDBRANCH  39  40
ENDBRANCH  38  39
ENDBRANCH  37  38
ENDBRANCH   1  37
TORSDOF 24
ENDMDL
MODEL 2
REMARK VINA RESULT:      -9.8      4.566     10.646
REMARK SMILES C[NH+]1CCC2(CC1)OC[C@H](C(=O)OCCOCCOCCOCCOC(=O)c1ccc(-c3c4nc(c(-c5c(F)c(F)c(F)c(F)c5F)c5ccc([nH]5)c(-c5c(F)c(F)c(F)c(F)c5F)c5nc(c(-c6c(F)c(F)c(F)c(F)c6F)c6ccc3[nH]6)C=C5)C=C4)cc1)N2C(=O)c1cc(C(F)(F)F)cc(C(F)(F)F)c1
REMARK SMILES IDX 18 1 17 2 16 3 15 4 14 5 13 6 11 7 12 8 10 9 1 10 2 11 3 12
REMARK SMILES IDX 7 13 4 15 6 16 5 17 8 18 91 19 9 20 92 21 93 22 94 23 95 24
REMARK SMILES IDX 107 25 96 26 102 27 101 28 97 29 98 30 99 31 100 32 103 33
REMARK SMILES IDX 104 34 105 35 106 36 19 37 20 38 21 39 22 40 23 41 24 42
REMARK SMILES IDX 25 43 26 44 27 45 28 46 29 47 90 48 30 49 89 50 31 51 32 52
REMARK SMILES IDX 33 53 83 54 34 55 88 56 82 57 84 58 35 59 87 60 81 61 80 62
REMARK SMILES IDX 36 64 68 65 48 66 67 67 49 68 52 69 66 70 85 71 50 72 51 73
REMARK SMILES IDX 65 75 86 76 53 77 37 78 38 79 46 80 39 81 40 82 44 83 47 84
REMARK SMILES IDX 41 85 42 86 45 87 43 88 69 89 70 90 78 91 71 92 72 93 76 94
REMARK SMILES IDX 79 95 73 96 74 97 77 98 75 99 54 100 55 101 63 102 56 103
REMARK SMILES IDX 57 104 61 105 64 106 58 107 59 108 62 109 60 110
REMARK H PARENT 2 14 84 63 52 74
REMARK Flexibility Score: inf
ROOT
ATOM      1  C   UNL A   1      40.875  20.602  27.351  1.00  0.00     0.188 C 
ENDROOT
BRANCH   1   2
ATOM      2  C   UNL A   1      40.156  21.952  27.202  1.00  0.00     0.188 C 
BRANCH   2   3
ATOM      3  O   UNL A   1      39.511  22.296  25.985  1.00  0.00    -0.376 OA
BRANCH   3   4
ATOM      4  C   UNL A   1      38.104  22.508  25.919  1.00  0.00     0.202 C 
BRANCH   4   5
ATOM      5  C   UNL A   1      37.507  23.816  25.387  1.00  0.00     0.261 C 
BRANCH   5   6
ATOM      6  O   UNL A   1      36.124  23.704  25.033  1.00  0.00    -0.462 OA
BRANCH   6   7
ATOM      7  C   UNL A   1      35.846  23.625  23.714  1.00  0.00     0.331 C 
ATOM      8  O   UNL A   1      36.673  23.291  22.871  1.00  0.00    -0.250 OA
BRANCH   7   9
ATOM      9  C   UNL A   1      34.378  23.969  23.380  1.00  0.00     0.224 C 
ATOM     10  C   UNL A   1      32.712  18.506  25.583  1.00  0.00     0.332 C 
ATOM     11  N   UNL A   1      33.027  19.872  25.983  1.00  0.00    -0.337 N 
ATOM     12  C   UNL A   1      34.291  20.319  25.402  1.00  0.00     0.267 C 
ATOM     13  C   UNL A   1      31.876  20.764  25.803  1.00  0.00     0.267 C 
ATOM     14  H   UNL A   1      33.198  19.901  26.989  1.00  0.00     0.347 HD
ATOM     15  C   UNL A   1      34.153  20.927  24.035  1.00  0.00     0.120 C 
ATOM     16  C   UNL A   1      31.788  21.561  24.511  1.00  0.00     0.120 C 
ATOM     17  C   UNL A   1      33.130  22.073  24.014  1.00  0.00     0.155 C 
ATOM     18  O   UNL A   1      32.914  22.276  22.588  1.00  0.00    -0.352 OA
ATOM     19  N   UNL A   1      33.602  23.404  24.456  1.00  0.00    -0.293 N 
ATOM     20  C   UNL A   1      33.715  23.380  22.157  1.00  0.00     0.200 C 
BRANCH  19  21
ATOM     21  C   UNL A   1      33.525  24.209  25.584  1.00  0.00     0.256 C 
ATOM     22  O   UNL A   1      33.911  23.837  26.694  1.00  0.00    -0.269 OA
BRANCH  21  23
ATOM     23  C   UNL A   1      32.973  25.556  25.542  1.00  0.00     0.041 A 
ATOM     24  C   UNL A   1      33.697  26.602  26.110  1.00  0.00     0.027 A 
ATOM     25  C   UNL A   1      31.707  25.775  25.007  1.00  0.00     0.027 A 
ATOM     26  C   UNL A   1      33.219  27.913  26.003  1.00  0.00     0.057 A 
ATOM     27  C   UNL A   1      31.278  27.082  24.756  1.00  0.00     0.057 A 
ATOM     28  C   UNL A   1      32.034  28.148  25.278  1.00  0.00     0.026 A 
BRANCH  26  29
ATOM     29  C   UNL A   1      33.997  29.037  26.638  1.00  0.00     0.416 C 
ATOM     30  F   UNL A   1      35.319  28.992  26.324  1.00  0.00    -0.166 F 
ATOM     31  F   UNL A   1      33.555  30.261  26.238  1.00  0.00    -0.166 F 
ATOM     32  F   UNL A   1      33.931  29.039  27.997  1.00  0.00    -0.166 F 
ENDBRANCH  26  29
BRANCH  27  33
ATOM     33  C   UNL A   1      30.110  27.346  23.831  1.00  0.00     0.416 C 
ATOM     34  F   UNL A   1      28.981  26.692  24.215  1.00  0.00    -0.166 F 
ATOM     35  F   UNL A   1      29.776  28.666  23.791  1.00  0.00    -0.166 F 
ATOM     36  F   UNL A   1      30.338  26.978  22.539  1.00  0.00    -0.166 F 
ENDBRANCH  27  33
ENDBRANCH  21  23
ENDBRANCH  19  21
ENDBRANCH   7   9
ENDBRANCH   6   7
ENDBRANCH   5   6
ENDBRANCH   4   5
ENDBRANCH   3   4
ENDBRANCH   2   3
ENDBRANCH   1   2
BRANCH   1  37
ATOM     37  O   UNL A   1      41.082  19.899  26.144  1.00  0.00    -0.377 OA
BRANCH  37  38
ATOM     38  C   UNL A   1      42.319  19.232  25.950  1.00  0.00     0.188 C 
BRANCH  38  39
ATOM     39  C   UNL A   1      43.603  20.066  25.798  1.00  0.00     0.188 C 
BRANCH  39  40
ATOM     40  O   UNL A   1      43.984  20.315  24.455  1.00  0.00    -0.376 OA
BRANCH  40  41
ATOM     41  C   UNL A   1      45.027  21.235  24.171  1.00  0.00     0.202 C 
BRANCH  41  42
ATOM     42  C   UNL A   1      44.688  22.688  23.792  1.00  0.00     0.261 C 
BRANCH  42  43
ATOM     43  O   UNL A   1      44.799  23.692  24.813  1.00  0.00    -0.460 OA
BRANCH  43  44
ATOM     44  C   UNL A   1      43.682  24.144  25.412  1.00  0.00     0.338 C 
ATOM     45  O   UNL A   1      42.659  23.520  25.645  1.00  0.00    -0.246 OA
BRANCH  44  46
ATOM     46  C   UNL A   1      43.968  25.504  25.915  1.00  0.00     0.060 A 
ATOM     47  C   UNL A   1      44.534  25.668  27.189  1.00  0.00     0.016 A 
ATOM     48  C   UNL A   1      43.670  26.618  25.128  1.00  0.00     0.016 A 
ATOM     49  C   UNL A   1      44.754  26.949  27.700  1.00  0.00     0.010 A 
ATOM     50  C   UNL A   1      43.867  27.898  25.649  1.00  0.00     0.010 A 
ATOM     51  C   UNL A   1      44.368  28.068  26.953  1.00  0.00    -0.014 A 
BRANCH  51  52
ATOM     52  C   UNL A   1      44.236  29.398  27.597  1.00  0.00     0.031 A 
ATOM     53  C   UNL A   1      45.418  30.327  27.520  1.00  0.00     0.074 A 
ATOM     54  C   UNL A   1      43.123  29.770  28.252  1.00  0.00     0.049 A 
ATOM     55  N   UNL A   1      45.638  31.456  28.142  1.00  0.00    -0.248 NA
ATOM     56  C   UNL A   1      46.511  29.914  26.621  1.00  0.00     0.031 C 
ATOM     57  C   UNL A   1      41.890  28.993  28.340  1.00  0.00     0.029 A 
ATOM     58  N   UNL A   1      42.865  30.898  28.993  1.00  0.00    -0.354 N 
ATOM     59  C   UNL A   1      46.892  31.878  27.721  1.00  0.00     0.074 A 
ATOM     60  C   UNL A   1      47.402  30.874  26.816  1.00  0.00     0.031 C 
ATOM     61  C   UNL A   1      41.013  29.656  29.118  1.00  0.00     0.029 A 
ATOM     62  C   UNL A   1      41.643  30.876  29.619  1.00  0.00     0.049 A 
ATOM     63  H   UNL A   1      43.497  31.650  29.068  1.00  0.00     0.167 HD
ATOM     64  C   UNL A   1      47.557  33.008  28.056  1.00  0.00     0.037 A 
ATOM     65  C   UNL A   1      41.118  31.727  30.525  1.00  0.00     0.037 A 
ATOM     66  C   UNL A   1      47.049  34.001  28.963  1.00  0.00     0.049 A 
ATOM     67  C   UNL A   1      41.928  32.926  30.966  1.00  0.00     0.074 A 
ATOM     68  C   UNL A   1      47.650  35.172  29.386  1.00  0.00     0.029 A 
ATOM     69  N   UNL A   1      45.812  33.935  29.587  1.00  0.00    -0.354 N 
ATOM     70  N   UNL A   1      43.115  33.319  30.572  1.00  0.00    -0.248 NA
ATOM     71  C   UNL A   1      41.322  33.800  31.983  1.00  0.00     0.031 C 
ATOM     72  C   UNL A   1      46.799  35.791  30.305  1.00  0.00     0.029 A 
ATOM     73  C   UNL A   1      45.638  35.041  30.400  1.00  0.00     0.049 A 
ATOM     74  H   UNL A   1      45.156  33.210  29.469  1.00  0.00     0.167 HD
ATOM     75  C   UNL A   1      43.370  34.509  31.246  1.00  0.00     0.074 A 
ATOM     76  C   UNL A   1      42.216  34.774  32.077  1.00  0.00     0.031 C 
ATOM     77  C   UNL A   1      44.459  35.313  31.180  1.00  0.00     0.037 A 
BRANCH  64  78
ATOM     78  C   UNL A   1      48.914  33.226  27.455  1.00  0.00     0.064 A 
ATOM     79  C   UNL A   1      49.074  33.867  26.217  1.00  0.00     0.173 A 
ATOM     80  C   UNL A   1      50.070  32.837  28.147  1.00  0.00     0.173 A 
ATOM     81  F   UNL A   1      48.000  34.242  25.507  1.00  0.00    -0.203 F 
ATOM     82  C   UNL A   1      50.342  34.097  25.688  1.00  0.00     0.198 A 
ATOM     83  C   UNL A   1      51.336  33.098  27.631  1.00  0.00     0.198 A 
ATOM     84  F   UNL A   1      49.973  32.220  29.335  1.00  0.00    -0.203 F 
ATOM     85  F   UNL A   1      50.469  34.675  24.486  1.00  0.00    -0.200 F 
ATOM     86  C   UNL A   1      51.471  33.722  26.400  1.00  0.00     0.200 A 
ATOM     87  F   UNL A   1      52.426  32.747  28.328  1.00  0.00    -0.200 F 
ATOM     88  F   UNL A   1      52.691  33.959  25.898  1.00  0.00    -0.200 F 
ENDBRANCH  64  78
BRANCH  65  89
ATOM     89  C   UNL A   1      39.772  31.480  31.111  1.00  0.00     0.064 A 
ATOM     90  C   UNL A   1      38.619  32.028  30.527  1.00  0.00     0.173 A 
ATOM     91  C   UNL A   1      39.613  30.760  32.304  1.00  0.00     0.173 A 
ATOM     92  F   UNL A   1      38.718  32.747  29.399  1.00  0.00    -0.203 F 
ATOM     93  C   UNL A   1      37.371  31.901  31.135  1.00  0.00     0.198 A 
ATOM     94  C   UNL A   1      38.359  30.601  32.891  1.00  0.00     0.198 A 
ATOM     95  F   UNL A   1      40.680  30.216  32.909  1.00  0.00    -0.203 F 
ATOM     96  F   UNL A   1      36.302  32.501  30.594  1.00  0.00    -0.200 F 
ATOM     97  C   UNL A   1      37.242  31.185  32.315  1.00  0.00     0.200 A 
ATOM     98  F   UNL A   1      38.237  29.897  34.024  1.00  0.00    -0.200 F 
ATOM     99  F   UNL A   1      36.044  31.074  32.905  1.00  0.00    -0.200 F 
ENDBRANCH  65  89
BRANCH  77 100
ATOM    100  C   UNL A   1      44.426  36.607  31.944  1.00  0.00     0.064 A 
ATOM    101  C   UNL A   1      43.933  37.793  31.383  1.00  0.00     0.173 A 
ATOM    102  C   UNL A   1      44.827  36.634  33.291  1.00  0.00     0.173 A 
ATOM    103  F   UNL A   1      43.547  37.824  30.100  1.00  0.00    -0.203 F 
ATOM    104  C   UNL A   1      43.861  38.963  32.136  1.00  0.00     0.198 A 
ATOM    105  C   UNL A   1      44.721  37.795  34.048  1.00  0.00     0.198 A 
ATOM    106  F   UNL A   1      45.298  35.523  33.878  1.00  0.00    -0.203 F 
ATOM    107  F   UNL A   1      43.425  40.096  31.569  1.00  0.00    -0.200 F 
ATOM    108  C   UNL A   1      44.244  38.960  33.470  1.00  0.00     0.200 A 
ATOM    109  F   UNL A   1      45.073  37.784  35.342  1.00  0.00    -0.200 F 
ATOM    110  F   UNL A   1      44.156  40.083  34.197  1.00  0.00    -0.200 F 
ENDBRANCH  77 100
ENDBRANCH  51  52
ENDBRANCH  44  46
ENDBRANCH  43  44
ENDBRANCH  42  43
ENDBRANCH  41  42
ENDBRANCH  40  41
ENDBRANCH  39  40
ENDBRANCH  38  39
ENDBRANCH  37  38
ENDBRANCH   1  37
TORSDOF 24
ENDMDL
MODEL 3
REMARK VINA RESULT:      -9.6      5.042     10.189
REMARK SMILES C[NH+]1CCC2(CC1)OC[C@H](C(=O)OCCOCCOCCOCCOC(=O)c1ccc(-c3c4nc(c(-c5c(F)c(F)c(F)c(F)c5F)c5ccc([nH]5)c(-c5c(F)c(F)c(F)c(F)c5F)c5nc(c(-c6c(F)c(F)c(F)c(F)c6F)c6ccc3[nH]6)C=C5)C=C4)cc1)N2C(=O)c1cc(C(F)(F)F)cc(C(F)(F)F)c1
REMARK SMILES IDX 18 1 17 2 16 3 15 4 14 5 13 6 11 7 12 8 10 9 1 10 2 11 3 12
REMARK SMILES IDX 7 13 4 15 6 16 5 17 8 18 91 19 9 20 92 21 93 22 94 23 95 24
REMARK SMILES IDX 107 25 96 26 102 27 101 28 97 29 98 30 99 31 100 32 103 33
REMARK SMILES IDX 104 34 105 35 106 36 19 37 20 38 21 39 22 40 23 41 24 42
REMARK SMILES IDX 25 43 26 44 27 45 28 46 29 47 90 48 30 49 89 50 31 51 32 52
REMARK SMILES IDX 33 53 83 54 34 55 88 56 82 57 84 58 35 59 87 60 81 61 80 62
REMARK SMILES IDX 36 64 68 65 48 66 67 67 49 68 52 69 66 70 85 71 50 72 51 73
REMARK SMILES IDX 65 75 86 76 53 77 37 78 38 79 46 80 39 81 40 82 44 83 47 84
REMARK SMILES IDX 41 85 42 86 45 87 43 88 69 89 70 90 78 91 71 92 72 93 76 94
REMARK SMILES IDX 79 95 73 96 74 97 77 98 75 99 54 100 55 101 63 102 56 103
REMARK SMILES IDX 57 104 61 105 64 106 58 107 59 108 62 109 60 110
REMARK H PARENT 2 14 84 63 52 74
REMARK Flexibility Score: inf
ROOT
ATOM      1  C   UNL A   1      40.305  21.350  26.798  1.00  0.00     0.188 C 
ENDROOT
BRANCH   1   2
ATOM      2  C   UNL A   1      40.363  22.850  27.130  1.00  0.00     0.188 C 
BRANCH   2   3
ATOM      3  O   UNL A   1      39.388  23.742  26.609  1.00  0.00    -0.376 OA
BRANCH   3   4
ATOM      4  C   UNL A   1      38.326  23.285  25.779  1.00  0.00     0.202 C 
BRANCH   4   5
ATOM      5  C   UNL A   1      36.876  23.732  26.001  1.00  0.00     0.261 C 
BRANCH   5   6
ATOM      6  O   UNL A   1      36.137  23.883  24.784  1.00  0.00    -0.462 OA
BRANCH   6   7
ATOM      7  C   UNL A   1      34.794  23.943  24.899  1.00  0.00     0.331 C 
ATOM      8  O   UNL A   1      34.220  24.200  25.953  1.00  0.00    -0.250 OA
BRANCH   7   9
ATOM      9  C   UNL A   1      34.056  23.683  23.568  1.00  0.00     0.224 C 
ATOM     10  C   UNL A   1      28.768  24.957  26.376  1.00  0.00     0.332 C 
ATOM     11  N   UNL A   1      29.911  25.577  25.717  1.00  0.00    -0.337 N 
ATOM     12  C   UNL A   1      31.173  25.069  26.249  1.00  0.00     0.267 C 
ATOM     13  C   UNL A   1      29.765  25.558  24.257  1.00  0.00     0.267 C 
ATOM     14  H   UNL A   1      29.936  26.572  25.943  1.00  0.00     0.347 HD
ATOM     15  C   UNL A   1      31.666  23.823  25.567  1.00  0.00     0.120 C 
ATOM     16  C   UNL A   1      30.417  24.418  23.491  1.00  0.00     0.120 C 
ATOM     17  C   UNL A   1      31.771  24.003  24.045  1.00  0.00     0.155 C 
ATOM     18  O   UNL A   1      31.928  22.632  23.577  1.00  0.00    -0.352 OA
ATOM     19  N   UNL A   1      32.992  24.656  23.527  1.00  0.00    -0.293 N 
ATOM     20  C   UNL A   1      33.317  22.384  23.345  1.00  0.00     0.200 C 
BRANCH  19  21
ATOM     21  C   UNL A   1      33.382  25.904  23.058  1.00  0.00     0.256 C 
ATOM     22  O   UNL A   1      34.186  26.045  22.135  1.00  0.00    -0.269 OA
BRANCH  21  23
ATOM     23  C   UNL A   1      32.874  27.143  23.630  1.00  0.00     0.041 A 
ATOM     24  C   UNL A   1      31.766  27.753  23.046  1.00  0.00     0.027 A 
ATOM     25  C   UNL A   1      33.535  27.742  24.698  1.00  0.00     0.027 A 
ATOM     26  C   UNL A   1      31.215  28.897  23.635  1.00  0.00     0.057 A 
ATOM     27  C   UNL A   1      32.924  28.793  25.390  1.00  0.00     0.057 A 
ATOM     28  C   UNL A   1      31.771  29.379  24.836  1.00  0.00     0.026 A 
BRANCH  26  29
ATOM     29  C   UNL A   1      30.029  29.564  22.986  1.00  0.00     0.416 C 
ATOM     30  F   UNL A   1      30.221  29.780  21.657  1.00  0.00    -0.166 F 
ATOM     31  F   UNL A   1      28.897  28.816  23.088  1.00  0.00    -0.166 F 
ATOM     32  F   UNL A   1      29.729  30.776  23.526  1.00  0.00    -0.166 F 
ENDBRANCH  26  29
BRANCH  27  33
ATOM     33  C   UNL A   1      33.410  29.195  26.765  1.00  0.00     0.416 C 
ATOM     34  F   UNL A   1      34.301  30.222  26.725  1.00  0.00    -0.166 F 
ATOM     35  F   UNL A   1      32.392  29.621  27.564  1.00  0.00    -0.166 F 
ATOM     36  F   UNL A   1      34.025  28.189  27.447  1.00  0.00    -0.166 F 
ENDBRANCH  27  33
ENDBRANCH  21  23
ENDBRANCH  19  21
ENDBRANCH   7   9
ENDBRANCH   6   7
ENDBRANCH   5   6
ENDBRANCH   4   5
ENDBRANCH   3   4
ENDBRANCH   2   3
ENDBRANCH   1   2
BRANCH   1  37
ATOM     37  O   UNL A   1      41.372  20.872  26.005  1.00  0.00    -0.377 OA
BRANCH  37  38
ATOM     38  C   UNL A   1      41.531  19.470  25.854  1.00  0.00     0.188 C 
BRANCH  38  39
ATOM     39  C   UNL A   1      42.902  18.836  26.148  1.00  0.00     0.188 C 
BRANCH  39  40
ATOM     40  O   UNL A   1      43.760  18.748  25.022  1.00  0.00    -0.376 OA
BRANCH  40  41
ATOM     41  C   UNL A   1      45.167  18.830  25.192  1.00  0.00     0.202 C 
BRANCH  41  42
ATOM     42  C   UNL A   1      45.941  20.032  24.622  1.00  0.00     0.261 C 
BRANCH  42  43
ATOM     43  O   UNL A   1      45.695  21.324  25.199  1.00  0.00    -0.460 OA
BRANCH  43  44
ATOM     44  C   UNL A   1      44.784  22.134  24.629  1.00  0.00     0.338 C 
ATOM     45  O   UNL A   1      44.197  21.964  23.572  1.00  0.00    -0.246 OA
BRANCH  44  46
ATOM     46  C   UNL A   1      44.469  23.202  25.602  1.00  0.00     0.060 A 
ATOM     47  C   UNL A   1      44.531  24.545  25.201  1.00  0.00     0.016 A 
ATOM     48  C   UNL A   1      44.118  22.872  26.912  1.00  0.00     0.016 A 
ATOM     49  C   UNL A   1      44.294  25.565  26.126  1.00  0.00     0.010 A 
ATOM     50  C   UNL A   1      43.905  23.891  27.842  1.00  0.00     0.010 A 
ATOM     51  C   UNL A   1      44.036  25.241  27.463  1.00  0.00    -0.014 A 
BRANCH  51  52
ATOM     52  C   UNL A   1      44.152  26.269  28.527  1.00  0.00     0.031 A 
ATOM     53  C   UNL A   1      45.415  26.280  29.346  1.00  0.00     0.074 A 
ATOM     54  C   UNL A   1      43.168  27.147  28.784  1.00  0.00     0.049 A 
ATOM     55  N   UNL A   1      45.697  26.938  30.440  1.00  0.00    -0.248 NA
ATOM     56  C   UNL A   1      46.508  25.415  28.866  1.00  0.00     0.031 C 
ATOM     57  C   UNL A   1      41.930  27.284  28.023  1.00  0.00     0.029 A 
ATOM     58  N   UNL A   1      43.053  28.081  29.786  1.00  0.00    -0.354 N 
ATOM     59  C   UNL A   1      46.988  26.559  30.782  1.00  0.00     0.074 A 
ATOM     60  C   UNL A   1      47.426  25.591  29.804  1.00  0.00     0.031 C 
ATOM     61  C   UNL A   1      41.165  28.228  28.602  1.00  0.00     0.029 A 
ATOM     62  C   UNL A   1      41.840  28.724  29.801  1.00  0.00     0.049 A 
ATOM     63  H   UNL A   1      43.772  28.270  30.432  1.00  0.00     0.167 HD
ATOM     64  C   UNL A   1      47.744  26.986  31.821  1.00  0.00     0.037 A 
ATOM     65  C   UNL A   1      41.324  29.582  30.705  1.00  0.00     0.037 A 
ATOM     66  C   UNL A   1      47.301  27.945  32.796  1.00  0.00     0.049 A 
ATOM     67  C   UNL A   1      42.148  29.960  31.916  1.00  0.00     0.074 A 
ATOM     68  C   UNL A   1      47.981  28.430  33.898  1.00  0.00     0.029 A 
ATOM     69  N   UNL A   1      46.060  28.563  32.783  1.00  0.00    -0.354 N 
ATOM     70  N   UNL A   1      43.365  29.595  32.242  1.00  0.00    -0.248 NA
ATOM     71  C   UNL A   1      41.523  30.870  32.889  1.00  0.00     0.031 C 
ATOM     72  C   UNL A   1      47.132  29.305  34.582  1.00  0.00     0.029 A 
ATOM     73  C   UNL A   1      45.951  29.418  33.866  1.00  0.00     0.049 A 
ATOM     74  H   UNL A   1      45.361  28.415  32.106  1.00  0.00     0.167 HD
ATOM     75  C   UNL A   1      43.669  30.273  33.418  1.00  0.00     0.074 A 
ATOM     76  C   UNL A   1      42.508  31.069  33.752  1.00  0.00     0.031 C 
ATOM     77  C   UNL A   1      44.806  30.242  34.153  1.00  0.00     0.037 A 
BRANCH  64  78
ATOM     78  C   UNL A   1      49.121  26.410  31.967  1.00  0.00     0.064 A 
ATOM     79  C   UNL A   1      49.349  25.225  32.682  1.00  0.00     0.173 A 
ATOM     80  C   UNL A   1      50.218  27.021  31.342  1.00  0.00     0.173 A 
ATOM     81  F   UNL A   1      48.337  24.612  33.314  1.00  0.00    -0.203 F 
ATOM     82  C   UNL A   1      50.628  24.681  32.777  1.00  0.00     0.198 A 
ATOM     83  C   UNL A   1      51.489  26.457  31.411  1.00  0.00     0.198 A 
ATOM     84  F   UNL A   1      50.054  28.156  30.645  1.00  0.00    -0.203 F 
ATOM     85  F   UNL A   1      50.828  23.570  33.499  1.00  0.00    -0.200 F 
ATOM     86  C   UNL A   1      51.693  25.291  32.133  1.00  0.00     0.200 A 
ATOM     87  F   UNL A   1      52.514  27.040  30.776  1.00  0.00    -0.200 F 
ATOM     88  F   UNL A   1      52.920  24.757  32.212  1.00  0.00    -0.200 F 
ENDBRANCH  64  78
BRANCH  65  89
ATOM     89  C   UNL A   1      39.950  30.132  30.538  1.00  0.00     0.064 A 
ATOM     90  C   UNL A   1      38.821  29.325  30.747  1.00  0.00     0.173 A 
ATOM     91  C   UNL A   1      39.735  31.445  30.094  1.00  0.00     0.173 A 
ATOM     92  F   UNL A   1      38.972  28.054  31.146  1.00  0.00    -0.203 F 
ATOM     93  C   UNL A   1      37.537  29.796  30.478  1.00  0.00     0.198 A 
ATOM     94  C   UNL A   1      38.448  31.928  29.863  1.00  0.00     0.198 A 
ATOM     95  F   UNL A   1      40.777  32.261  29.876  1.00  0.00    -0.203 F 
ATOM     96  F   UNL A   1      36.484  28.978  30.612  1.00  0.00    -0.200 F 
ATOM     97  C   UNL A   1      37.352  31.098  30.039  1.00  0.00     0.200 A 
ATOM     98  F   UNL A   1      38.273  33.190  29.451  1.00  0.00    -0.200 F 
ATOM     99  F   UNL A   1      36.118  31.547  29.769  1.00  0.00    -0.200 F 
ENDBRANCH  65  89
BRANCH  77 100
ATOM    100  C   UNL A   1      44.905  31.164  35.336  1.00  0.00     0.064 A 
ATOM    101  C   UNL A   1      45.404  32.469  35.226  1.00  0.00     0.173 A 
ATOM    102  C   UNL A   1      44.416  30.751  36.587  1.00  0.00     0.173 A 
ATOM    103  F   UNL A   1      45.893  32.910  34.058  1.00  0.00    -0.203 F 
ATOM    104  C   UNL A   1      45.428  33.320  36.329  1.00  0.00     0.198 A 
ATOM    105  C   UNL A   1      44.410  31.615  37.677  1.00  0.00     0.198 A 
ATOM    106  F   UNL A   1      43.919  29.515  36.743  1.00  0.00    -0.203 F 
ATOM    107  F   UNL A   1      45.947  34.550  36.213  1.00  0.00    -0.200 F 
ATOM    108  C   UNL A   1      44.921  32.897  37.550  1.00  0.00     0.200 A 
ATOM    109  F   UNL A   1      43.901  31.209  38.849  1.00  0.00    -0.200 F 
ATOM    110  F   UNL A   1      44.929  33.724  38.604  1.00  0.00    -0.200 F 
ENDBRANCH  77 100
ENDBRANCH  51  52
ENDBRANCH  44  46
ENDBRANCH  43  44
ENDBRANCH  42  43
ENDBRANCH  41  42
ENDBRANCH  40  41
ENDBRANCH  39  40
ENDBRANCH  38  39
ENDBRANCH  37  38
ENDBRANCH   1  37
TORSDOF 24
ENDMDL
