MODEL 1
REMARK VINA RESULT:      -9.6      0.000      0.000
REMARK SMILES O=C(N[C@@H](Cc1c[nH]c2ccccc12)C(=O)N[C@@H](CS)C(=O)N[C@@H](CO)C(=O)OCCOCCOCCOCCOC(=O)c1ccc(-c2c3nc(c(-c4c(F)c(F)c(F)c(F)c4F)c4ccc([nH]4)c(-c4c(F)c(F)c(F)c(F)c4F)c4nc(c(-c5c(F)c(F)c(F)c(F)c5F)c5ccc2[nH]5)C=C4)C=C3)cc1)c1ccc(F)cc1
REMARK SMILES IDX 33 1 32 2 31 3 30 4 29 5 27 6 28 7 24 8 23 9 21 10 22 11
REMARK SMILES IDX 18 13 17 14 15 15 16 16 4 18 3 19 1 20 2 21 107 23 108 24
REMARK SMILES IDX 113 25 109 26 112 27 110 28 111 29 5 30 6 31 7 32 14 33 8 34
REMARK SMILES IDX 9 35 13 36 10 38 12 39 11 40 19 41 20 42 25 44 26 45 34 47
REMARK SMILES IDX 35 48 36 49 37 50 38 51 39 52 40 53 41 54 42 55 43 56 44 57
REMARK SMILES IDX 45 58 106 59 46 60 105 61 47 62 48 63 49 64 99 65 50 66
REMARK SMILES IDX 104 67 98 68 100 69 51 70 103 71 97 72 96 73 52 75 84 76
REMARK SMILES IDX 64 77 83 78 65 79 68 80 82 81 101 82 66 83 67 84 81 86
REMARK SMILES IDX 102 87 69 88 53 89 54 90 62 91 55 92 56 93 60 94 63 95 57 96
REMARK SMILES IDX 58 97 61 98 59 99 85 100 86 101 94 102 87 103 88 104 92 105
REMARK SMILES IDX 95 106 89 107 90 108 93 109 91 110 70 111 71 112 79 113
REMARK SMILES IDX 72 114 73 115 77 116 80 117 74 118 75 119 78 120 76 121
REMARK H PARENT 23 12 17 17 3 22 8 37 20 43 26 46 100 74 68 85
REMARK Flexibility Score: inf
ROOT
ATOM      1  C   UNL A   1      32.660  23.432  27.204  1.00  0.00     0.188 C 
ENDROOT
BRANCH   1   2
ATOM      2  O   UNL A   1      31.255  23.334  27.362  1.00  0.00    -0.376 OA
BRANCH   2   3
ATOM      3  C   UNL A   1      30.440  22.841  26.309  1.00  0.00     0.202 C 
BRANCH   3   4
ATOM      4  C   UNL A   1      30.909  22.717  24.845  1.00  0.00     0.261 C 
BRANCH   4   5
ATOM      5  O   UNL A   1      31.935  21.753  24.570  1.00  0.00    -0.462 OA
BRANCH   5   6
ATOM      6  C   UNL A   1      32.428  21.729  23.304  1.00  0.00     0.331 C 
ATOM      7  O   UNL A   1      32.153  20.884  22.462  1.00  0.00    -0.250 OA
BRANCH   6   8
ATOM      8  C   UNL A   1      33.404  22.887  23.030  1.00  0.00     0.218 C 
BRANCH   8   9
ATOM      9  N   UNL A   1      33.428  23.976  24.005  1.00  0.00    -0.339 N 
ATOM     10  C   UNL A   1      33.377  25.314  23.800  1.00  0.00     0.244 C 
ATOM     11  O   UNL A   1      34.149  25.993  24.485  1.00  0.00    -0.273 OA
ATOM     12  H   UNL A   1      33.491  23.696  24.947  1.00  0.00     0.164 HD
BRANCH  10  13
ATOM     13  C   UNL A   1      32.478  25.991  22.738  1.00  0.00     0.181 C 
BRANCH  13  14
ATOM     14  N   UNL A   1      32.793  27.381  22.492  1.00  0.00    -0.342 N 
ATOM     15  C   UNL A   1      32.364  28.479  23.180  1.00  0.00     0.243 C 
ATOM     16  O   UNL A   1      32.966  29.528  22.920  1.00  0.00    -0.273 OA
ATOM     17  H   UNL A   1      33.391  27.557  21.731  1.00  0.00     0.164 HD
BRANCH  15  18
ATOM     18  C   UNL A   1      31.127  28.511  24.145  1.00  0.00     0.176 C 
BRANCH  18  19
ATOM     19  N   UNL A   1      29.922  27.976  23.503  1.00  0.00    -0.340 N 
ATOM     20  O   UNL A   1      27.805  27.991  22.752  1.00  0.00    -0.269 OA
ATOM     21  C   UNL A   1      28.807  28.632  23.050  1.00  0.00     0.251 C 
ATOM     22  H   UNL A   1      29.913  26.999  23.377  1.00  0.00     0.164 HD
BRANCH  21  23
ATOM     23  C   UNL A   1      28.797  30.104  22.944  1.00  0.00     0.040 A 
ATOM     24  C   UNL A   1      29.202  30.899  24.023  1.00  0.00     0.017 A 
ATOM     25  C   UNL A   1      28.412  30.695  21.735  1.00  0.00     0.017 A 
ATOM     26  C   UNL A   1      29.151  32.288  23.918  1.00  0.00     0.040 A 
ATOM     27  C   UNL A   1      28.375  32.086  21.630  1.00  0.00     0.040 A 
ATOM     28  C   UNL A   1      28.733  32.869  22.726  1.00  0.00     0.123 A 
ATOM     29  F   UNL A   1      28.679  34.203  22.628  1.00  0.00    -0.207 F 
ENDBRANCH  21  23
ENDBRANCH  18  19
BRANCH  18  30
ATOM     30  C   UNL A   1      31.272  28.160  25.646  1.00  0.00     0.072 C 
BRANCH  30  31
ATOM     31  C   UNL A   1      32.292  28.844  26.523  1.00  0.00    -0.020 A 
ATOM     32  C   UNL A   1      33.347  28.319  27.248  1.00  0.00     0.087 A 
ATOM     33  C   UNL A   1      32.308  30.258  26.806  1.00  0.00     0.003 A 
ATOM     34  N   UNL A   1      34.166  29.357  27.608  1.00  0.00    -0.361 N 
ATOM     35  C   UNL A   1      33.545  30.557  27.376  1.00  0.00     0.046 A 
ATOM     36  C   UNL A   1      31.403  31.317  26.588  1.00  0.00     0.010 A 
ATOM     37  H   UNL A   1      35.073  29.256  27.979  1.00  0.00     0.166 HD
ATOM     38  C   UNL A   1      33.971  31.866  27.626  1.00  0.00     0.026 A 
ATOM     39  C   UNL A   1      31.777  32.624  26.923  1.00  0.00     0.001 A 
ATOM     40  C   UNL A   1      33.056  32.897  27.401  1.00  0.00     0.002 A 
ENDBRANCH  30  31
ENDBRANCH  18  30
ENDBRANCH  15  18
ENDBRANCH  13  14
BRANCH  13  41
ATOM     41  C   UNL A   1      31.938  25.192  21.547  1.00  0.00     0.101 C 
BRANCH  41  42
ATOM     42  S   UNL A   1      32.528  25.578  19.874  1.00  0.00    -0.177 SA
ATOM     43  H   UNL A   1      31.857  26.659  19.395  1.00  0.00     0.102 HD
ENDBRANCH  41  42
ENDBRANCH  13  41
ENDBRANCH  10  13
ENDBRANCH   8   9
BRANCH   8  44
ATOM     44  C   UNL A   1      34.815  22.295  22.937  1.00  0.00     0.193 C 
BRANCH  44  45
ATOM     45  O   UNL A   1      35.789  23.324  22.751  1.00  0.00    -0.394 OA
ATOM     46  H   UNL A   1      35.505  24.128  23.216  1.00  0.00     0.210 HD
ENDBRANCH  44  45
ENDBRANCH   8  44
ENDBRANCH   6   8
ENDBRANCH   5   6
ENDBRANCH   4   5
ENDBRANCH   3   4
ENDBRANCH   2   3
ENDBRANCH   1   2
BRANCH   1  47
ATOM     47  C   UNL A   1      33.591  22.502  28.002  1.00  0.00     0.188 C 
BRANCH  47  48
ATOM     48  O   UNL A   1      33.722  21.213  27.440  1.00  0.00    -0.377 OA
BRANCH  48  49
ATOM     49  C   UNL A   1      34.498  21.143  26.251  1.00  0.00     0.188 C 
BRANCH  49  50
ATOM     50  C   UNL A   1      35.861  21.873  26.218  1.00  0.00     0.188 C 
BRANCH  50  51
ATOM     51  O   UNL A   1      36.886  21.145  25.546  1.00  0.00    -0.376 OA
BRANCH  51  52
ATOM     52  C   UNL A   1      38.080  21.820  25.190  1.00  0.00     0.202 C 
BRANCH  52  53
ATOM     53  C   UNL A   1      39.013  22.229  26.340  1.00  0.00     0.261 C 
BRANCH  53  54
ATOM     54  O   UNL A   1      38.978  23.606  26.725  1.00  0.00    -0.460 OA
BRANCH  54  55
ATOM     55  C   UNL A   1      40.172  24.236  26.762  1.00  0.00     0.338 C 
ATOM     56  O   UNL A   1      41.163  23.956  26.122  1.00  0.00    -0.246 OA
BRANCH  55  57
ATOM     57  C   UNL A   1      40.019  25.466  27.567  1.00  0.00     0.060 A 
ATOM     58  C   UNL A   1      40.670  26.622  27.122  1.00  0.00     0.016 A 
ATOM     59  C   UNL A   1      39.275  25.476  28.750  1.00  0.00     0.016 A 
ATOM     60  C   UNL A   1      40.652  27.773  27.902  1.00  0.00     0.010 A 
ATOM     61  C   UNL A   1      39.278  26.624  29.546  1.00  0.00     0.010 A 
ATOM     62  C   UNL A   1      40.021  27.753  29.152  1.00  0.00    -0.014 A 
BRANCH  62  63
ATOM     63  C   UNL A   1      40.402  28.784  30.147  1.00  0.00     0.031 A 
ATOM     64  C   UNL A   1      39.427  29.909  30.390  1.00  0.00     0.074 A 
ATOM     65  C   UNL A   1      41.524  28.685  30.876  1.00  0.00     0.049 A 
ATOM     66  N   UNL A   1      39.514  30.930  31.201  1.00  0.00    -0.248 NA
ATOM     67  C   UNL A   1      38.176  29.868  29.611  1.00  0.00     0.031 C 
ATOM     68  C   UNL A   1      42.507  27.608  30.779  1.00  0.00     0.029 A 
ATOM     69  N   UNL A   1      42.021  29.509  31.854  1.00  0.00    -0.354 N 
ATOM     70  C   UNL A   1      38.336  31.647  31.031  1.00  0.00     0.074 A 
ATOM     71  C   UNL A   1      37.569  30.975  30.007  1.00  0.00     0.031 C 
ATOM     72  C   UNL A   1      43.495  27.841  31.661  1.00  0.00     0.029 A 
ATOM     73  C   UNL A   1      43.228  29.096  32.361  1.00  0.00     0.049 A 
ATOM     74  H   UNL A   1      41.556  30.319  32.163  1.00  0.00     0.167 HD
ATOM     75  C   UNL A   1      37.918  32.757  31.683  1.00  0.00     0.037 A 
ATOM     76  C   UNL A   1      44.027  29.683  33.274  1.00  0.00     0.037 A 
ATOM     77  C   UNL A   1      38.687  33.430  32.695  1.00  0.00     0.049 A 
ATOM     78  C   UNL A   1      43.583  30.980  33.911  1.00  0.00     0.074 A 
ATOM     79  C   UNL A   1      38.375  34.579  33.397  1.00  0.00     0.029 A 
ATOM     80  N   UNL A   1      39.927  33.006  33.150  1.00  0.00    -0.354 N 
ATOM     81  N   UNL A   1      42.470  31.653  33.745  1.00  0.00    -0.248 NA
ATOM     82  C   UNL A   1      44.508  31.589  34.876  1.00  0.00     0.031 C 
ATOM     83  C   UNL A   1      39.448  34.880  34.241  1.00  0.00     0.029 A 
ATOM     84  C   UNL A   1      40.398  33.879  34.117  1.00  0.00     0.049 A 
ATOM     85  H   UNL A   1      40.403  32.205  32.832  1.00  0.00     0.167 HD
ATOM     86  C   UNL A   1      42.539  32.730  34.621  1.00  0.00     0.074 A 
ATOM     87  C   UNL A   1      43.798  32.613  35.323  1.00  0.00     0.031 C 
ATOM     88  C   UNL A   1      41.640  33.726  34.829  1.00  0.00     0.037 A 
BRANCH  75  89
ATOM     89  C   UNL A   1      36.581  33.323  31.304  1.00  0.00     0.064 A 
ATOM     90  C   UNL A   1      35.472  33.227  32.159  1.00  0.00     0.173 A 
ATOM     91  C   UNL A   1      36.411  33.993  30.083  1.00  0.00     0.173 A 
ATOM     92  F   UNL A   1      35.573  32.577  33.328  1.00  0.00    -0.203 F 
ATOM     93  C   UNL A   1      34.238  33.760  31.795  1.00  0.00     0.198 A 
ATOM     94  C   UNL A   1      35.185  34.554  29.738  1.00  0.00     0.198 A 
ATOM     95  F   UNL A   1      37.437  34.111  29.229  1.00  0.00    -0.203 F 
ATOM     96  F   UNL A   1      33.179  33.612  32.604  1.00  0.00    -0.200 F 
ATOM     97  C   UNL A   1      34.097  34.432  30.590  1.00  0.00     0.200 A 
ATOM     98  F   UNL A   1      35.056  35.214  28.578  1.00  0.00    -0.200 F 
ATOM     99  F   UNL A   1      32.912  34.955  30.246  1.00  0.00    -0.200 F 
ENDBRANCH  75  89
BRANCH  76 100
ATOM    100  C   UNL A   1      45.332  29.073  33.645  1.00  0.00     0.064 A 
ATOM    101  C   UNL A   1      45.443  28.211  34.747  1.00  0.00     0.173 A 
ATOM    102  C   UNL A   1      46.509  29.393  32.952  1.00  0.00     0.173 A 
ATOM    103  F   UNL A   1      44.351  27.892  35.459  1.00  0.00    -0.203 F 
ATOM    104  C   UNL A   1      46.682  27.730  35.166  1.00  0.00     0.198 A 
ATOM    105  C   UNL A   1      47.742  28.883  33.350  1.00  0.00     0.198 A 
ATOM    106  F   UNL A   1      46.463  30.214  31.892  1.00  0.00    -0.203 F 
ATOM    107  F   UNL A   1      46.765  26.972  36.268  1.00  0.00    -0.200 F 
ATOM    108  C   UNL A   1      47.830  28.065  34.466  1.00  0.00     0.200 A 
ATOM    109  F   UNL A   1      48.849  29.198  32.663  1.00  0.00    -0.200 F 
ATOM    110  F   UNL A   1      49.024  27.612  34.876  1.00  0.00    -0.200 F 
ENDBRANCH  76 100
BRANCH  88 111
ATOM    111  C   UNL A   1      41.946  34.715  35.919  1.00  0.00     0.064 A 
ATOM    112  C   UNL A   1      42.640  35.909  35.675  1.00  0.00     0.173 A 
ATOM    113  C   UNL A   1      41.517  34.465  37.234  1.00  0.00     0.173 A 
ATOM    114  F   UNL A   1      43.079  36.194  34.440  1.00  0.00    -0.203 F 
ATOM    115  C   UNL A   1      42.937  36.791  36.712  1.00  0.00     0.198 A 
ATOM    116  C   UNL A   1      41.778  35.369  38.259  1.00  0.00     0.198 A 
ATOM    117  F   UNL A   1      40.836  33.346  37.523  1.00  0.00    -0.203 F 
ATOM    118  F   UNL A   1      43.664  37.890  36.466  1.00  0.00    -0.200 F 
ATOM    119  C   UNL A   1      42.500  36.523  38.001  1.00  0.00     0.200 A 
ATOM    120  F   UNL A   1      41.338  35.118  39.500  1.00  0.00    -0.200 F 
ATOM    121  F   UNL A   1      42.786  37.374  38.997  1.00  0.00    -0.200 F 
ENDBRANCH  88 111
ENDBRANCH  62  63
ENDBRANCH  55  57
ENDBRANCH  54  55
ENDBRANCH  53  54
ENDBRANCH  52  53
ENDBRANCH  51  52
ENDBRANCH  50  51
ENDBRANCH  49  50
ENDBRANCH  48  49
ENDBRANCH  47  48
ENDBRANCH   1  47
TORSDOF 32
ENDMDL
MODEL 2
REMARK VINA RESULT:      -8.9      4.777      9.585
REMARK SMILES O=C(N[C@@H](Cc1c[nH]c2ccccc12)C(=O)N[C@@H](CS)C(=O)N[C@@H](CO)C(=O)OCCOCCOCCOCCOC(=O)c1ccc(-c2c3nc(c(-c4c(F)c(F)c(F)c(F)c4F)c4ccc([nH]4)c(-c4c(F)c(F)c(F)c(F)c4F)c4nc(c(-c5c(F)c(F)c(F)c(F)c5F)c5ccc2[nH]5)C=C4)C=C3)cc1)c1ccc(F)cc1
REMARK SMILES IDX 33 1 32 2 31 3 30 4 29 5 27 6 28 7 24 8 23 9 21 10 22 11
REMARK SMILES IDX 18 13 17 14 15 15 16 16 4 18 3 19 1 20 2 21 107 23 108 24
REMARK SMILES IDX 113 25 109 26 112 27 110 28 111 29 5 30 6 31 7 32 14 33 8 34
REMARK SMILES IDX 9 35 13 36 10 38 12 39 11 40 19 41 20 42 25 44 26 45 34 47
REMARK SMILES IDX 35 48 36 49 37 50 38 51 39 52 40 53 41 54 42 55 43 56 44 57
REMARK SMILES IDX 45 58 106 59 46 60 105 61 47 62 48 63 49 64 99 65 50 66
REMARK SMILES IDX 104 67 98 68 100 69 51 70 103 71 97 72 96 73 52 75 84 76
REMARK SMILES IDX 64 77 83 78 65 79 68 80 82 81 101 82 66 83 67 84 81 86
REMARK SMILES IDX 102 87 69 88 53 89 54 90 62 91 55 92 56 93 60 94 63 95 57 96
REMARK SMILES IDX 58 97 61 98 59 99 85 100 86 101 94 102 87 103 88 104 92 105
REMARK SMILES IDX 95 106 89 107 90 108 93 109 91 110 70 111 71 112 79 113
REMARK SMILES IDX 72 114 73 115 77 116 80 117 74 118 75 119 78 120 76 121
REMARK H PARENT 23 12 17 17 3 22 8 37 20 43 26 46 100 74 68 85
REMARK Flexibility Score: inf
ROOT
ATOM      1  C   UNL A   1      33.947  24.502  24.628  1.00  0.00     0.188 C 
ENDROOT
BRANCH   1   2
ATOM      2  O   UNL A   1      34.669  24.137  25.792  1.00  0.00    -0.376 OA
BRANCH   2   3
ATOM      3  C   UNL A   1      36.084  24.021  25.761  1.00  0.00     0.202 C 
BRANCH   3   4
ATOM      4  C   UNL A   1      36.832  22.698  25.495  1.00  0.00     0.261 C 
BRANCH   4   5
ATOM      5  O   UNL A   1      38.216  22.647  25.868  1.00  0.00    -0.462 OA
BRANCH   5   6
ATOM      6  C   UNL A   1      38.836  21.444  25.752  1.00  0.00     0.331 C 
ATOM      7  O   UNL A   1      38.282  20.398  25.437  1.00  0.00    -0.250 OA
BRANCH   6   8
ATOM      8  C   UNL A   1      40.338  21.521  26.080  1.00  0.00     0.218 C 
BRANCH   8   9
ATOM      9  N   UNL A   1      40.774  22.636  26.918  1.00  0.00    -0.339 N 
ATOM     10  C   UNL A   1      41.969  23.275  26.945  1.00  0.00     0.244 C 
ATOM     11  O   UNL A   1      42.414  23.536  28.066  1.00  0.00    -0.273 OA
ATOM     12  H   UNL A   1      40.103  22.972  27.555  1.00  0.00     0.164 HD
BRANCH  10  13
ATOM     13  C   UNL A   1      42.795  23.614  25.680  1.00  0.00     0.181 C 
BRANCH  13  14
ATOM     14  N   UNL A   1      42.506  24.913  25.113  1.00  0.00    -0.342 N 
ATOM     15  C   UNL A   1      43.053  26.119  25.442  1.00  0.00     0.243 C 
ATOM     16  O   UNL A   1      42.813  27.038  24.649  1.00  0.00    -0.273 OA
ATOM     17  H   UNL A   1      41.828  24.929  24.400  1.00  0.00     0.164 HD
BRANCH  15  18
ATOM     18  C   UNL A   1      43.827  26.423  26.772  1.00  0.00     0.176 C 
BRANCH  18  19
ATOM     19  N   UNL A   1      42.925  26.480  27.927  1.00  0.00    -0.340 N 
ATOM     20  O   UNL A   1      42.134  27.226  29.894  1.00  0.00    -0.269 OA
ATOM     21  C   UNL A   1      42.775  27.459  28.874  1.00  0.00     0.251 C 
ATOM     22  H   UNL A   1      42.338  25.697  28.038  1.00  0.00     0.164 HD
BRANCH  21  23
ATOM     23  C   UNL A   1      43.402  28.783  28.687  1.00  0.00     0.040 A 
ATOM     24  C   UNL A   1      44.308  29.282  29.631  1.00  0.00     0.017 A 
ATOM     25  C   UNL A   1      43.105  29.517  27.533  1.00  0.00     0.017 A 
ATOM     26  C   UNL A   1      44.861  30.549  29.457  1.00  0.00     0.040 A 
ATOM     27  C   UNL A   1      43.673  30.780  27.356  1.00  0.00     0.040 A 
ATOM     28  C   UNL A   1      44.536  31.288  28.324  1.00  0.00     0.123 A 
ATOM     29  F   UNL A   1      45.063  32.508  28.161  1.00  0.00    -0.207 F 
ENDBRANCH  21  23
ENDBRANCH  18  19
BRANCH  18  30
ATOM     30  C   UNL A   1      45.208  25.786  27.060  1.00  0.00     0.072 C 
BRANCH  30  31
ATOM     31  C   UNL A   1      46.436  26.632  27.293  1.00  0.00    -0.020 A 
ATOM     32  C   UNL A   1      47.367  27.129  26.398  1.00  0.00     0.087 A 
ATOM     33  C   UNL A   1      46.900  27.057  28.590  1.00  0.00     0.003 A 
ATOM     34  N   UNL A   1      48.094  28.096  27.041  1.00  0.00    -0.361 N 
ATOM     35  C   UNL A   1      47.851  28.056  28.389  1.00  0.00     0.046 A 
ATOM     36  C   UNL A   1      46.566  26.715  29.917  1.00  0.00     0.010 A 
ATOM     37  H   UNL A   1      48.704  28.729  26.598  1.00  0.00     0.166 HD
ATOM     38  C   UNL A   1      48.393  28.813  29.435  1.00  0.00     0.026 A 
ATOM     39  C   UNL A   1      47.172  27.397  30.980  1.00  0.00     0.001 A 
ATOM     40  C   UNL A   1      48.045  28.454  30.739  1.00  0.00     0.002 A 
ENDBRANCH  30  31
ENDBRANCH  18  30
ENDBRANCH  15  18
ENDBRANCH  13  14
BRANCH  13  41
ATOM     41  C   UNL A   1      44.233  23.107  25.528  1.00  0.00     0.101 C 
BRANCH  41  42
ATOM     42  S   UNL A   1      44.524  21.436  24.879  1.00  0.00    -0.177 SA
ATOM     43  H   UNL A   1      44.211  21.403  23.556  1.00  0.00     0.102 HD
ENDBRANCH  41  42
ENDBRANCH  13  41
ENDBRANCH  10  13
ENDBRANCH   8   9
BRANCH   8  44
ATOM     44  C   UNL A   1      40.730  20.215  26.779  1.00  0.00     0.193 C 
BRANCH  44  45
ATOM     45  O   UNL A   1      40.654  19.109  25.876  1.00  0.00    -0.394 OA
ATOM     46  H   UNL A   1      39.822  19.155  25.378  1.00  0.00     0.210 HD
ENDBRANCH  44  45
ENDBRANCH   8  44
ENDBRANCH   6   8
ENDBRANCH   5   6
ENDBRANCH   4   5
ENDBRANCH   3   4
ENDBRANCH   2   3
ENDBRANCH   1   2
BRANCH   1  47
ATOM     47  C   UNL A   1      32.857  25.586  24.708  1.00  0.00     0.188 C 
BRANCH  47  48
ATOM     48  O   UNL A   1      33.157  26.626  25.615  1.00  0.00    -0.377 OA
BRANCH  48  49
ATOM     49  C   UNL A   1      32.427  27.830  25.424  1.00  0.00     0.188 C 
BRANCH  49  50
ATOM     50  C   UNL A   1      33.190  29.173  25.493  1.00  0.00     0.188 C 
BRANCH  50  51
ATOM     51  O   UNL A   1      32.399  30.258  25.971  1.00  0.00    -0.376 OA
BRANCH  51  52
ATOM     52  C   UNL A   1      32.827  30.956  27.129  1.00  0.00     0.202 C 
BRANCH  52  53
ATOM     53  C   UNL A   1      34.220  30.607  27.671  1.00  0.00     0.261 C 
BRANCH  53  54
ATOM     54  O   UNL A   1      35.256  31.560  27.418  1.00  0.00    -0.460 OA
BRANCH  54  55
ATOM     55  C   UNL A   1      35.537  32.405  28.433  1.00  0.00     0.338 C 
ATOM     56  O   UNL A   1      34.851  33.325  28.826  1.00  0.00    -0.246 OA
BRANCH  55  57
ATOM     57  C   UNL A   1      36.736  31.900  29.133  1.00  0.00     0.060 A 
ATOM     58  C   UNL A   1      36.996  32.391  30.418  1.00  0.00     0.016 A 
ATOM     59  C   UNL A   1      37.604  30.987  28.529  1.00  0.00     0.016 A 
ATOM     60  C   UNL A   1      38.171  32.035  31.073  1.00  0.00     0.010 A 
ATOM     61  C   UNL A   1      38.796  30.650  29.176  1.00  0.00     0.010 A 
ATOM     62  C   UNL A   1      39.109  31.226  30.421  1.00  0.00    -0.014 A 
BRANCH  62  63
ATOM     63  C   UNL A   1      40.510  31.244  30.907  1.00  0.00     0.031 A 
ATOM     64  C   UNL A   1      41.328  32.479  30.622  1.00  0.00     0.074 A 
ATOM     65  C   UNL A   1      41.015  30.248  31.651  1.00  0.00     0.049 A 
ATOM     66  N   UNL A   1      42.568  32.750  30.934  1.00  0.00    -0.248 NA
ATOM     67  C   UNL A   1      40.646  33.558  29.886  1.00  0.00     0.031 C 
ATOM     68  C   UNL A   1      40.298  29.038  32.049  1.00  0.00     0.029 A 
ATOM     69  N   UNL A   1      42.259  30.104  32.212  1.00  0.00    -0.354 N 
ATOM     70  C   UNL A   1      42.811  34.025  30.437  1.00  0.00     0.074 A 
ATOM     71  C   UNL A   1      41.609  34.457  29.762  1.00  0.00     0.031 C 
ATOM     72  C   UNL A   1      41.119  28.270  32.788  1.00  0.00     0.029 A 
ATOM     73  C   UNL A   1      42.424  28.921  32.889  1.00  0.00     0.049 A 
ATOM     74  H   UNL A   1      42.966  30.785  32.137  1.00  0.00     0.167 HD
ATOM     75  C   UNL A   1      43.929  34.780  30.550  1.00  0.00     0.037 A 
ATOM     76  C   UNL A   1      43.516  28.422  33.500  1.00  0.00     0.037 A 
ATOM     77  C   UNL A   1      45.126  34.344  31.216  1.00  0.00     0.049 A 
ATOM     78  C   UNL A   1      44.785  29.243  33.520  1.00  0.00     0.074 A 
ATOM     79  C   UNL A   1      46.327  35.014  31.361  1.00  0.00     0.029 A 
ATOM     80  N   UNL A   1      45.271  33.119  31.851  1.00  0.00    -0.354 N 
ATOM     81  N   UNL A   1      45.008  30.446  33.048  1.00  0.00    -0.248 NA
ATOM     82  C   UNL A   1      45.951  28.635  34.175  1.00  0.00     0.031 C 
ATOM     83  C   UNL A   1      47.215  34.174  32.040  1.00  0.00     0.029 A 
ATOM     84  C   UNL A   1      46.546  33.009  32.380  1.00  0.00     0.049 A 
ATOM     85  H   UNL A   1      44.571  32.429  31.915  1.00  0.00     0.167 HD
ATOM     86  C   UNL A   1      46.317  30.757  33.395  1.00  0.00     0.074 A 
ATOM     87  C   UNL A   1      46.833  29.621  34.127  1.00  0.00     0.031 C 
ATOM     88  C   UNL A   1      47.030  31.883  33.135  1.00  0.00     0.037 A 
BRANCH  75  89
ATOM     89  C   UNL A   1      43.912  36.143  29.921  1.00  0.00     0.064 A 
ATOM     90  C   UNL A   1      43.790  37.308  30.694  1.00  0.00     0.173 A 
ATOM     91  C   UNL A   1      44.048  36.287  28.533  1.00  0.00     0.173 A 
ATOM     92  F   UNL A   1      43.636  37.226  32.023  1.00  0.00    -0.203 F 
ATOM     93  C   UNL A   1      43.781  38.566  30.096  1.00  0.00     0.198 A 
ATOM     94  C   UNL A   1      44.072  37.548  27.943  1.00  0.00     0.198 A 
ATOM     95  F   UNL A   1      44.165  35.206  27.749  1.00  0.00    -0.203 F 
ATOM     96  F   UNL A   1      43.612  39.663  30.848  1.00  0.00    -0.200 F 
ATOM     97  C   UNL A   1      43.932  38.686  28.723  1.00  0.00     0.200 A 
ATOM     98  F   UNL A   1      44.230  37.661  26.616  1.00  0.00    -0.200 F 
ATOM     99  F   UNL A   1      43.934  39.897  28.150  1.00  0.00    -0.200 F 
ENDBRANCH  75  89
BRANCH  76 100
ATOM    100  C   UNL A   1      43.481  27.078  34.140  1.00  0.00     0.064 A 
ATOM    101  C   UNL A   1      43.962  25.943  33.469  1.00  0.00     0.173 A 
ATOM    102  C   UNL A   1      42.903  26.889  35.403  1.00  0.00     0.173 A 
ATOM    103  F   UNL A   1      44.503  26.067  32.248  1.00  0.00    -0.203 F 
ATOM    104  C   UNL A   1      43.827  24.670  34.018  1.00  0.00     0.198 A 
ATOM    105  C   UNL A   1      42.801  25.619  35.967  1.00  0.00     0.198 A 
ATOM    106  F   UNL A   1      42.425  27.938  36.089  1.00  0.00    -0.203 F 
ATOM    107  F   UNL A   1      44.225  23.597  33.320  1.00  0.00    -0.200 F 
ATOM    108  C   UNL A   1      43.248  24.508  35.267  1.00  0.00     0.200 A 
ATOM    109  F   UNL A   1      42.252  25.468  37.180  1.00  0.00    -0.200 F 
ATOM    110  F   UNL A   1      43.106  23.282  35.789  1.00  0.00    -0.200 F 
ENDBRANCH  76 100
BRANCH  88 111
ATOM    111  C   UNL A   1      48.411  31.978  33.723  1.00  0.00     0.064 A 
ATOM    112  C   UNL A   1      48.637  32.396  35.042  1.00  0.00     0.173 A 
ATOM    113  C   UNL A   1      49.528  31.624  32.948  1.00  0.00     0.173 A 
ATOM    114  F   UNL A   1      47.606  32.753  35.823  1.00  0.00    -0.203 F 
ATOM    115  C   UNL A   1      49.930  32.504  35.548  1.00  0.00     0.198 A 
ATOM    116  C   UNL A   1      50.816  31.692  33.471  1.00  0.00     0.198 A 
ATOM    117  F   UNL A   1      49.371  31.202  31.684  1.00  0.00    -0.203 F 
ATOM    118  F   UNL A   1      50.124  32.975  36.788  1.00  0.00    -0.200 F 
ATOM    119  C   UNL A   1      51.017  32.146  34.765  1.00  0.00     0.200 A 
ATOM    120  F   UNL A   1      51.863  31.327  32.719  1.00  0.00    -0.200 F 
ATOM    121  F   UNL A   1      52.261  32.250  35.255  1.00  0.00    -0.200 F 
ENDBRANCH  88 111
ENDBRANCH  62  63
ENDBRANCH  55  57
ENDBRANCH  54  55
ENDBRANCH  53  54
ENDBRANCH  52  53
ENDBRANCH  51  52
ENDBRANCH  50  51
ENDBRANCH  49  50
ENDBRANCH  48  49
ENDBRANCH  47  48
ENDBRANCH   1  47
TORSDOF 32
ENDMDL
MODEL 3
REMARK VINA RESULT:      -8.7      1.178      6.573
REMARK SMILES O=C(N[C@@H](Cc1c[nH]c2ccccc12)C(=O)N[C@@H](CS)C(=O)N[C@@H](CO)C(=O)OCCOCCOCCOCCOC(=O)c1ccc(-c2c3nc(c(-c4c(F)c(F)c(F)c(F)c4F)c4ccc([nH]4)c(-c4c(F)c(F)c(F)c(F)c4F)c4nc(c(-c5c(F)c(F)c(F)c(F)c5F)c5ccc2[nH]5)C=C4)C=C3)cc1)c1ccc(F)cc1
REMARK SMILES IDX 33 1 32 2 31 3 30 4 29 5 27 6 28 7 24 8 23 9 21 10 22 11
REMARK SMILES IDX 18 13 17 14 15 15 16 16 4 18 3 19 1 20 2 21 107 23 108 24
REMARK SMILES IDX 113 25 109 26 112 27 110 28 111 29 5 30 6 31 7 32 14 33 8 34
REMARK SMILES IDX 9 35 13 36 10 38 12 39 11 40 19 41 20 42 25 44 26 45 34 47
REMARK SMILES IDX 35 48 36 49 37 50 38 51 39 52 40 53 41 54 42 55 43 56 44 57
REMARK SMILES IDX 45 58 106 59 46 60 105 61 47 62 48 63 49 64 99 65 50 66
REMARK SMILES IDX 104 67 98 68 100 69 51 70 103 71 97 72 96 73 52 75 84 76
REMARK SMILES IDX 64 77 83 78 65 79 68 80 82 81 101 82 66 83 67 84 81 86
REMARK SMILES IDX 102 87 69 88 53 89 54 90 62 91 55 92 56 93 60 94 63 95 57 96
REMARK SMILES IDX 58 97 61 98 59 99 85 100 86 101 94 102 87 103 88 104 92 105
REMARK SMILES IDX 95 106 89 107 90 108 93 109 91 110 70 111 71 112 79 113
REMARK SMILES IDX 72 114 73 115 77 116 80 117 74 118 75 119 78 120 76 121
REMARK H PARENT 23 12 17 17 3 22 8 37 20 43 26 46 100 74 68 85
REMARK Flexibility Score: inf
ROOT
ATOM      1  C   UNL A   1      32.819  23.633  27.051  1.00  0.00     0.188 C 
ENDROOT
BRANCH   1   2
ATOM      2  O   UNL A   1      31.410  23.585  26.911  1.00  0.00    -0.376 OA
BRANCH   2   3
ATOM      3  C   UNL A   1      30.765  22.400  26.468  1.00  0.00     0.202 C 
BRANCH   3   4
ATOM      4  C   UNL A   1      30.747  21.929  24.999  1.00  0.00     0.261 C 
BRANCH   4   5
ATOM      5  O   UNL A   1      31.949  21.333  24.493  1.00  0.00    -0.462 OA
BRANCH   5   6
ATOM      6  C   UNL A   1      32.263  21.595  23.198  1.00  0.00     0.331 C 
ATOM      7  O   UNL A   1      32.003  20.862  22.251  1.00  0.00    -0.250 OA
BRANCH   6   8
ATOM      8  C   UNL A   1      33.012  22.930  23.031  1.00  0.00     0.218 C 
BRANCH   8   9
ATOM      9  N   UNL A   1      32.514  24.066  23.805  1.00  0.00    -0.339 N 
ATOM     10  C   UNL A   1      32.725  25.391  23.617  1.00  0.00     0.244 C 
ATOM     11  O   UNL A   1      32.950  26.051  24.636  1.00  0.00    -0.273 OA
ATOM     12  H   UNL A   1      31.945  23.835  24.574  1.00  0.00     0.164 HD
BRANCH  10  13
ATOM     13  C   UNL A   1      32.760  26.071  22.227  1.00  0.00     0.181 C 
BRANCH  13  14
ATOM     14  N   UNL A   1      33.362  27.387  22.224  1.00  0.00    -0.342 N 
ATOM     15  C   UNL A   1      33.013  28.476  22.966  1.00  0.00     0.243 C 
ATOM     16  O   UNL A   1      33.832  29.404  22.954  1.00  0.00    -0.273 OA
ATOM     17  H   UNL A   1      34.119  27.511  21.607  1.00  0.00     0.164 HD
BRANCH  15  18
ATOM     18  C   UNL A   1      31.638  28.664  23.699  1.00  0.00     0.176 C 
BRANCH  18  19
ATOM     19  N   UNL A   1      30.520  28.154  22.899  1.00  0.00    -0.340 N 
ATOM     20  O   UNL A   1      28.441  28.114  22.047  1.00  0.00    -0.269 OA
ATOM     21  C   UNL A   1      29.359  28.776  22.520  1.00  0.00     0.251 C 
ATOM     22  H   UNL A   1      30.619  27.225  22.586  1.00  0.00     0.164 HD
BRANCH  21  23
ATOM     23  C   UNL A   1      29.197  30.232  22.702  1.00  0.00     0.040 A 
ATOM     24  C   UNL A   1      29.344  30.813  23.967  1.00  0.00     0.017 A 
ATOM     25  C   UNL A   1      28.931  31.030  21.583  1.00  0.00     0.017 A 
ATOM     26  C   UNL A   1      29.151  32.184  24.127  1.00  0.00     0.040 A 
ATOM     27  C   UNL A   1      28.752  32.405  21.746  1.00  0.00     0.040 A 
ATOM     28  C   UNL A   1      28.852  32.966  23.017  1.00  0.00     0.123 A 
ATOM     29  F   UNL A   1      28.661  34.282  23.172  1.00  0.00    -0.207 F 
ENDBRANCH  21  23
ENDBRANCH  18  19
BRANCH  18  30
ATOM     30  C   UNL A   1      31.504  28.429  25.224  1.00  0.00     0.072 C 
BRANCH  30  31
ATOM     31  C   UNL A   1      32.529  28.955  26.198  1.00  0.00    -0.020 A 
ATOM     32  C   UNL A   1      33.578  28.312  26.831  1.00  0.00     0.087 A 
ATOM     33  C   UNL A   1      32.559  30.306  26.702  1.00  0.00     0.003 A 
ATOM     34  N   UNL A   1      34.407  29.272  27.351  1.00  0.00    -0.361 N 
ATOM     35  C   UNL A   1      33.797  30.499  27.312  1.00  0.00     0.046 A 
ATOM     36  C   UNL A   1      31.664  31.395  26.655  1.00  0.00     0.010 A 
ATOM     37  H   UNL A   1      35.312  29.104  27.701  1.00  0.00     0.166 HD
ATOM     38  C   UNL A   1      34.236  31.748  27.767  1.00  0.00     0.026 A 
ATOM     39  C   UNL A   1      32.050  32.629  27.193  1.00  0.00     0.001 A 
ATOM     40  C   UNL A   1      33.331  32.810  27.708  1.00  0.00     0.002 A 
ENDBRANCH  30  31
ENDBRANCH  18  30
ENDBRANCH  15  18
ENDBRANCH  13  14
BRANCH  13  41
ATOM     41  C   UNL A   1      32.936  25.237  20.953  1.00  0.00     0.101 C 
BRANCH  41  42
ATOM     42  S   UNL A   1      31.999  25.679  19.462  1.00  0.00    -0.177 SA
ATOM     43  H   UNL A   1      31.677  26.999  19.504  1.00  0.00     0.102 HD
ENDBRANCH  41  42
ENDBRANCH  13  41
ENDBRANCH  10  13
ENDBRANCH   8   9
BRANCH   8  44
ATOM     44  C   UNL A   1      34.477  22.694  23.415  1.00  0.00     0.193 C 
BRANCH  44  45
ATOM     45  O   UNL A   1      35.349  23.041  22.337  1.00  0.00    -0.394 OA
ATOM     46  H   UNL A   1      35.725  22.233  21.952  1.00  0.00     0.210 HD
ENDBRANCH  44  45
ENDBRANCH   8  44
ENDBRANCH   6   8
ENDBRANCH   5   6
ENDBRANCH   4   5
ENDBRANCH   3   4
ENDBRANCH   2   3
ENDBRANCH   1   2
BRANCH   1  47
ATOM     47  C   UNL A   1      33.525  22.696  28.047  1.00  0.00     0.188 C 
BRANCH  47  48
ATOM     48  O   UNL A   1      33.619  21.360  27.600  1.00  0.00    -0.377 OA
BRANCH  48  49
ATOM     49  C   UNL A   1      34.334  21.173  26.386  1.00  0.00     0.188 C 
BRANCH  49  50
ATOM     50  C   UNL A   1      35.810  21.629  26.323  1.00  0.00     0.188 C 
BRANCH  50  51
ATOM     51  O   UNL A   1      36.621  20.830  25.464  1.00  0.00    -0.376 OA
BRANCH  51  52
ATOM     52  C   UNL A   1      37.785  21.406  24.895  1.00  0.00     0.202 C 
BRANCH  52  53
ATOM     53  C   UNL A   1      38.924  21.761  25.861  1.00  0.00     0.261 C 
BRANCH  53  54
ATOM     54  O   UNL A   1      38.925  23.094  26.380  1.00  0.00    -0.460 OA
BRANCH  54  55
ATOM     55  C   UNL A   1      40.140  23.620  26.645  1.00  0.00     0.338 C 
ATOM     56  O   UNL A   1      41.213  23.205  26.262  1.00  0.00    -0.246 OA
BRANCH  55  57
ATOM     57  C   UNL A   1      39.941  24.921  27.318  1.00  0.00     0.060 A 
ATOM     58  C   UNL A   1      40.488  26.059  26.714  1.00  0.00     0.016 A 
ATOM     59  C   UNL A   1      39.257  25.017  28.533  1.00  0.00     0.016 A 
ATOM     60  C   UNL A   1      40.428  27.287  27.364  1.00  0.00     0.010 A 
ATOM     61  C   UNL A   1      39.219  26.245  29.198  1.00  0.00     0.010 A 
ATOM     62  C   UNL A   1      39.862  27.367  28.642  1.00  0.00    -0.014 A 
BRANCH  62  63
ATOM     63  C   UNL A   1      40.218  28.525  29.496  1.00  0.00     0.031 A 
ATOM     64  C   UNL A   1      41.639  28.613  29.992  1.00  0.00     0.074 A 
ATOM     65  C   UNL A   1      39.345  29.513  29.750  1.00  0.00     0.049 A 
ATOM     66  N   UNL A   1      42.207  29.516  30.747  1.00  0.00    -0.248 NA
ATOM     67  C   UNL A   1      42.545  27.529  29.570  1.00  0.00     0.031 C 
ATOM     68  C   UNL A   1      37.967  29.573  29.267  1.00  0.00     0.029 A 
ATOM     69  N   UNL A   1      39.499  30.666  30.479  1.00  0.00    -0.354 N 
ATOM     70  C   UNL A   1      43.529  29.112  30.887  1.00  0.00     0.074 A 
ATOM     71  C   UNL A   1      43.672  27.860  30.181  1.00  0.00     0.031 C 
ATOM     72  C   UNL A   1      37.397  30.705  29.719  1.00  0.00     0.029 A 
ATOM     73  C   UNL A   1      38.361  31.431  30.544  1.00  0.00     0.049 A 
ATOM     74  H   UNL A   1      40.345  30.920  30.912  1.00  0.00     0.167 HD
ATOM     75  C   UNL A   1      44.543  29.738  31.529  1.00  0.00     0.037 A 
ATOM     76  C   UNL A   1      38.129  32.577  31.214  1.00  0.00     0.037 A 
ATOM     77  C   UNL A   1      44.397  30.980  32.238  1.00  0.00     0.049 A 
ATOM     78  C   UNL A   1      39.252  33.200  32.011  1.00  0.00     0.074 A 
ATOM     79  C   UNL A   1      45.349  31.685  32.952  1.00  0.00     0.029 A 
ATOM     80  N   UNL A   1      43.216  31.704  32.321  1.00  0.00    -0.354 N 
ATOM     81  N   UNL A   1      40.499  32.813  32.140  1.00  0.00    -0.248 NA
ATOM     82  C   UNL A   1      38.933  34.433  32.744  1.00  0.00     0.031 C 
ATOM     83  C   UNL A   1      44.732  32.810  33.508  1.00  0.00     0.029 A 
ATOM     84  C   UNL A   1      43.413  32.843  33.083  1.00  0.00     0.049 A 
ATOM     85  H   UNL A   1      42.364  31.445  31.901  1.00  0.00     0.167 HD
ATOM     86  C   UNL A   1      41.121  33.779  32.922  1.00  0.00     0.074 A 
ATOM     87  C   UNL A   1      40.118  34.775  33.227  1.00  0.00     0.031 C 
ATOM     88  C   UNL A   1      42.409  33.840  33.347  1.00  0.00     0.037 A 
BRANCH  75  89
ATOM     89  C   UNL A   1      45.890  29.076  31.511  1.00  0.00     0.064 A 
ATOM     90  C   UNL A   1      46.851  29.389  30.538  1.00  0.00     0.173 A 
ATOM     91  C   UNL A   1      46.235  28.136  32.494  1.00  0.00     0.173 A 
ATOM     92  F   UNL A   1      46.565  30.264  29.562  1.00  0.00    -0.203 F 
ATOM     93  C   UNL A   1      48.099  28.770  30.537  1.00  0.00     0.198 A 
ATOM     94  C   UNL A   1      47.495  27.544  32.509  1.00  0.00     0.198 A 
ATOM     95  F   UNL A   1      45.353  27.799  33.445  1.00  0.00    -0.203 F 
ATOM     96  F   UNL A   1      48.983  29.047  29.567  1.00  0.00    -0.200 F 
ATOM     97  C   UNL A   1      48.423  27.856  31.527  1.00  0.00     0.200 A 
ATOM     98  F   UNL A   1      47.810  26.670  33.475  1.00  0.00    -0.200 F 
ATOM     99  F   UNL A   1      49.628  27.268  31.532  1.00  0.00    -0.200 F 
ENDBRANCH  75  89
BRANCH  76 100
ATOM    100  C   UNL A   1      36.787  33.219  31.181  1.00  0.00     0.064 A 
ATOM    101  C   UNL A   1      35.846  32.986  32.196  1.00  0.00     0.173 A 
ATOM    102  C   UNL A   1      36.390  34.021  30.101  1.00  0.00     0.173 A 
ATOM    103  F   UNL A   1      36.168  32.207  33.240  1.00  0.00    -0.203 F 
ATOM    104  C   UNL A   1      34.551  33.492  32.110  1.00  0.00     0.198 A 
ATOM    105  C   UNL A   1      35.106  34.556  30.033  1.00  0.00     0.198 A 
ATOM    106  F   UNL A   1      37.248  34.275  29.101  1.00  0.00    -0.203 F 
ATOM    107  F   UNL A   1      33.652  33.188  33.056  1.00  0.00    -0.200 F 
ATOM    108  C   UNL A   1      34.182  34.279  31.029  1.00  0.00     0.200 A 
ATOM    109  F   UNL A   1      34.758  35.327  28.993  1.00  0.00    -0.200 F 
ATOM    110  F   UNL A   1      32.933  34.756  30.940  1.00  0.00    -0.200 F 
ENDBRANCH  76 100
BRANCH  88 111
ATOM    111  C   UNL A   1      42.826  35.067  34.111  1.00  0.00     0.064 A 
ATOM    112  C   UNL A   1      43.190  36.260  33.471  1.00  0.00     0.173 A 
ATOM    113  C   UNL A   1      42.844  35.046  35.516  1.00  0.00     0.173 A 
ATOM    114  F   UNL A   1      43.199  36.332  32.131  1.00  0.00    -0.203 F 
ATOM    115  C   UNL A   1      43.604  37.370  34.205  1.00  0.00     0.198 A 
ATOM    116  C   UNL A   1      43.217  36.170  36.246  1.00  0.00     0.198 A 
ATOM    117  F   UNL A   1      42.491  33.936  36.182  1.00  0.00    -0.203 F 
ATOM    118  F   UNL A   1      44.016  38.475  33.568  1.00  0.00    -0.200 F 
ATOM    119  C   UNL A   1      43.611  37.326  35.591  1.00  0.00     0.200 A 
ATOM    120  F   UNL A   1      43.203  36.132  37.586  1.00  0.00    -0.200 F 
ATOM    121  F   UNL A   1      44.007  38.395  36.294  1.00  0.00    -0.200 F 
ENDBRANCH  88 111
ENDBRANCH  62  63
ENDBRANCH  55  57
ENDBRANCH  54  55
ENDBRANCH  53  54
ENDBRANCH  52  53
ENDBRANCH  51  52
ENDBRANCH  50  51
ENDBRANCH  49  50
ENDBRANCH  48  49
ENDBRANCH  47  48
ENDBRANCH   1  47
TORSDOF 32
ENDMDL
