MODEL 1
REMARK VINA RESULT:     -10.4      0.000      0.000
REMARK SMILES Cc1cccc(C[N@H+]2CC[C@@](C)(C(=O)OCCOCCOCCOCCOC(=O)c3ccc(-c4c5nc(c(-c6c(F)c(F)c(F)c(F)c6F)c6ccc([nH]6)c(-c6c(F)c(F)c(F)c(F)c6F)c6nc(c(-c7c(F)c(F)c(F)c(F)c7F)c7ccc4[nH]7)C=C6)C=C5)cc3)C2)n1
REMARK SMILES IDX 21 1 20 2 19 3 18 4 17 5 16 6 15 7 13 8 14 9 11 10 8 11 9 12
REMARK SMILES IDX 93 13 10 15 12 16 7 17 6 18 1 19 2 20 3 21 94 22 4 23 5 24
REMARK SMILES IDX 22 25 23 26 24 27 25 28 26 29 27 30 28 31 29 32 30 33 31 34
REMARK SMILES IDX 92 35 32 36 91 37 33 38 34 39 35 40 85 41 36 42 90 43 84 44
REMARK SMILES IDX 86 45 37 46 89 47 83 48 82 49 38 51 70 52 50 53 69 54 51 55
REMARK SMILES IDX 54 56 68 57 87 58 52 59 53 60 67 62 88 63 55 64 39 65 40 66
REMARK SMILES IDX 48 67 41 68 42 69 46 70 49 71 43 72 44 73 47 74 45 75 71 76
REMARK SMILES IDX 72 77 80 78 73 79 74 80 78 81 81 82 75 83 76 84 79 85 77 86
REMARK SMILES IDX 56 87 57 88 65 89 58 90 59 91 63 92 66 93 60 94 61 95 64 96
REMARK SMILES IDX 62 97
REMARK H PARENT 8 14 86 50 54 61
REMARK Flexibility Score: inf
ROOT
ATOM      1  O   UNL A   1      33.297  29.422  26.456  1.00  0.00    -0.377 OA
ENDROOT
BRANCH   1   2
ATOM      2  C   UNL A   1      32.012  29.486  27.033  1.00  0.00     0.188 C 
BRANCH   2   3
ATOM      3  C   UNL A   1      31.482  28.224  27.725  1.00  0.00     0.188 C 
BRANCH   3   4
ATOM      4  O   UNL A   1      31.441  27.021  26.952  1.00  0.00    -0.376 OA
BRANCH   4   5
ATOM      5  C   UNL A   1      30.975  27.086  25.605  1.00  0.00     0.202 C 
BRANCH   5   6
ATOM      6  C   UNL A   1      30.515  25.776  24.959  1.00  0.00     0.261 C 
BRANCH   6   7
ATOM      7  O   UNL A   1      31.364  25.395  23.859  1.00  0.00    -0.463 OA
BRANCH   7   8
ATOM      8  C   UNL A   1      32.687  25.661  23.973  1.00  0.00     0.317 C 
ATOM      9  O   UNL A   1      33.200  26.712  23.598  1.00  0.00    -0.251 OA
BRANCH   8  10
ATOM     10  C   UNL A   1      33.505  24.539  24.625  1.00  0.00     0.119 C 
ATOM     11  N   UNL A   1      33.198  22.165  24.473  1.00  0.00    -0.329 N 
ATOM     12  C   UNL A   1      33.593  22.637  23.155  1.00  0.00     0.263 C 
ATOM     13  C   UNL A   1      32.718  23.344  25.207  1.00  0.00     0.281 C 
ATOM     14  H   UNL A   1      34.001  21.754  24.947  1.00  0.00     0.348 HD
ATOM     15  C   UNL A   1      34.365  23.895  23.524  1.00  0.00     0.086 C 
ATOM     16  C   UNL A   1      34.364  25.192  25.716  1.00  0.00     0.030 C 
BRANCH  11  17
ATOM     17  C   UNL A   1      32.278  21.014  24.482  1.00  0.00     0.319 C 
BRANCH  17  18
ATOM     18  C   UNL A   1      32.833  19.679  24.009  1.00  0.00     0.095 A 
ATOM     19  C   UNL A   1      35.719  17.615  24.949  1.00  0.00     0.067 C 
ATOM     20  C   UNL A   1      34.469  18.037  24.248  1.00  0.00     0.038 A 
ATOM     21  C   UNL A   1      33.833  17.211  23.332  1.00  0.00     0.023 A 
ATOM     22  N   UNL A   1      33.998  19.262  24.566  1.00  0.00    -0.252 NA
ATOM     23  C   UNL A   1      32.661  17.660  22.732  1.00  0.00     0.004 A 
ATOM     24  C   UNL A   1      32.147  18.907  23.078  1.00  0.00     0.030 A 
ENDBRANCH  17  18
ENDBRANCH  11  17
ENDBRANCH   8  10
ENDBRANCH   7   8
ENDBRANCH   6   7
ENDBRANCH   5   6
ENDBRANCH   4   5
ENDBRANCH   3   4
ENDBRANCH   2   3
ENDBRANCH   1   2
BRANCH   1  25
ATOM     25  C   UNL A   1      34.362  30.060  27.117  1.00  0.00     0.188 C 
BRANCH  25  26
ATOM     26  C   UNL A   1      33.942  31.412  27.707  1.00  0.00     0.188 C 
BRANCH  26  27
ATOM     27  O   UNL A   1      34.837  32.110  28.566  1.00  0.00    -0.376 OA
BRANCH  27  28
ATOM     28  C   UNL A   1      34.325  32.931  29.613  1.00  0.00     0.202 C 
BRANCH  28  29
ATOM     29  C   UNL A   1      35.131  33.075  30.912  1.00  0.00     0.261 C 
BRANCH  29  30
ATOM     30  O   UNL A   1      34.983  31.993  31.853  1.00  0.00    -0.460 OA
BRANCH  30  31
ATOM     31  C   UNL A   1      36.032  31.787  32.673  1.00  0.00     0.338 C 
ATOM     32  O   UNL A   1      36.138  32.138  33.850  1.00  0.00    -0.246 OA
BRANCH  31  33
ATOM     33  C   UNL A   1      37.075  30.976  32.026  1.00  0.00     0.060 A 
ATOM     34  C   UNL A   1      38.302  30.821  32.686  1.00  0.00     0.016 A 
ATOM     35  C   UNL A   1      36.919  30.524  30.714  1.00  0.00     0.016 A 
ATOM     36  C   UNL A   1      39.390  30.254  32.019  1.00  0.00     0.010 A 
ATOM     37  C   UNL A   1      38.017  29.973  30.040  1.00  0.00     0.010 A 
ATOM     38  C   UNL A   1      39.268  29.873  30.676  1.00  0.00    -0.014 A 
BRANCH  38  39
ATOM     39  C   UNL A   1      40.488  29.561  29.885  1.00  0.00     0.031 A 
ATOM     40  C   UNL A   1      40.632  28.186  29.293  1.00  0.00     0.074 A 
ATOM     41  C   UNL A   1      41.440  30.484  29.664  1.00  0.00     0.049 A 
ATOM     42  N   UNL A   1      41.621  27.676  28.602  1.00  0.00    -0.248 NA
ATOM     43  C   UNL A   1      39.506  27.262  29.501  1.00  0.00     0.031 C 
ATOM     44  C   UNL A   1      41.397  31.865  30.131  1.00  0.00     0.029 A 
ATOM     45  N   UNL A   1      42.635  30.394  28.992  1.00  0.00    -0.354 N 
ATOM     46  C   UNL A   1      41.232  26.382  28.285  1.00  0.00     0.074 A 
ATOM     47  C   UNL A   1      39.933  26.169  28.885  1.00  0.00     0.031 C 
ATOM     48  C   UNL A   1      42.521  32.494  29.744  1.00  0.00     0.029 A 
ATOM     49  C   UNL A   1      43.376  31.549  29.030  1.00  0.00     0.049 A 
ATOM     50  H   UNL A   1      42.931  29.578  28.527  1.00  0.00     0.167 HD
ATOM     51  C   UNL A   1      41.893  25.456  27.549  1.00  0.00     0.037 A 
ATOM     52  C   UNL A   1      44.614  31.806  28.562  1.00  0.00     0.037 A 
ATOM     53  C   UNL A   1      43.194  25.651  26.969  1.00  0.00     0.049 A 
ATOM     54  C   UNL A   1      45.376  30.717  27.847  1.00  0.00     0.074 A 
ATOM     55  C   UNL A   1      43.954  24.760  26.232  1.00  0.00     0.029 A 
ATOM     56  N   UNL A   1      43.932  26.821  27.068  1.00  0.00    -0.354 N 
ATOM     57  N   UNL A   1      44.995  29.501  27.541  1.00  0.00    -0.248 NA
ATOM     58  C   UNL A   1      46.743  31.041  27.412  1.00  0.00     0.031 C 
ATOM     59  C   UNL A   1      45.170  25.376  25.918  1.00  0.00     0.029 A 
ATOM     60  C   UNL A   1      45.147  26.668  26.418  1.00  0.00     0.049 A 
ATOM     61  H   UNL A   1      43.638  27.638  27.531  1.00  0.00     0.167 HD
ATOM     62  C   UNL A   1      46.055  28.931  26.847  1.00  0.00     0.074 A 
ATOM     63  C   UNL A   1      47.093  29.937  26.766  1.00  0.00     0.031 C 
ATOM     64  C   UNL A   1      46.159  27.686  26.321  1.00  0.00     0.037 A 
BRANCH  51  65
ATOM     65  C   UNL A   1      41.217  24.133  27.339  1.00  0.00     0.064 A 
ATOM     66  C   UNL A   1      40.100  24.010  26.501  1.00  0.00     0.173 A 
ATOM     67  C   UNL A   1      41.718  22.972  27.945  1.00  0.00     0.173 A 
ATOM     68  F   UNL A   1      39.576  25.096  25.910  1.00  0.00    -0.203 F 
ATOM     69  C   UNL A   1      39.497  22.773  26.288  1.00  0.00     0.198 A 
ATOM     70  C   UNL A   1      41.128  21.732  27.711  1.00  0.00     0.198 A 
ATOM     71  F   UNL A   1      42.787  23.037  28.752  1.00  0.00    -0.203 F 
ATOM     72  F   UNL A   1      38.410  22.684  25.511  1.00  0.00    -0.200 F 
ATOM     73  C   UNL A   1      40.017  21.635  26.887  1.00  0.00     0.200 A 
ATOM     74  F   UNL A   1      41.638  20.631  28.280  1.00  0.00    -0.200 F 
ATOM     75  F   UNL A   1      39.443  20.443  26.673  1.00  0.00    -0.200 F 
ENDBRANCH  51  65
BRANCH  52  76
ATOM     76  C   UNL A   1      45.238  33.141  28.765  1.00  0.00     0.064 A 
ATOM     77  C   UNL A   1      45.183  34.123  27.765  1.00  0.00     0.173 A 
ATOM     78  C   UNL A   1      45.953  33.442  29.933  1.00  0.00     0.173 A 
ATOM     79  F   UNL A   1      44.533  33.875  26.619  1.00  0.00    -0.203 F 
ATOM     80  C   UNL A   1      45.847  35.340  27.912  1.00  0.00     0.198 A 
ATOM     81  C   UNL A   1      46.590  34.670  30.092  1.00  0.00     0.198 A 
ATOM     82  F   UNL A   1      46.038  32.539  30.921  1.00  0.00    -0.203 F 
ATOM     83  F   UNL A   1      45.830  36.235  26.916  1.00  0.00    -0.200 F 
ATOM     84  C   UNL A   1      46.548  35.613  29.076  1.00  0.00     0.200 A 
ATOM     85  F   UNL A   1      47.254  34.936  31.225  1.00  0.00    -0.200 F 
ATOM     86  F   UNL A   1      47.192  36.780  29.216  1.00  0.00    -0.200 F 
ENDBRANCH  52  76
BRANCH  64  87
ATOM     87  C   UNL A   1      47.412  27.355  25.563  1.00  0.00     0.064 A 
ATOM     88  C   UNL A   1      47.524  27.587  24.184  1.00  0.00     0.173 A 
ATOM     89  C   UNL A   1      48.531  26.839  26.236  1.00  0.00     0.173 A 
ATOM     90  F   UNL A   1      46.478  28.063  23.493  1.00  0.00    -0.203 F 
ATOM     91  C   UNL A   1      48.702  27.291  23.503  1.00  0.00     0.198 A 
ATOM     92  C   UNL A   1      49.716  26.572  25.556  1.00  0.00     0.198 A 
ATOM     93  F   UNL A   1      48.477  26.605  27.555  1.00  0.00    -0.203 F 
ATOM     94  F   UNL A   1      48.772  27.477  22.177  1.00  0.00    -0.200 F 
ATOM     95  C   UNL A   1      49.799  26.792  24.191  1.00  0.00     0.200 A 
ATOM     96  F   UNL A   1      50.779  26.103  26.225  1.00  0.00    -0.200 F 
ATOM     97  F   UNL A   1      50.934  26.516  23.533  1.00  0.00    -0.200 F 
ENDBRANCH  64  87
ENDBRANCH  38  39
ENDBRANCH  31  33
ENDBRANCH  30  31
ENDBRANCH  29  30
ENDBRANCH  28  29
ENDBRANCH  27  28
ENDBRANCH  26  27
ENDBRANCH  25  26
ENDBRANCH   1  25
TORSDOF 22
ENDMDL
MODEL 2
REMARK VINA RESULT:     -10.3      1.495      7.360
REMARK SMILES Cc1cccc(C[N@H+]2CC[C@@](C)(C(=O)OCCOCCOCCOCCOC(=O)c3ccc(-c4c5nc(c(-c6c(F)c(F)c(F)c(F)c6F)c6ccc([nH]6)c(-c6c(F)c(F)c(F)c(F)c6F)c6nc(c(-c7c(F)c(F)c(F)c(F)c7F)c7ccc4[nH]7)C=C6)C=C5)cc3)C2)n1
REMARK SMILES IDX 21 1 20 2 19 3 18 4 17 5 16 6 15 7 13 8 14 9 11 10 8 11 9 12
REMARK SMILES IDX 93 13 10 15 12 16 7 17 6 18 1 19 2 20 3 21 94 22 4 23 5 24
REMARK SMILES IDX 22 25 23 26 24 27 25 28 26 29 27 30 28 31 29 32 30 33 31 34
REMARK SMILES IDX 92 35 32 36 91 37 33 38 34 39 35 40 85 41 36 42 90 43 84 44
REMARK SMILES IDX 86 45 37 46 89 47 83 48 82 49 38 51 70 52 50 53 69 54 51 55
REMARK SMILES IDX 54 56 68 57 87 58 52 59 53 60 67 62 88 63 55 64 39 65 40 66
REMARK SMILES IDX 48 67 41 68 42 69 46 70 49 71 43 72 44 73 47 74 45 75 71 76
REMARK SMILES IDX 72 77 80 78 73 79 74 80 78 81 81 82 75 83 76 84 79 85 77 86
REMARK SMILES IDX 56 87 57 88 65 89 58 90 59 91 63 92 66 93 60 94 61 95 64 96
REMARK SMILES IDX 62 97
REMARK H PARENT 8 14 86 50 54 61
REMARK Flexibility Score: inf
ROOT
ATOM      1  O   UNL A   1      33.664  33.714  28.283  1.00  0.00    -0.377 OA
ENDROOT
BRANCH   1   2
ATOM      2  C   UNL A   1      34.288  32.523  27.856  1.00  0.00     0.188 C 
BRANCH   2   3
ATOM      3  C   UNL A   1      33.389  31.312  27.580  1.00  0.00     0.188 C 
BRANCH   3   4
ATOM      4  O   UNL A   1      32.118  31.563  26.973  1.00  0.00    -0.376 OA
BRANCH   4   5
ATOM      5  C   UNL A   1      31.557  30.567  26.119  1.00  0.00     0.202 C 
BRANCH   5   6
ATOM      6  C   UNL A   1      32.520  29.801  25.208  1.00  0.00     0.261 C 
BRANCH   6   7
ATOM      7  O   UNL A   1      31.829  28.843  24.383  1.00  0.00    -0.463 OA
BRANCH   7   8
ATOM      8  C   UNL A   1      31.676  27.592  24.876  1.00  0.00     0.317 C 
ATOM      9  O   UNL A   1      31.184  27.354  25.976  1.00  0.00    -0.251 OA
BRANCH   8  10
ATOM     10  C   UNL A   1      32.160  26.478  23.939  1.00  0.00     0.119 C 
ATOM     11  N   UNL A   1      31.529  24.164  23.894  1.00  0.00    -0.329 N 
ATOM     12  C   UNL A   1      30.361  24.941  23.507  1.00  0.00     0.263 C 
ATOM     13  C   UNL A   1      32.438  25.098  24.573  1.00  0.00     0.281 C 
ATOM     14  H   UNL A   1      31.975  23.775  23.064  1.00  0.00     0.348 HD
ATOM     15  C   UNL A   1      31.024  26.188  22.942  1.00  0.00     0.086 C 
ATOM     16  C   UNL A   1      33.419  27.004  23.236  1.00  0.00     0.030 C 
BRANCH  11  17
ATOM     17  C   UNL A   1      31.246  22.925  24.639  1.00  0.00     0.319 C 
BRANCH  17  18
ATOM     18  C   UNL A   1      32.334  22.411  25.569  1.00  0.00     0.095 A 
ATOM     19  C   UNL A   1      35.576  20.763  25.072  1.00  0.00     0.067 C 
ATOM     20  C   UNL A   1      34.421  21.396  25.778  1.00  0.00     0.038 A 
ATOM     21  C   UNL A   1      34.422  21.587  27.153  1.00  0.00     0.023 A 
ATOM     22  N   UNL A   1      33.387  21.775  24.997  1.00  0.00    -0.252 NA
ATOM     23  C   UNL A   1      33.322  22.201  27.741  1.00  0.00     0.004 A 
ATOM     24  C   UNL A   1      32.265  22.627  26.941  1.00  0.00     0.030 A 
ENDBRANCH  17  18
ENDBRANCH  11  17
ENDBRANCH   8  10
ENDBRANCH   7   8
ENDBRANCH   6   7
ENDBRANCH   5   6
ENDBRANCH   4   5
ENDBRANCH   3   4
ENDBRANCH   2   3
ENDBRANCH   1   2
BRANCH   1  25
ATOM     25  C   UNL A   1      34.473  34.823  28.589  1.00  0.00     0.188 C 
BRANCH  25  26
ATOM     26  C   UNL A   1      33.908  35.639  29.759  1.00  0.00     0.188 C 
BRANCH  26  27
ATOM     27  O   UNL A   1      33.652  34.993  31.003  1.00  0.00    -0.376 OA
BRANCH  27  28
ATOM     28  C   UNL A   1      34.511  35.228  32.116  1.00  0.00     0.202 C 
BRANCH  28  29
ATOM     29  C   UNL A   1      35.913  34.601  32.123  1.00  0.00     0.261 C 
BRANCH  29  30
ATOM     30  O   UNL A   1      36.021  33.340  32.815  1.00  0.00    -0.460 OA
BRANCH  30  31
ATOM     31  C   UNL A   1      35.429  32.292  32.211  1.00  0.00     0.338 C 
ATOM     32  O   UNL A   1      34.220  32.103  32.060  1.00  0.00    -0.246 OA
BRANCH  31  33
ATOM     33  C   UNL A   1      36.418  31.371  31.629  1.00  0.00     0.060 A 
ATOM     34  C   UNL A   1      37.490  30.952  32.430  1.00  0.00     0.016 A 
ATOM     35  C   UNL A   1      36.396  31.065  30.266  1.00  0.00     0.016 A 
ATOM     36  C   UNL A   1      38.564  30.263  31.861  1.00  0.00     0.010 A 
ATOM     37  C   UNL A   1      37.483  30.392  29.694  1.00  0.00     0.010 A 
ATOM     38  C   UNL A   1      38.590  30.025  30.480  1.00  0.00    -0.014 A 
BRANCH  38  39
ATOM     39  C   UNL A   1      39.852  29.575  29.835  1.00  0.00     0.031 A 
ATOM     40  C   UNL A   1      40.990  30.552  29.715  1.00  0.00     0.074 A 
ATOM     41  C   UNL A   1      40.006  28.316  29.390  1.00  0.00     0.049 A 
ATOM     42  N   UNL A   1      42.165  30.397  29.159  1.00  0.00    -0.248 NA
ATOM     43  C   UNL A   1      40.776  31.881  30.310  1.00  0.00     0.031 C 
ATOM     44  C   UNL A   1      39.008  27.258  29.495  1.00  0.00     0.029 A 
ATOM     45  N   UNL A   1      41.065  27.715  28.753  1.00  0.00    -0.354 N 
ATOM     46  C   UNL A   1      42.833  31.600  29.347  1.00  0.00     0.074 A 
ATOM     47  C   UNL A   1      41.922  32.488  30.037  1.00  0.00     0.031 C 
ATOM     48  C   UNL A   1      39.493  26.138  28.931  1.00  0.00     0.029 A 
ATOM     49  C   UNL A   1      40.825  26.411  28.395  1.00  0.00     0.049 A 
ATOM     50  H   UNL A   1      41.916  28.177  28.571  1.00  0.00     0.167 HD
ATOM     51  C   UNL A   1      44.095  31.932  28.986  1.00  0.00     0.037 A 
ATOM     52  C   UNL A   1      41.585  25.546  27.695  1.00  0.00     0.037 A 
ATOM     53  C   UNL A   1      44.997  31.064  28.280  1.00  0.00     0.049 A 
ATOM     54  C   UNL A   1      42.943  25.983  27.203  1.00  0.00     0.074 A 
ATOM     55  C   UNL A   1      46.286  31.324  27.846  1.00  0.00     0.029 A 
ATOM     56  N   UNL A   1      44.700  29.765  27.895  1.00  0.00    -0.354 N 
ATOM     57  N   UNL A   1      43.570  27.117  27.395  1.00  0.00    -0.248 NA
ATOM     58  C   UNL A   1      43.699  25.014  26.395  1.00  0.00     0.031 C 
ATOM     59  C   UNL A   1      46.755  30.196  27.164  1.00  0.00     0.029 A 
ATOM     60  C   UNL A   1      45.777  29.217  27.216  1.00  0.00     0.049 A 
ATOM     61  H   UNL A   1      43.851  29.301  28.077  1.00  0.00     0.167 HD
ATOM     62  C   UNL A   1      44.803  26.985  26.770  1.00  0.00     0.074 A 
ATOM     63  C   UNL A   1      44.842  25.655  26.199  1.00  0.00     0.031 C 
ATOM     64  C   UNL A   1      45.814  27.883  26.677  1.00  0.00     0.037 A 
BRANCH  51  65
ATOM     65  C   UNL A   1      44.574  33.308  29.343  1.00  0.00     0.064 A 
ATOM     66  C   UNL A   1      44.341  34.403  28.498  1.00  0.00     0.173 A 
ATOM     67  C   UNL A   1      45.230  33.543  30.560  1.00  0.00     0.173 A 
ATOM     68  F   UNL A   1      43.729  34.226  27.317  1.00  0.00    -0.203 F 
ATOM     69  C   UNL A   1      44.762  35.682  28.851  1.00  0.00     0.198 A 
ATOM     70  C   UNL A   1      45.628  34.827  30.922  1.00  0.00     0.198 A 
ATOM     71  F   UNL A   1      45.472  32.529  31.404  1.00  0.00    -0.203 F 
ATOM     72  F   UNL A   1      44.560  36.707  28.013  1.00  0.00    -0.200 F 
ATOM     73  C   UNL A   1      45.398  35.894  30.066  1.00  0.00     0.200 A 
ATOM     74  F   UNL A   1      46.232  35.033  32.100  1.00  0.00    -0.200 F 
ATOM     75  F   UNL A   1      45.794  37.128  30.410  1.00  0.00    -0.200 F 
ENDBRANCH  51  65
BRANCH  52  76
ATOM     76  C   UNL A   1      41.086  24.179  27.386  1.00  0.00     0.064 A 
ATOM     77  C   UNL A   1      40.002  23.986  26.517  1.00  0.00     0.173 A 
ATOM     78  C   UNL A   1      41.639  23.045  27.998  1.00  0.00     0.173 A 
ATOM     79  F   UNL A   1      39.422  25.040  25.925  1.00  0.00    -0.203 F 
ATOM     80  C   UNL A   1      39.471  22.715  26.299  1.00  0.00     0.198 A 
ATOM     81  C   UNL A   1      41.126  21.773  27.755  1.00  0.00     0.198 A 
ATOM     82  F   UNL A   1      42.676  23.173  28.838  1.00  0.00    -0.203 F 
ATOM     83  F   UNL A   1      38.396  22.567  25.513  1.00  0.00    -0.200 F 
ATOM     84  C   UNL A   1      40.035  21.610  26.917  1.00  0.00     0.200 A 
ATOM     85  F   UNL A   1      41.685  20.705  28.343  1.00  0.00    -0.200 F 
ATOM     86  F   UNL A   1      39.520  20.390  26.713  1.00  0.00    -0.200 F 
ENDBRANCH  52  76
BRANCH  64  87
ATOM     87  C   UNL A   1      47.071  27.444  25.984  1.00  0.00     0.064 A 
ATOM     88  C   UNL A   1      47.270  27.654  24.612  1.00  0.00     0.173 A 
ATOM     89  C   UNL A   1      48.109  26.844  26.715  1.00  0.00     0.173 A 
ATOM     90  F   UNL A   1      46.303  28.208  23.867  1.00  0.00    -0.203 F 
ATOM     91  C   UNL A   1      48.453  27.257  23.992  1.00  0.00     0.198 A 
ATOM     92  C   UNL A   1      49.301  26.475  26.097  1.00  0.00     0.198 A 
ATOM     93  F   UNL A   1      47.971  26.626  28.030  1.00  0.00    -0.203 F 
ATOM     94  F   UNL A   1      48.603  27.425  22.670  1.00  0.00    -0.200 F 
ATOM     95  C   UNL A   1      49.469  26.675  24.736  1.00  0.00     0.200 A 
ATOM     96  F   UNL A   1      50.287  25.926  26.820  1.00  0.00    -0.200 F 
ATOM     97  F   UNL A   1      50.609  26.301  24.137  1.00  0.00    -0.200 F 
ENDBRANCH  64  87
ENDBRANCH  38  39
ENDBRANCH  31  33
ENDBRANCH  30  31
ENDBRANCH  29  30
ENDBRANCH  28  29
ENDBRANCH  27  28
ENDBRANCH  26  27
ENDBRANCH  25  26
ENDBRANCH   1  25
TORSDOF 22
ENDMDL
MODEL 3
REMARK VINA RESULT:     -10.3      5.124      9.483
REMARK SMILES Cc1cccc(C[N@H+]2CC[C@@](C)(C(=O)OCCOCCOCCOCCOC(=O)c3ccc(-c4c5nc(c(-c6c(F)c(F)c(F)c(F)c6F)c6ccc([nH]6)c(-c6c(F)c(F)c(F)c(F)c6F)c6nc(c(-c7c(F)c(F)c(F)c(F)c7F)c7ccc4[nH]7)C=C6)C=C5)cc3)C2)n1
REMARK SMILES IDX 21 1 20 2 19 3 18 4 17 5 16 6 15 7 13 8 14 9 11 10 8 11 9 12
REMARK SMILES IDX 93 13 10 15 12 16 7 17 6 18 1 19 2 20 3 21 94 22 4 23 5 24
REMARK SMILES IDX 22 25 23 26 24 27 25 28 26 29 27 30 28 31 29 32 30 33 31 34
REMARK SMILES IDX 92 35 32 36 91 37 33 38 34 39 35 40 85 41 36 42 90 43 84 44
REMARK SMILES IDX 86 45 37 46 89 47 83 48 82 49 38 51 70 52 50 53 69 54 51 55
REMARK SMILES IDX 54 56 68 57 87 58 52 59 53 60 67 62 88 63 55 64 39 65 40 66
REMARK SMILES IDX 48 67 41 68 42 69 46 70 49 71 43 72 44 73 47 74 45 75 71 76
REMARK SMILES IDX 72 77 80 78 73 79 74 80 78 81 81 82 75 83 76 84 79 85 77 86
REMARK SMILES IDX 56 87 57 88 65 89 58 90 59 91 63 92 66 93 60 94 61 95 64 96
REMARK SMILES IDX 62 97
REMARK H PARENT 8 14 86 50 54 61
REMARK Flexibility Score: inf
ROOT
ATOM      1  O   UNL A   1      34.366  30.160  27.559  1.00  0.00    -0.377 OA
ENDROOT
BRANCH   1   2
ATOM      2  C   UNL A   1      33.393  30.773  26.741  1.00  0.00     0.188 C 
BRANCH   2   3
ATOM      3  C   UNL A   1      31.987  30.161  26.733  1.00  0.00     0.188 C 
BRANCH   3   4
ATOM      4  O   UNL A   1      31.516  29.616  25.497  1.00  0.00    -0.376 OA
BRANCH   4   5
ATOM      5  C   UNL A   1      32.458  29.367  24.454  1.00  0.00     0.202 C 
BRANCH   5   6
ATOM      6  C   UNL A   1      32.246  28.112  23.603  1.00  0.00     0.261 C 
BRANCH   6   7
ATOM      7  O   UNL A   1      33.194  27.077  23.931  1.00  0.00    -0.463 OA
BRANCH   7   8
ATOM      8  C   UNL A   1      33.252  26.672  25.221  1.00  0.00     0.317 C 
ATOM      9  O   UNL A   1      34.008  27.168  26.052  1.00  0.00    -0.251 OA
BRANCH   8  10
ATOM     10  C   UNL A   1      32.279  25.539  25.574  1.00  0.00     0.119 C 
ATOM     11  N   UNL A   1      32.260  23.271  24.794  1.00  0.00    -0.329 N 
ATOM     12  C   UNL A   1      33.454  23.440  25.608  1.00  0.00     0.263 C 
ATOM     13  C   UNL A   1      31.821  24.622  24.419  1.00  0.00     0.281 C 
ATOM     14  H   UNL A   1      31.536  22.801  25.337  1.00  0.00     0.348 HD
ATOM     15  C   UNL A   1      33.016  24.576  26.521  1.00  0.00     0.086 C 
ATOM     16  C   UNL A   1      31.065  26.191  26.250  1.00  0.00     0.030 C 
BRANCH  11  17
ATOM     17  C   UNL A   1      32.389  22.327  23.670  1.00  0.00     0.319 C 
BRANCH  17  18
ATOM     18  C   UNL A   1      32.441  20.846  24.010  1.00  0.00     0.095 A 
ATOM     19  C   UNL A   1      32.290  17.749  22.045  1.00  0.00     0.067 C 
ATOM     20  C   UNL A   1      32.417  18.650  23.231  1.00  0.00     0.038 A 
ATOM     21  C   UNL A   1      32.673  18.153  24.500  1.00  0.00     0.023 A 
ATOM     22  N   UNL A   1      32.276  19.971  22.986  1.00  0.00    -0.252 NA
ATOM     23  C   UNL A   1      32.799  19.051  25.554  1.00  0.00     0.004 A 
ATOM     24  C   UNL A   1      32.690  20.417  25.309  1.00  0.00     0.030 A 
ENDBRANCH  17  18
ENDBRANCH  11  17
ENDBRANCH   8  10
ENDBRANCH   7   8
ENDBRANCH   6   7
ENDBRANCH   5   6
ENDBRANCH   4   5
ENDBRANCH   3   4
ENDBRANCH   2   3
ENDBRANCH   1   2
BRANCH   1  25
ATOM     25  C   UNL A   1      35.168  30.978  28.376  1.00  0.00     0.188 C 
BRANCH  25  26
ATOM     26  C   UNL A   1      35.045  32.460  27.998  1.00  0.00     0.188 C 
BRANCH  26  27
ATOM     27  O   UNL A   1      34.274  33.330  28.820  1.00  0.00    -0.376 OA
BRANCH  27  28
ATOM     28  C   UNL A   1      34.255  34.731  28.553  1.00  0.00     0.202 C 
BRANCH  28  29
ATOM     29  C   UNL A   1      33.231  35.616  29.277  1.00  0.00     0.261 C 
BRANCH  29  30
ATOM     30  O   UNL A   1      32.561  34.996  30.393  1.00  0.00    -0.460 OA
BRANCH  30  31
ATOM     31  C   UNL A   1      32.727  35.605  31.583  1.00  0.00     0.338 C 
ATOM     32  O   UNL A   1      32.038  36.509  32.060  1.00  0.00    -0.246 OA
BRANCH  31  33
ATOM     33  C   UNL A   1      33.822  34.998  32.355  1.00  0.00     0.060 A 
ATOM     34  C   UNL A   1      35.061  35.655  32.384  1.00  0.00     0.016 A 
ATOM     35  C   UNL A   1      33.693  33.716  32.894  1.00  0.00     0.016 A 
ATOM     36  C   UNL A   1      36.183  35.014  32.912  1.00  0.00     0.010 A 
ATOM     37  C   UNL A   1      34.824  33.066  33.405  1.00  0.00     0.010 A 
ATOM     38  C   UNL A   1      36.082  33.696  33.379  1.00  0.00    -0.014 A 
BRANCH  38  39
ATOM     39  C   UNL A   1      37.318  32.914  33.651  1.00  0.00     0.031 A 
ATOM     40  C   UNL A   1      38.073  33.176  34.925  1.00  0.00     0.074 A 
ATOM     41  C   UNL A   1      37.751  31.965  32.803  1.00  0.00     0.049 A 
ATOM     42  N   UNL A   1      39.191  32.647  35.354  1.00  0.00    -0.248 NA
ATOM     43  C   UNL A   1      37.484  34.164  35.842  1.00  0.00     0.031 C 
ATOM     44  C   UNL A   1      37.085  31.572  31.567  1.00  0.00     0.029 A 
ATOM     45  N   UNL A   1      38.863  31.159  32.855  1.00  0.00    -0.354 N 
ATOM     46  C   UNL A   1      39.431  33.227  36.593  1.00  0.00     0.074 A 
ATOM     47  C   UNL A   1      38.364  34.174  36.833  1.00  0.00     0.031 C 
ATOM     48  C   UNL A   1      37.806  30.609  30.966  1.00  0.00     0.029 A 
ATOM     49  C   UNL A   1      39.002  30.340  31.761  1.00  0.00     0.049 A 
ATOM     50  H   UNL A   1      39.499  31.168  33.606  1.00  0.00     0.167 HD
ATOM     51  C   UNL A   1      40.445  32.985  37.458  1.00  0.00     0.037 A 
ATOM     52  C   UNL A   1      39.993  29.490  31.430  1.00  0.00     0.037 A 
ATOM     53  C   UNL A   1      41.521  32.063  37.216  1.00  0.00     0.049 A 
ATOM     54  C   UNL A   1      41.170  29.327  32.360  1.00  0.00     0.074 A 
ATOM     55  C   UNL A   1      42.608  31.773  38.022  1.00  0.00     0.029 A 
ATOM     56  N   UNL A   1      41.650  31.286  36.075  1.00  0.00    -0.354 N 
ATOM     57  N   UNL A   1      41.383  29.870  33.533  1.00  0.00    -0.248 NA
ATOM     58  C   UNL A   1      42.247  28.429  31.914  1.00  0.00     0.031 C 
ATOM     59  C   UNL A   1      43.417  30.848  37.352  1.00  0.00     0.029 A 
ATOM     60  C   UNL A   1      42.808  30.527  36.150  1.00  0.00     0.049 A 
ATOM     61  H   UNL A   1      41.015  31.274  35.323  1.00  0.00     0.167 HD
ATOM     62  C   UNL A   1      42.591  29.351  33.982  1.00  0.00     0.074 A 
ATOM     63  C   UNL A   1      43.063  28.442  32.959  1.00  0.00     0.031 C 
ATOM     64  C   UNL A   1      43.252  29.605  35.138  1.00  0.00     0.037 A 
BRANCH  51  65
ATOM     65  C   UNL A   1      40.442  33.743  38.752  1.00  0.00     0.064 A 
ATOM     66  C   UNL A   1      41.175  34.929  38.903  1.00  0.00     0.173 A 
ATOM     67  C   UNL A   1      39.664  33.306  39.834  1.00  0.00     0.173 A 
ATOM     68  F   UNL A   1      41.945  35.379  37.900  1.00  0.00    -0.203 F 
ATOM     69  C   UNL A   1      41.143  35.643  40.098  1.00  0.00     0.198 A 
ATOM     70  C   UNL A   1      39.615  34.036  41.019  1.00  0.00     0.198 A 
ATOM     71  F   UNL A   1      38.943  32.180  39.737  1.00  0.00    -0.203 F 
ATOM     72  F   UNL A   1      41.878  36.754  40.232  1.00  0.00    -0.200 F 
ATOM     73  C   UNL A   1      40.357  35.199  41.151  1.00  0.00     0.200 A 
ATOM     74  F   UNL A   1      38.846  33.613  42.032  1.00  0.00    -0.200 F 
ATOM     75  F   UNL A   1      40.318  35.893  42.298  1.00  0.00    -0.200 F 
ENDBRANCH  51  65
BRANCH  52  76
ATOM     76  C   UNL A   1      39.945  28.733  30.150  1.00  0.00     0.064 A 
ATOM     77  C   UNL A   1      39.353  27.463  30.085  1.00  0.00     0.173 A 
ATOM     78  C   UNL A   1      40.541  29.234  28.983  1.00  0.00     0.173 A 
ATOM     79  F   UNL A   1      38.792  26.929  31.179  1.00  0.00    -0.203 F 
ATOM     80  C   UNL A   1      39.390  26.710  28.912  1.00  0.00     0.198 A 
ATOM     81  C   UNL A   1      40.549  28.493  27.804  1.00  0.00     0.198 A 
ATOM     82  F   UNL A   1      41.121  30.443  28.991  1.00  0.00    -0.203 F 
ATOM     83  F   UNL A   1      38.872  25.475  28.895  1.00  0.00    -0.200 F 
ATOM     84  C   UNL A   1      39.985  27.227  27.772  1.00  0.00     0.200 A 
ATOM     85  F   UNL A   1      41.112  29.004  26.700  1.00  0.00    -0.200 F 
ATOM     86  F   UNL A   1      40.026  26.501  26.646  1.00  0.00    -0.200 F 
ENDBRANCH  52  76
BRANCH  64  87
ATOM     87  C   UNL A   1      44.524  28.849  35.391  1.00  0.00     0.064 A 
ATOM     88  C   UNL A   1      45.773  29.355  35.003  1.00  0.00     0.173 A 
ATOM     89  C   UNL A   1      44.494  27.621  36.070  1.00  0.00     0.173 A 
ATOM     90  F   UNL A   1      45.854  30.517  34.337  1.00  0.00    -0.203 F 
ATOM     91  C   UNL A   1      46.944  28.648  35.265  1.00  0.00     0.198 A 
ATOM     92  C   UNL A   1      45.669  26.930  36.355  1.00  0.00     0.198 A 
ATOM     93  F   UNL A   1      43.326  27.096  36.467  1.00  0.00    -0.203 F 
ATOM     94  F   UNL A   1      48.123  29.128  34.845  1.00  0.00    -0.200 F 
ATOM     95  C   UNL A   1      46.891  27.441  35.947  1.00  0.00     0.200 A 
ATOM     96  F   UNL A   1      45.618  25.772  37.026  1.00  0.00    -0.200 F 
ATOM     97  F   UNL A   1      48.021  26.766  36.205  1.00  0.00    -0.200 F 
ENDBRANCH  64  87
ENDBRANCH  38  39
ENDBRANCH  31  33
ENDBRANCH  30  31
ENDBRANCH  29  30
ENDBRANCH  28  29
ENDBRANCH  27  28
ENDBRANCH  26  27
ENDBRANCH  25  26
ENDBRANCH   1  25
TORSDOF 22
ENDMDL
