MODEL 1
REMARK VINA RESULT:     -10.7      0.000      0.000
REMARK SMILES O=C(OCCOCCOCCOCCOC(=O)[C@H]1CCC[N@@H+](C2CC[NH+](Cc3ccccc3)CC2)C1)c1ccc(-c2c3nc(c(-c4c(F)c(F)c(F)c(F)c4F)c4ccc([nH]4)c(-c4c(F)c(F)c(F)c(F)c4F)c4nc(c(-c5c(F)c(F)c(F)c(F)c5F)c5ccc2[nH]5)C=C4)C=C3)cc1
REMARK SMILES IDX 10 1 9 2 8 3 7 4 6 5 5 6 4 7 3 8 2 9 1 10 37 11 38 12 99 13
REMARK SMILES IDX 39 14 98 15 40 16 41 17 42 18 92 19 43 20 97 21 91 22 93 23
REMARK SMILES IDX 44 24 96 25 90 26 89 27 45 29 77 30 57 31 76 32 58 33 61 34
REMARK SMILES IDX 75 35 94 36 59 37 60 38 74 40 95 41 62 42 46 43 47 44 55 45
REMARK SMILES IDX 48 46 49 47 53 48 56 49 50 50 51 51 54 52 52 53 78 54 79 55
REMARK SMILES IDX 87 56 80 57 81 58 85 59 88 60 82 61 83 62 86 63 84 64 63 65
REMARK SMILES IDX 64 66 72 67 65 68 66 69 70 70 73 71 67 72 68 73 71 74 69 75
REMARK SMILES IDX 11 76 12 77 13 78 14 79 15 80 16 81 17 82 18 83 19 84 36 85
REMARK SMILES IDX 20 86 22 87 21 88 23 90 24 91 35 92 25 93 34 94 26 95 27 97
REMARK SMILES IDX 28 98 29 99 33 100 30 101 32 102 31 103
REMARK H PARENT 93 28 61 39 22 89 26 96
REMARK Flexibility Score: inf
ROOT
ATOM      1  C   UNL A   1      38.988  21.470  25.749  1.00  0.00     0.188 C 
ENDROOT
BRANCH   1   2
ATOM      2  O   UNL A   1      39.582  22.466  26.555  1.00  0.00    -0.377 OA
BRANCH   2   3
ATOM      3  C   UNL A   1      40.856  22.081  27.078  1.00  0.00     0.188 C 
BRANCH   3   4
ATOM      4  C   UNL A   1      41.090  20.564  27.285  1.00  0.00     0.188 C 
BRANCH   4   5
ATOM      5  O   UNL A   1      42.005  19.980  26.344  1.00  0.00    -0.376 OA
BRANCH   5   6
ATOM      6  C   UNL A   1      42.617  18.723  26.684  1.00  0.00     0.202 C 
BRANCH   6   7
ATOM      7  C   UNL A   1      43.673  18.204  25.719  1.00  0.00     0.261 C 
BRANCH   7   8
ATOM      8  O   UNL A   1      43.839  19.022  24.559  1.00  0.00    -0.460 OA
BRANCH   8   9
ATOM      9  C   UNL A   1      44.835  19.892  24.277  1.00  0.00     0.338 C 
ATOM     10  O   UNL A   1      45.774  19.486  23.593  1.00  0.00    -0.246 OA
BRANCH   9  11
ATOM     11  C   UNL A   1      44.897  21.310  24.760  1.00  0.00     0.060 A 
ATOM     12  C   UNL A   1      44.642  22.448  23.998  1.00  0.00     0.016 A 
ATOM     13  C   UNL A   1      45.171  21.499  26.127  1.00  0.00     0.016 A 
ATOM     14  C   UNL A   1      44.607  23.714  24.540  1.00  0.00     0.010 A 
ATOM     15  C   UNL A   1      45.200  22.780  26.685  1.00  0.00     0.010 A 
ATOM     16  C   UNL A   1      44.925  23.884  25.876  1.00  0.00    -0.014 A 
BRANCH  16  17
ATOM     17  C   UNL A   1      45.239  25.260  26.266  1.00  0.00     0.031 A 
ATOM     18  C   UNL A   1      44.136  26.035  26.911  1.00  0.00     0.074 A 
ATOM     19  C   UNL A   1      46.514  25.676  26.263  1.00  0.00     0.049 A 
ATOM     20  N   UNL A   1      44.113  27.275  27.307  1.00  0.00    -0.248 NA
ATOM     21  C   UNL A   1      42.888  25.294  27.177  1.00  0.00     0.031 C 
ATOM     22  C   UNL A   1      47.666  24.861  25.868  1.00  0.00     0.029 A 
ATOM     23  N   UNL A   1      47.057  26.870  26.638  1.00  0.00    -0.354 N 
ATOM     24  C   UNL A   1      42.839  27.474  27.820  1.00  0.00     0.074 A 
ATOM     25  C   UNL A   1      42.121  26.227  27.712  1.00  0.00     0.031 C 
ATOM     26  C   UNL A   1      48.784  25.592  26.007  1.00  0.00     0.029 A 
ATOM     27  C   UNL A   1      48.410  26.940  26.419  1.00  0.00     0.049 A 
ATOM     28  H   UNL A   1      46.532  27.607  27.026  1.00  0.00     0.167 HD
ATOM     29  C   UNL A   1      42.323  28.621  28.311  1.00  0.00     0.037 A 
ATOM     30  C   UNL A   1      49.221  28.009  26.484  1.00  0.00     0.037 A 
ATOM     31  C   UNL A   1      43.089  29.832  28.380  1.00  0.00     0.049 A 
ATOM     32  C   UNL A   1      48.593  29.316  26.893  1.00  0.00     0.074 A 
ATOM     33  C   UNL A   1      42.689  31.098  28.754  1.00  0.00     0.029 A 
ATOM     34  N   UNL A   1      44.439  29.911  28.051  1.00  0.00    -0.354 N 
ATOM     35  N   UNL A   1      47.356  29.557  27.266  1.00  0.00    -0.248 NA
ATOM     36  C   UNL A   1      49.456  30.501  26.875  1.00  0.00     0.031 C 
ATOM     37  C   UNL A   1      43.785  31.954  28.593  1.00  0.00     0.029 A 
ATOM     38  C   UNL A   1      44.886  31.211  28.186  1.00  0.00     0.049 A 
ATOM     39  H   UNL A   1      44.996  29.151  27.765  1.00  0.00     0.167 HD
ATOM     40  C   UNL A   1      47.291  30.913  27.542  1.00  0.00     0.074 A 
ATOM     41  C   UNL A   1      48.625  31.438  27.311  1.00  0.00     0.031 C 
ATOM     42  C   UNL A   1      46.235  31.665  27.945  1.00  0.00     0.037 A 
BRANCH  29  43
ATOM     43  C   UNL A   1      40.863  28.613  28.655  1.00  0.00     0.064 A 
ATOM     44  C   UNL A   1      39.868  28.973  27.733  1.00  0.00     0.173 A 
ATOM     45  C   UNL A   1      40.463  28.333  29.971  1.00  0.00     0.173 A 
ATOM     46  F   UNL A   1      40.199  29.295  26.473  1.00  0.00    -0.203 F 
ATOM     47  C   UNL A   1      38.536  29.093  28.126  1.00  0.00     0.198 A 
ATOM     48  C   UNL A   1      39.127  28.423  30.353  1.00  0.00     0.198 A 
ATOM     49  F   UNL A   1      41.374  28.003  30.899  1.00  0.00    -0.203 F 
ATOM     50  F   UNL A   1      37.616  29.520  27.249  1.00  0.00    -0.200 F 
ATOM     51  C   UNL A   1      38.166  28.816  29.434  1.00  0.00     0.200 A 
ATOM     52  F   UNL A   1      38.774  28.159  31.618  1.00  0.00    -0.200 F 
ATOM     53  F   UNL A   1      36.889  28.951  29.815  1.00  0.00    -0.200 F 
ENDBRANCH  29  43
BRANCH  30  54
ATOM     54  C   UNL A   1      50.644  27.902  26.065  1.00  0.00     0.064 A 
ATOM     55  C   UNL A   1      51.022  27.972  24.719  1.00  0.00     0.173 A 
ATOM     56  C   UNL A   1      51.665  27.721  27.014  1.00  0.00     0.173 A 
ATOM     57  F   UNL A   1      50.089  28.125  23.768  1.00  0.00    -0.203 F 
ATOM     58  C   UNL A   1      52.359  27.850  24.337  1.00  0.00     0.198 A 
ATOM     59  C   UNL A   1      53.002  27.632  26.636  1.00  0.00     0.198 A 
ATOM     60  F   UNL A   1      51.365  27.643  28.320  1.00  0.00    -0.203 F 
ATOM     61  F   UNL A   1      52.688  27.873  23.038  1.00  0.00    -0.200 F 
ATOM     62  C   UNL A   1      53.349  27.687  25.296  1.00  0.00     0.200 A 
ATOM     63  F   UNL A   1      53.954  27.490  27.570  1.00  0.00    -0.200 F 
ATOM     64  F   UNL A   1      54.632  27.572  24.928  1.00  0.00    -0.200 F 
ENDBRANCH  30  54
BRANCH  42  65
ATOM     65  C   UNL A   1      46.502  33.116  28.194  1.00  0.00     0.064 A 
ATOM     66  C   UNL A   1      46.310  34.081  27.196  1.00  0.00     0.173 A 
ATOM     67  C   UNL A   1      46.886  33.548  29.472  1.00  0.00     0.173 A 
ATOM     68  F   UNL A   1      45.957  33.710  25.956  1.00  0.00    -0.203 F 
ATOM     69  C   UNL A   1      46.512  35.430  27.465  1.00  0.00     0.198 A 
ATOM     70  C   UNL A   1      47.051  34.899  29.748  1.00  0.00     0.198 A 
ATOM     71  F   UNL A   1      47.072  32.659  30.460  1.00  0.00    -0.203 F 
ATOM     72  F   UNL A   1      46.367  36.335  26.488  1.00  0.00    -0.200 F 
ATOM     73  C   UNL A   1      46.871  35.838  28.743  1.00  0.00     0.200 A 
ATOM     74  F   UNL A   1      47.378  35.294  30.985  1.00  0.00    -0.200 F 
ATOM     75  F   UNL A   1      47.046  37.141  29.004  1.00  0.00    -0.200 F 
ENDBRANCH  42  65
ENDBRANCH  16  17
ENDBRANCH   9  11
ENDBRANCH   8   9
ENDBRANCH   7   8
ENDBRANCH   6   7
ENDBRANCH   5   6
ENDBRANCH   4   5
ENDBRANCH   3   4
ENDBRANCH   2   3
ENDBRANCH   1   2
BRANCH   1  76
ATOM     76  C   UNL A   1      37.458  21.492  25.560  1.00  0.00     0.188 C 
BRANCH  76  77
ATOM     77  O   UNL A   1      36.982  22.682  24.944  1.00  0.00    -0.376 OA
BRANCH  77  78
ATOM     78  C   UNL A   1      36.046  22.493  23.885  1.00  0.00     0.202 C 
BRANCH  78  79
ATOM     79  C   UNL A   1      35.759  23.698  22.973  1.00  0.00     0.261 C 
BRANCH  79  80
ATOM     80  O   UNL A   1      34.374  23.915  22.628  1.00  0.00    -0.463 OA
BRANCH  80  81
ATOM     81  C   UNL A   1      33.850  25.169  22.696  1.00  0.00     0.314 C 
ATOM     82  O   UNL A   1      33.654  25.885  21.719  1.00  0.00    -0.252 OA
BRANCH  81  83
ATOM     83  C   UNL A   1      33.454  25.534  24.133  1.00  0.00     0.154 C 
ATOM     84  C   UNL A   1      32.422  26.642  24.110  1.00  0.00     0.027 C 
ATOM     85  C   UNL A   1      32.832  24.317  24.831  1.00  0.00     0.277 C 
ATOM     86  C   UNL A   1      31.818  26.985  25.449  1.00  0.00     0.062 C 
ATOM     87  N   UNL A   1      32.232  24.630  26.147  1.00  0.00    -0.331 N 
ATOM     88  C   UNL A   1      31.254  25.721  26.086  1.00  0.00     0.262 C 
ATOM     89  H   UNL A   1      32.963  25.014  26.746  1.00  0.00     0.348 HD
BRANCH  87  90
ATOM     90  C   UNL A   1      31.779  23.397  26.843  1.00  0.00     0.195 C 
ATOM     91  C   UNL A   1      32.795  22.577  27.658  1.00  0.00     0.126 C 
ATOM     92  C   UNL A   1      30.988  22.414  25.966  1.00  0.00     0.126 C 
ATOM     93  C   UNL A   1      33.690  21.682  26.810  1.00  0.00     0.268 C 
ATOM     94  C   UNL A   1      31.844  21.425  25.164  1.00  0.00     0.268 C 
ATOM     95  N   UNL A   1      32.963  20.818  25.885  1.00  0.00    -0.331 N 
ATOM     96  H   UNL A   1      32.497  20.161  26.511  1.00  0.00     0.348 HD
BRANCH  95  97
ATOM     97  C   UNL A   1      33.857  20.036  25.004  1.00  0.00     0.299 C 
BRANCH  97  98
ATOM     98  C   UNL A   1      33.584  18.543  24.878  1.00  0.00     0.006 A 
ATOM     99  C   UNL A   1      32.821  17.875  25.852  1.00  0.00     0.009 A 
ATOM    100  C   UNL A   1      34.094  17.789  23.810  1.00  0.00     0.009 A 
ATOM    101  C   UNL A   1      32.562  16.505  25.748  1.00  0.00     0.001 A 
ATOM    102  C   UNL A   1      33.822  16.422  23.698  1.00  0.00     0.001 A 
ATOM    103  C   UNL A   1      33.057  15.780  24.667  1.00  0.00     0.000 A 
ENDBRANCH  97  98
ENDBRANCH  95  97
ENDBRANCH  87  90
ENDBRANCH  81  83
ENDBRANCH  80  81
ENDBRANCH  79  80
ENDBRANCH  78  79
ENDBRANCH  77  78
ENDBRANCH  76  77
ENDBRANCH   1  76
TORSDOF 23
ENDMDL
MODEL 2
REMARK VINA RESULT:     -10.6      0.683      6.997
REMARK SMILES O=C(OCCOCCOCCOCCOC(=O)[C@H]1CCC[N@@H+](C2CC[NH+](Cc3ccccc3)CC2)C1)c1ccc(-c2c3nc(c(-c4c(F)c(F)c(F)c(F)c4F)c4ccc([nH]4)c(-c4c(F)c(F)c(F)c(F)c4F)c4nc(c(-c5c(F)c(F)c(F)c(F)c5F)c5ccc2[nH]5)C=C4)C=C3)cc1
REMARK SMILES IDX 10 1 9 2 8 3 7 4 6 5 5 6 4 7 3 8 2 9 1 10 37 11 38 12 99 13
REMARK SMILES IDX 39 14 98 15 40 16 41 17 42 18 92 19 43 20 97 21 91 22 93 23
REMARK SMILES IDX 44 24 96 25 90 26 89 27 45 29 77 30 57 31 76 32 58 33 61 34
REMARK SMILES IDX 75 35 94 36 59 37 60 38 74 40 95 41 62 42 46 43 47 44 55 45
REMARK SMILES IDX 48 46 49 47 53 48 56 49 50 50 51 51 54 52 52 53 78 54 79 55
REMARK SMILES IDX 87 56 80 57 81 58 85 59 88 60 82 61 83 62 86 63 84 64 63 65
REMARK SMILES IDX 64 66 72 67 65 68 66 69 70 70 73 71 67 72 68 73 71 74 69 75
REMARK SMILES IDX 11 76 12 77 13 78 14 79 15 80 16 81 17 82 18 83 19 84 36 85
REMARK SMILES IDX 20 86 22 87 21 88 23 90 24 91 35 92 25 93 34 94 26 95 27 97
REMARK SMILES IDX 28 98 29 99 33 100 30 101 32 102 31 103
REMARK H PARENT 93 28 61 39 22 89 26 96
REMARK Flexibility Score: inf
ROOT
ATOM      1  C   UNL A   1      38.910  21.428  25.829  1.00  0.00     0.188 C 
ENDROOT
BRANCH   1   2
ATOM      2  O   UNL A   1      39.300  22.693  26.321  1.00  0.00    -0.377 OA
BRANCH   2   3
ATOM      3  C   UNL A   1      40.454  22.636  27.165  1.00  0.00     0.188 C 
BRANCH   3   4
ATOM      4  C   UNL A   1      40.891  21.232  27.647  1.00  0.00     0.188 C 
BRANCH   4   5
ATOM      5  O   UNL A   1      41.861  20.598  26.797  1.00  0.00    -0.376 OA
BRANCH   5   6
ATOM      6  C   UNL A   1      42.283  19.262  27.127  1.00  0.00     0.202 C 
BRANCH   6   7
ATOM      7  C   UNL A   1      42.722  18.386  25.963  1.00  0.00     0.261 C 
BRANCH   7   8
ATOM      8  O   UNL A   1      43.136  19.127  24.813  1.00  0.00    -0.460 OA
BRANCH   8   9
ATOM      9  C   UNL A   1      44.332  19.709  24.571  1.00  0.00     0.338 C 
ATOM     10  O   UNL A   1      45.184  19.044  23.983  1.00  0.00    -0.246 OA
BRANCH   9  11
ATOM     11  C   UNL A   1      44.709  21.098  24.991  1.00  0.00     0.060 A 
ATOM     12  C   UNL A   1      45.204  21.471  26.239  1.00  0.00     0.016 A 
ATOM     13  C   UNL A   1      44.618  22.101  24.009  1.00  0.00     0.016 A 
ATOM     14  C   UNL A   1      45.638  22.749  26.516  1.00  0.00     0.010 A 
ATOM     15  C   UNL A   1      44.995  23.418  24.287  1.00  0.00     0.010 A 
ATOM     16  C   UNL A   1      45.496  23.733  25.552  1.00  0.00    -0.014 A 
BRANCH  16  17
ATOM     17  C   UNL A   1      45.613  25.104  26.048  1.00  0.00     0.031 A 
ATOM     18  C   UNL A   1      46.925  25.783  25.822  1.00  0.00     0.074 A 
ATOM     19  C   UNL A   1      44.514  25.763  26.444  1.00  0.00     0.049 A 
ATOM     20  N   UNL A   1      47.326  26.964  26.194  1.00  0.00    -0.248 NA
ATOM     21  C   UNL A   1      47.920  25.030  25.032  1.00  0.00     0.031 C 
ATOM     22  C   UNL A   1      43.156  25.211  26.450  1.00  0.00     0.029 A 
ATOM     23  N   UNL A   1      44.358  27.047  26.878  1.00  0.00    -0.354 N 
ATOM     24  C   UNL A   1      48.628  27.075  25.729  1.00  0.00     0.074 A 
ATOM     25  C   UNL A   1      48.950  25.858  25.025  1.00  0.00     0.031 C 
ATOM     26  C   UNL A   1      42.306  26.153  26.888  1.00  0.00     0.029 A 
ATOM     27  C   UNL A   1      43.073  27.334  27.264  1.00  0.00     0.049 A 
ATOM     28  H   UNL A   1      45.093  27.701  26.911  1.00  0.00     0.167 HD
ATOM     29  C   UNL A   1      49.479  28.108  25.911  1.00  0.00     0.037 A 
ATOM     30  C   UNL A   1      42.609  28.414  27.915  1.00  0.00     0.037 A 
ATOM     31  C   UNL A   1      49.099  29.289  26.632  1.00  0.00     0.049 A 
ATOM     32  C   UNL A   1      43.608  29.495  28.239  1.00  0.00     0.074 A 
ATOM     33  C   UNL A   1      49.865  30.378  26.990  1.00  0.00     0.029 A 
ATOM     34  N   UNL A   1      47.812  29.520  27.113  1.00  0.00    -0.354 N 
ATOM     35  N   UNL A   1      44.880  29.567  27.916  1.00  0.00    -0.248 NA
ATOM     36  C   UNL A   1      43.123  30.630  29.029  1.00  0.00     0.031 C 
ATOM     37  C   UNL A   1      49.056  31.239  27.740  1.00  0.00     0.029 A 
ATOM     38  C   UNL A   1      47.767  30.722  27.791  1.00  0.00     0.049 A 
ATOM     39  H   UNL A   1      47.046  28.914  26.987  1.00  0.00     0.167 HD
ATOM     40  C   UNL A   1      45.347  30.759  28.448  1.00  0.00     0.074 A 
ATOM     41  C   UNL A   1      44.211  31.386  29.098  1.00  0.00     0.031 C 
ATOM     42  C   UNL A   1      46.594  31.292  28.411  1.00  0.00     0.037 A 
BRANCH  29  43
ATOM     43  C   UNL A   1      50.890  27.912  25.444  1.00  0.00     0.064 A 
ATOM     44  C   UNL A   1      51.266  28.043  24.098  1.00  0.00     0.173 A 
ATOM     45  C   UNL A   1      51.869  27.486  26.356  1.00  0.00     0.173 A 
ATOM     46  F   UNL A   1      50.359  28.404  23.176  1.00  0.00    -0.203 F 
ATOM     47  C   UNL A   1      52.554  27.714  23.677  1.00  0.00     0.198 A 
ATOM     48  C   UNL A   1      53.163  27.188  25.937  1.00  0.00     0.198 A 
ATOM     49  F   UNL A   1      51.561  27.324  27.651  1.00  0.00    -0.203 F 
ATOM     50  F   UNL A   1      52.865  27.766  22.374  1.00  0.00    -0.200 F 
ATOM     51  C   UNL A   1      53.501  27.289  24.597  1.00  0.00     0.200 A 
ATOM     52  F   UNL A   1      54.074  26.774  26.828  1.00  0.00    -0.200 F 
ATOM     53  F   UNL A   1      54.732  26.955  24.188  1.00  0.00    -0.200 F 
ENDBRANCH  29  43
BRANCH  30  54
ATOM     54  C   UNL A   1      41.196  28.468  28.373  1.00  0.00     0.064 A 
ATOM     55  C   UNL A   1      40.174  28.964  27.553  1.00  0.00     0.173 A 
ATOM     56  C   UNL A   1      40.834  28.023  29.656  1.00  0.00     0.173 A 
ATOM     57  F   UNL A   1      40.463  29.419  26.325  1.00  0.00    -0.203 F 
ATOM     58  C   UNL A   1      38.854  29.027  28.002  1.00  0.00     0.198 A 
ATOM     59  C   UNL A   1      39.512  28.056  30.092  1.00  0.00     0.198 A 
ATOM     60  F   UNL A   1      41.769  27.541  30.490  1.00  0.00    -0.203 F 
ATOM     61  F   UNL A   1      37.905  29.549  27.213  1.00  0.00    -0.200 F 
ATOM     62  C   UNL A   1      38.523  28.567  29.268  1.00  0.00     0.200 A 
ATOM     63  F   UNL A   1      39.197  27.595  31.311  1.00  0.00    -0.200 F 
ATOM     64  F   UNL A   1      37.255  28.627  29.697  1.00  0.00    -0.200 F 
ENDBRANCH  30  54
BRANCH  42  65
ATOM     65  C   UNL A   1      46.770  32.630  29.059  1.00  0.00     0.064 A 
ATOM     66  C   UNL A   1      46.540  33.822  28.358  1.00  0.00     0.173 A 
ATOM     67  C   UNL A   1      47.105  32.712  30.418  1.00  0.00     0.173 A 
ATOM     68  F   UNL A   1      46.231  33.791  27.053  1.00  0.00    -0.203 F 
ATOM     69  C   UNL A   1      46.656  35.052  28.995  1.00  0.00     0.198 A 
ATOM     70  C   UNL A   1      47.185  33.941  31.060  1.00  0.00     0.198 A 
ATOM     71  F   UNL A   1      47.325  31.595  31.129  1.00  0.00    -0.203 F 
ATOM     72  F   UNL A   1      46.475  36.183  28.299  1.00  0.00    -0.200 F 
ATOM     73  C   UNL A   1      46.967  35.110  30.346  1.00  0.00     0.200 A 
ATOM     74  F   UNL A   1      47.466  33.995  32.368  1.00  0.00    -0.200 F 
ATOM     75  F   UNL A   1      47.061  36.297  30.961  1.00  0.00    -0.200 F 
ENDBRANCH  42  65
ENDBRANCH  16  17
ENDBRANCH   9  11
ENDBRANCH   8   9
ENDBRANCH   7   8
ENDBRANCH   6   7
ENDBRANCH   5   6
ENDBRANCH   4   5
ENDBRANCH   3   4
ENDBRANCH   2   3
ENDBRANCH   1   2
BRANCH   1  76
ATOM     76  C   UNL A   1      37.455  21.239  25.357  1.00  0.00     0.188 C 
BRANCH  76  77
ATOM     77  O   UNL A   1      36.824  22.454  24.972  1.00  0.00    -0.376 OA
BRANCH  77  78
ATOM     78  C   UNL A   1      35.931  22.358  23.864  1.00  0.00     0.202 C 
BRANCH  78  79
ATOM     79  C   UNL A   1      35.707  23.629  23.026  1.00  0.00     0.261 C 
BRANCH  79  80
ATOM     80  O   UNL A   1      34.333  23.948  22.717  1.00  0.00    -0.463 OA
BRANCH  80  81
ATOM     81  C   UNL A   1      33.898  25.233  22.822  1.00  0.00     0.314 C 
ATOM     82  O   UNL A   1      33.766  25.994  21.869  1.00  0.00    -0.252 OA
BRANCH  81  83
ATOM     83  C   UNL A   1      33.511  25.577  24.267  1.00  0.00     0.154 C 
ATOM     84  C   UNL A   1      32.470  26.677  24.267  1.00  0.00     0.027 C 
ATOM     85  C   UNL A   1      32.905  24.347  24.956  1.00  0.00     0.277 C 
ATOM     86  C   UNL A   1      31.875  26.999  25.615  1.00  0.00     0.062 C 
ATOM     87  N   UNL A   1      32.313  24.639  26.280  1.00  0.00    -0.331 N 
ATOM     88  C   UNL A   1      31.326  25.722  26.240  1.00  0.00     0.262 C 
ATOM     89  H   UNL A   1      33.047  25.021  26.877  1.00  0.00     0.348 HD
BRANCH  87  90
ATOM     90  C   UNL A   1      31.875  23.394  26.964  1.00  0.00     0.195 C 
ATOM     91  C   UNL A   1      32.931  22.488  27.624  1.00  0.00     0.126 C 
ATOM     92  C   UNL A   1      30.946  22.494  26.135  1.00  0.00     0.126 C 
ATOM     93  C   UNL A   1      33.683  21.598  26.643  1.00  0.00     0.268 C 
ATOM     94  C   UNL A   1      31.660  21.509  25.200  1.00  0.00     0.268 C 
ATOM     95  N   UNL A   1      32.817  20.816  25.765  1.00  0.00    -0.331 N 
ATOM     96  H   UNL A   1      32.389  20.150  26.408  1.00  0.00     0.348 HD
BRANCH  95  97
ATOM     97  C   UNL A   1      33.571  20.040  24.757  1.00  0.00     0.299 C 
BRANCH  97  98
ATOM     98  C   UNL A   1      33.549  18.522  24.882  1.00  0.00     0.006 A 
ATOM     99  C   UNL A   1      34.591  17.750  24.341  1.00  0.00     0.009 A 
ATOM    100  C   UNL A   1      32.492  17.851  25.517  1.00  0.00     0.009 A 
ATOM    101  C   UNL A   1      34.585  16.356  24.450  1.00  0.00     0.001 A 
ATOM    102  C   UNL A   1      32.494  16.458  25.640  1.00  0.00     0.001 A 
ATOM    103  C   UNL A   1      33.539  15.711  25.105  1.00  0.00     0.000 A 
ENDBRANCH  97  98
ENDBRANCH  95  97
ENDBRANCH  87  90
ENDBRANCH  81  83
ENDBRANCH  80  81
ENDBRANCH  79  80
ENDBRANCH  78  79
ENDBRANCH  77  78
ENDBRANCH  76  77
ENDBRANCH   1  76
TORSDOF 23
ENDMDL
MODEL 3
REMARK VINA RESULT:     -10.4      2.286      8.521
REMARK SMILES O=C(OCCOCCOCCOCCOC(=O)[C@H]1CCC[N@@H+](C2CC[NH+](Cc3ccccc3)CC2)C1)c1ccc(-c2c3nc(c(-c4c(F)c(F)c(F)c(F)c4F)c4ccc([nH]4)c(-c4c(F)c(F)c(F)c(F)c4F)c4nc(c(-c5c(F)c(F)c(F)c(F)c5F)c5ccc2[nH]5)C=C4)C=C3)cc1
REMARK SMILES IDX 10 1 9 2 8 3 7 4 6 5 5 6 4 7 3 8 2 9 1 10 37 11 38 12 99 13
REMARK SMILES IDX 39 14 98 15 40 16 41 17 42 18 92 19 43 20 97 21 91 22 93 23
REMARK SMILES IDX 44 24 96 25 90 26 89 27 45 29 77 30 57 31 76 32 58 33 61 34
REMARK SMILES IDX 75 35 94 36 59 37 60 38 74 40 95 41 62 42 46 43 47 44 55 45
REMARK SMILES IDX 48 46 49 47 53 48 56 49 50 50 51 51 54 52 52 53 78 54 79 55
REMARK SMILES IDX 87 56 80 57 81 58 85 59 88 60 82 61 83 62 86 63 84 64 63 65
REMARK SMILES IDX 64 66 72 67 65 68 66 69 70 70 73 71 67 72 68 73 71 74 69 75
REMARK SMILES IDX 11 76 12 77 13 78 14 79 15 80 16 81 17 82 18 83 19 84 36 85
REMARK SMILES IDX 20 86 22 87 21 88 23 90 24 91 35 92 25 93 34 94 26 95 27 97
REMARK SMILES IDX 28 98 29 99 33 100 30 101 32 102 31 103
REMARK H PARENT 93 28 61 39 22 89 26 96
REMARK Flexibility Score: inf
ROOT
ATOM      1  C   UNL A   1      36.137  21.244  25.728  1.00  0.00     0.188 C 
ENDROOT
BRANCH   1   2
ATOM      2  O   UNL A   1      37.500  21.049  25.413  1.00  0.00    -0.377 OA
BRANCH   2   3
ATOM      3  C   UNL A   1      38.287  22.234  25.564  1.00  0.00     0.188 C 
BRANCH   3   4
ATOM      4  C   UNL A   1      39.654  22.072  26.273  1.00  0.00     0.188 C 
BRANCH   4   5
ATOM      5  O   UNL A   1      39.874  20.763  26.825  1.00  0.00    -0.376 OA
BRANCH   5   6
ATOM      6  C   UNL A   1      40.387  19.738  25.956  1.00  0.00     0.202 C 
BRANCH   6   7
ATOM      7  C   UNL A   1      41.721  19.122  26.352  1.00  0.00     0.261 C 
BRANCH   7   8
ATOM      8  O   UNL A   1      42.603  18.905  25.248  1.00  0.00    -0.460 OA
BRANCH   8   9
ATOM      9  C   UNL A   1      43.816  19.456  25.016  1.00  0.00     0.338 C 
ATOM     10  O   UNL A   1      44.700  18.726  24.570  1.00  0.00    -0.246 OA
BRANCH   9  11
ATOM     11  C   UNL A   1      44.174  20.886  25.291  1.00  0.00     0.060 A 
ATOM     12  C   UNL A   1      45.246  21.329  26.063  1.00  0.00     0.016 A 
ATOM     13  C   UNL A   1      43.394  21.866  24.651  1.00  0.00     0.016 A 
ATOM     14  C   UNL A   1      45.581  22.660  26.177  1.00  0.00     0.010 A 
ATOM     15  C   UNL A   1      43.679  23.226  24.802  1.00  0.00     0.010 A 
ATOM     16  C   UNL A   1      44.773  23.612  25.579  1.00  0.00    -0.014 A 
BRANCH  16  17
ATOM     17  C   UNL A   1      44.969  24.979  26.062  1.00  0.00     0.031 A 
ATOM     18  C   UNL A   1      46.303  25.596  25.789  1.00  0.00     0.074 A 
ATOM     19  C   UNL A   1      43.914  25.690  26.489  1.00  0.00     0.049 A 
ATOM     20  N   UNL A   1      46.769  26.759  26.140  1.00  0.00    -0.248 NA
ATOM     21  C   UNL A   1      47.236  24.795  24.972  1.00  0.00     0.031 C 
ATOM     22  C   UNL A   1      42.534  25.201  26.542  1.00  0.00     0.029 A 
ATOM     23  N   UNL A   1      43.832  26.982  26.919  1.00  0.00    -0.354 N 
ATOM     24  C   UNL A   1      48.059  26.808  25.633  1.00  0.00     0.074 A 
ATOM     25  C   UNL A   1      48.302  25.574  24.927  1.00  0.00     0.031 C 
ATOM     26  C   UNL A   1      41.742  26.183  27.001  1.00  0.00     0.029 A 
ATOM     27  C   UNL A   1      42.574  27.329  27.345  1.00  0.00     0.049 A 
ATOM     28  H   UNL A   1      44.597  27.602  26.925  1.00  0.00     0.167 HD
ATOM     29  C   UNL A   1      48.961  27.802  25.780  1.00  0.00     0.037 A 
ATOM     30  C   UNL A   1      42.182  28.433  28.003  1.00  0.00     0.037 A 
ATOM     31  C   UNL A   1      48.659  29.003  26.506  1.00  0.00     0.049 A 
ATOM     32  C   UNL A   1      43.239  29.469  28.288  1.00  0.00     0.074 A 
ATOM     33  C   UNL A   1      49.486  30.057  26.832  1.00  0.00     0.029 A 
ATOM     34  N   UNL A   1      47.401  29.295  27.026  1.00  0.00    -0.354 N 
ATOM     35  N   UNL A   1      44.502  29.481  27.924  1.00  0.00    -0.248 NA
ATOM     36  C   UNL A   1      42.832  30.629  29.085  1.00  0.00     0.031 C 
ATOM     37  C   UNL A   1      48.742  30.958  27.602  1.00  0.00     0.029 A 
ATOM     38  C   UNL A   1      47.433  30.501  27.698  1.00  0.00     0.049 A 
ATOM     39  H   UNL A   1      46.605  28.724  26.929  1.00  0.00     0.167 HD
ATOM     40  C   UNL A   1      45.040  30.652  28.433  1.00  0.00     0.074 A 
ATOM     41  C   UNL A   1      43.955  31.334  29.115  1.00  0.00     0.031 C 
ATOM     42  C   UNL A   1      46.309  31.127  28.352  1.00  0.00     0.037 A 
BRANCH  29  43
ATOM     43  C   UNL A   1      50.346  27.539  25.269  1.00  0.00     0.064 A 
ATOM     44  C   UNL A   1      50.692  27.679  23.916  1.00  0.00     0.173 A 
ATOM     45  C   UNL A   1      51.324  27.039  26.144  1.00  0.00     0.173 A 
ATOM     46  F   UNL A   1      49.782  28.109  23.028  1.00  0.00    -0.203 F 
ATOM     47  C   UNL A   1      51.947  27.289  23.452  1.00  0.00     0.198 A 
ATOM     48  C   UNL A   1      52.588  26.680  25.683  1.00  0.00     0.198 A 
ATOM     49  F   UNL A   1      51.043  26.866  27.444  1.00  0.00    -0.203 F 
ATOM     50  F   UNL A   1      52.225  27.352  22.142  1.00  0.00    -0.200 F 
ATOM     51  C   UNL A   1      52.894  26.792  24.336  1.00  0.00     0.200 A 
ATOM     52  F   UNL A   1      53.499  26.197  26.538  1.00  0.00    -0.200 F 
ATOM     53  F   UNL A   1      54.093  26.400  23.885  1.00  0.00    -0.200 F 
ENDBRANCH  29  43
BRANCH  30  54
ATOM     54  C   UNL A   1      40.788  28.554  28.506  1.00  0.00     0.064 A 
ATOM     55  C   UNL A   1      40.439  28.172  29.808  1.00  0.00     0.173 A 
ATOM     56  C   UNL A   1      39.763  29.056  27.684  1.00  0.00     0.173 A 
ATOM     57  F   UNL A   1      41.371  27.670  30.631  1.00  0.00    -0.203 F 
ATOM     58  C   UNL A   1      39.123  28.273  30.261  1.00  0.00     0.198 A 
ATOM     59  C   UNL A   1      38.457  29.186  28.148  1.00  0.00     0.198 A 
ATOM     60  F   UNL A   1      40.035  29.434  26.426  1.00  0.00    -0.203 F 
ATOM     61  F   UNL A   1      38.809  27.856  31.496  1.00  0.00    -0.200 F 
ATOM     62  C   UNL A   1      38.135  28.785  29.434  1.00  0.00     0.200 A 
ATOM     63  F   UNL A   1      37.510  29.696  27.347  1.00  0.00    -0.200 F 
ATOM     64  F   UNL A   1      36.872  28.882  29.871  1.00  0.00    -0.200 F 
ENDBRANCH  30  54
BRANCH  42  65
ATOM     65  C   UNL A   1      46.567  32.459  28.985  1.00  0.00     0.064 A 
ATOM     66  C   UNL A   1      47.086  32.568  30.282  1.00  0.00     0.173 A 
ATOM     67  C   UNL A   1      46.356  33.636  28.251  1.00  0.00     0.173 A 
ATOM     68  F   UNL A   1      47.289  31.469  31.024  1.00  0.00    -0.203 F 
ATOM     69  C   UNL A   1      47.369  33.814  30.830  1.00  0.00     0.198 A 
ATOM     70  C   UNL A   1      46.674  34.876  28.788  1.00  0.00     0.198 A 
ATOM     71  F   UNL A   1      45.869  33.577  27.002  1.00  0.00    -0.203 F 
ATOM     72  F   UNL A   1      47.824  33.903  32.087  1.00  0.00    -0.200 F 
ATOM     73  C   UNL A   1      47.174  34.965  30.079  1.00  0.00     0.200 A 
ATOM     74  F   UNL A   1      46.505  35.985  28.056  1.00  0.00    -0.200 F 
ATOM     75  F   UNL A   1      47.466  36.164  30.603  1.00  0.00    -0.200 F 
ENDBRANCH  42  65
ENDBRANCH  16  17
ENDBRANCH   9  11
ENDBRANCH   8   9
ENDBRANCH   7   8
ENDBRANCH   6   7
ENDBRANCH   5   6
ENDBRANCH   4   5
ENDBRANCH   3   4
ENDBRANCH   2   3
ENDBRANCH   1   2
BRANCH   1  76
ATOM     76  C   UNL A   1      35.087  21.016  24.622  1.00  0.00     0.188 C 
BRANCH  76  77
ATOM     77  O   UNL A   1      34.404  19.774  24.740  1.00  0.00    -0.376 OA
BRANCH  77  78
ATOM     78  C   UNL A   1      33.191  19.810  25.489  1.00  0.00     0.202 C 
BRANCH  78  79
ATOM     79  C   UNL A   1      32.431  21.147  25.537  1.00  0.00     0.261 C 
BRANCH  79  80
ATOM     80  O   UNL A   1      32.556  21.902  26.760  1.00  0.00    -0.463 OA
BRANCH  80  81
ATOM     81  C   UNL A   1      31.767  22.991  26.966  1.00  0.00     0.314 C 
ATOM     82  O   UNL A   1      30.709  22.966  27.586  1.00  0.00    -0.252 OA
BRANCH  81  83
ATOM     83  C   UNL A   1      32.412  24.265  26.403  1.00  0.00     0.154 C 
ATOM     84  C   UNL A   1      33.908  24.063  26.272  1.00  0.00     0.027 C 
ATOM     85  C   UNL A   1      31.848  24.569  25.009  1.00  0.00     0.277 C 
ATOM     86  C   UNL A   1      34.648  25.176  25.575  1.00  0.00     0.062 C 
ATOM     87  N   UNL A   1      32.561  25.658  24.304  1.00  0.00    -0.331 N 
ATOM     88  C   UNL A   1      34.007  25.433  24.217  1.00  0.00     0.262 C 
ATOM     89  H   UNL A   1      32.496  26.501  24.876  1.00  0.00     0.348 HD
BRANCH  87  90
ATOM     90  C   UNL A   1      31.885  26.010  23.028  1.00  0.00     0.195 C 
ATOM     91  C   UNL A   1      32.352  27.253  22.248  1.00  0.00     0.126 C 
ATOM     92  C   UNL A   1      30.350  26.059  23.102  1.00  0.00     0.126 C 
ATOM     93  C   UNL A   1      31.823  28.568  22.807  1.00  0.00     0.268 C 
ATOM     94  C   UNL A   1      29.765  27.399  23.567  1.00  0.00     0.268 C 
ATOM     95  N   UNL A   1      30.376  28.597  22.993  1.00  0.00    -0.331 N 
ATOM     96  H   UNL A   1      30.026  28.590  22.034  1.00  0.00     0.348 HD
BRANCH  95  97
ATOM     97  C   UNL A   1      29.902  29.845  23.629  1.00  0.00     0.299 C 
BRANCH  97  98
ATOM     98  C   UNL A   1      29.173  30.849  22.746  1.00  0.00     0.006 A 
ATOM     99  C   UNL A   1      28.903  32.145  23.218  1.00  0.00     0.009 A 
ATOM    100  C   UNL A   1      28.736  30.513  21.456  1.00  0.00     0.009 A 
ATOM    101  C   UNL A   1      28.236  33.077  22.417  1.00  0.00     0.001 A 
ATOM    102  C   UNL A   1      28.083  31.450  20.649  1.00  0.00     0.001 A 
ATOM    103  C   UNL A   1      27.832  32.732  21.130  1.00  0.00     0.000 A 
ENDBRANCH  97  98
ENDBRANCH  95  97
ENDBRANCH  87  90
ENDBRANCH  81  83
ENDBRANCH  80  81
ENDBRANCH  79  80
ENDBRANCH  78  79
ENDBRANCH  77  78
ENDBRANCH  76  77
ENDBRANCH   1  76
TORSDOF 23
ENDMDL
