MODEL 1
REMARK VINA RESULT:     -10.0      0.000      0.000
REMARK SMILES CC(C)(C)c1cc2c(cc1Cl)C=C(C(=O)OCCOCCOCCOCCOC(=O)c1ccc(-c3c4nc(c(-c5c(F)c(F)c(F)c(F)c5F)c5ccc([nH]5)c(-c5c(F)c(F)c(F)c(F)c5F)c5nc(c(-c6c(F)c(F)c(F)c(F)c6F)c6ccc3[nH]6)C=C5)C=C4)cc1)[C@@H](C(F)(F)F)O2
REMARK SMILES IDX 23 1 22 2 21 3 20 4 19 5 18 6 17 7 16 8 14 9 15 10 13 11
REMARK SMILES IDX 5 12 6 13 10 14 7 15 9 16 11 17 8 18 99 19 12 20 94 21 2 22
REMARK SMILES IDX 1 23 3 24 4 25 95 26 96 27 97 28 98 29 24 30 25 31 26 32
REMARK SMILES IDX 27 33 28 34 29 35 30 36 31 37 32 38 93 39 33 40 92 41 34 42
REMARK SMILES IDX 35 43 36 44 86 45 37 46 91 47 85 48 87 49 38 50 90 51 84 52
REMARK SMILES IDX 83 53 39 55 71 56 51 57 70 58 52 59 55 60 69 61 88 62 53 63
REMARK SMILES IDX 54 64 68 66 89 67 56 68 40 69 41 70 49 71 42 72 43 73 47 74
REMARK SMILES IDX 50 75 44 76 45 77 48 78 46 79 72 80 73 81 81 82 74 83 75 84
REMARK SMILES IDX 79 85 82 86 76 87 77 88 80 89 78 90 57 91 58 92 66 93 59 94
REMARK SMILES IDX 60 95 64 96 67 97 61 98 62 99 65 100 63 101
REMARK H PARENT 87 54 55 65
REMARK Flexibility Score: inf
ROOT
ATOM      1  C   UNL A   1      33.753  32.583  28.589  1.00  0.00     0.188 C 
ENDROOT
BRANCH   1   2
ATOM      2  O   UNL A   1      34.896  31.808  28.224  1.00  0.00    -0.377 OA
BRANCH   2   3
ATOM      3  C   UNL A   1      34.684  30.651  27.432  1.00  0.00     0.188 C 
BRANCH   3   4
ATOM      4  C   UNL A   1      33.214  30.465  27.014  1.00  0.00     0.188 C 
BRANCH   4   5
ATOM      5  O   UNL A   1      33.058  29.596  25.894  1.00  0.00    -0.376 OA
BRANCH   5   6
ATOM      6  C   UNL A   1      31.750  29.465  25.350  1.00  0.00     0.202 C 
BRANCH   6   7
ATOM      7  C   UNL A   1      31.364  28.086  24.794  1.00  0.00     0.261 C 
BRANCH   7   8
ATOM      8  O   UNL A   1      32.222  27.007  25.197  1.00  0.00    -0.460 OA
BRANCH   8   9
ATOM      9  C   UNL A   1      32.968  26.420  24.241  1.00  0.00     0.338 C 
ATOM     10  O   UNL A   1      33.734  26.973  23.473  1.00  0.00    -0.246 OA
BRANCH   9  11
ATOM     11  C   UNL A   1      32.831  24.955  24.392  1.00  0.00     0.087 C 
ATOM     12  C   UNL A   1      33.644  19.961  24.661  1.00  0.00    -0.020 A 
ATOM     13  C   UNL A   1      32.509  20.815  24.681  1.00  0.00     0.053 A 
ATOM     14  C   UNL A   1      34.893  20.605  24.770  1.00  0.00     0.045 A 
ATOM     15  C   UNL A   1      32.606  22.210  24.664  1.00  0.00     0.128 A 
ATOM     16  C   UNL A   1      34.989  22.010  24.748  1.00  0.00     0.032 A 
ATOM     17  Cl  UNL A   1      36.415  19.811  24.966  1.00  0.00    -0.084 Cl
ATOM     18  C   UNL A   1      33.853  22.812  24.644  1.00  0.00     0.019 A 
ATOM     19  O   UNL A   1      31.429  22.898  24.638  1.00  0.00    -0.475 OA
ATOM     20  C   UNL A   1      33.966  24.250  24.479  1.00  0.00     0.027 C 
ATOM     21  C   UNL A   1      31.456  24.349  24.521  1.00  0.00     0.316 C 
BRANCH  12  22
ATOM     22  C   UNL A   1      33.379  18.442  24.493  1.00  0.00    -0.012 C 
ATOM     23  C   UNL A   1      32.770  17.691  25.695  1.00  0.00     0.016 C 
ATOM     24  C   UNL A   1      34.723  17.708  24.214  1.00  0.00     0.016 C 
ATOM     25  C   UNL A   1      32.434  18.222  23.293  1.00  0.00     0.016 C 
ENDBRANCH  12  22
BRANCH  21  26
ATOM     26  C   UNL A   1      30.532  24.747  23.361  1.00  0.00     0.430 C 
ATOM     27  F   UNL A   1      29.600  25.645  23.760  1.00  0.00    -0.167 F 
ATOM     28  F   UNL A   1      31.211  25.324  22.342  1.00  0.00    -0.167 F 
ATOM     29  F   UNL A   1      29.876  23.678  22.852  1.00  0.00    -0.167 F 
ENDBRANCH  21  26
ENDBRANCH   9  11
ENDBRANCH   8   9
ENDBRANCH   7   8
ENDBRANCH   6   7
ENDBRANCH   5   6
ENDBRANCH   4   5
ENDBRANCH   3   4
ENDBRANCH   2   3
ENDBRANCH   1   2
BRANCH   1  30
ATOM     30  C   UNL A   1      33.587  34.061  28.162  1.00  0.00     0.188 C 
BRANCH  30  31
ATOM     31  O   UNL A   1      32.645  34.789  28.944  1.00  0.00    -0.376 OA
BRANCH  31  32
ATOM     32  C   UNL A   1      33.165  35.782  29.818  1.00  0.00     0.202 C 
BRANCH  32  33
ATOM     33  C   UNL A   1      33.236  35.335  31.282  1.00  0.00     0.261 C 
BRANCH  33  34
ATOM     34  O   UNL A   1      34.530  34.889  31.719  1.00  0.00    -0.460 OA
BRANCH  34  35
ATOM     35  C   UNL A   1      34.647  33.604  32.119  1.00  0.00     0.338 C 
ATOM     36  O   UNL A   1      33.779  32.894  32.595  1.00  0.00    -0.246 OA
BRANCH  35  37
ATOM     37  C   UNL A   1      35.980  33.132  31.692  1.00  0.00     0.060 A 
ATOM     38  C   UNL A   1      36.518  33.549  30.472  1.00  0.00     0.016 A 
ATOM     39  C   UNL A   1      36.678  32.234  32.509  1.00  0.00     0.016 A 
ATOM     40  C   UNL A   1      37.781  33.096  30.086  1.00  0.00     0.010 A 
ATOM     41  C   UNL A   1      37.937  31.773  32.116  1.00  0.00     0.010 A 
ATOM     42  C   UNL A   1      38.508  32.226  30.917  1.00  0.00    -0.014 A 
BRANCH  42  43
ATOM     43  C   UNL A   1      39.941  31.973  30.636  1.00  0.00     0.031 A 
ATOM     44  C   UNL A   1      40.428  30.694  30.032  1.00  0.00     0.074 A 
ATOM     45  C   UNL A   1      40.811  32.950  30.955  1.00  0.00     0.049 A 
ATOM     46  N   UNL A   1      41.646  30.367  29.684  1.00  0.00    -0.248 NA
ATOM     47  C   UNL A   1      39.427  29.646  29.792  1.00  0.00     0.031 C 
ATOM     48  C   UNL A   1      40.443  34.228  31.566  1.00  0.00     0.029 A 
ATOM     49  N   UNL A   1      42.171  33.026  30.809  1.00  0.00    -0.354 N 
ATOM     50  C   UNL A   1      41.562  29.085  29.160  1.00  0.00     0.074 A 
ATOM     51  C   UNL A   1      40.176  28.677  29.277  1.00  0.00     0.031 C 
ATOM     52  C   UNL A   1      41.548  34.970  31.727  1.00  0.00     0.029 A 
ATOM     53  C   UNL A   1      42.701  34.212  31.254  1.00  0.00     0.049 A 
ATOM     54  H   UNL A   1      42.716  32.301  30.424  1.00  0.00     0.167 HD
ATOM     55  C   UNL A   1      42.552  28.334  28.618  1.00  0.00     0.037 A 
ATOM     56  C   UNL A   1      43.975  34.644  31.276  1.00  0.00     0.037 A 
ATOM     57  C   UNL A   1      43.933  28.743  28.527  1.00  0.00     0.049 A 
ATOM     58  C   UNL A   1      45.057  33.768  30.713  1.00  0.00     0.074 A 
ATOM     59  C   UNL A   1      45.000  28.058  27.969  1.00  0.00     0.029 A 
ATOM     60  N   UNL A   1      44.443  29.936  29.018  1.00  0.00    -0.354 N 
ATOM     61  N   UNL A   1      44.956  32.585  30.160  1.00  0.00    -0.248 NA
ATOM     62  C   UNL A   1      46.427  34.292  30.769  1.00  0.00     0.031 C 
ATOM     63  C   UNL A   1      46.161  28.812  28.169  1.00  0.00     0.029 A 
ATOM     64  C   UNL A   1      45.813  29.994  28.799  1.00  0.00     0.049 A 
ATOM     65  H   UNL A   1      43.911  30.639  29.457  1.00  0.00     0.167 HD
ATOM     66  C   UNL A   1      46.242  32.231  29.780  1.00  0.00     0.074 A 
ATOM     67  C   UNL A   1      47.104  33.334  30.151  1.00  0.00     0.031 C 
ATOM     68  C   UNL A   1      46.665  31.094  29.176  1.00  0.00     0.037 A 
BRANCH  55  69
ATOM     69  C   UNL A   1      42.189  26.987  28.062  1.00  0.00     0.064 A 
ATOM     70  C   UNL A   1      41.651  26.852  26.774  1.00  0.00     0.173 A 
ATOM     71  C   UNL A   1      42.475  25.814  28.778  1.00  0.00     0.173 A 
ATOM     72  F   UNL A   1      41.357  27.942  26.048  1.00  0.00    -0.203 F 
ATOM     73  C   UNL A   1      41.405  25.595  26.226  1.00  0.00     0.198 A 
ATOM     74  C   UNL A   1      42.253  24.558  28.218  1.00  0.00     0.198 A 
ATOM     75  F   UNL A   1      43.003  25.885  30.010  1.00  0.00    -0.203 F 
ATOM     76  F   UNL A   1      40.873  25.492  25.001  1.00  0.00    -0.200 F 
ATOM     77  C   UNL A   1      41.716  24.450  26.944  1.00  0.00     0.200 A 
ATOM     78  F   UNL A   1      42.570  23.453  28.907  1.00  0.00    -0.200 F 
ATOM     79  F   UNL A   1      41.501  23.241  26.407  1.00  0.00    -0.200 F 
ENDBRANCH  55  69
BRANCH  56  80
ATOM     80  C   UNL A   1      44.275  35.995  31.811  1.00  0.00     0.064 A 
ATOM     81  C   UNL A   1      44.146  37.130  31.001  1.00  0.00     0.173 A 
ATOM     82  C   UNL A   1      44.656  36.181  33.148  1.00  0.00     0.173 A 
ATOM     83  F   UNL A   1      43.799  36.999  29.713  1.00  0.00    -0.203 F 
ATOM     84  C   UNL A   1      44.393  38.404  31.508  1.00  0.00     0.198 A 
ATOM     85  C   UNL A   1      44.876  37.457  33.661  1.00  0.00     0.198 A 
ATOM     86  F   UNL A   1      44.783  35.124  33.964  1.00  0.00    -0.203 F 
ATOM     87  F   UNL A   1      44.291  39.472  30.706  1.00  0.00    -0.200 F 
ATOM     88  C   UNL A   1      44.750  38.567  32.839  1.00  0.00     0.200 A 
ATOM     89  F   UNL A   1      45.202  37.611  34.951  1.00  0.00    -0.200 F 
ATOM     90  F   UNL A   1      44.973  39.794  33.328  1.00  0.00    -0.200 F 
ENDBRANCH  56  80
BRANCH  68  91
ATOM     91  C   UNL A   1      48.129  30.987  28.857  1.00  0.00     0.064 A 
ATOM     92  C   UNL A   1      48.661  31.504  27.666  1.00  0.00     0.173 A 
ATOM     93  C   UNL A   1      49.017  30.400  29.772  1.00  0.00     0.173 A 
ATOM     94  F   UNL A   1      47.854  32.059  26.750  1.00  0.00    -0.203 F 
ATOM     95  C   UNL A   1      50.025  31.416  27.394  1.00  0.00     0.198 A 
ATOM     96  C   UNL A   1      50.383  30.343  29.511  1.00  0.00     0.198 A 
ATOM     97  F   UNL A   1      48.560  29.896  30.928  1.00  0.00    -0.203 F 
ATOM     98  F   UNL A   1      50.504  31.877  26.230  1.00  0.00    -0.200 F 
ATOM     99  C   UNL A   1      50.885  30.845  28.319  1.00  0.00     0.200 A 
ATOM    100  F   UNL A   1      51.214  29.801  30.412  1.00  0.00    -0.200 F 
ATOM    101  F   UNL A   1      52.197  30.771  28.060  1.00  0.00    -0.200 F 
ENDBRANCH  68  91
ENDBRANCH  42  43
ENDBRANCH  35  37
ENDBRANCH  34  35
ENDBRANCH  33  34
ENDBRANCH  32  33
ENDBRANCH  31  32
ENDBRANCH  30  31
ENDBRANCH   1  30
TORSDOF 22
ENDMDL
MODEL 2
REMARK VINA RESULT:     -10.0      8.268     15.336
REMARK SMILES CC(C)(C)c1cc2c(cc1Cl)C=C(C(=O)OCCOCCOCCOCCOC(=O)c1ccc(-c3c4nc(c(-c5c(F)c(F)c(F)c(F)c5F)c5ccc([nH]5)c(-c5c(F)c(F)c(F)c(F)c5F)c5nc(c(-c6c(F)c(F)c(F)c(F)c6F)c6ccc3[nH]6)C=C5)C=C4)cc1)[C@@H](C(F)(F)F)O2
REMARK SMILES IDX 23 1 22 2 21 3 20 4 19 5 18 6 17 7 16 8 14 9 15 10 13 11
REMARK SMILES IDX 5 12 6 13 10 14 7 15 9 16 11 17 8 18 99 19 12 20 94 21 2 22
REMARK SMILES IDX 1 23 3 24 4 25 95 26 96 27 97 28 98 29 24 30 25 31 26 32
REMARK SMILES IDX 27 33 28 34 29 35 30 36 31 37 32 38 93 39 33 40 92 41 34 42
REMARK SMILES IDX 35 43 36 44 86 45 37 46 91 47 85 48 87 49 38 50 90 51 84 52
REMARK SMILES IDX 83 53 39 55 71 56 51 57 70 58 52 59 55 60 69 61 88 62 53 63
REMARK SMILES IDX 54 64 68 66 89 67 56 68 40 69 41 70 49 71 42 72 43 73 47 74
REMARK SMILES IDX 50 75 44 76 45 77 48 78 46 79 72 80 73 81 81 82 74 83 75 84
REMARK SMILES IDX 79 85 82 86 76 87 77 88 80 89 78 90 57 91 58 92 66 93 59 94
REMARK SMILES IDX 60 95 64 96 67 97 61 98 62 99 65 100 63 101
REMARK H PARENT 87 54 55 65
REMARK Flexibility Score: inf
ROOT
ATOM      1  C   UNL A   1      43.059  41.096  29.103  1.00  0.00     0.188 C 
ENDROOT
BRANCH   1   2
ATOM      2  O   UNL A   1      43.778  41.565  27.962  1.00  0.00    -0.377 OA
BRANCH   2   3
ATOM      3  C   UNL A   1      44.775  42.553  28.168  1.00  0.00     0.188 C 
BRANCH   3   4
ATOM      4  C   UNL A   1      46.206  42.018  27.979  1.00  0.00     0.188 C 
BRANCH   4   5
ATOM      5  O   UNL A   1      46.770  42.368  26.716  1.00  0.00    -0.376 OA
BRANCH   5   6
ATOM      6  C   UNL A   1      46.840  41.345  25.731  1.00  0.00     0.202 C 
BRANCH   6   7
ATOM      7  C   UNL A   1      45.600  41.145  24.847  1.00  0.00     0.261 C 
BRANCH   7   8
ATOM      8  O   UNL A   1      45.460  42.090  23.774  1.00  0.00    -0.460 OA
BRANCH   8   9
ATOM      9  C   UNL A   1      44.425  42.950  23.838  1.00  0.00     0.338 C 
ATOM     10  O   UNL A   1      43.762  43.220  24.822  1.00  0.00    -0.246 OA
BRANCH   9  11
ATOM     11  C   UNL A   1      44.334  43.650  22.537  1.00  0.00     0.087 C 
ATOM     12  C   UNL A   1      44.656  46.985  18.736  1.00  0.00    -0.020 A 
ATOM     13  C   UNL A   1      44.014  45.735  18.949  1.00  0.00     0.053 A 
ATOM     14  C   UNL A   1      45.591  47.365  19.719  1.00  0.00     0.045 A 
ATOM     15  C   UNL A   1      44.176  44.986  20.119  1.00  0.00     0.128 A 
ATOM     16  C   UNL A   1      45.749  46.611  20.899  1.00  0.00     0.032 A 
ATOM     17  Cl  UNL A   1      46.650  48.726  19.621  1.00  0.00    -0.084 Cl
ATOM     18  C   UNL A   1      45.008  45.452  21.124  1.00  0.00     0.019 A 
ATOM     19  O   UNL A   1      43.458  43.830  20.201  1.00  0.00    -0.475 OA
ATOM     20  C   UNL A   1      45.070  44.760  22.398  1.00  0.00     0.027 C 
ATOM     21  C   UNL A   1      43.504  43.051  21.430  1.00  0.00     0.316 C 
BRANCH  12  22
ATOM     22  C   UNL A   1      44.234  47.786  17.477  1.00  0.00    -0.012 C 
ATOM     23  C   UNL A   1      43.648  49.197  17.697  1.00  0.00     0.016 C 
ATOM     24  C   UNL A   1      43.115  47.013  16.720  1.00  0.00     0.016 C 
ATOM     25  C   UNL A   1      45.452  47.940  16.542  1.00  0.00     0.016 C 
ENDBRANCH  12  22
BRANCH  21  26
ATOM     26  C   UNL A   1      42.058  42.776  21.869  1.00  0.00     0.430 C 
ATOM     27  F   UNL A   1      41.953  41.579  22.496  1.00  0.00    -0.167 F 
ATOM     28  F   UNL A   1      41.602  43.707  22.739  1.00  0.00    -0.167 F 
ATOM     29  F   UNL A   1      41.208  42.759  20.816  1.00  0.00    -0.167 F 
ENDBRANCH  21  26
ENDBRANCH   9  11
ENDBRANCH   8   9
ENDBRANCH   7   8
ENDBRANCH   6   7
ENDBRANCH   5   6
ENDBRANCH   4   5
ENDBRANCH   3   4
ENDBRANCH   2   3
ENDBRANCH   1   2
BRANCH   1  30
ATOM     30  C   UNL A   1      43.388  39.749  29.790  1.00  0.00     0.188 C 
BRANCH  30  31
ATOM     31  O   UNL A   1      44.771  39.562  30.071  1.00  0.00    -0.376 OA
BRANCH  31  32
ATOM     32  C   UNL A   1      45.255  38.226  30.059  1.00  0.00     0.202 C 
BRANCH  32  33
ATOM     33  C   UNL A   1      46.718  38.099  30.496  1.00  0.00     0.261 C 
BRANCH  33  34
ATOM     34  O   UNL A   1      47.331  36.833  30.206  1.00  0.00    -0.460 OA
BRANCH  34  35
ATOM     35  C   UNL A   1      47.398  36.450  28.912  1.00  0.00     0.338 C 
ATOM     36  O   UNL A   1      48.083  36.937  28.030  1.00  0.00    -0.246 OA
BRANCH  35  37
ATOM     37  C   UNL A   1      46.635  35.192  28.786  1.00  0.00     0.060 A 
ATOM     38  C   UNL A   1      45.685  35.041  27.772  1.00  0.00     0.016 A 
ATOM     39  C   UNL A   1      46.850  34.169  29.718  1.00  0.00     0.016 A 
ATOM     40  C   UNL A   1      44.976  33.844  27.666  1.00  0.00     0.010 A 
ATOM     41  C   UNL A   1      46.132  32.975  29.617  1.00  0.00     0.010 A 
ATOM     42  C   UNL A   1      45.213  32.795  28.572  1.00  0.00    -0.014 A 
BRANCH  42  43
ATOM     43  C   UNL A   1      44.666  31.447  28.290  1.00  0.00     0.031 A 
ATOM     44  C   UNL A   1      45.400  30.439  27.464  1.00  0.00     0.074 A 
ATOM     45  C   UNL A   1      43.458  31.154  28.806  1.00  0.00     0.049 A 
ATOM     46  N   UNL A   1      45.060  29.205  27.188  1.00  0.00    -0.248 NA
ATOM     47  C   UNL A   1      46.673  30.864  26.867  1.00  0.00     0.031 C 
ATOM     48  C   UNL A   1      42.649  32.072  29.609  1.00  0.00     0.029 A 
ATOM     49  N   UNL A   1      42.703  30.012  28.739  1.00  0.00    -0.354 N 
ATOM     50  C   UNL A   1      46.085  28.693  26.405  1.00  0.00     0.074 A 
ATOM     51  C   UNL A   1      47.040  29.767  26.213  1.00  0.00     0.031 C 
ATOM     52  C   UNL A   1      41.518  31.453  29.975  1.00  0.00     0.029 A 
ATOM     53  C   UNL A   1      41.513  30.106  29.415  1.00  0.00     0.049 A 
ATOM     54  H   UNL A   1      42.987  29.204  28.252  1.00  0.00     0.167 HD
ATOM     55  C   UNL A   1      46.216  27.437  25.911  1.00  0.00     0.037 A 
ATOM     56  C   UNL A   1      40.525  29.205  29.571  1.00  0.00     0.037 A 
ATOM     57  C   UNL A   1      45.247  26.383  26.090  1.00  0.00     0.049 A 
ATOM     58  C   UNL A   1      40.677  27.838  28.970  1.00  0.00     0.074 A 
ATOM     59  C   UNL A   1      45.308  25.071  25.649  1.00  0.00     0.029 A 
ATOM     60  N   UNL A   1      44.035  26.520  26.752  1.00  0.00    -0.354 N 
ATOM     61  N   UNL A   1      41.680  27.344  28.287  1.00  0.00    -0.248 NA
ATOM     62  C   UNL A   1      39.565  26.901  29.170  1.00  0.00     0.031 C 
ATOM     63  C   UNL A   1      44.114  24.432  25.997  1.00  0.00     0.029 A 
ATOM     64  C   UNL A   1      43.330  25.325  26.707  1.00  0.00     0.049 A 
ATOM     65  H   UNL A   1      43.721  27.344  27.190  1.00  0.00     0.167 HD
ATOM     66  C   UNL A   1      41.334  26.034  27.996  1.00  0.00     0.074 A 
ATOM     67  C   UNL A   1      40.033  25.804  28.591  1.00  0.00     0.031 C 
ATOM     68  C   UNL A   1      42.034  25.106  27.298  1.00  0.00     0.037 A 
BRANCH  55  69
ATOM     69  C   UNL A   1      47.458  27.113  25.133  1.00  0.00     0.064 A 
ATOM     70  C   UNL A   1      47.605  27.511  23.795  1.00  0.00     0.173 A 
ATOM     71  C   UNL A   1      48.553  26.492  25.754  1.00  0.00     0.173 A 
ATOM     72  F   UNL A   1      46.587  28.107  23.154  1.00  0.00    -0.203 F 
ATOM     73  C   UNL A   1      48.795  27.292  23.107  1.00  0.00     0.198 A 
ATOM     74  C   UNL A   1      49.751  26.297  25.071  1.00  0.00     0.198 A 
ATOM     75  F   UNL A   1      48.472  26.102  27.036  1.00  0.00    -0.203 F 
ATOM     76  F   UNL A   1      48.904  27.664  21.824  1.00  0.00    -0.200 F 
ATOM     77  C   UNL A   1      49.871  26.695  23.748  1.00  0.00     0.200 A 
ATOM     78  F   UNL A   1      50.795  25.736  25.698  1.00  0.00    -0.200 F 
ATOM     79  F   UNL A   1      51.024  26.506  23.092  1.00  0.00    -0.200 F 
ENDBRANCH  55  69
BRANCH  56  80
ATOM     80  C   UNL A   1      39.330  29.568  30.373  1.00  0.00     0.064 A 
ATOM     81  C   UNL A   1      38.256  30.249  29.788  1.00  0.00     0.173 A 
ATOM     82  C   UNL A   1      39.223  29.208  31.724  1.00  0.00     0.173 A 
ATOM     83  F   UNL A   1      38.322  30.628  28.503  1.00  0.00    -0.203 F 
ATOM     84  C   UNL A   1      37.118  30.563  30.527  1.00  0.00     0.198 A 
ATOM     85  C   UNL A   1      38.072  29.497  32.455  1.00  0.00     0.198 A 
ATOM     86  F   UNL A   1      40.222  28.546  32.325  1.00  0.00    -0.203 F 
ATOM     87  F   UNL A   1      36.115  31.241  29.952  1.00  0.00    -0.200 F 
ATOM     88  C   UNL A   1      37.024  30.180  31.857  1.00  0.00     0.200 A 
ATOM     89  F   UNL A   1      37.978  29.109  33.733  1.00  0.00    -0.200 F 
ATOM     90  F   UNL A   1      35.922  30.469  32.562  1.00  0.00    -0.200 F 
ENDBRANCH  56  80
BRANCH  68  91
ATOM     91  C   UNL A   1      41.418  23.743  27.154  1.00  0.00     0.064 A 
ATOM     92  C   UNL A   1      40.267  23.536  26.379  1.00  0.00     0.173 A 
ATOM     93  C   UNL A   1      42.010  22.626  27.761  1.00  0.00     0.173 A 
ATOM     94  F   UNL A   1      39.652  24.573  25.792  1.00  0.00    -0.203 F 
ATOM     95  C   UNL A   1      39.720  22.263  26.237  1.00  0.00     0.198 A 
ATOM     96  C   UNL A   1      41.479  21.350  27.591  1.00  0.00     0.198 A 
ATOM     97  F   UNL A   1      43.116  22.768  28.508  1.00  0.00    -0.203 F 
ATOM     98  F   UNL A   1      38.594  22.095  25.529  1.00  0.00    -0.200 F 
ATOM     99  C   UNL A   1      40.330  21.171  26.835  1.00  0.00     0.200 A 
ATOM    100  F   UNL A   1      42.078  20.295  28.160  1.00  0.00    -0.200 F 
ATOM    101  F   UNL A   1      39.808  19.945  26.688  1.00  0.00    -0.200 F 
ENDBRANCH  68  91
ENDBRANCH  42  43
ENDBRANCH  35  37
ENDBRANCH  34  35
ENDBRANCH  33  34
ENDBRANCH  32  33
ENDBRANCH  31  32
ENDBRANCH  30  31
ENDBRANCH   1  30
TORSDOF 22
ENDMDL
MODEL 3
REMARK VINA RESULT:      -9.9      6.166     11.926
REMARK SMILES CC(C)(C)c1cc2c(cc1Cl)C=C(C(=O)OCCOCCOCCOCCOC(=O)c1ccc(-c3c4nc(c(-c5c(F)c(F)c(F)c(F)c5F)c5ccc([nH]5)c(-c5c(F)c(F)c(F)c(F)c5F)c5nc(c(-c6c(F)c(F)c(F)c(F)c6F)c6ccc3[nH]6)C=C5)C=C4)cc1)[C@@H](C(F)(F)F)O2
REMARK SMILES IDX 23 1 22 2 21 3 20 4 19 5 18 6 17 7 16 8 14 9 15 10 13 11
REMARK SMILES IDX 5 12 6 13 10 14 7 15 9 16 11 17 8 18 99 19 12 20 94 21 2 22
REMARK SMILES IDX 1 23 3 24 4 25 95 26 96 27 97 28 98 29 24 30 25 31 26 32
REMARK SMILES IDX 27 33 28 34 29 35 30 36 31 37 32 38 93 39 33 40 92 41 34 42
REMARK SMILES IDX 35 43 36 44 86 45 37 46 91 47 85 48 87 49 38 50 90 51 84 52
REMARK SMILES IDX 83 53 39 55 71 56 51 57 70 58 52 59 55 60 69 61 88 62 53 63
REMARK SMILES IDX 54 64 68 66 89 67 56 68 40 69 41 70 49 71 42 72 43 73 47 74
REMARK SMILES IDX 50 75 44 76 45 77 48 78 46 79 72 80 73 81 81 82 74 83 75 84
REMARK SMILES IDX 79 85 82 86 76 87 77 88 80 89 78 90 57 91 58 92 66 93 59 94
REMARK SMILES IDX 60 95 64 96 67 97 61 98 62 99 65 100 63 101
REMARK H PARENT 87 54 55 65
REMARK Flexibility Score: inf
ROOT
ATOM      1  C   UNL A   1      42.178  25.105  28.333  1.00  0.00     0.188 C 
ENDROOT
BRANCH   1   2
ATOM      2  O   UNL A   1      41.308  25.647  27.338  1.00  0.00    -0.377 OA
BRANCH   2   3
ATOM      3  C   UNL A   1      40.078  26.207  27.769  1.00  0.00     0.188 C 
BRANCH   3   4
ATOM      4  C   UNL A   1      40.166  27.720  28.043  1.00  0.00     0.188 C 
BRANCH   4   5
ATOM      5  O   UNL A   1      41.075  28.045  29.094  1.00  0.00    -0.376 OA
BRANCH   5   6
ATOM      6  C   UNL A   1      40.517  28.532  30.308  1.00  0.00     0.202 C 
BRANCH   6   7
ATOM      7  C   UNL A   1      39.085  29.084  30.242  1.00  0.00     0.261 C 
BRANCH   7   8
ATOM      8  O   UNL A   1      38.791  30.123  31.190  1.00  0.00    -0.460 OA
BRANCH   8   9
ATOM      9  C   UNL A   1      37.989  29.807  32.224  1.00  0.00     0.338 C 
ATOM     10  O   UNL A   1      38.064  28.819  32.931  1.00  0.00    -0.246 OA
BRANCH   9  11
ATOM     11  C   UNL A   1      37.092  30.958  32.473  1.00  0.00     0.087 C 
ATOM     12  C   UNL A   1      33.962  34.917  32.020  1.00  0.00    -0.020 A 
ATOM     13  C   UNL A   1      34.658  34.279  33.083  1.00  0.00     0.053 A 
ATOM     14  C   UNL A   1      33.960  34.226  30.792  1.00  0.00     0.045 A 
ATOM     15  C   UNL A   1      35.416  33.117  32.906  1.00  0.00     0.128 A 
ATOM     16  C   UNL A   1      34.728  33.059  30.615  1.00  0.00     0.032 A 
ATOM     17  Cl  UNL A   1      33.041  34.667  29.397  1.00  0.00    -0.084 Cl
ATOM     18  C   UNL A   1      35.494  32.531  31.653  1.00  0.00     0.019 A 
ATOM     19  O   UNL A   1      36.066  32.646  34.008  1.00  0.00    -0.475 OA
ATOM     20  C   UNL A   1      36.393  31.414  31.426  1.00  0.00     0.027 C 
ATOM     21  C   UNL A   1      36.950  31.497  33.875  1.00  0.00     0.316 C 
BRANCH  12  22
ATOM     22  C   UNL A   1      33.323  36.297  32.327  1.00  0.00    -0.012 C 
ATOM     23  C   UNL A   1      33.541  37.424  31.296  1.00  0.00     0.016 C 
ATOM     24  C   UNL A   1      33.915  36.860  33.652  1.00  0.00     0.016 C 
ATOM     25  C   UNL A   1      31.799  36.123  32.497  1.00  0.00     0.016 C 
ENDBRANCH  12  22
BRANCH  21  26
ATOM     26  C   UNL A   1      38.304  31.868  34.497  1.00  0.00     0.430 C 
ATOM     27  F   UNL A   1      39.157  32.357  33.565  1.00  0.00    -0.167 F 
ATOM     28  F   UNL A   1      38.184  32.824  35.448  1.00  0.00    -0.167 F 
ATOM     29  F   UNL A   1      38.901  30.800  35.075  1.00  0.00    -0.167 F 
ENDBRANCH  21  26
ENDBRANCH   9  11
ENDBRANCH   8   9
ENDBRANCH   7   8
ENDBRANCH   6   7
ENDBRANCH   5   6
ENDBRANCH   4   5
ENDBRANCH   3   4
ENDBRANCH   2   3
ENDBRANCH   1   2
BRANCH   1  30
ATOM     30  C   UNL A   1      43.354  24.163  27.977  1.00  0.00     0.188 C 
BRANCH  30  31
ATOM     31  O   UNL A   1      43.180  23.453  26.755  1.00  0.00    -0.376 OA
BRANCH  31  32
ATOM     32  C   UNL A   1      44.354  22.950  26.132  1.00  0.00     0.202 C 
BRANCH  32  33
ATOM     33  C   UNL A   1      44.622  23.555  24.750  1.00  0.00     0.261 C 
BRANCH  33  34
ATOM     34  O   UNL A   1      44.647  24.991  24.710  1.00  0.00    -0.460 OA
BRANCH  34  35
ATOM     35  C   UNL A   1      45.816  25.605  24.997  1.00  0.00     0.338 C 
ATOM     36  O   UNL A   1      46.901  25.410  24.480  1.00  0.00    -0.246 OA
BRANCH  35  37
ATOM     37  C   UNL A   1      45.512  26.715  25.922  1.00  0.00     0.060 A 
ATOM     38  C   UNL A   1      44.210  27.211  26.027  1.00  0.00     0.016 A 
ATOM     39  C   UNL A   1      46.553  27.287  26.665  1.00  0.00     0.016 A 
ATOM     40  C   UNL A   1      43.940  28.257  26.910  1.00  0.00     0.010 A 
ATOM     41  C   UNL A   1      46.283  28.341  27.541  1.00  0.00     0.010 A 
ATOM     42  C   UNL A   1      44.970  28.811  27.691  1.00  0.00    -0.014 A 
BRANCH  42  43
ATOM     43  C   UNL A   1      44.631  29.720  28.811  1.00  0.00     0.031 A 
ATOM     44  C   UNL A   1      44.591  31.207  28.655  1.00  0.00     0.074 A 
ATOM     45  C   UNL A   1      44.361  29.153  30.002  1.00  0.00     0.049 A 
ATOM     46  N   UNL A   1      44.255  32.113  29.539  1.00  0.00    -0.248 NA
ATOM     47  C   UNL A   1      44.979  31.752  27.348  1.00  0.00     0.031 C 
ATOM     48  C   UNL A   1      44.391  27.714  30.266  1.00  0.00     0.029 A 
ATOM     49  N   UNL A   1      44.007  29.709  31.203  1.00  0.00    -0.354 N 
ATOM     50  C   UNL A   1      44.367  33.336  28.893  1.00  0.00     0.074 A 
ATOM     51  C   UNL A   1      44.845  33.058  27.553  1.00  0.00     0.031 C 
ATOM     52  C   UNL A   1      44.053  27.497  31.545  1.00  0.00     0.029 A 
ATOM     53  C   UNL A   1      43.805  28.780  32.194  1.00  0.00     0.049 A 
ATOM     54  H   UNL A   1      43.909  30.678  31.343  1.00  0.00     0.167 HD
ATOM     55  C   UNL A   1      44.078  34.569  29.377  1.00  0.00     0.037 A 
ATOM     56  C   UNL A   1      43.455  28.942  33.483  1.00  0.00     0.037 A 
ATOM     57  C   UNL A   1      43.623  34.835  30.721  1.00  0.00     0.049 A 
ATOM     58  C   UNL A   1      43.190  30.325  34.003  1.00  0.00     0.074 A 
ATOM     59  C   UNL A   1      43.280  36.050  31.291  1.00  0.00     0.029 A 
ATOM     60  N   UNL A   1      43.461  33.875  31.710  1.00  0.00    -0.354 N 
ATOM     61  N   UNL A   1      43.235  31.469  33.366  1.00  0.00    -0.248 NA
ATOM     62  C   UNL A   1      42.816  30.439  35.418  1.00  0.00     0.031 C 
ATOM     63  C   UNL A   1      42.962  35.833  32.635  1.00  0.00     0.029 A 
ATOM     64  C   UNL A   1      43.049  34.475  32.892  1.00  0.00     0.049 A 
ATOM     65  H   UNL A   1      43.615  32.910  31.591  1.00  0.00     0.167 HD
ATOM     66  C   UNL A   1      42.873  32.435  34.291  1.00  0.00     0.074 A 
ATOM     67  C   UNL A   1      42.595  31.741  35.532  1.00  0.00     0.031 C 
ATOM     68  C   UNL A   1      42.779  33.777  34.125  1.00  0.00     0.037 A 
BRANCH  55  69
ATOM     69  C   UNL A   1      44.229  35.741  28.451  1.00  0.00     0.064 A 
ATOM     70  C   UNL A   1      43.116  36.333  27.837  1.00  0.00     0.173 A 
ATOM     71  C   UNL A   1      45.481  36.345  28.256  1.00  0.00     0.173 A 
ATOM     72  F   UNL A   1      41.896  35.794  27.990  1.00  0.00    -0.203 F 
ATOM     73  C   UNL A   1      43.250  37.477  27.055  1.00  0.00     0.198 A 
ATOM     74  C   UNL A   1      45.609  37.504  27.495  1.00  0.00     0.198 A 
ATOM     75  F   UNL A   1      46.578  35.828  28.831  1.00  0.00    -0.203 F 
ATOM     76  F   UNL A   1      42.174  38.012  26.463  1.00  0.00    -0.200 F 
ATOM     77  C   UNL A   1      44.494  38.068  26.894  1.00  0.00     0.200 A 
ATOM     78  F   UNL A   1      46.810  38.084  27.355  1.00  0.00    -0.200 F 
ATOM     79  F   UNL A   1      44.619  39.183  26.161  1.00  0.00    -0.200 F 
ENDBRANCH  55  69
BRANCH  56  80
ATOM     80  C   UNL A   1      43.292  27.747  34.348  1.00  0.00     0.064 A 
ATOM     81  C   UNL A   1      42.046  27.122  34.477  1.00  0.00     0.173 A 
ATOM     82  C   UNL A   1      44.383  27.185  35.026  1.00  0.00     0.173 A 
ATOM     83  F   UNL A   1      40.972  27.633  33.858  1.00  0.00    -0.203 F 
ATOM     84  C   UNL A   1      41.895  25.980  35.260  1.00  0.00     0.198 A 
ATOM     85  C   UNL A   1      44.236  26.027  35.787  1.00  0.00     0.198 A 
ATOM     86  F   UNL A   1      45.598  27.743  34.925  1.00  0.00    -0.203 F 
ATOM     87  F   UNL A   1      40.686  25.417  35.391  1.00  0.00    -0.200 F 
ATOM     88  C   UNL A   1      42.991  25.430  35.907  1.00  0.00     0.200 A 
ATOM     89  F   UNL A   1      45.301  25.488  36.395  1.00  0.00    -0.200 F 
ATOM     90  F   UNL A   1      42.846  24.322  36.648  1.00  0.00    -0.200 F 
ENDBRANCH  56  80
BRANCH  68  91
ATOM     91  C   UNL A   1      42.337  34.590  35.308  1.00  0.00     0.064 A 
ATOM     92  C   UNL A   1      41.014  35.036  35.441  1.00  0.00     0.173 A 
ATOM     93  C   UNL A   1      43.237  34.888  36.343  1.00  0.00     0.173 A 
ATOM     94  F   UNL A   1      40.119  34.793  34.472  1.00  0.00    -0.203 F 
ATOM     95  C   UNL A   1      40.615  35.771  36.555  1.00  0.00     0.198 A 
ATOM     96  C   UNL A   1      42.827  35.595  37.470  1.00  0.00     0.198 A 
ATOM     97  F   UNL A   1      44.513  34.480  36.269  1.00  0.00    -0.203 F 
ATOM     98  F   UNL A   1      39.357  36.226  36.639  1.00  0.00    -0.200 F 
ATOM     99  C   UNL A   1      41.518  36.042  37.571  1.00  0.00     0.200 A 
ATOM    100  F   UNL A   1      43.698  35.845  38.457  1.00  0.00    -0.200 F 
ATOM    101  F   UNL A   1      41.128  36.740  38.647  1.00  0.00    -0.200 F 
ENDBRANCH  68  91
ENDBRANCH  42  43
ENDBRANCH  35  37
ENDBRANCH  34  35
ENDBRANCH  33  34
ENDBRANCH  32  33
ENDBRANCH  31  32
ENDBRANCH  30  31
ENDBRANCH   1  30
TORSDOF 22
ENDMDL
