MODEL 1
REMARK VINA RESULT:     -11.4      0.000      0.000
REMARK SMILES O=C(OCCOCCOCCOCCOC(=O)c1cc(-c2ccccc2)nc(Nc2nc3ccccc3s2)n1)c1ccc(-c2c3nc(c(-c4c(F)c(F)c(F)c(F)c4F)c4ccc([nH]4)c(-c4c(F)c(F)c(F)c(F)c4F)c4nc(c(-c5c(F)c(F)c(F)c(F)c5F)c5ccc2[nH]5)C=C4)C=C3)cc1
REMARK SMILES IDX 9 1 8 2 7 3 6 4 5 5 4 6 3 7 2 8 1 9 40 10 41 11 102 12 42 13
REMARK SMILES IDX 101 14 43 15 44 16 45 17 95 18 46 19 100 20 94 21 96 22
REMARK SMILES IDX 47 23 99 24 93 25 92 26 48 28 80 29 60 30 79 31 61 32 64 33
REMARK SMILES IDX 78 34 97 35 62 36 63 37 77 39 98 40 65 41 49 42 50 43 58 44
REMARK SMILES IDX 51 45 52 46 56 47 59 48 53 49 54 50 57 51 55 52 81 53 82 54
REMARK SMILES IDX 90 55 83 56 84 57 88 58 91 59 85 60 86 61 89 62 87 63 66 64
REMARK SMILES IDX 67 65 75 66 68 67 69 68 73 69 76 70 70 71 71 72 74 73 72 74
REMARK SMILES IDX 10 75 11 76 12 77 13 78 14 79 15 80 16 81 17 82 18 83 19 84
REMARK SMILES IDX 39 85 20 86 28 87 27 88 21 89 22 90 26 91 23 92 25 93 24 94
REMARK SMILES IDX 29 95 30 97 31 98 38 99 32 100 37 101 33 102 36 103 34 104
REMARK SMILES IDX 35 105
REMARK H PARENT 96 27 64 38 29 96
REMARK Flexibility Score: inf
ROOT
ATOM      1  O   UNL A   1      31.964  28.086  24.685  1.00  0.00    -0.377 OA
ENDROOT
BRANCH   1   2
ATOM      2  C   UNL A   1      31.800  27.908  26.076  1.00  0.00     0.188 C 
BRANCH   2   3
ATOM      3  C   UNL A   1      32.637  28.803  26.987  1.00  0.00     0.188 C 
BRANCH   3   4
ATOM      4  O   UNL A   1      33.047  30.028  26.382  1.00  0.00    -0.376 OA
BRANCH   4   5
ATOM      5  C   UNL A   1      32.380  31.190  26.872  1.00  0.00     0.202 C 
BRANCH   5   6
ATOM      6  C   UNL A   1      33.354  32.110  27.613  1.00  0.00     0.261 C 
BRANCH   6   7
ATOM      7  O   UNL A   1      32.849  33.453  27.743  1.00  0.00    -0.460 OA
BRANCH   7   8
ATOM      8  C   UNL A   1      33.348  34.409  28.564  1.00  0.00     0.338 C 
ATOM      9  O   UNL A   1      32.713  35.446  28.745  1.00  0.00    -0.246 OA
BRANCH   8  10
ATOM     10  C   UNL A   1      34.532  34.140  29.435  1.00  0.00     0.060 A 
ATOM     11  C   UNL A   1      35.866  34.379  29.094  1.00  0.00     0.016 A 
ATOM     12  C   UNL A   1      34.254  33.647  30.721  1.00  0.00     0.016 A 
ATOM     13  C   UNL A   1      36.904  34.025  29.950  1.00  0.00     0.010 A 
ATOM     14  C   UNL A   1      35.287  33.311  31.599  1.00  0.00     0.010 A 
ATOM     15  C   UNL A   1      36.618  33.447  31.186  1.00  0.00    -0.014 A 
BRANCH  15  16
ATOM     16  C   UNL A   1      37.708  32.784  31.927  1.00  0.00     0.031 A 
ATOM     17  C   UNL A   1      38.401  31.632  31.259  1.00  0.00     0.074 A 
ATOM     18  C   UNL A   1      38.129  33.266  33.107  1.00  0.00     0.049 A 
ATOM     19  N   UNL A   1      39.359  30.864  31.702  1.00  0.00    -0.248 NA
ATOM     20  C   UNL A   1      37.954  31.308  29.893  1.00  0.00     0.031 C 
ATOM     21  C   UNL A   1      37.587  34.445  33.779  1.00  0.00     0.029 A 
ATOM     22  N   UNL A   1      39.129  32.833  33.938  1.00  0.00    -0.354 N 
ATOM     23  C   UNL A   1      39.604  29.948  30.686  1.00  0.00     0.074 A 
ATOM     24  C   UNL A   1      38.695  30.252  29.605  1.00  0.00     0.031 C 
ATOM     25  C   UNL A   1      38.273  34.653  34.917  1.00  0.00     0.029 A 
ATOM     26  C   UNL A   1      39.266  33.594  35.072  1.00  0.00     0.049 A 
ATOM     27  H   UNL A   1      39.693  32.050  33.741  1.00  0.00     0.167 HD
ATOM     28  C   UNL A   1      40.505  28.940  30.666  1.00  0.00     0.037 A 
ATOM     29  C   UNL A   1      40.097  33.429  36.118  1.00  0.00     0.037 A 
ATOM     30  C   UNL A   1      41.403  28.660  31.752  1.00  0.00     0.049 A 
ATOM     31  C   UNL A   1      41.050  32.262  36.100  1.00  0.00     0.074 A 
ATOM     32  C   UNL A   1      42.324  27.639  31.876  1.00  0.00     0.029 A 
ATOM     33  N   UNL A   1      41.485  29.424  32.910  1.00  0.00    -0.354 N 
ATOM     34  N   UNL A   1      41.243  31.365  35.161  1.00  0.00    -0.248 NA
ATOM     35  C   UNL A   1      41.893  32.077  37.287  1.00  0.00     0.031 C 
ATOM     36  C   UNL A   1      42.941  27.764  33.128  1.00  0.00     0.029 A 
ATOM     37  C   UNL A   1      42.437  28.890  33.760  1.00  0.00     0.049 A 
ATOM     38  H   UNL A   1      40.946  30.226  33.097  1.00  0.00     0.167 HD
ATOM     39  C   UNL A   1      42.246  30.528  35.630  1.00  0.00     0.074 A 
ATOM     40  C   UNL A   1      42.628  31.032  36.934  1.00  0.00     0.031 C 
ATOM     41  C   UNL A   1      42.801  29.438  35.043  1.00  0.00     0.037 A 
BRANCH  28  42
ATOM     42  C   UNL A   1      40.495  28.044  29.463  1.00  0.00     0.064 A 
ATOM     43  C   UNL A   1      39.658  26.921  29.378  1.00  0.00     0.173 A 
ATOM     44  C   UNL A   1      41.377  28.287  28.400  1.00  0.00     0.173 A 
ATOM     45  F   UNL A   1      38.818  26.627  30.382  1.00  0.00    -0.203 F 
ATOM     46  C   UNL A   1      39.732  26.054  28.290  1.00  0.00     0.198 A 
ATOM     47  C   UNL A   1      41.430  27.433  27.301  1.00  0.00     0.198 A 
ATOM     48  F   UNL A   1      42.204  29.343  28.435  1.00  0.00    -0.203 F 
ATOM     49  F   UNL A   1      38.972  24.950  28.261  1.00  0.00    -0.200 F 
ATOM     50  C   UNL A   1      40.616  26.311  27.252  1.00  0.00     0.200 A 
ATOM     51  F   UNL A   1      42.282  27.686  26.298  1.00  0.00    -0.200 F 
ATOM     52  F   UNL A   1      40.695  25.470  26.213  1.00  0.00    -0.200 F 
ENDBRANCH  28  42
BRANCH  29  53
ATOM     53  C   UNL A   1      40.059  34.378  37.263  1.00  0.00     0.064 A 
ATOM     54  C   UNL A   1      40.905  35.495  37.306  1.00  0.00     0.173 A 
ATOM     55  C   UNL A   1      39.182  34.187  38.341  1.00  0.00     0.173 A 
ATOM     56  F   UNL A   1      41.780  35.710  36.312  1.00  0.00    -0.203 F 
ATOM     57  C   UNL A   1      40.884  36.375  38.387  1.00  0.00     0.198 A 
ATOM     58  C   UNL A   1      39.141  35.082  39.408  1.00  0.00     0.198 A 
ATOM     59  F   UNL A   1      38.354  33.132  38.355  1.00  0.00    -0.203 F 
ATOM     60  F   UNL A   1      41.735  37.410  38.422  1.00  0.00    -0.200 F 
ATOM     61  C   UNL A   1      39.998  36.172  39.434  1.00  0.00     0.200 A 
ATOM     62  F   UNL A   1      38.276  34.887  40.412  1.00  0.00    -0.200 F 
ATOM     63  F   UNL A   1      39.976  37.021  40.471  1.00  0.00    -0.200 F 
ENDBRANCH  29  53
BRANCH  41  64
ATOM     64  C   UNL A   1      43.910  28.756  35.786  1.00  0.00     0.064 A 
ATOM     65  C   UNL A   1      45.250  29.137  35.620  1.00  0.00     0.173 A 
ATOM     66  C   UNL A   1      43.620  27.742  36.709  1.00  0.00     0.173 A 
ATOM     67  F   UNL A   1      45.574  30.094  34.738  1.00  0.00    -0.203 F 
ATOM     68  C   UNL A   1      46.262  28.507  36.336  1.00  0.00     0.198 A 
ATOM     69  C   UNL A   1      44.632  27.134  37.443  1.00  0.00     0.198 A 
ATOM     70  F   UNL A   1      42.351  27.351  36.907  1.00  0.00    -0.203 F 
ATOM     71  F   UNL A   1      47.540  28.855  36.133  1.00  0.00    -0.200 F 
ATOM     72  C   UNL A   1      45.952  27.512  37.252  1.00  0.00     0.200 A 
ATOM     73  F   UNL A   1      44.330  26.181  38.337  1.00  0.00    -0.200 F 
ATOM     74  F   UNL A   1      46.929  26.912  37.946  1.00  0.00    -0.200 F 
ENDBRANCH  41  64
ENDBRANCH  15  16
ENDBRANCH   8  10
ENDBRANCH   7   8
ENDBRANCH   6   7
ENDBRANCH   5   6
ENDBRANCH   4   5
ENDBRANCH   3   4
ENDBRANCH   2   3
ENDBRANCH   1   2
BRANCH   1  75
ATOM     75  C   UNL A   1      30.832  28.445  23.897  1.00  0.00     0.188 C 
BRANCH  75  76
ATOM     76  C   UNL A   1      29.916  27.406  23.211  1.00  0.00     0.188 C 
BRANCH  76  77
ATOM     77  O   UNL A   1      29.748  26.170  23.900  1.00  0.00    -0.376 OA
BRANCH  77  78
ATOM     78  C   UNL A   1      30.613  25.116  23.490  1.00  0.00     0.202 C 
BRANCH  78  79
ATOM     79  C   UNL A   1      31.522  24.632  24.623  1.00  0.00     0.261 C 
BRANCH  79  80
ATOM     80  O   UNL A   1      31.147  23.351  25.150  1.00  0.00    -0.459 OA
BRANCH  80  81
ATOM     81  C   UNL A   1      31.902  22.859  26.163  1.00  0.00     0.357 C 
ATOM     82  O   UNL A   1      31.738  23.041  27.355  1.00  0.00    -0.244 OA
BRANCH  81  83
ATOM     83  C   UNL A   1      32.894  21.949  25.539  1.00  0.00     0.154 A 
ATOM     84  C   UNL A   1      32.641  20.606  25.508  1.00  0.00     0.065 A 
ATOM     85  N   UNL A   1      34.066  22.508  25.176  1.00  0.00    -0.206 NA
ATOM     86  C   UNL A   1      33.668  19.828  25.030  1.00  0.00     0.077 A 
ATOM     87  C   UNL A   1      35.041  21.676  24.798  1.00  0.00     0.230 A 
ATOM     88  N   UNL A   1      34.867  20.348  24.673  1.00  0.00    -0.213 NA
BRANCH  86  89
ATOM     89  C   UNL A   1      33.479  18.380  24.869  1.00  0.00     0.000 A 
ATOM     90  C   UNL A   1      34.164  17.640  23.893  1.00  0.00     0.010 A 
ATOM     91  C   UNL A   1      32.632  17.683  25.754  1.00  0.00     0.010 A 
ATOM     92  C   UNL A   1      34.028  16.247  23.828  1.00  0.00     0.001 A 
ATOM     93  C   UNL A   1      32.494  16.298  25.686  1.00  0.00     0.001 A 
ATOM     94  C   UNL A   1      33.198  15.578  24.726  1.00  0.00     0.000 A 
ENDBRANCH  86  89
BRANCH  87  95
ATOM     95  N   UNL A   1      36.291  22.174  24.452  1.00  0.00    -0.300 N 
ATOM     96  H   UNL A   1      36.338  22.760  23.664  1.00  0.00     0.172 HD
BRANCH  95  97
ATOM     97  C   UNL A   1      37.445  21.924  25.102  1.00  0.00     0.190 A 
ATOM     98  N   UNL A   1      38.120  20.795  25.075  1.00  0.00    -0.220 NA
ATOM     99  S   UNL A   1      38.199  23.182  26.012  1.00  0.00    -0.097 S 
ATOM    100  C   UNL A   1      39.261  20.884  25.856  1.00  0.00     0.084 A 
ATOM    101  C   UNL A   1      39.441  22.102  26.508  1.00  0.00     0.056 A 
ATOM    102  C   UNL A   1      40.221  19.867  26.048  1.00  0.00     0.030 A 
ATOM    103  C   UNL A   1      40.510  22.318  27.397  1.00  0.00     0.021 A 
ATOM    104  C   UNL A   1      41.297  20.073  26.918  1.00  0.00     0.002 A 
ATOM    105  C   UNL A   1      41.428  21.280  27.596  1.00  0.00     0.002 A 
ENDBRANCH  95  97
ENDBRANCH  87  95
ENDBRANCH  81  83
ENDBRANCH  80  81
ENDBRANCH  79  80
ENDBRANCH  78  79
ENDBRANCH  77  78
ENDBRANCH  76  77
ENDBRANCH  75  76
ENDBRANCH   1  75
TORSDOF 23
ENDMDL
MODEL 2
REMARK VINA RESULT:     -11.0      1.626      7.059
REMARK SMILES O=C(OCCOCCOCCOCCOC(=O)c1cc(-c2ccccc2)nc(Nc2nc3ccccc3s2)n1)c1ccc(-c2c3nc(c(-c4c(F)c(F)c(F)c(F)c4F)c4ccc([nH]4)c(-c4c(F)c(F)c(F)c(F)c4F)c4nc(c(-c5c(F)c(F)c(F)c(F)c5F)c5ccc2[nH]5)C=C4)C=C3)cc1
REMARK SMILES IDX 9 1 8 2 7 3 6 4 5 5 4 6 3 7 2 8 1 9 40 10 41 11 102 12 42 13
REMARK SMILES IDX 101 14 43 15 44 16 45 17 95 18 46 19 100 20 94 21 96 22
REMARK SMILES IDX 47 23 99 24 93 25 92 26 48 28 80 29 60 30 79 31 61 32 64 33
REMARK SMILES IDX 78 34 97 35 62 36 63 37 77 39 98 40 65 41 49 42 50 43 58 44
REMARK SMILES IDX 51 45 52 46 56 47 59 48 53 49 54 50 57 51 55 52 81 53 82 54
REMARK SMILES IDX 90 55 83 56 84 57 88 58 91 59 85 60 86 61 89 62 87 63 66 64
REMARK SMILES IDX 67 65 75 66 68 67 69 68 73 69 76 70 70 71 71 72 74 73 72 74
REMARK SMILES IDX 10 75 11 76 12 77 13 78 14 79 15 80 16 81 17 82 18 83 19 84
REMARK SMILES IDX 39 85 20 86 28 87 27 88 21 89 22 90 26 91 23 92 25 93 24 94
REMARK SMILES IDX 29 95 30 97 31 98 38 99 32 100 37 101 33 102 36 103 34 104
REMARK SMILES IDX 35 105
REMARK H PARENT 96 27 64 38 29 96
REMARK Flexibility Score: inf
ROOT
ATOM      1  O   UNL A   1      30.704  28.715  23.215  1.00  0.00    -0.377 OA
ENDROOT
BRANCH   1   2
ATOM      2  C   UNL A   1      31.037  29.471  24.360  1.00  0.00     0.188 C 
BRANCH   2   3
ATOM      3  C   UNL A   1      31.604  28.702  25.550  1.00  0.00     0.188 C 
BRANCH   3   4
ATOM      4  O   UNL A   1      31.740  29.483  26.736  1.00  0.00    -0.376 OA
BRANCH   4   5
ATOM      5  C   UNL A   1      31.411  30.863  26.585  1.00  0.00     0.202 C 
BRANCH   5   6
ATOM      6  C   UNL A   1      32.673  31.728  26.563  1.00  0.00     0.261 C 
BRANCH   6   7
ATOM      7  O   UNL A   1      32.704  32.682  27.642  1.00  0.00    -0.460 OA
BRANCH   7   8
ATOM      8  C   UNL A   1      33.802  33.344  28.080  1.00  0.00     0.338 C 
ATOM      9  O   UNL A   1      33.713  34.532  28.386  1.00  0.00    -0.246 OA
BRANCH   8  10
ATOM     10  C   UNL A   1      35.060  32.614  28.424  1.00  0.00     0.060 A 
ATOM     11  C   UNL A   1      35.193  31.228  28.542  1.00  0.00     0.016 A 
ATOM     12  C   UNL A   1      36.207  33.408  28.596  1.00  0.00     0.016 A 
ATOM     13  C   UNL A   1      36.394  30.649  28.939  1.00  0.00     0.010 A 
ATOM     14  C   UNL A   1      37.425  32.836  28.971  1.00  0.00     0.010 A 
ATOM     15  C   UNL A   1      37.500  31.457  29.200  1.00  0.00    -0.014 A 
BRANCH  15  16
ATOM     16  C   UNL A   1      38.645  30.875  29.927  1.00  0.00     0.031 A 
ATOM     17  C   UNL A   1      38.756  31.165  31.395  1.00  0.00     0.074 A 
ATOM     18  C   UNL A   1      39.492  30.032  29.314  1.00  0.00     0.049 A 
ATOM     19  N   UNL A   1      39.675  30.807  32.250  1.00  0.00    -0.248 NA
ATOM     20  C   UNL A   1      37.669  31.969  31.983  1.00  0.00     0.031 C 
ATOM     21  C   UNL A   1      39.397  29.608  27.918  1.00  0.00     0.029 A 
ATOM     22  N   UNL A   1      40.586  29.364  29.797  1.00  0.00    -0.354 N 
ATOM     23  C   UNL A   1      39.296  31.366  33.464  1.00  0.00     0.074 A 
ATOM     24  C   UNL A   1      38.065  32.091  33.238  1.00  0.00     0.031 C 
ATOM     25  C   UNL A   1      40.386  28.735  27.660  1.00  0.00     0.029 A 
ATOM     26  C   UNL A   1      41.207  28.580  28.858  1.00  0.00     0.049 A 
ATOM     27  H   UNL A   1      40.897  29.441  30.728  1.00  0.00     0.167 HD
ATOM     28  C   UNL A   1      39.926  31.286  34.657  1.00  0.00     0.037 A 
ATOM     29  C   UNL A   1      42.326  27.838  28.965  1.00  0.00     0.037 A 
ATOM     30  C   UNL A   1      41.145  30.555  34.860  1.00  0.00     0.049 A 
ATOM     31  C   UNL A   1      43.044  27.814  30.290  1.00  0.00     0.074 A 
ATOM     32  C   UNL A   1      41.909  30.438  36.004  1.00  0.00     0.029 A 
ATOM     33  N   UNL A   1      41.777  29.807  33.873  1.00  0.00    -0.354 N 
ATOM     34  N   UNL A   1      42.712  28.387  31.423  1.00  0.00    -0.248 NA
ATOM     35  C   UNL A   1      44.295  27.048  30.350  1.00  0.00     0.031 C 
ATOM     36  C   UNL A   1      43.025  29.648  35.701  1.00  0.00     0.029 A 
ATOM     37  C   UNL A   1      42.929  29.233  34.381  1.00  0.00     0.049 A 
ATOM     38  H   UNL A   1      41.453  29.702  32.950  1.00  0.00     0.167 HD
ATOM     39  C   UNL A   1      43.695  28.031  32.336  1.00  0.00     0.074 A 
ATOM     40  C   UNL A   1      44.630  27.181  31.626  1.00  0.00     0.031 C 
ATOM     41  C   UNL A   1      43.821  28.375  33.642  1.00  0.00     0.037 A 
BRANCH  28  42
ATOM     42  C   UNL A   1      39.333  32.066  35.793  1.00  0.00     0.064 A 
ATOM     43  C   UNL A   1      39.696  33.397  36.052  1.00  0.00     0.173 A 
ATOM     44  C   UNL A   1      38.424  31.453  36.667  1.00  0.00     0.173 A 
ATOM     45  F   UNL A   1      40.586  34.020  35.264  1.00  0.00    -0.203 F 
ATOM     46  C   UNL A   1      39.200  34.071  37.165  1.00  0.00     0.198 A 
ATOM     47  C   UNL A   1      37.908  32.138  37.764  1.00  0.00     0.198 A 
ATOM     48  F   UNL A   1      38.049  30.181  36.469  1.00  0.00    -0.203 F 
ATOM     49  F   UNL A   1      39.612  35.318  37.432  1.00  0.00    -0.200 F 
ATOM     50  C   UNL A   1      38.305  33.442  38.019  1.00  0.00     0.200 A 
ATOM     51  F   UNL A   1      37.041  31.529  38.586  1.00  0.00    -0.200 F 
ATOM     52  F   UNL A   1      37.838  34.087  39.096  1.00  0.00    -0.200 F 
ENDBRANCH  28  42
BRANCH  29  53
ATOM     53  C   UNL A   1      42.834  27.074  27.795  1.00  0.00     0.064 A 
ATOM     54  C   UNL A   1      43.759  27.641  26.907  1.00  0.00     0.173 A 
ATOM     55  C   UNL A   1      42.404  25.765  27.535  1.00  0.00     0.173 A 
ATOM     56  F   UNL A   1      44.183  28.899  27.096  1.00  0.00    -0.203 F 
ATOM     57  C   UNL A   1      44.222  26.934  25.799  1.00  0.00     0.198 A 
ATOM     58  C   UNL A   1      42.889  25.047  26.443  1.00  0.00     0.198 A 
ATOM     59  F   UNL A   1      41.516  25.175  28.349  1.00  0.00    -0.203 F 
ATOM     60  F   UNL A   1      45.072  27.516  24.942  1.00  0.00    -0.200 F 
ATOM     61  C   UNL A   1      43.792  25.635  25.571  1.00  0.00     0.200 A 
ATOM     62  F   UNL A   1      42.478  23.789  26.234  1.00  0.00    -0.200 F 
ATOM     63  F   UNL A   1      44.241  24.954  24.508  1.00  0.00    -0.200 F 
ENDBRANCH  29  53
BRANCH  41  64
ATOM     64  C   UNL A   1      44.980  27.790  34.391  1.00  0.00     0.064 A 
ATOM     65  C   UNL A   1      46.209  28.457  34.483  1.00  0.00     0.173 A 
ATOM     66  C   UNL A   1      44.838  26.567  35.063  1.00  0.00     0.173 A 
ATOM     67  F   UNL A   1      46.393  29.623  33.845  1.00  0.00    -0.203 F 
ATOM     68  C   UNL A   1      47.265  27.907  35.203  1.00  0.00     0.198 A 
ATOM     69  C   UNL A   1      45.887  26.034  35.804  1.00  0.00     0.198 A 
ATOM     70  F   UNL A   1      43.677  25.897  35.011  1.00  0.00    -0.203 F 
ATOM     71  F   UNL A   1      48.446  28.539  35.244  1.00  0.00    -0.200 F 
ATOM     72  C   UNL A   1      47.101  26.701  35.868  1.00  0.00     0.200 A 
ATOM     73  F   UNL A   1      45.723  24.875  36.457  1.00  0.00    -0.200 F 
ATOM     74  F   UNL A   1      48.118  26.177  36.567  1.00  0.00    -0.200 F 
ENDBRANCH  41  64
ENDBRANCH  15  16
ENDBRANCH   8  10
ENDBRANCH   7   8
ENDBRANCH   6   7
ENDBRANCH   5   6
ENDBRANCH   4   5
ENDBRANCH   3   4
ENDBRANCH   2   3
ENDBRANCH   1   2
BRANCH   1  75
ATOM     75  C   UNL A   1      29.520  27.922  23.232  1.00  0.00     0.188 C 
BRANCH  75  76
ATOM     76  C   UNL A   1      29.506  26.433  23.651  1.00  0.00     0.188 C 
BRANCH  76  77
ATOM     77  O   UNL A   1      30.440  25.589  22.986  1.00  0.00    -0.376 OA
BRANCH  77  78
ATOM     78  C   UNL A   1      31.291  24.826  23.835  1.00  0.00     0.202 C 
BRANCH  78  79
ATOM     79  C   UNL A   1      30.849  23.364  23.945  1.00  0.00     0.261 C 
BRANCH  79  80
ATOM     80  O   UNL A   1      30.863  22.861  25.289  1.00  0.00    -0.459 OA
BRANCH  80  81
ATOM     81  C   UNL A   1      31.998  23.051  26.004  1.00  0.00     0.357 C 
ATOM     82  O   UNL A   1      32.140  23.768  26.978  1.00  0.00    -0.244 OA
BRANCH  81  83
ATOM     83  C   UNL A   1      33.004  22.115  25.446  1.00  0.00     0.154 A 
ATOM     84  C   UNL A   1      32.733  20.775  25.428  1.00  0.00     0.065 A 
ATOM     85  N   UNL A   1      34.201  22.650  25.130  1.00  0.00    -0.206 NA
ATOM     86  C   UNL A   1      33.769  19.973  25.014  1.00  0.00     0.077 A 
ATOM     87  C   UNL A   1      35.180  21.796  24.815  1.00  0.00     0.230 A 
ATOM     88  N   UNL A   1      34.991  20.469  24.706  1.00  0.00    -0.213 NA
BRANCH  86  89
ATOM     89  C   UNL A   1      33.566  18.525  24.871  1.00  0.00     0.000 A 
ATOM     90  C   UNL A   1      34.244  17.766  23.905  1.00  0.00     0.010 A 
ATOM     91  C   UNL A   1      32.712  17.848  25.764  1.00  0.00     0.010 A 
ATOM     92  C   UNL A   1      34.094  16.375  23.857  1.00  0.00     0.001 A 
ATOM     93  C   UNL A   1      32.560  16.463  25.713  1.00  0.00     0.001 A 
ATOM     94  C   UNL A   1      33.257  15.725  24.763  1.00  0.00     0.000 A 
ENDBRANCH  86  89
BRANCH  87  95
ATOM     95  N   UNL A   1      36.452  22.269  24.520  1.00  0.00    -0.300 N 
ATOM     96  H   UNL A   1      36.536  22.894  23.765  1.00  0.00     0.172 HD
BRANCH  95  97
ATOM     97  C   UNL A   1      37.583  21.948  25.179  1.00  0.00     0.190 A 
ATOM     98  N   UNL A   1      38.243  20.815  25.078  1.00  0.00    -0.220 NA
ATOM     99  S   UNL A   1      38.328  23.114  26.212  1.00  0.00    -0.097 S 
ATOM    100  C   UNL A   1      39.362  20.820  25.896  1.00  0.00     0.084 A 
ATOM    101  C   UNL A   1      39.540  21.977  26.651  1.00  0.00     0.056 A 
ATOM    102  C   UNL A   1      40.302  19.776  26.029  1.00  0.00     0.030 A 
ATOM    103  C   UNL A   1      40.585  22.102  27.585  1.00  0.00     0.021 A 
ATOM    104  C   UNL A   1      41.355  19.892  26.944  1.00  0.00     0.002 A 
ATOM    105  C   UNL A   1      41.482  21.036  27.723  1.00  0.00     0.002 A 
ENDBRANCH  95  97
ENDBRANCH  87  95
ENDBRANCH  81  83
ENDBRANCH  80  81
ENDBRANCH  79  80
ENDBRANCH  78  79
ENDBRANCH  77  78
ENDBRANCH  76  77
ENDBRANCH  75  76
ENDBRANCH   1  75
TORSDOF 23
ENDMDL
MODEL 3
REMARK VINA RESULT:     -10.2      1.980      7.215
REMARK SMILES O=C(OCCOCCOCCOCCOC(=O)c1cc(-c2ccccc2)nc(Nc2nc3ccccc3s2)n1)c1ccc(-c2c3nc(c(-c4c(F)c(F)c(F)c(F)c4F)c4ccc([nH]4)c(-c4c(F)c(F)c(F)c(F)c4F)c4nc(c(-c5c(F)c(F)c(F)c(F)c5F)c5ccc2[nH]5)C=C4)C=C3)cc1
REMARK SMILES IDX 9 1 8 2 7 3 6 4 5 5 4 6 3 7 2 8 1 9 40 10 41 11 102 12 42 13
REMARK SMILES IDX 101 14 43 15 44 16 45 17 95 18 46 19 100 20 94 21 96 22
REMARK SMILES IDX 47 23 99 24 93 25 92 26 48 28 80 29 60 30 79 31 61 32 64 33
REMARK SMILES IDX 78 34 97 35 62 36 63 37 77 39 98 40 65 41 49 42 50 43 58 44
REMARK SMILES IDX 51 45 52 46 56 47 59 48 53 49 54 50 57 51 55 52 81 53 82 54
REMARK SMILES IDX 90 55 83 56 84 57 88 58 91 59 85 60 86 61 89 62 87 63 66 64
REMARK SMILES IDX 67 65 75 66 68 67 69 68 73 69 76 70 70 71 71 72 74 73 72 74
REMARK SMILES IDX 10 75 11 76 12 77 13 78 14 79 15 80 16 81 17 82 18 83 19 84
REMARK SMILES IDX 39 85 20 86 28 87 27 88 21 89 22 90 26 91 23 92 25 93 24 94
REMARK SMILES IDX 29 95 30 97 31 98 38 99 32 100 37 101 33 102 36 103 34 104
REMARK SMILES IDX 35 105
REMARK H PARENT 96 27 64 38 29 96
REMARK Flexibility Score: inf
ROOT
ATOM      1  O   UNL A   1      30.887  28.307  23.214  1.00  0.00    -0.377 OA
ENDROOT
BRANCH   1   2
ATOM      2  C   UNL A   1      31.203  29.009  24.397  1.00  0.00     0.188 C 
BRANCH   2   3
ATOM      3  C   UNL A   1      31.558  28.169  25.621  1.00  0.00     0.188 C 
BRANCH   3   4
ATOM      4  O   UNL A   1      31.826  28.935  26.795  1.00  0.00    -0.376 OA
BRANCH   4   5
ATOM      5  C   UNL A   1      31.862  30.347  26.593  1.00  0.00     0.202 C 
BRANCH   5   6
ATOM      6  C   UNL A   1      33.280  30.892  26.778  1.00  0.00     0.261 C 
BRANCH   6   7
ATOM      7  O   UNL A   1      33.364  31.850  27.849  1.00  0.00    -0.460 OA
BRANCH   7   8
ATOM      8  C   UNL A   1      34.440  32.625  28.134  1.00  0.00     0.338 C 
ATOM      9  O   UNL A   1      34.295  33.838  28.271  1.00  0.00    -0.246 OA
BRANCH   8  10
ATOM     10  C   UNL A   1      35.752  32.018  28.515  1.00  0.00     0.060 A 
ATOM     11  C   UNL A   1      35.963  30.678  28.853  1.00  0.00     0.016 A 
ATOM     12  C   UNL A   1      36.863  32.877  28.481  1.00  0.00     0.016 A 
ATOM     13  C   UNL A   1      37.213  30.227  29.265  1.00  0.00     0.010 A 
ATOM     14  C   UNL A   1      38.127  32.430  28.869  1.00  0.00     0.010 A 
ATOM     15  C   UNL A   1      38.288  31.114  29.319  1.00  0.00    -0.014 A 
BRANCH  15  16
ATOM     16  C   UNL A   1      39.500  30.712  30.059  1.00  0.00     0.031 A 
ATOM     17  C   UNL A   1      39.594  31.109  31.503  1.00  0.00     0.074 A 
ATOM     18  C   UNL A   1      40.429  29.931  29.485  1.00  0.00     0.049 A 
ATOM     19  N   UNL A   1      40.557  30.912  32.362  1.00  0.00    -0.248 NA
ATOM     20  C   UNL A   1      38.430  31.822  32.059  1.00  0.00     0.031 C 
ATOM     21  C   UNL A   1      40.366  29.409  28.121  1.00  0.00     0.029 A 
ATOM     22  N   UNL A   1      41.597  29.423  29.989  1.00  0.00    -0.354 N 
ATOM     23  C   UNL A   1      40.131  31.504  33.545  1.00  0.00     0.074 A 
ATOM     24  C   UNL A   1      38.825  32.070  33.296  1.00  0.00     0.031 C 
ATOM     25  C   UNL A   1      41.445  28.638  27.900  1.00  0.00     0.029 A 
ATOM     26  C   UNL A   1      42.292  28.654  29.090  1.00  0.00     0.049 A 
ATOM     27  H   UNL A   1      41.908  29.595  30.907  1.00  0.00     0.167 HD
ATOM     28  C   UNL A   1      40.781  31.573  34.729  1.00  0.00     0.037 A 
ATOM     29  C   UNL A   1      43.488  28.051  29.223  1.00  0.00     0.037 A 
ATOM     30  C   UNL A   1      42.077  30.998  34.954  1.00  0.00     0.049 A 
ATOM     31  C   UNL A   1      44.220  28.193  30.533  1.00  0.00     0.074 A 
ATOM     32  C   UNL A   1      42.863  31.042  36.089  1.00  0.00     0.029 A 
ATOM     33  N   UNL A   1      42.777  30.262  34.005  1.00  0.00    -0.354 N 
ATOM     34  N   UNL A   1      43.839  28.799  31.633  1.00  0.00    -0.248 NA
ATOM     35  C   UNL A   1      45.550  27.578  30.618  1.00  0.00     0.031 C 
ATOM     36  C   UNL A   1      44.056  30.364  35.815  1.00  0.00     0.029 A 
ATOM     37  C   UNL A   1      43.993  29.855  34.527  1.00  0.00     0.049 A 
ATOM     38  H   UNL A   1      42.457  30.061  33.097  1.00  0.00     0.167 HD
ATOM     39  C   UNL A   1      44.866  28.616  32.548  1.00  0.00     0.074 A 
ATOM     40  C   UNL A   1      45.883  27.831  31.876  1.00  0.00     0.031 C 
ATOM     41  C   UNL A   1      44.967  29.056  33.827  1.00  0.00     0.037 A 
BRANCH  28  42
ATOM     42  C   UNL A   1      40.116  32.354  35.823  1.00  0.00     0.064 A 
ATOM     43  C   UNL A   1      39.076  31.816  36.596  1.00  0.00     0.173 A 
ATOM     44  C   UNL A   1      40.495  33.682  36.067  1.00  0.00     0.173 A 
ATOM     45  F   UNL A   1      38.655  30.560  36.382  1.00  0.00    -0.203 F 
ATOM     46  C   UNL A   1      38.414  32.592  37.545  1.00  0.00     0.198 A 
ATOM     47  C   UNL A   1      39.850  34.447  37.036  1.00  0.00     0.198 A 
ATOM     48  F   UNL A   1      41.479  34.247  35.352  1.00  0.00    -0.203 F 
ATOM     49  F   UNL A   1      37.378  32.080  38.225  1.00  0.00    -0.200 F 
ATOM     50  C   UNL A   1      38.802  33.906  37.766  1.00  0.00     0.200 A 
ATOM     51  F   UNL A   1      40.229  35.715  37.249  1.00  0.00    -0.200 F 
ATOM     52  F   UNL A   1      38.157  34.654  38.670  1.00  0.00    -0.200 F 
ENDBRANCH  28  42
BRANCH  29  53
ATOM     53  C   UNL A   1      44.066  27.273  28.095  1.00  0.00     0.064 A 
ATOM     54  C   UNL A   1      44.583  27.918  26.962  1.00  0.00     0.173 A 
ATOM     55  C   UNL A   1      44.109  25.872  28.120  1.00  0.00     0.173 A 
ATOM     56  F   UNL A   1      44.543  29.256  26.877  1.00  0.00    -0.203 F 
ATOM     57  C   UNL A   1      45.108  27.190  25.895  1.00  0.00     0.198 A 
ATOM     58  C   UNL A   1      44.659  25.146  27.065  1.00  0.00     0.198 A 
ATOM     59  F   UNL A   1      43.623  25.203  29.176  1.00  0.00    -0.203 F 
ATOM     60  F   UNL A   1      45.555  27.831  24.806  1.00  0.00    -0.200 F 
ATOM     61  C   UNL A   1      45.151  25.806  25.950  1.00  0.00     0.200 A 
ATOM     62  F   UNL A   1      44.709  23.808  27.128  1.00  0.00    -0.200 F 
ATOM     63  F   UNL A   1      45.660  25.107  24.925  1.00  0.00    -0.200 F 
ENDBRANCH  29  53
BRANCH  41  64
ATOM     64  C   UNL A   1      46.194  28.655  34.590  1.00  0.00     0.064 A 
ATOM     65  C   UNL A   1      46.229  27.485  35.363  1.00  0.00     0.173 A 
ATOM     66  C   UNL A   1      47.360  29.428  34.505  1.00  0.00     0.173 A 
ATOM     67  F   UNL A   1      45.133  26.723  35.484  1.00  0.00    -0.203 F 
ATOM     68  C   UNL A   1      47.386  27.118  36.045  1.00  0.00     0.198 A 
ATOM     69  C   UNL A   1      48.522  29.043  35.165  1.00  0.00     0.198 A 
ATOM     70  F   UNL A   1      47.375  30.550  33.769  1.00  0.00    -0.203 F 
ATOM     71  F   UNL A   1      47.387  26.021  36.813  1.00  0.00    -0.200 F 
ATOM     72  C   UNL A   1      48.531  27.893  35.940  1.00  0.00     0.200 A 
ATOM     73  F   UNL A   1      49.632  29.785  35.052  1.00  0.00    -0.200 F 
ATOM     74  F   UNL A   1      49.646  27.533  36.591  1.00  0.00    -0.200 F 
ENDBRANCH  41  64
ENDBRANCH  15  16
ENDBRANCH   8  10
ENDBRANCH   7   8
ENDBRANCH   6   7
ENDBRANCH   5   6
ENDBRANCH   4   5
ENDBRANCH   3   4
ENDBRANCH   2   3
ENDBRANCH   1   2
BRANCH   1  75
ATOM     75  C   UNL A   1      29.694  27.530  23.171  1.00  0.00     0.188 C 
BRANCH  75  76
ATOM     76  C   UNL A   1      29.590  26.107  23.769  1.00  0.00     0.188 C 
BRANCH  76  77
ATOM     77  O   UNL A   1      30.350  25.097  23.112  1.00  0.00    -0.376 OA
BRANCH  77  78
ATOM     78  C   UNL A   1      31.234  24.354  23.945  1.00  0.00     0.202 C 
BRANCH  78  79
ATOM     79  C   UNL A   1      30.621  23.034  24.417  1.00  0.00     0.261 C 
BRANCH  79  80
ATOM     80  O   UNL A   1      31.057  22.634  25.724  1.00  0.00    -0.459 OA
BRANCH  80  81
ATOM     81  C   UNL A   1      32.291  23.043  26.111  1.00  0.00     0.357 C 
ATOM     82  O   UNL A   1      32.555  23.951  26.878  1.00  0.00    -0.244 OA
BRANCH  81  83
ATOM     83  C   UNL A   1      33.253  22.084  25.517  1.00  0.00     0.154 A 
ATOM     84  C   UNL A   1      32.959  20.748  25.529  1.00  0.00     0.065 A 
ATOM     85  N   UNL A   1      34.442  22.594  25.137  1.00  0.00    -0.206 NA
ATOM     86  C   UNL A   1      33.962  19.924  25.075  1.00  0.00     0.077 A 
ATOM     87  C   UNL A   1      35.391  21.721  24.785  1.00  0.00     0.230 A 
ATOM     88  N   UNL A   1      35.175  20.396  24.703  1.00  0.00    -0.213 NA
BRANCH  86  89
ATOM     89  C   UNL A   1      33.728  18.478  24.960  1.00  0.00     0.000 A 
ATOM     90  C   UNL A   1      32.820  17.798  25.786  1.00  0.00     0.010 A 
ATOM     91  C   UNL A   1      34.383  17.744  23.952  1.00  0.00     0.010 A 
ATOM     92  C   UNL A   1      32.556  16.438  25.588  1.00  0.00     0.001 A 
ATOM     93  C   UNL A   1      34.123  16.388  23.757  1.00  0.00     0.001 A 
ATOM     94  C   UNL A   1      33.203  15.736  24.571  1.00  0.00     0.000 A 
ENDBRANCH  86  89
BRANCH  87  95
ATOM     95  N   UNL A   1      36.655  22.169  24.424  1.00  0.00    -0.300 N 
ATOM     96  H   UNL A   1      36.875  22.167  23.465  1.00  0.00     0.172 HD
BRANCH  95  97
ATOM     97  C   UNL A   1      37.607  22.607  25.272  1.00  0.00     0.190 A 
ATOM     98  N   UNL A   1      37.684  23.811  25.795  1.00  0.00    -0.220 NA
ATOM     99  S   UNL A   1      38.825  21.514  25.821  1.00  0.00    -0.097 S 
ATOM    100  C   UNL A   1      38.789  23.919  26.624  1.00  0.00     0.084 A 
ATOM    101  C   UNL A   1      39.579  22.775  26.713  1.00  0.00     0.056 A 
ATOM    102  C   UNL A   1      39.173  25.063  27.356  1.00  0.00     0.030 A 
ATOM    103  C   UNL A   1      40.775  22.754  27.452  1.00  0.00     0.021 A 
ATOM    104  C   UNL A   1      40.353  25.051  28.109  1.00  0.00     0.002 A 
ATOM    105  C   UNL A   1      41.151  23.913  28.140  1.00  0.00     0.002 A 
ENDBRANCH  95  97
ENDBRANCH  87  95
ENDBRANCH  81  83
ENDBRANCH  80  81
ENDBRANCH  79  80
ENDBRANCH  78  79
ENDBRANCH  77  78
ENDBRANCH  76  77
ENDBRANCH  75  76
ENDBRANCH   1  75
TORSDOF 23
ENDMDL
