MODEL 1
REMARK VINA RESULT:     -11.3      0.000      0.000
REMARK SMILES Cc1ccc(N2CCC[C@@H](Cn3cc(C(=O)OCCOCCOCCOCCOC(=O)c4ccc(-c5c6nc(c(-c7c(F)c(F)c(F)c(F)c7F)c7ccc([nH]7)c(-c7c(F)c(F)c(F)c(F)c7F)c7nc(c(-c8c(F)c(F)c(F)c(F)c8F)c8ccc5[nH]8)C=C7)C=C6)cc4)nn3)C2)nn1
REMARK SMILES IDX 22 1 21 2 20 3 19 4 18 5 17 6 15 7 16 8 14 9 12 10 13 11
REMARK SMILES IDX 96 12 95 13 11 14 10 15 6 16 7 17 97 18 8 19 9 20 5 21 1 22
REMARK SMILES IDX 2 23 3 24 99 25 4 26 98 27 23 28 24 29 25 30 26 31 27 32
REMARK SMILES IDX 28 33 29 34 30 35 31 36 32 37 33 38 94 39 34 40 93 41 35 42
REMARK SMILES IDX 36 43 37 44 87 45 38 46 92 47 86 48 88 49 39 50 91 51 85 52
REMARK SMILES IDX 84 53 40 55 72 56 52 57 71 58 53 59 56 60 70 61 89 62 54 63
REMARK SMILES IDX 55 64 69 66 90 67 57 68 41 69 42 70 50 71 43 72 44 73 48 74
REMARK SMILES IDX 51 75 45 76 46 77 49 78 47 79 73 80 74 81 82 82 75 83 76 84
REMARK SMILES IDX 80 85 83 86 77 87 78 88 81 89 79 90 58 91 59 92 67 93 60 94
REMARK SMILES IDX 61 95 65 96 68 97 62 98 63 99 66 100 64 101
REMARK H PARENT 88 54 56 65
REMARK Flexibility Score: inf
ROOT
ATOM      1  C   UNL A   1      34.634  30.868  27.789  1.00  0.00     0.188 C 
ENDROOT
BRANCH   1   2
ATOM      2  C   UNL A   1      33.373  30.587  26.949  1.00  0.00     0.188 C 
BRANCH   2   3
ATOM      3  O   UNL A   1      32.567  29.466  27.259  1.00  0.00    -0.376 OA
BRANCH   3   4
ATOM      4  C   UNL A   1      31.668  28.833  26.366  1.00  0.00     0.202 C 
BRANCH   4   5
ATOM      5  C   UNL A   1      31.406  29.207  24.898  1.00  0.00     0.261 C 
BRANCH   5   6
ATOM      6  O   UNL A   1      32.083  28.451  23.909  1.00  0.00    -0.458 OA
BRANCH   6   7
ATOM      7  C   UNL A   1      31.332  27.517  23.260  1.00  0.00     0.360 C 
ATOM      8  O   UNL A   1      30.809  27.679  22.172  1.00  0.00    -0.244 OA
BRANCH   7   9
ATOM      9  C   UNL A   1      31.338  26.262  23.995  1.00  0.00     0.190 A 
ATOM     10  N   UNL A   1      31.862  24.596  25.254  1.00  0.00    -0.251 N 
ATOM     11  C   UNL A   1      32.424  25.616  24.553  1.00  0.00     0.146 A 
ATOM     12  N   UNL A   1      30.575  24.427  24.908  1.00  0.00    -0.067 NA
ATOM     13  N   UNL A   1      30.226  25.480  24.179  1.00  0.00    -0.123 NA
BRANCH  10  14
ATOM     14  C   UNL A   1      32.343  24.060  26.509  1.00  0.00     0.151 C 
BRANCH  14  15
ATOM     15  C   UNL A   1      33.422  22.975  26.311  1.00  0.00     0.030 C 
ATOM     16  N   UNL A   1      34.048  20.959  25.153  1.00  0.00    -0.355 N 
ATOM     17  C   UNL A   1      35.307  21.452  24.621  1.00  0.00     0.118 C 
ATOM     18  C   UNL A   1      32.980  21.928  25.274  1.00  0.00     0.123 C 
ATOM     19  C   UNL A   1      35.853  22.473  25.619  1.00  0.00     0.022 C 
ATOM     20  C   UNL A   1      34.817  23.551  25.958  1.00  0.00     0.009 C 
BRANCH  16  21
ATOM     21  C   UNL A   1      33.668  19.646  24.968  1.00  0.00     0.151 A 
ATOM     22  C   UNL A   1      32.759  15.529  25.197  1.00  0.00     0.069 C 
ATOM     23  C   UNL A   1      33.100  16.977  25.061  1.00  0.00     0.060 A 
ATOM     24  C   UNL A   1      34.346  17.376  24.609  1.00  0.00     0.029 A 
ATOM     25  N   UNL A   1      32.158  17.877  25.405  1.00  0.00    -0.154 NA
ATOM     26  C   UNL A   1      34.624  18.735  24.546  1.00  0.00     0.051 A 
ATOM     27  N   UNL A   1      32.455  19.214  25.375  1.00  0.00    -0.133 NA
ENDBRANCH  16  21
ENDBRANCH  14  15
ENDBRANCH  10  14
ENDBRANCH   7   9
ENDBRANCH   6   7
ENDBRANCH   5   6
ENDBRANCH   4   5
ENDBRANCH   3   4
ENDBRANCH   2   3
ENDBRANCH   1   2
BRANCH   1  28
ATOM     28  O   UNL A   1      35.367  32.008  27.396  1.00  0.00    -0.377 OA
BRANCH  28  29
ATOM     29  C   UNL A   1      35.015  33.252  27.997  1.00  0.00     0.188 C 
BRANCH  29  30
ATOM     30  C   UNL A   1      34.267  33.344  29.363  1.00  0.00     0.188 C 
BRANCH  30  31
ATOM     31  O   UNL A   1      33.099  34.148  29.389  1.00  0.00    -0.376 OA
BRANCH  31  32
ATOM     32  C   UNL A   1      33.060  35.498  29.817  1.00  0.00     0.202 C 
BRANCH  32  33
ATOM     33  C   UNL A   1      33.421  35.812  31.270  1.00  0.00     0.261 C 
BRANCH  33  34
ATOM     34  O   UNL A   1      34.349  34.894  31.808  1.00  0.00    -0.460 OA
BRANCH  34  35
ATOM     35  C   UNL A   1      34.712  35.199  33.068  1.00  0.00     0.338 C 
ATOM     36  O   UNL A   1      34.769  36.303  33.577  1.00  0.00    -0.246 OA
BRANCH  35  37
ATOM     37  C   UNL A   1      35.082  33.952  33.750  1.00  0.00     0.060 A 
ATOM     38  C   UNL A   1      36.187  34.092  34.588  1.00  0.00     0.016 A 
ATOM     39  C   UNL A   1      34.812  32.791  33.021  1.00  0.00     0.016 A 
ATOM     40  C   UNL A   1      37.254  33.287  34.308  1.00  0.00     0.010 A 
ATOM     41  C   UNL A   1      35.888  32.015  32.709  1.00  0.00     0.010 A 
ATOM     42  C   UNL A   1      37.114  32.367  33.264  1.00  0.00    -0.014 A 
BRANCH  42  43
ATOM     43  C   UNL A   1      38.306  31.743  32.764  1.00  0.00     0.031 A 
ATOM     44  C   UNL A   1      39.264  31.472  33.846  1.00  0.00     0.074 A 
ATOM     45  C   UNL A   1      38.448  31.425  31.466  1.00  0.00     0.049 A 
ATOM     46  N   UNL A   1      40.366  32.097  34.086  1.00  0.00    -0.248 NA
ATOM     47  C   UNL A   1      38.826  30.565  34.919  1.00  0.00     0.031 C 
ATOM     48  C   UNL A   1      37.458  31.432  30.386  1.00  0.00     0.029 A 
ATOM     49  N   UNL A   1      39.561  30.947  30.858  1.00  0.00    -0.354 N 
ATOM     50  C   UNL A   1      40.854  31.525  35.252  1.00  0.00     0.074 A 
ATOM     51  C   UNL A   1      39.773  30.775  35.830  1.00  0.00     0.031 C 
ATOM     52  C   UNL A   1      37.961  30.769  29.316  1.00  0.00     0.029 A 
ATOM     53  C   UNL A   1      39.344  30.421  29.589  1.00  0.00     0.049 A 
ATOM     54  H   UNL A   1      40.450  30.969  31.279  1.00  0.00     0.167 HD
ATOM     55  C   UNL A   1      42.186  31.487  35.507  1.00  0.00     0.037 A 
ATOM     56  C   UNL A   1      40.251  29.667  28.917  1.00  0.00     0.037 A 
ATOM     57  C   UNL A   1      42.899  32.447  34.705  1.00  0.00     0.049 A 
ATOM     58  C   UNL A   1      41.583  29.965  29.522  1.00  0.00     0.074 A 
ATOM     59  C   UNL A   1      42.908  33.826  34.636  1.00  0.00     0.029 A 
ATOM     60  N   UNL A   1      43.458  32.009  33.529  1.00  0.00    -0.354 N 
ATOM     61  N   UNL A   1      42.172  31.127  29.437  1.00  0.00    -0.248 NA
ATOM     62  C   UNL A   1      42.020  29.123  30.629  1.00  0.00     0.031 C 
ATOM     63  C   UNL A   1      43.042  34.131  33.250  1.00  0.00     0.029 A 
ATOM     64  C   UNL A   1      43.165  32.928  32.553  1.00  0.00     0.049 A 
ATOM     65  H   UNL A   1      43.977  31.181  33.407  1.00  0.00     0.167 HD
ATOM     66  C   UNL A   1      42.747  31.331  30.684  1.00  0.00     0.074 A 
ATOM     67  C   UNL A   1      42.664  30.038  31.359  1.00  0.00     0.031 C 
ATOM     68  C   UNL A   1      42.968  32.591  31.162  1.00  0.00     0.037 A 
BRANCH  55  69
ATOM     69  C   UNL A   1      42.850  30.340  36.216  1.00  0.00     0.064 A 
ATOM     70  C   UNL A   1      43.796  30.610  37.219  1.00  0.00     0.173 A 
ATOM     71  C   UNL A   1      42.790  28.995  35.781  1.00  0.00     0.173 A 
ATOM     72  F   UNL A   1      43.963  31.859  37.680  1.00  0.00    -0.203 F 
ATOM     73  C   UNL A   1      44.646  29.618  37.713  1.00  0.00     0.198 A 
ATOM     74  C   UNL A   1      43.593  27.997  36.322  1.00  0.00     0.198 A 
ATOM     75  F   UNL A   1      42.039  28.609  34.742  1.00  0.00    -0.203 F 
ATOM     76  F   UNL A   1      45.609  29.944  38.586  1.00  0.00    -0.200 F 
ATOM     77  C   UNL A   1      44.542  28.312  37.267  1.00  0.00     0.200 A 
ATOM     78  F   UNL A   1      43.487  26.744  35.855  1.00  0.00    -0.200 F 
ATOM     79  F   UNL A   1      45.385  27.371  37.706  1.00  0.00    -0.200 F 
ENDBRANCH  55  69
BRANCH  56  80
ATOM     80  C   UNL A   1      40.002  28.405  28.173  1.00  0.00     0.064 A 
ATOM     81  C   UNL A   1      40.647  28.169  26.945  1.00  0.00     0.173 A 
ATOM     82  C   UNL A   1      39.401  27.288  28.785  1.00  0.00     0.173 A 
ATOM     83  F   UNL A   1      41.276  29.171  26.312  1.00  0.00    -0.203 F 
ATOM     84  C   UNL A   1      40.733  26.886  26.394  1.00  0.00     0.198 A 
ATOM     85  C   UNL A   1      39.483  26.009  28.231  1.00  0.00     0.198 A 
ATOM     86  F   UNL A   1      38.811  27.390  29.983  1.00  0.00    -0.203 F 
ATOM     87  F   UNL A   1      41.426  26.689  25.263  1.00  0.00    -0.200 F 
ATOM     88  C   UNL A   1      40.165  25.805  27.046  1.00  0.00     0.200 A 
ATOM     89  F   UNL A   1      38.959  24.966  28.890  1.00  0.00    -0.200 F 
ATOM     90  F   UNL A   1      40.315  24.564  26.560  1.00  0.00    -0.200 F 
ENDBRANCH  56  80
BRANCH  68  91
ATOM     91  C   UNL A   1      42.770  33.740  30.208  1.00  0.00     0.064 A 
ATOM     92  C   UNL A   1      43.769  34.220  29.342  1.00  0.00     0.173 A 
ATOM     93  C   UNL A   1      41.481  34.263  30.054  1.00  0.00     0.173 A 
ATOM     94  F   UNL A   1      45.004  33.704  29.364  1.00  0.00    -0.203 F 
ATOM     95  C   UNL A   1      43.492  35.199  28.388  1.00  0.00     0.198 A 
ATOM     96  C   UNL A   1      41.198  35.214  29.077  1.00  0.00     0.198 A 
ATOM     97  F   UNL A   1      40.477  33.804  30.816  1.00  0.00    -0.203 F 
ATOM     98  F   UNL A   1      44.463  35.643  27.575  1.00  0.00    -0.200 F 
ATOM     99  C   UNL A   1      42.204  35.688  28.250  1.00  0.00     0.200 A 
ATOM    100  F   UNL A   1      39.940  35.645  28.914  1.00  0.00    -0.200 F 
ATOM    101  F   UNL A   1      41.923  36.591  27.300  1.00  0.00    -0.200 F 
ENDBRANCH  68  91
ENDBRANCH  42  43
ENDBRANCH  35  37
ENDBRANCH  34  35
ENDBRANCH  33  34
ENDBRANCH  32  33
ENDBRANCH  31  32
ENDBRANCH  30  31
ENDBRANCH  29  30
ENDBRANCH  28  29
ENDBRANCH   1  28
TORSDOF 23
ENDMDL
MODEL 2
REMARK VINA RESULT:     -11.2      3.866      8.956
REMARK SMILES Cc1ccc(N2CCC[C@@H](Cn3cc(C(=O)OCCOCCOCCOCCOC(=O)c4ccc(-c5c6nc(c(-c7c(F)c(F)c(F)c(F)c7F)c7ccc([nH]7)c(-c7c(F)c(F)c(F)c(F)c7F)c7nc(c(-c8c(F)c(F)c(F)c(F)c8F)c8ccc5[nH]8)C=C7)C=C6)cc4)nn3)C2)nn1
REMARK SMILES IDX 22 1 21 2 20 3 19 4 18 5 17 6 15 7 16 8 14 9 12 10 13 11
REMARK SMILES IDX 96 12 95 13 11 14 10 15 6 16 7 17 97 18 8 19 9 20 5 21 1 22
REMARK SMILES IDX 2 23 3 24 99 25 4 26 98 27 23 28 24 29 25 30 26 31 27 32
REMARK SMILES IDX 28 33 29 34 30 35 31 36 32 37 33 38 94 39 34 40 93 41 35 42
REMARK SMILES IDX 36 43 37 44 87 45 38 46 92 47 86 48 88 49 39 50 91 51 85 52
REMARK SMILES IDX 84 53 40 55 72 56 52 57 71 58 53 59 56 60 70 61 89 62 54 63
REMARK SMILES IDX 55 64 69 66 90 67 57 68 41 69 42 70 50 71 43 72 44 73 48 74
REMARK SMILES IDX 51 75 45 76 46 77 49 78 47 79 73 80 74 81 82 82 75 83 76 84
REMARK SMILES IDX 80 85 83 86 77 87 78 88 81 89 79 90 58 91 59 92 67 93 60 94
REMARK SMILES IDX 61 95 65 96 68 97 62 98 63 99 66 100 64 101
REMARK H PARENT 88 54 56 65
REMARK Flexibility Score: inf
ROOT
ATOM      1  C   UNL A   1      39.377  22.018  26.168  1.00  0.00     0.188 C 
ENDROOT
BRANCH   1   2
ATOM      2  C   UNL A   1      38.065  21.889  25.371  1.00  0.00     0.188 C 
BRANCH   2   3
ATOM      3  O   UNL A   1      37.300  23.048  25.100  1.00  0.00    -0.376 OA
BRANCH   3   4
ATOM      4  C   UNL A   1      36.341  23.617  25.974  1.00  0.00     0.202 C 
BRANCH   4   5
ATOM      5  C   UNL A   1      35.041  22.965  26.472  1.00  0.00     0.261 C 
BRANCH   5   6
ATOM      6  O   UNL A   1      33.905  23.066  25.631  1.00  0.00    -0.458 OA
BRANCH   6   7
ATOM      7  C   UNL A   1      33.997  22.423  24.432  1.00  0.00     0.360 C 
ATOM      8  O   UNL A   1      34.314  21.255  24.292  1.00  0.00    -0.244 OA
BRANCH   7   9
ATOM      9  C   UNL A   1      33.555  23.293  23.355  1.00  0.00     0.190 A 
ATOM     10  N   UNL A   1      32.758  24.926  22.198  1.00  0.00    -0.251 N 
ATOM     11  C   UNL A   1      32.703  24.377  23.442  1.00  0.00     0.146 A 
ATOM     12  N   UNL A   1      33.336  24.083  21.327  1.00  0.00    -0.067 NA
ATOM     13  N   UNL A   1      33.880  23.101  22.036  1.00  0.00    -0.123 NA
BRANCH  10  14
ATOM     14  C   UNL A   1      32.681  26.337  21.887  1.00  0.00     0.151 C 
BRANCH  14  15
ATOM     15  C   UNL A   1      31.771  27.107  22.867  1.00  0.00     0.030 C 
ATOM     16  N   UNL A   1      31.562  29.000  24.340  1.00  0.00    -0.355 N 
ATOM     17  C   UNL A   1      30.358  29.549  23.741  1.00  0.00     0.118 C 
ATOM     18  C   UNL A   1      32.485  28.344  23.439  1.00  0.00     0.123 C 
ATOM     19  C   UNL A   1      29.552  28.376  23.183  1.00  0.00     0.022 C 
ATOM     20  C   UNL A   1      30.397  27.488  22.263  1.00  0.00     0.009 C 
BRANCH  16  21
ATOM     21  C   UNL A   1      32.106  29.563  25.475  1.00  0.00     0.151 A 
ATOM     22  C   UNL A   1      34.207  31.757  28.407  1.00  0.00     0.069 C 
ATOM     23  C   UNL A   1      33.471  30.933  27.403  1.00  0.00     0.060 A 
ATOM     24  C   UNL A   1      33.993  29.737  26.941  1.00  0.00     0.029 A 
ATOM     25  N   UNL A   1      32.288  31.400  26.956  1.00  0.00    -0.154 NA
ATOM     26  C   UNL A   1      33.287  29.035  25.974  1.00  0.00     0.051 A 
ATOM     27  N   UNL A   1      31.618  30.719  25.974  1.00  0.00    -0.133 NA
ENDBRANCH  16  21
ENDBRANCH  14  15
ENDBRANCH  10  14
ENDBRANCH   7   9
ENDBRANCH   6   7
ENDBRANCH   5   6
ENDBRANCH   4   5
ENDBRANCH   3   4
ENDBRANCH   2   3
ENDBRANCH   1   2
BRANCH   1  28
ATOM     28  O   UNL A   1      40.005  20.794  26.480  1.00  0.00    -0.377 OA
BRANCH  28  29
ATOM     29  C   UNL A   1      41.429  20.788  26.556  1.00  0.00     0.188 C 
BRANCH  29  30
ATOM     30  C   UNL A   1      42.218  21.650  27.589  1.00  0.00     0.188 C 
BRANCH  30  31
ATOM     31  O   UNL A   1      43.003  22.707  27.058  1.00  0.00    -0.376 OA
BRANCH  31  32
ATOM     32  C   UNL A   1      43.283  22.890  25.682  1.00  0.00     0.202 C 
BRANCH  32  33
ATOM     33  C   UNL A   1      43.141  24.294  25.089  1.00  0.00     0.261 C 
BRANCH  33  34
ATOM     34  O   UNL A   1      42.292  25.122  25.857  1.00  0.00    -0.460 OA
BRANCH  34  35
ATOM     35  C   UNL A   1      42.579  26.430  25.719  1.00  0.00     0.338 C 
ATOM     36  O   UNL A   1      43.659  26.930  25.463  1.00  0.00    -0.246 OA
BRANCH  35  37
ATOM     37  C   UNL A   1      41.352  27.195  25.977  1.00  0.00     0.060 A 
ATOM     38  C   UNL A   1      41.541  28.574  25.906  1.00  0.00     0.016 A 
ATOM     39  C   UNL A   1      40.465  26.584  26.867  1.00  0.00     0.016 A 
ATOM     40  C   UNL A   1      41.231  29.278  27.035  1.00  0.00     0.010 A 
ATOM     41  C   UNL A   1      40.195  27.273  28.011  1.00  0.00     0.010 A 
ATOM     42  C   UNL A   1      40.702  28.565  28.116  1.00  0.00    -0.014 A 
BRANCH  42  43
ATOM     43  C   UNL A   1      40.664  29.223  29.391  1.00  0.00     0.031 A 
ATOM     44  C   UNL A   1      39.527  30.151  29.481  1.00  0.00     0.074 A 
ATOM     45  C   UNL A   1      41.555  28.945  30.358  1.00  0.00     0.049 A 
ATOM     46  N   UNL A   1      39.568  31.440  29.447  1.00  0.00    -0.248 NA
ATOM     47  C   UNL A   1      38.178  29.577  29.352  1.00  0.00     0.031 C 
ATOM     48  C   UNL A   1      42.547  27.871  30.437  1.00  0.00     0.029 A 
ATOM     49  N   UNL A   1      41.694  29.579  31.548  1.00  0.00    -0.354 N 
ATOM     50  C   UNL A   1      38.241  31.841  29.481  1.00  0.00     0.074 A 
ATOM     51  C   UNL A   1      37.449  30.677  29.188  1.00  0.00     0.031 C 
ATOM     52  C   UNL A   1      43.026  27.799  31.703  1.00  0.00     0.029 A 
ATOM     53  C   UNL A   1      42.479  28.902  32.474  1.00  0.00     0.049 A 
ATOM     54  H   UNL A   1      41.273  30.447  31.742  1.00  0.00     0.167 HD
ATOM     55  C   UNL A   1      37.884  33.034  30.017  1.00  0.00     0.037 A 
ATOM     56  C   UNL A   1      42.540  29.219  33.792  1.00  0.00     0.037 A 
ATOM     57  C   UNL A   1      39.011  33.927  30.101  1.00  0.00     0.049 A 
ATOM     58  C   UNL A   1      42.077  30.633  33.910  1.00  0.00     0.074 A 
ATOM     59  C   UNL A   1      39.824  34.540  29.169  1.00  0.00     0.029 A 
ATOM     60  N   UNL A   1      39.695  33.982  31.291  1.00  0.00    -0.354 N 
ATOM     61  N   UNL A   1      42.731  31.651  33.419  1.00  0.00    -0.248 NA
ATOM     62  C   UNL A   1      40.655  30.856  34.139  1.00  0.00     0.031 C 
ATOM     63  C   UNL A   1      41.131  34.518  29.739  1.00  0.00     0.029 A 
ATOM     64  C   UNL A   1      41.038  33.946  31.008  1.00  0.00     0.049 A 
ATOM     65  H   UNL A   1      39.294  34.038  32.188  1.00  0.00     0.167 HD
ATOM     66  C   UNL A   1      41.753  32.492  32.904  1.00  0.00     0.074 A 
ATOM     67  C   UNL A   1      40.490  31.974  33.425  1.00  0.00     0.031 C 
ATOM     68  C   UNL A   1      42.027  33.345  31.874  1.00  0.00     0.037 A 
BRANCH  55  69
ATOM     69  C   UNL A   1      36.604  33.239  30.778  1.00  0.00     0.064 A 
ATOM     70  C   UNL A   1      35.623  34.096  30.250  1.00  0.00     0.173 A 
ATOM     71  C   UNL A   1      36.403  32.835  32.119  1.00  0.00     0.173 A 
ATOM     72  F   UNL A   1      35.733  34.569  28.999  1.00  0.00    -0.203 F 
ATOM     73  C   UNL A   1      34.551  34.548  31.022  1.00  0.00     0.198 A 
ATOM     74  C   UNL A   1      35.300  33.236  32.864  1.00  0.00     0.198 A 
ATOM     75  F   UNL A   1      37.316  32.134  32.802  1.00  0.00    -0.203 F 
ATOM     76  F   UNL A   1      33.704  35.453  30.515  1.00  0.00    -0.200 F 
ATOM     77  C   UNL A   1      34.388  34.116  32.327  1.00  0.00     0.200 A 
ATOM     78  F   UNL A   1      35.178  32.820  34.133  1.00  0.00    -0.200 F 
ATOM     79  F   UNL A   1      33.388  34.584  33.082  1.00  0.00    -0.200 F 
ENDBRANCH  55  69
BRANCH  56  80
ATOM     80  C   UNL A   1      42.489  28.287  34.949  1.00  0.00     0.064 A 
ATOM     81  C   UNL A   1      41.643  27.162  34.913  1.00  0.00     0.173 A 
ATOM     82  C   UNL A   1      43.480  28.289  35.949  1.00  0.00     0.173 A 
ATOM     83  F   UNL A   1      40.695  27.063  33.969  1.00  0.00    -0.203 F 
ATOM     84  C   UNL A   1      41.816  26.085  35.788  1.00  0.00     0.198 A 
ATOM     85  C   UNL A   1      43.647  27.215  36.826  1.00  0.00     0.198 A 
ATOM     86  F   UNL A   1      44.374  29.283  36.034  1.00  0.00    -0.203 F 
ATOM     87  F   UNL A   1      41.041  24.997  35.669  1.00  0.00    -0.200 F 
ATOM     88  C   UNL A   1      42.828  26.104  36.732  1.00  0.00     0.200 A 
ATOM     89  F   UNL A   1      44.653  27.232  37.711  1.00  0.00    -0.200 F 
ATOM     90  F   UNL A   1      43.045  25.040  37.518  1.00  0.00    -0.200 F 
ENDBRANCH  56  80
BRANCH  68  91
ATOM     91  C   UNL A   1      43.468  33.498  31.464  1.00  0.00     0.064 A 
ATOM     92  C   UNL A   1      44.379  34.356  32.108  1.00  0.00     0.173 A 
ATOM     93  C   UNL A   1      43.981  32.630  30.494  1.00  0.00     0.173 A 
ATOM     94  F   UNL A   1      43.985  35.150  33.111  1.00  0.00    -0.203 F 
ATOM     95  C   UNL A   1      45.733  34.361  31.771  1.00  0.00     0.198 A 
ATOM     96  C   UNL A   1      45.338  32.611  30.184  1.00  0.00     0.198 A 
ATOM     97  F   UNL A   1      43.169  31.753  29.884  1.00  0.00    -0.203 F 
ATOM     98  F   UNL A   1      46.581  35.191  32.398  1.00  0.00    -0.200 F 
ATOM     99  C   UNL A   1      46.213  33.481  30.816  1.00  0.00     0.200 A 
ATOM    100  F   UNL A   1      45.805  31.722  29.297  1.00  0.00    -0.200 F 
ATOM    101  F   UNL A   1      47.521  33.447  30.527  1.00  0.00    -0.200 F 
ENDBRANCH  68  91
ENDBRANCH  42  43
ENDBRANCH  35  37
ENDBRANCH  34  35
ENDBRANCH  33  34
ENDBRANCH  32  33
ENDBRANCH  31  32
ENDBRANCH  30  31
ENDBRANCH  29  30
ENDBRANCH  28  29
ENDBRANCH   1  28
TORSDOF 23
ENDMDL
MODEL 3
REMARK VINA RESULT:     -11.1      1.437      2.110
REMARK SMILES Cc1ccc(N2CCC[C@@H](Cn3cc(C(=O)OCCOCCOCCOCCOC(=O)c4ccc(-c5c6nc(c(-c7c(F)c(F)c(F)c(F)c7F)c7ccc([nH]7)c(-c7c(F)c(F)c(F)c(F)c7F)c7nc(c(-c8c(F)c(F)c(F)c(F)c8F)c8ccc5[nH]8)C=C7)C=C6)cc4)nn3)C2)nn1
REMARK SMILES IDX 22 1 21 2 20 3 19 4 18 5 17 6 15 7 16 8 14 9 12 10 13 11
REMARK SMILES IDX 96 12 95 13 11 14 10 15 6 16 7 17 97 18 8 19 9 20 5 21 1 22
REMARK SMILES IDX 2 23 3 24 99 25 4 26 98 27 23 28 24 29 25 30 26 31 27 32
REMARK SMILES IDX 28 33 29 34 30 35 31 36 32 37 33 38 94 39 34 40 93 41 35 42
REMARK SMILES IDX 36 43 37 44 87 45 38 46 92 47 86 48 88 49 39 50 91 51 85 52
REMARK SMILES IDX 84 53 40 55 72 56 52 57 71 58 53 59 56 60 70 61 89 62 54 63
REMARK SMILES IDX 55 64 69 66 90 67 57 68 41 69 42 70 50 71 43 72 44 73 48 74
REMARK SMILES IDX 51 75 45 76 46 77 49 78 47 79 73 80 74 81 82 82 75 83 76 84
REMARK SMILES IDX 80 85 83 86 77 87 78 88 81 89 79 90 58 91 59 92 67 93 60 94
REMARK SMILES IDX 61 95 65 96 68 97 62 98 63 99 66 100 64 101
REMARK H PARENT 88 54 56 65
REMARK Flexibility Score: inf
ROOT
ATOM      1  C   UNL A   1      34.616  30.877  27.719  1.00  0.00     0.188 C 
ENDROOT
BRANCH   1   2
ATOM      2  C   UNL A   1      33.381  30.426  26.915  1.00  0.00     0.188 C 
BRANCH   2   3
ATOM      3  O   UNL A   1      33.075  29.048  26.825  1.00  0.00    -0.376 OA
BRANCH   3   4
ATOM      4  C   UNL A   1      32.295  28.448  25.808  1.00  0.00     0.202 C 
BRANCH   4   5
ATOM      5  C   UNL A   1      31.246  29.137  24.919  1.00  0.00     0.261 C 
BRANCH   5   6
ATOM      6  O   UNL A   1      31.579  29.322  23.553  1.00  0.00    -0.458 OA
BRANCH   6   7
ATOM      7  C   UNL A   1      31.033  28.424  22.684  1.00  0.00     0.360 C 
ATOM      8  O   UNL A   1      29.968  28.570  22.113  1.00  0.00    -0.244 OA
BRANCH   7   9
ATOM      9  C   UNL A   1      31.953  27.323  22.449  1.00  0.00     0.190 A 
ATOM     10  N   UNL A   1      32.826  25.392  22.068  1.00  0.00    -0.251 N 
ATOM     11  C   UNL A   1      31.693  25.971  22.548  1.00  0.00     0.146 A 
ATOM     12  N   UNL A   1      33.822  26.289  21.978  1.00  0.00    -0.067 NA
ATOM     13  N   UNL A   1      33.283  27.489  22.154  1.00  0.00    -0.123 NA
BRANCH  10  14
ATOM     14  C   UNL A   1      32.898  24.163  21.308  1.00  0.00     0.151 C 
BRANCH  14  15
ATOM     15  C   UNL A   1      33.305  22.956  22.178  1.00  0.00     0.030 C 
ATOM     16  N   UNL A   1      34.645  22.174  24.020  1.00  0.00    -0.355 N 
ATOM     17  C   UNL A   1      33.558  21.588  24.784  1.00  0.00     0.118 C 
ATOM     18  C   UNL A   1      34.325  23.361  23.257  1.00  0.00     0.123 C 
ATOM     19  C   UNL A   1      32.507  21.106  23.785  1.00  0.00     0.022 C 
ATOM     20  C   UNL A   1      32.099  22.213  22.806  1.00  0.00     0.009 C 
BRANCH  16  21
ATOM     21  C   UNL A   1      35.953  22.047  24.440  1.00  0.00     0.151 A 
ATOM     22  C   UNL A   1      39.620  21.657  26.494  1.00  0.00     0.069 C 
ATOM     23  C   UNL A   1      38.349  21.832  25.730  1.00  0.00     0.060 A 
ATOM     24  C   UNL A   1      37.874  23.093  25.415  1.00  0.00     0.029 A 
ATOM     25  N   UNL A   1      37.678  20.720  25.369  1.00  0.00    -0.154 NA
ATOM     26  C   UNL A   1      36.664  23.197  24.743  1.00  0.00     0.051 A 
ATOM     27  N   UNL A   1      36.466  20.835  24.740  1.00  0.00    -0.133 NA
ENDBRANCH  16  21
ENDBRANCH  14  15
ENDBRANCH  10  14
ENDBRANCH   7   9
ENDBRANCH   6   7
ENDBRANCH   5   6
ENDBRANCH   4   5
ENDBRANCH   3   4
ENDBRANCH   2   3
ENDBRANCH   1   2
BRANCH   1  28
ATOM     28  O   UNL A   1      35.178  32.103  27.307  1.00  0.00    -0.377 OA
BRANCH  28  29
ATOM     29  C   UNL A   1      34.705  33.288  27.943  1.00  0.00     0.188 C 
BRANCH  29  30
ATOM     30  C   UNL A   1      34.450  33.373  29.479  1.00  0.00     0.188 C 
BRANCH  30  31
ATOM     31  O   UNL A   1      33.318  34.124  29.890  1.00  0.00    -0.376 OA
BRANCH  31  32
ATOM     32  C   UNL A   1      33.311  35.526  30.088  1.00  0.00     0.202 C 
BRANCH  32  33
ATOM     33  C   UNL A   1      33.935  36.084  31.369  1.00  0.00     0.261 C 
BRANCH  33  34
ATOM     34  O   UNL A   1      34.763  35.145  32.022  1.00  0.00    -0.460 OA
BRANCH  34  35
ATOM     35  C   UNL A   1      34.691  35.233  33.363  1.00  0.00     0.338 C 
ATOM     36  O   UNL A   1      34.438  36.220  34.030  1.00  0.00    -0.246 OA
BRANCH  35  37
ATOM     37  C   UNL A   1      35.020  33.916  33.925  1.00  0.00     0.060 A 
ATOM     38  C   UNL A   1      36.092  33.952  34.815  1.00  0.00     0.016 A 
ATOM     39  C   UNL A   1      34.766  32.842  33.068  1.00  0.00     0.016 A 
ATOM     40  C   UNL A   1      37.161  33.163  34.494  1.00  0.00     0.010 A 
ATOM     41  C   UNL A   1      35.845  32.087  32.718  1.00  0.00     0.010 A 
ATOM     42  C   UNL A   1      37.052  32.360  33.355  1.00  0.00    -0.014 A 
BRANCH  42  43
ATOM     43  C   UNL A   1      38.256  31.773  32.839  1.00  0.00     0.031 A 
ATOM     44  C   UNL A   1      39.231  31.520  33.909  1.00  0.00     0.074 A 
ATOM     45  C   UNL A   1      38.394  31.470  31.537  1.00  0.00     0.049 A 
ATOM     46  N   UNL A   1      40.317  32.173  34.145  1.00  0.00    -0.248 NA
ATOM     47  C   UNL A   1      38.829  30.593  34.979  1.00  0.00     0.031 C 
ATOM     48  C   UNL A   1      37.394  31.458  30.466  1.00  0.00     0.029 A 
ATOM     49  N   UNL A   1      39.514  31.027  30.914  1.00  0.00    -0.354 N 
ATOM     50  C   UNL A   1      40.833  31.606  35.301  1.00  0.00     0.074 A 
ATOM     51  C   UNL A   1      39.778  30.821  35.883  1.00  0.00     0.031 C 
ATOM     52  C   UNL A   1      37.906  30.818  29.386  1.00  0.00     0.029 A 
ATOM     53  C   UNL A   1      39.300  30.506  29.644  1.00  0.00     0.049 A 
ATOM     54  H   UNL A   1      40.406  31.070  31.328  1.00  0.00     0.167 HD
ATOM     55  C   UNL A   1      42.167  31.602  35.543  1.00  0.00     0.037 A 
ATOM     56  C   UNL A   1      40.221  29.783  28.957  1.00  0.00     0.037 A 
ATOM     57  C   UNL A   1      42.846  32.588  34.743  1.00  0.00     0.049 A 
ATOM     58  C   UNL A   1      41.550  30.112  29.552  1.00  0.00     0.074 A 
ATOM     59  C   UNL A   1      42.817  33.967  34.685  1.00  0.00     0.029 A 
ATOM     60  N   UNL A   1      43.405  32.175  33.558  1.00  0.00    -0.354 N 
ATOM     61  N   UNL A   1      42.106  31.291  29.471  1.00  0.00    -0.248 NA
ATOM     62  C   UNL A   1      42.020  29.274  30.648  1.00  0.00     0.031 C 
ATOM     63  C   UNL A   1      42.929  34.287  33.300  1.00  0.00     0.029 A 
ATOM     64  C   UNL A   1      43.078  33.094  32.593  1.00  0.00     0.049 A 
ATOM     65  H   UNL A   1      43.946  31.363  33.425  1.00  0.00     0.167 HD
ATOM     66  C   UNL A   1      42.687  31.501  30.715  1.00  0.00     0.074 A 
ATOM     67  C   UNL A   1      42.646  30.201  31.380  1.00  0.00     0.031 C 
ATOM     68  C   UNL A   1      42.877  32.762  31.201  1.00  0.00     0.037 A 
BRANCH  55  69
ATOM     69  C   UNL A   1      42.870  30.468  36.237  1.00  0.00     0.064 A 
ATOM     70  C   UNL A   1      43.740  30.751  37.303  1.00  0.00     0.173 A 
ATOM     71  C   UNL A   1      42.924  29.145  35.739  1.00  0.00     0.173 A 
ATOM     72  F   UNL A   1      43.796  31.985  37.829  1.00  0.00    -0.203 F 
ATOM     73  C   UNL A   1      44.627  29.794  37.800  1.00  0.00     0.198 A 
ATOM     74  C   UNL A   1      43.764  28.177  36.279  1.00  0.00     0.198 A 
ATOM     75  F   UNL A   1      42.259  28.762  34.643  1.00  0.00    -0.203 F 
ATOM     76  F   UNL A   1      45.518  30.140  38.739  1.00  0.00    -0.200 F 
ATOM     77  C   UNL A   1      44.637  28.508  37.290  1.00  0.00     0.200 A 
ATOM     78  F   UNL A   1      43.770  26.944  35.752  1.00  0.00    -0.200 F 
ATOM     79  F   UNL A   1      45.518  27.604  37.733  1.00  0.00    -0.200 F 
ENDBRANCH  55  69
BRANCH  56  80
ATOM     80  C   UNL A   1      39.999  28.520  28.204  1.00  0.00     0.064 A 
ATOM     81  C   UNL A   1      40.663  28.299  26.983  1.00  0.00     0.173 A 
ATOM     82  C   UNL A   1      39.408  27.392  28.805  1.00  0.00     0.173 A 
ATOM     83  F   UNL A   1      41.284  29.313  26.363  1.00  0.00    -0.203 F 
ATOM     84  C   UNL A   1      40.775  27.020  26.429  1.00  0.00     0.198 A 
ATOM     85  C   UNL A   1      39.516  26.116  28.246  1.00  0.00     0.198 A 
ATOM     86  F   UNL A   1      38.803  27.480  29.997  1.00  0.00    -0.203 F 
ATOM     87  F   UNL A   1      41.484  26.838  25.306  1.00  0.00    -0.200 F 
ATOM     88  C   UNL A   1      40.216  25.927  27.069  1.00  0.00     0.200 A 
ATOM     89  F   UNL A   1      39.000  25.063  28.895  1.00  0.00    -0.200 F 
ATOM     90  F   UNL A   1      40.389  24.691  26.580  1.00  0.00    -0.200 F 
ENDBRANCH  56  80
BRANCH  68  91
ATOM     91  C   UNL A   1      42.638  33.913  30.258  1.00  0.00     0.064 A 
ATOM     92  C   UNL A   1      43.623  34.444  29.405  1.00  0.00     0.173 A 
ATOM     93  C   UNL A   1      41.330  34.384  30.100  1.00  0.00     0.173 A 
ATOM     94  F   UNL A   1      44.879  33.979  29.430  1.00  0.00    -0.203 F 
ATOM     95  C   UNL A   1      43.313  35.421  28.460  1.00  0.00     0.198 A 
ATOM     96  C   UNL A   1      41.015  35.334  29.132  1.00  0.00     0.198 A 
ATOM     97  F   UNL A   1      40.341  33.876  30.850  1.00  0.00    -0.203 F 
ATOM     98  F   UNL A   1      44.270  35.914  27.659  1.00  0.00    -0.200 F 
ATOM     99  C   UNL A   1      42.006  35.858  28.317  1.00  0.00     0.200 A 
ATOM    100  F   UNL A   1      39.742  35.715  28.964  1.00  0.00    -0.200 F 
ATOM    101  F   UNL A   1      41.695  36.760  27.376  1.00  0.00    -0.200 F 
ENDBRANCH  68  91
ENDBRANCH  42  43
ENDBRANCH  35  37
ENDBRANCH  34  35
ENDBRANCH  33  34
ENDBRANCH  32  33
ENDBRANCH  31  32
ENDBRANCH  30  31
ENDBRANCH  29  30
ENDBRANCH  28  29
ENDBRANCH   1  28
TORSDOF 23
ENDMDL
