MODEL 1
REMARK VINA RESULT:      -9.2      0.000      0.000
REMARK SMILES CC[C@@H](NC(=O)[C@H](C)C[NH2+]C)C(=O)OCCOCCOCCOCCOC(=O)c1ccc(-c2c3nc(c(-c4c(F)c(F)c(F)c(F)c4F)c4ccc([nH]4)c(-c4c(F)c(F)c(F)c(F)c4F)c4nc(c(-c5c(F)c(F)c(F)c(F)c5F)c5ccc2[nH]5)C=C4)C=C3)cc1
REMARK SMILES IDX 19 1 18 2 17 3 16 4 15 5 14 6 12 7 13 8 3 9 2 10 1 11 4 12
REMARK SMILES IDX 5 13 6 15 7 16 8 17 9 18 10 19 11 20 20 23 21 24 22 25 23 26
REMARK SMILES IDX 24 27 25 28 26 29 27 30 28 31 29 32 30 33 91 34 31 35 90 36
REMARK SMILES IDX 32 37 33 38 34 39 84 40 35 41 89 42 83 43 85 44 36 45 88 46
REMARK SMILES IDX 82 47 81 48 37 50 69 51 49 52 68 53 50 54 53 55 67 56 86 57
REMARK SMILES IDX 51 58 52 59 66 61 87 62 54 63 38 64 39 65 47 66 40 67 41 68
REMARK SMILES IDX 45 69 48 70 42 71 43 72 46 73 44 74 70 75 71 76 79 77 72 78
REMARK SMILES IDX 73 79 77 80 80 81 74 82 75 83 78 84 76 85 55 86 56 87 64 88
REMARK SMILES IDX 57 89 58 90 62 91 65 92 59 93 60 94 63 95 61 96
REMARK H PARENT 4 14 10 21 10 22 85 49 53 60
REMARK Flexibility Score: inf
ROOT
ATOM      1  C   UNL A   1      34.444  23.424  26.264  1.00  0.00     0.188 C 
ENDROOT
BRANCH   1   2
ATOM      2  C   UNL A   1      33.021  23.924  25.961  1.00  0.00     0.188 C 
BRANCH   2   3
ATOM      3  O   UNL A   1      32.508  23.371  24.761  1.00  0.00    -0.376 OA
BRANCH   3   4
ATOM      4  C   UNL A   1      31.246  23.784  24.281  1.00  0.00     0.202 C 
BRANCH   4   5
ATOM      5  C   UNL A   1      31.139  25.028  23.402  1.00  0.00     0.261 C 
BRANCH   5   6
ATOM      6  O   UNL A   1      31.665  24.943  22.069  1.00  0.00    -0.462 OA
BRANCH   6   7
ATOM      7  C   UNL A   1      32.443  25.948  21.616  1.00  0.00     0.328 C 
ATOM      8  O   UNL A   1      33.199  25.842  20.659  1.00  0.00    -0.250 OA
BRANCH   7   9
ATOM      9  C   UNL A   1      32.370  27.205  22.509  1.00  0.00     0.192 C 
BRANCH   9  10
ATOM     10  C   UNL A   1      33.636  27.826  23.119  1.00  0.00     0.033 C 
ATOM     11  C   UNL A   1      33.999  27.281  24.504  1.00  0.00     0.007 C 
ENDBRANCH   9  10
BRANCH   9  12
ATOM     12  N   UNL A   1      31.442  28.204  21.979  1.00  0.00    -0.342 N 
ATOM     13  C   UNL A   1      30.458  29.013  22.399  1.00  0.00     0.229 C 
ATOM     14  H   UNL A   1      31.585  28.319  21.012  1.00  0.00     0.164 HD
ATOM     15  O   UNL A   1      29.790  29.451  21.443  1.00  0.00    -0.275 OA
BRANCH  13  16
ATOM     16  C   UNL A   1      30.061  29.485  23.811  1.00  0.00     0.130 C 
ATOM     17  C   UNL A   1      29.470  30.908  23.657  1.00  0.00     0.024 C 
BRANCH  16  18
ATOM     18  C   UNL A   1      31.025  29.479  25.004  1.00  0.00     0.273 C 
BRANCH  18  19
ATOM     19  N   UNL A   1      31.296  30.845  25.510  1.00  0.00    -0.348 N 
ATOM     20  C   UNL A   1      32.213  30.891  26.640  1.00  0.00     0.330 C 
ATOM     21  H   UNL A   1      30.411  31.262  25.800  1.00  0.00     0.346 HD
ATOM     22  H   UNL A   1      31.741  31.357  24.748  1.00  0.00     0.346 HD
ENDBRANCH  18  19
ENDBRANCH  16  18
ENDBRANCH  13  16
ENDBRANCH   9  12
ENDBRANCH   7   9
ENDBRANCH   6   7
ENDBRANCH   5   6
ENDBRANCH   4   5
ENDBRANCH   3   4
ENDBRANCH   2   3
ENDBRANCH   1   2
BRANCH   1  23
ATOM     23  O   UNL A   1      35.507  24.011  25.541  1.00  0.00    -0.377 OA
BRANCH  23  24
ATOM     24  C   UNL A   1      35.863  23.315  24.356  1.00  0.00     0.188 C 
BRANCH  24  25
ATOM     25  C   UNL A   1      37.083  22.400  24.539  1.00  0.00     0.188 C 
BRANCH  25  26
ATOM     26  O   UNL A   1      36.985  21.144  25.190  1.00  0.00    -0.376 OA
BRANCH  26  27
ATOM     27  C   UNL A   1      37.755  20.026  24.783  1.00  0.00     0.202 C 
BRANCH  27  28
ATOM     28  C   UNL A   1      39.045  19.575  25.504  1.00  0.00     0.261 C 
BRANCH  28  29
ATOM     29  O   UNL A   1      39.516  20.349  26.612  1.00  0.00    -0.460 OA
BRANCH  29  30
ATOM     30  C   UNL A   1      40.818  20.703  26.573  1.00  0.00     0.338 C 
ATOM     31  O   UNL A   1      41.743  20.082  26.094  1.00  0.00    -0.246 OA
BRANCH  30  32
ATOM     32  C   UNL A   1      40.934  22.078  27.109  1.00  0.00     0.060 A 
ATOM     33  C   UNL A   1      40.252  23.113  26.458  1.00  0.00     0.016 A 
ATOM     34  C   UNL A   1      41.759  22.350  28.202  1.00  0.00     0.016 A 
ATOM     35  C   UNL A   1      40.422  24.432  26.869  1.00  0.00     0.010 A 
ATOM     36  C   UNL A   1      41.960  23.677  28.591  1.00  0.00     0.010 A 
ATOM     37  C   UNL A   1      41.328  24.724  27.893  1.00  0.00    -0.014 A 
BRANCH  37  38
ATOM     38  C   UNL A   1      41.799  26.118  28.055  1.00  0.00     0.031 A 
ATOM     39  C   UNL A   1      43.148  26.476  27.494  1.00  0.00     0.074 A 
ATOM     40  C   UNL A   1      41.034  27.055  28.641  1.00  0.00     0.049 A 
ATOM     41  N   UNL A   1      43.806  27.605  27.560  1.00  0.00    -0.248 NA
ATOM     42  C   UNL A   1      43.850  25.411  26.759  1.00  0.00     0.031 C 
ATOM     43  C   UNL A   1      39.687  26.842  29.162  1.00  0.00     0.029 A 
ATOM     44  N   UNL A   1      41.295  28.377  28.899  1.00  0.00    -0.354 N 
ATOM     45  C   UNL A   1      45.001  27.381  26.887  1.00  0.00     0.074 A 
ATOM     46  C   UNL A   1      44.993  26.003  26.448  1.00  0.00     0.031 C 
ATOM     47  C   UNL A   1      39.245  27.992  29.702  1.00  0.00     0.029 A 
ATOM     48  C   UNL A   1      40.294  29.006  29.595  1.00  0.00     0.049 A 
ATOM     49  H   UNL A   1      42.122  28.829  28.614  1.00  0.00     0.167 HD
ATOM     50  C   UNL A   1      46.011  28.250  26.651  1.00  0.00     0.037 A 
ATOM     51  C   UNL A   1      40.250  30.250  30.113  1.00  0.00     0.037 A 
ATOM     52  C   UNL A   1      46.014  29.619  27.093  1.00  0.00     0.049 A 
ATOM     53  C   UNL A   1      41.426  31.174  29.915  1.00  0.00     0.074 A 
ATOM     54  C   UNL A   1      46.984  30.586  26.901  1.00  0.00     0.029 A 
ATOM     55  N   UNL A   1      44.997  30.212  27.827  1.00  0.00    -0.354 N 
ATOM     56  N   UNL A   1      42.548  30.963  29.269  1.00  0.00    -0.248 NA
ATOM     57  C   UNL A   1      41.326  32.511  30.515  1.00  0.00     0.031 C 
ATOM     58  C   UNL A   1      46.583  31.745  27.572  1.00  0.00     0.029 A 
ATOM     59  C   UNL A   1      45.330  31.524  28.122  1.00  0.00     0.049 A 
ATOM     60  H   UNL A   1      44.162  29.767  28.098  1.00  0.00     0.167 HD
ATOM     61  C   UNL A   1      43.270  32.147  29.358  1.00  0.00     0.074 A 
ATOM     62  C   UNL A   1      42.453  33.077  30.108  1.00  0.00     0.031 C 
ATOM     63  C   UNL A   1      44.499  32.441  28.862  1.00  0.00     0.037 A 
BRANCH  50  64
ATOM     64  C   UNL A   1      47.211  27.733  25.911  1.00  0.00     0.064 A 
ATOM     65  C   UNL A   1      48.336  27.227  26.580  1.00  0.00     0.173 A 
ATOM     66  C   UNL A   1      47.227  27.724  24.507  1.00  0.00     0.173 A 
ATOM     67  F   UNL A   1      48.381  27.228  27.921  1.00  0.00    -0.203 F 
ATOM     68  C   UNL A   1      49.442  26.760  25.873  1.00  0.00     0.198 A 
ATOM     69  C   UNL A   1      48.318  27.224  23.804  1.00  0.00     0.198 A 
ATOM     70  F   UNL A   1      46.177  28.194  23.816  1.00  0.00    -0.203 F 
ATOM     71  F   UNL A   1      50.526  26.332  26.535  1.00  0.00    -0.200 F 
ATOM     72  C   UNL A   1      49.429  26.751  24.487  1.00  0.00     0.200 A 
ATOM     73  F   UNL A   1      48.298  27.202  22.464  1.00  0.00    -0.200 F 
ATOM     74  F   UNL A   1      50.490  26.292  23.809  1.00  0.00    -0.200 F 
ENDBRANCH  50  64
BRANCH  51  75
ATOM     75  C   UNL A   1      39.061  30.688  30.891  1.00  0.00     0.064 A 
ATOM     76  C   UNL A   1      38.951  30.421  32.263  1.00  0.00     0.173 A 
ATOM     77  C   UNL A   1      37.996  31.361  30.271  1.00  0.00     0.173 A 
ATOM     78  F   UNL A   1      39.930  29.756  32.895  1.00  0.00    -0.203 F 
ATOM     79  C   UNL A   1      37.815  30.791  32.980  1.00  0.00     0.198 A 
ATOM     80  C   UNL A   1      36.875  31.759  30.996  1.00  0.00     0.198 A 
ATOM     81  F   UNL A   1      38.047  31.637  28.960  1.00  0.00    -0.203 F 
ATOM     82  F   UNL A   1      37.713  30.475  34.278  1.00  0.00    -0.200 F 
ATOM     83  C   UNL A   1      36.781  31.465  32.348  1.00  0.00     0.200 A 
ATOM     84  F   UNL A   1      35.883  32.420  30.384  1.00  0.00    -0.200 F 
ATOM     85  F   UNL A   1      35.690  31.822  33.039  1.00  0.00    -0.200 F 
ENDBRANCH  51  75
BRANCH  63  86
ATOM     86  C   UNL A   1      45.018  33.836  29.069  1.00  0.00     0.064 A 
ATOM     87  C   UNL A   1      45.795  34.181  30.185  1.00  0.00     0.173 A 
ATOM     88  C   UNL A   1      44.769  34.833  28.111  1.00  0.00     0.173 A 
ATOM     89  F   UNL A   1      46.054  33.271  31.136  1.00  0.00    -0.203 F 
ATOM     90  C   UNL A   1      46.279  35.478  30.348  1.00  0.00     0.198 A 
ATOM     91  C   UNL A   1      45.284  36.117  28.260  1.00  0.00     0.198 A 
ATOM     92  F   UNL A   1      44.039  34.556  27.020  1.00  0.00    -0.203 F 
ATOM     93  F   UNL A   1      46.974  35.797  31.448  1.00  0.00    -0.200 F 
ATOM     94  C   UNL A   1      46.030  36.441  29.382  1.00  0.00     0.200 A 
ATOM     95  F   UNL A   1      45.059  37.041  27.316  1.00  0.00    -0.200 F 
ATOM     96  F   UNL A   1      46.505  37.685  29.537  1.00  0.00    -0.200 F 
ENDBRANCH  63  86
ENDBRANCH  37  38
ENDBRANCH  30  32
ENDBRANCH  29  30
ENDBRANCH  28  29
ENDBRANCH  27  28
ENDBRANCH  26  27
ENDBRANCH  25  26
ENDBRANCH  24  25
ENDBRANCH  23  24
ENDBRANCH   1  23
TORSDOF 25
ENDMDL
MODEL 2
REMARK VINA RESULT:      -8.9      1.881      7.630
REMARK SMILES CC[C@@H](NC(=O)[C@H](C)C[NH2+]C)C(=O)OCCOCCOCCOCCOC(=O)c1ccc(-c2c3nc(c(-c4c(F)c(F)c(F)c(F)c4F)c4ccc([nH]4)c(-c4c(F)c(F)c(F)c(F)c4F)c4nc(c(-c5c(F)c(F)c(F)c(F)c5F)c5ccc2[nH]5)C=C4)C=C3)cc1
REMARK SMILES IDX 19 1 18 2 17 3 16 4 15 5 14 6 12 7 13 8 3 9 2 10 1 11 4 12
REMARK SMILES IDX 5 13 6 15 7 16 8 17 9 18 10 19 11 20 20 23 21 24 22 25 23 26
REMARK SMILES IDX 24 27 25 28 26 29 27 30 28 31 29 32 30 33 91 34 31 35 90 36
REMARK SMILES IDX 32 37 33 38 34 39 84 40 35 41 89 42 83 43 85 44 36 45 88 46
REMARK SMILES IDX 82 47 81 48 37 50 69 51 49 52 68 53 50 54 53 55 67 56 86 57
REMARK SMILES IDX 51 58 52 59 66 61 87 62 54 63 38 64 39 65 47 66 40 67 41 68
REMARK SMILES IDX 45 69 48 70 42 71 43 72 46 73 44 74 70 75 71 76 79 77 72 78
REMARK SMILES IDX 73 79 77 80 80 81 74 82 75 83 78 84 76 85 55 86 56 87 64 88
REMARK SMILES IDX 57 89 58 90 62 91 65 92 59 93 60 94 63 95 61 96
REMARK H PARENT 4 14 10 21 10 22 85 49 53 60
REMARK Flexibility Score: inf
ROOT
ATOM      1  C   UNL A   1      34.881  23.719  25.900  1.00  0.00     0.188 C 
ENDROOT
BRANCH   1   2
ATOM      2  C   UNL A   1      33.762  22.676  26.069  1.00  0.00     0.188 C 
BRANCH   2   3
ATOM      3  O   UNL A   1      32.590  23.035  25.357  1.00  0.00    -0.376 OA
BRANCH   3   4
ATOM      4  C   UNL A   1      31.470  23.535  26.057  1.00  0.00     0.202 C 
BRANCH   4   5
ATOM      5  C   UNL A   1      31.452  24.991  26.515  1.00  0.00     0.261 C 
BRANCH   5   6
ATOM      6  O   UNL A   1      30.378  25.820  26.043  1.00  0.00    -0.462 OA
BRANCH   6   7
ATOM      7  C   UNL A   1      30.484  26.378  24.819  1.00  0.00     0.328 C 
ATOM      8  O   UNL A   1      30.404  25.743  23.775  1.00  0.00    -0.250 OA
BRANCH   7   9
ATOM      9  C   UNL A   1      30.838  27.879  24.879  1.00  0.00     0.192 C 
BRANCH   9  10
ATOM     10  C   UNL A   1      32.048  28.382  25.682  1.00  0.00     0.033 C 
ATOM     11  C   UNL A   1      31.891  29.804  26.230  1.00  0.00     0.007 C 
ENDBRANCH   9  10
BRANCH   9  12
ATOM     12  N   UNL A   1      30.709  28.528  23.574  1.00  0.00    -0.342 N 
ATOM     13  C   UNL A   1      29.770  29.086  22.795  1.00  0.00     0.229 C 
ATOM     14  H   UNL A   1      31.585  28.568  23.128  1.00  0.00     0.164 HD
ATOM     15  O   UNL A   1      30.171  29.220  21.624  1.00  0.00    -0.275 OA
BRANCH  13  16
ATOM     16  C   UNL A   1      28.349  29.589  23.117  1.00  0.00     0.130 C 
ATOM     17  C   UNL A   1      27.426  28.345  23.126  1.00  0.00     0.024 C 
BRANCH  16  18
ATOM     18  C   UNL A   1      27.654  30.712  22.338  1.00  0.00     0.273 C 
BRANCH  18  19
ATOM     19  N   UNL A   1      27.657  31.993  23.082  1.00  0.00    -0.348 N 
ATOM     20  C   UNL A   1      28.774  32.869  22.757  1.00  0.00     0.330 C 
ATOM     21  H   UNL A   1      27.694  31.785  24.080  1.00  0.00     0.346 HD
ATOM     22  H   UNL A   1      26.807  32.490  22.815  1.00  0.00     0.346 HD
ENDBRANCH  18  19
ENDBRANCH  16  18
ENDBRANCH  13  16
ENDBRANCH   9  12
ENDBRANCH   7   9
ENDBRANCH   6   7
ENDBRANCH   5   6
ENDBRANCH   4   5
ENDBRANCH   3   4
ENDBRANCH   2   3
ENDBRANCH   1   2
BRANCH   1  23
ATOM     23  O   UNL A   1      35.351  23.961  24.589  1.00  0.00    -0.377 OA
BRANCH  23  24
ATOM     24  C   UNL A   1      35.583  22.788  23.824  1.00  0.00     0.188 C 
BRANCH  24  25
ATOM     25  C   UNL A   1      37.000  22.223  24.002  1.00  0.00     0.188 C 
BRANCH  25  26
ATOM     26  O   UNL A   1      37.349  21.417  25.114  1.00  0.00    -0.376 OA
BRANCH  26  27
ATOM     27  C   UNL A   1      37.650  20.039  24.976  1.00  0.00     0.202 C 
BRANCH  27  28
ATOM     28  C   UNL A   1      38.972  19.405  25.465  1.00  0.00     0.261 C 
BRANCH  28  29
ATOM     29  O   UNL A   1      39.937  20.244  26.108  1.00  0.00    -0.460 OA
BRANCH  29  30
ATOM     30  C   UNL A   1      41.201  19.772  26.138  1.00  0.00     0.338 C 
ATOM     31  O   UNL A   1      41.579  18.645  25.898  1.00  0.00    -0.246 OA
BRANCH  30  32
ATOM     32  C   UNL A   1      42.110  20.912  26.392  1.00  0.00     0.060 A 
ATOM     33  C   UNL A   1      42.290  21.347  27.711  1.00  0.00     0.016 A 
ATOM     34  C   UNL A   1      42.725  21.583  25.334  1.00  0.00     0.016 A 
ATOM     35  C   UNL A   1      43.052  22.481  27.977  1.00  0.00     0.010 A 
ATOM     36  C   UNL A   1      43.459  22.743  25.597  1.00  0.00     0.010 A 
ATOM     37  C   UNL A   1      43.583  23.220  26.916  1.00  0.00    -0.014 A 
BRANCH  37  38
ATOM     38  C   UNL A   1      44.039  24.606  27.168  1.00  0.00     0.031 A 
ATOM     39  C   UNL A   1      43.026  25.602  27.660  1.00  0.00     0.074 A 
ATOM     40  C   UNL A   1      45.324  24.963  27.010  1.00  0.00     0.049 A 
ATOM     41  N   UNL A   1      43.159  26.883  27.894  1.00  0.00    -0.248 NA
ATOM     42  C   UNL A   1      41.674  25.080  27.923  1.00  0.00     0.031 C 
ATOM     43  C   UNL A   1      46.406  24.071  26.602  1.00  0.00     0.029 A 
ATOM     44  N   UNL A   1      45.931  26.183  27.171  1.00  0.00    -0.354 N 
ATOM     45  C   UNL A   1      41.910  27.318  28.319  1.00  0.00     0.074 A 
ATOM     46  C   UNL A   1      41.024  26.176  28.281  1.00  0.00     0.031 C 
ATOM     47  C   UNL A   1      47.546  24.781  26.521  1.00  0.00     0.029 A 
ATOM     48  C   UNL A   1      47.261  26.181  26.836  1.00  0.00     0.049 A 
ATOM     49  H   UNL A   1      45.457  26.983  27.494  1.00  0.00     0.167 HD
ATOM     50  C   UNL A   1      41.539  28.558  28.712  1.00  0.00     0.037 A 
ATOM     51  C   UNL A   1      48.137  27.203  26.761  1.00  0.00     0.037 A 
ATOM     52  C   UNL A   1      42.425  29.691  28.745  1.00  0.00     0.049 A 
ATOM     53  C   UNL A   1      47.677  28.595  27.118  1.00  0.00     0.074 A 
ATOM     54  C   UNL A   1      42.152  30.990  29.132  1.00  0.00     0.029 A 
ATOM     55  N   UNL A   1      43.759  29.659  28.363  1.00  0.00    -0.354 N 
ATOM     56  N   UNL A   1      46.500  29.001  27.529  1.00  0.00    -0.248 NA
ATOM     57  C   UNL A   1      48.672  29.670  27.003  1.00  0.00     0.031 C 
ATOM     58  C   UNL A   1      43.302  31.758  28.927  1.00  0.00     0.029 A 
ATOM     59  C   UNL A   1      44.314  30.922  28.478  1.00  0.00     0.049 A 
ATOM     60  H   UNL A   1      44.239  28.856  28.056  1.00  0.00     0.167 HD
ATOM     61  C   UNL A   1      46.621  30.368  27.753  1.00  0.00     0.074 A 
ATOM     62  C   UNL A   1      47.991  30.719  27.445  1.00  0.00     0.031 C 
ATOM     63  C   UNL A   1      45.685  31.253  28.177  1.00  0.00     0.037 A 
BRANCH  50  64
ATOM     64  C   UNL A   1      40.103  28.761  29.103  1.00  0.00     0.064 A 
ATOM     65  C   UNL A   1      39.122  29.125  28.168  1.00  0.00     0.173 A 
ATOM     66  C   UNL A   1      39.698  28.564  30.432  1.00  0.00     0.173 A 
ATOM     67  F   UNL A   1      39.458  29.342  26.886  1.00  0.00    -0.203 F 
ATOM     68  C   UNL A   1      37.797  29.315  28.554  1.00  0.00     0.198 A 
ATOM     69  C   UNL A   1      38.367  28.721  30.808  1.00  0.00     0.198 A 
ATOM     70  F   UNL A   1      40.593  28.213  31.368  1.00  0.00    -0.203 F 
ATOM     71  F   UNL A   1      36.889  29.716  27.654  1.00  0.00    -0.200 F 
ATOM     72  C   UNL A   1      37.419  29.104  29.872  1.00  0.00     0.200 A 
ATOM     73  F   UNL A   1      38.001  28.502  32.079  1.00  0.00    -0.200 F 
ATOM     74  F   UNL A   1      36.143  29.279  30.240  1.00  0.00    -0.200 F 
ENDBRANCH  50  64
BRANCH  51  75
ATOM     75  C   UNL A   1      49.531  26.955  26.308  1.00  0.00     0.064 A 
ATOM     76  C   UNL A   1      50.543  26.621  27.218  1.00  0.00     0.173 A 
ATOM     77  C   UNL A   1      49.886  27.073  24.954  1.00  0.00     0.173 A 
ATOM     78  F   UNL A   1      50.260  26.523  28.526  1.00  0.00    -0.203 F 
ATOM     79  C   UNL A   1      51.858  26.436  26.797  1.00  0.00     0.198 A 
ATOM     80  C   UNL A   1      51.194  26.855  24.530  1.00  0.00     0.198 A 
ATOM     81  F   UNL A   1      48.957  27.396  24.042  1.00  0.00    -0.203 F 
ATOM     82  F   UNL A   1      52.815  26.170  27.697  1.00  0.00    -0.200 F 
ATOM     83  C   UNL A   1      52.182  26.546  25.453  1.00  0.00     0.200 A 
ATOM     84  F   UNL A   1      51.500  26.953  23.229  1.00  0.00    -0.200 F 
ATOM     85  F   UNL A   1      53.447  26.365  25.050  1.00  0.00    -0.200 F 
ENDBRANCH  51  75
BRANCH  63  86
ATOM     86  C   UNL A   1      46.117  32.678  28.381  1.00  0.00     0.064 A 
ATOM     87  C   UNL A   1      46.039  33.632  27.355  1.00  0.00     0.173 A 
ATOM     88  C   UNL A   1      46.574  33.106  29.638  1.00  0.00     0.173 A 
ATOM     89  F   UNL A   1      45.619  33.275  26.131  1.00  0.00    -0.203 F 
ATOM     90  C   UNL A   1      46.430  34.951  27.572  1.00  0.00     0.198 A 
ATOM     91  C   UNL A   1      46.929  34.433  29.860  1.00  0.00     0.198 A 
ATOM     92  F   UNL A   1      46.660  32.238  30.658  1.00  0.00    -0.203 F 
ATOM     93  F   UNL A   1      46.396  35.832  26.562  1.00  0.00    -0.200 F 
ATOM     94  C   UNL A   1      46.866  35.352  28.825  1.00  0.00     0.200 A 
ATOM     95  F   UNL A   1      47.332  34.822  31.078  1.00  0.00    -0.200 F 
ATOM     96  F   UNL A   1      47.232  36.625  29.033  1.00  0.00    -0.200 F 
ENDBRANCH  63  86
ENDBRANCH  37  38
ENDBRANCH  30  32
ENDBRANCH  29  30
ENDBRANCH  28  29
ENDBRANCH  27  28
ENDBRANCH  26  27
ENDBRANCH  25  26
ENDBRANCH  24  25
ENDBRANCH  23  24
ENDBRANCH   1  23
TORSDOF 25
ENDMDL
MODEL 3
REMARK VINA RESULT:      -8.7      4.588      7.442
REMARK SMILES CC[C@@H](NC(=O)[C@H](C)C[NH2+]C)C(=O)OCCOCCOCCOCCOC(=O)c1ccc(-c2c3nc(c(-c4c(F)c(F)c(F)c(F)c4F)c4ccc([nH]4)c(-c4c(F)c(F)c(F)c(F)c4F)c4nc(c(-c5c(F)c(F)c(F)c(F)c5F)c5ccc2[nH]5)C=C4)C=C3)cc1
REMARK SMILES IDX 19 1 18 2 17 3 16 4 15 5 14 6 12 7 13 8 3 9 2 10 1 11 4 12
REMARK SMILES IDX 5 13 6 15 7 16 8 17 9 18 10 19 11 20 20 23 21 24 22 25 23 26
REMARK SMILES IDX 24 27 25 28 26 29 27 30 28 31 29 32 30 33 91 34 31 35 90 36
REMARK SMILES IDX 32 37 33 38 34 39 84 40 35 41 89 42 83 43 85 44 36 45 88 46
REMARK SMILES IDX 82 47 81 48 37 50 69 51 49 52 68 53 50 54 53 55 67 56 86 57
REMARK SMILES IDX 51 58 52 59 66 61 87 62 54 63 38 64 39 65 47 66 40 67 41 68
REMARK SMILES IDX 45 69 48 70 42 71 43 72 46 73 44 74 70 75 71 76 79 77 72 78
REMARK SMILES IDX 73 79 77 80 80 81 74 82 75 83 78 84 76 85 55 86 56 87 64 88
REMARK SMILES IDX 57 89 58 90 62 91 65 92 59 93 60 94 63 95 61 96
REMARK H PARENT 4 14 10 21 10 22 85 49 53 60
REMARK Flexibility Score: inf
ROOT
ATOM      1  C   UNL A   1      41.643  19.517  26.310  1.00  0.00     0.188 C 
ENDROOT
BRANCH   1   2
ATOM      2  C   UNL A   1      40.791  20.386  27.251  1.00  0.00     0.188 C 
BRANCH   2   3
ATOM      3  O   UNL A   1      39.844  21.166  26.540  1.00  0.00    -0.376 OA
BRANCH   3   4
ATOM      4  C   UNL A   1      39.118  20.590  25.475  1.00  0.00     0.202 C 
BRANCH   4   5
ATOM      5  C   UNL A   1      37.634  20.907  25.312  1.00  0.00     0.261 C 
BRANCH   5   6
ATOM      6  O   UNL A   1      37.269  22.280  25.108  1.00  0.00    -0.462 OA
BRANCH   6   7
ATOM      7  C   UNL A   1      36.041  22.687  25.494  1.00  0.00     0.328 C 
ATOM      8  O   UNL A   1      35.843  23.450  26.430  1.00  0.00    -0.250 OA
BRANCH   7   9
ATOM      9  C   UNL A   1      34.910  21.990  24.709  1.00  0.00     0.192 C 
BRANCH   9  10
ATOM     10  C   UNL A   1      33.690  21.392  25.428  1.00  0.00     0.033 C 
ATOM     11  C   UNL A   1      32.961  20.306  24.631  1.00  0.00     0.007 C 
ENDBRANCH   9  10
BRANCH   9  12
ATOM     12  N   UNL A   1      34.556  22.717  23.491  1.00  0.00    -0.342 N 
ATOM     13  C   UNL A   1      33.569  23.487  23.006  1.00  0.00     0.229 C 
ATOM     14  H   UNL A   1      35.262  22.608  22.814  1.00  0.00     0.164 HD
ATOM     15  O   UNL A   1      33.646  23.600  21.769  1.00  0.00    -0.275 OA
BRANCH  13  16
ATOM     16  C   UNL A   1      32.427  24.241  23.715  1.00  0.00     0.130 C 
ATOM     17  C   UNL A   1      31.783  25.171  22.657  1.00  0.00     0.024 C 
BRANCH  16  18
ATOM     18  C   UNL A   1      32.616  25.031  25.015  1.00  0.00     0.273 C 
BRANCH  18  19
ATOM     19  N   UNL A   1      31.689  26.184  25.108  1.00  0.00    -0.348 N 
ATOM     20  C   UNL A   1      32.308  27.409  25.593  1.00  0.00     0.330 C 
ATOM     21  H   UNL A   1      30.931  25.935  25.744  1.00  0.00     0.346 HD
ATOM     22  H   UNL A   1      31.362  26.375  24.161  1.00  0.00     0.346 HD
ENDBRANCH  18  19
ENDBRANCH  16  18
ENDBRANCH  13  16
ENDBRANCH   9  12
ENDBRANCH   7   9
ENDBRANCH   6   7
ENDBRANCH   5   6
ENDBRANCH   4   5
ENDBRANCH   3   4
ENDBRANCH   2   3
ENDBRANCH   1   2
BRANCH   1  23
ATOM     23  O   UNL A   1      43.028  19.794  26.245  1.00  0.00    -0.377 OA
BRANCH  23  24
ATOM     24  C   UNL A   1      43.740  19.003  25.306  1.00  0.00     0.188 C 
BRANCH  24  25
ATOM     25  C   UNL A   1      44.719  19.820  24.450  1.00  0.00     0.188 C 
BRANCH  25  26
ATOM     26  O   UNL A   1      45.765  20.582  25.030  1.00  0.00    -0.376 OA
BRANCH  26  27
ATOM     27  C   UNL A   1      45.971  21.945  24.700  1.00  0.00     0.202 C 
BRANCH  27  28
ATOM     28  C   UNL A   1      44.955  22.788  23.898  1.00  0.00     0.261 C 
BRANCH  28  29
ATOM     29  O   UNL A   1      44.299  23.877  24.555  1.00  0.00    -0.460 OA
BRANCH  29  30
ATOM     30  C   UNL A   1      43.184  23.562  25.248  1.00  0.00     0.338 C 
ATOM     31  O   UNL A   1      42.385  22.682  25.010  1.00  0.00    -0.246 OA
BRANCH  30  32
ATOM     32  C   UNL A   1      43.149  24.402  26.466  1.00  0.00     0.060 A 
ATOM     33  C   UNL A   1      42.457  23.930  27.589  1.00  0.00     0.016 A 
ATOM     34  C   UNL A   1      43.739  25.668  26.478  1.00  0.00     0.016 A 
ATOM     35  C   UNL A   1      42.313  24.737  28.714  1.00  0.00     0.010 A 
ATOM     36  C   UNL A   1      43.562  26.492  27.592  1.00  0.00     0.010 A 
ATOM     37  C   UNL A   1      42.808  26.044  28.693  1.00  0.00    -0.014 A 
BRANCH  37  38
ATOM     38  C   UNL A   1      42.319  27.010  29.703  1.00  0.00     0.031 A 
ATOM     39  C   UNL A   1      43.068  27.109  31.004  1.00  0.00     0.074 A 
ATOM     40  C   UNL A   1      41.269  27.812  29.458  1.00  0.00     0.049 A 
ATOM     41  N   UNL A   1      42.805  27.829  32.065  1.00  0.00    -0.248 NA
ATOM     42  C   UNL A   1      44.279  26.281  31.122  1.00  0.00     0.031 C 
ATOM     43  C   UNL A   1      40.507  27.851  28.213  1.00  0.00     0.029 A 
ATOM     44  N   UNL A   1      40.660  28.744  30.260  1.00  0.00    -0.354 N 
ATOM     45  C   UNL A   1      43.810  27.530  32.977  1.00  0.00     0.074 A 
ATOM     46  C   UNL A   1      44.668  26.543  32.360  1.00  0.00     0.031 C 
ATOM     47  C   UNL A   1      39.513  28.749  28.342  1.00  0.00     0.029 A 
ATOM     48  C   UNL A   1      39.551  29.315  29.691  1.00  0.00     0.049 A 
ATOM     49  H   UNL A   1      40.988  28.979  31.159  1.00  0.00     0.167 HD
ATOM     50  C   UNL A   1      44.002  28.039  34.216  1.00  0.00     0.037 A 
ATOM     51  C   UNL A   1      38.652  30.172  30.215  1.00  0.00     0.037 A 
ATOM     52  C   UNL A   1      43.143  29.019  34.825  1.00  0.00     0.049 A 
ATOM     53  C   UNL A   1      38.837  30.658  31.631  1.00  0.00     0.074 A 
ATOM     54  C   UNL A   1      43.252  29.606  36.073  1.00  0.00     0.029 A 
ATOM     55  N   UNL A   1      42.007  29.548  34.231  1.00  0.00    -0.354 N 
ATOM     56  N   UNL A   1      39.792  30.383  32.487  1.00  0.00    -0.248 NA
ATOM     57  C   UNL A   1      37.817  31.579  32.153  1.00  0.00     0.031 C 
ATOM     58  C   UNL A   1      42.147  30.443  36.258  1.00  0.00     0.029 A 
ATOM     59  C   UNL A   1      41.388  30.433  35.098  1.00  0.00     0.049 A 
ATOM     60  H   UNL A   1      41.687  29.328  33.326  1.00  0.00     0.167 HD
ATOM     61  C   UNL A   1      39.508  31.119  33.631  1.00  0.00     0.074 A 
ATOM     62  C   UNL A   1      38.298  31.864  33.356  1.00  0.00     0.031 C 
ATOM     63  C   UNL A   1      40.188  31.176  34.804  1.00  0.00     0.037 A 
BRANCH  50  64
ATOM     64  C   UNL A   1      45.168  27.517  35.007  1.00  0.00     0.064 A 
ATOM     65  C   UNL A   1      45.058  26.392  35.839  1.00  0.00     0.173 A 
ATOM     66  C   UNL A   1      46.422  28.140  34.912  1.00  0.00     0.173 A 
ATOM     67  F   UNL A   1      43.877  25.769  35.978  1.00  0.00    -0.203 F 
ATOM     68  C   UNL A   1      46.150  25.930  36.569  1.00  0.00     0.198 A 
ATOM     69  C   UNL A   1      47.520  27.655  35.616  1.00  0.00     0.198 A 
ATOM     70  F   UNL A   1      46.585  29.218  34.130  1.00  0.00    -0.203 F 
ATOM     71  F   UNL A   1      46.006  24.887  37.399  1.00  0.00    -0.200 F 
ATOM     72  C   UNL A   1      47.381  26.556  36.451  1.00  0.00     0.200 A 
ATOM     73  F   UNL A   1      48.713  28.252  35.489  1.00  0.00    -0.200 F 
ATOM     74  F   UNL A   1      48.433  26.105  37.147  1.00  0.00    -0.200 F 
ENDBRANCH  50  64
BRANCH  51  75
ATOM     75  C   UNL A   1      37.482  30.608  29.408  1.00  0.00     0.064 A 
ATOM     76  C   UNL A   1      36.427  29.730  29.125  1.00  0.00     0.173 A 
ATOM     77  C   UNL A   1      37.408  31.906  28.880  1.00  0.00     0.173 A 
ATOM     78  F   UNL A   1      36.464  28.470  29.583  1.00  0.00    -0.203 F 
ATOM     79  C   UNL A   1      35.354  30.125  28.328  1.00  0.00     0.198 A 
ATOM     80  C   UNL A   1      36.320  32.311  28.110  1.00  0.00     0.198 A 
ATOM     81  F   UNL A   1      38.394  32.785  29.115  1.00  0.00    -0.203 F 
ATOM     82  F   UNL A   1      34.387  29.248  28.029  1.00  0.00    -0.200 F 
ATOM     83  C   UNL A   1      35.298  31.417  27.827  1.00  0.00     0.200 A 
ATOM     84  F   UNL A   1      36.264  33.563  27.637  1.00  0.00    -0.200 F 
ATOM     85  F   UNL A   1      34.265  31.797  27.063  1.00  0.00    -0.200 F 
ENDBRANCH  51  75
BRANCH  63  86
ATOM     86  C   UNL A   1      39.670  32.108  35.863  1.00  0.00     0.064 A 
ATOM     87  C   UNL A   1      40.155  33.417  36.002  1.00  0.00     0.173 A 
ATOM     88  C   UNL A   1      38.640  31.697  36.725  1.00  0.00     0.173 A 
ATOM     89  F   UNL A   1      41.146  33.857  35.212  1.00  0.00    -0.203 F 
ATOM     90  C   UNL A   1      39.648  34.269  36.981  1.00  0.00     0.198 A 
ATOM     91  C   UNL A   1      38.112  32.563  37.678  1.00  0.00     0.198 A 
ATOM     92  F   UNL A   1      38.132  30.459  36.631  1.00  0.00    -0.203 F 
ATOM     93  F   UNL A   1      40.163  35.497  37.129  1.00  0.00    -0.200 F 
ATOM     94  C   UNL A   1      38.622  33.844  37.811  1.00  0.00     0.200 A 
ATOM     95  F   UNL A   1      37.107  32.157  38.467  1.00  0.00    -0.200 F 
ATOM     96  F   UNL A   1      38.130  34.670  38.746  1.00  0.00    -0.200 F 
ENDBRANCH  63  86
ENDBRANCH  37  38
ENDBRANCH  30  32
ENDBRANCH  29  30
ENDBRANCH  28  29
ENDBRANCH  27  28
ENDBRANCH  26  27
ENDBRANCH  25  26
ENDBRANCH  24  25
ENDBRANCH  23  24
ENDBRANCH   1  23
TORSDOF 25
ENDMDL
