MODEL 1
REMARK VINA RESULT:      -7.3      0.000      0.000
REMARK SMILES CC(C)C[C@H](NC(=O)[C@@H](NC(=O)[C@H](C)NC(=O)CNC(=O)OCc1ccccc1)C(C)C)C(=O)OCCOCCOCCOCCOC(=O)c1ccc(-c2c3nc(c(-c4c(F)c(F)c(F)c(F)c4F)c4ccc([nH]4)c(-c4c(F)c(F)c(F)c(F)c4F)c4nc(c(-c5c(F)c(F)c(F)c(F)c5F)c5ccc2[nH]5)C=C4)C=C3)cc1
REMARK SMILES IDX 37 1 36 2 35 3 33 4 34 5 5 6 4 7 2 8 1 9 3 10 6 11 7 12 8 14
REMARK SMILES IDX 9 15 10 16 11 17 12 19 13 20 14 21 15 22 16 23 17 25 18 26
REMARK SMILES IDX 19 27 20 28 21 30 22 31 23 32 24 33 25 34 29 35 26 36 28 37
REMARK SMILES IDX 27 38 30 39 31 40 32 41 38 42 39 43 40 44 41 45 42 46 43 47
REMARK SMILES IDX 44 48 45 49 46 50 47 51 48 52 49 53 50 54 51 55 112 56 52 57
REMARK SMILES IDX 111 58 53 59 54 60 55 61 105 62 56 63 110 64 104 65 106 66
REMARK SMILES IDX 57 67 109 68 103 69 102 70 58 72 90 73 70 74 89 75 71 76
REMARK SMILES IDX 74 77 88 78 107 79 72 80 73 81 87 83 108 84 75 85 59 86
REMARK SMILES IDX 60 87 68 88 61 89 62 90 66 91 69 92 63 93 64 94 67 95 65 96
REMARK SMILES IDX 91 97 92 98 100 99 93 100 94 101 98 102 101 103 95 104
REMARK SMILES IDX 96 105 99 106 97 107 76 108 77 109 85 110 78 111 79 112
REMARK SMILES IDX 83 113 86 114 80 115 81 116 84 117 82 118
REMARK H PARENT 6 13 10 18 15 24 19 29 106 71 74 82
REMARK Flexibility Score: inf
ROOT
ATOM      1  C   UNL A   1      45.076  22.409  23.879  1.00  0.00     0.202 C 
ENDROOT
BRANCH   1   2
ATOM      2  C   UNL A   1      45.097  23.721  24.664  1.00  0.00     0.261 C 
BRANCH   2   3
ATOM      3  O   UNL A   1      46.311  24.049  25.289  1.00  0.00    -0.462 OA
BRANCH   3   4
ATOM      4  C   UNL A   1      46.195  25.069  26.160  1.00  0.00     0.328 C 
ATOM      5  O   UNL A   1      45.135  25.282  26.744  1.00  0.00    -0.250 OA
BRANCH   4   6
ATOM      6  C   UNL A   1      47.379  26.058  26.159  1.00  0.00     0.192 C 
BRANCH   6   7
ATOM      7  C   UNL A   1      47.679  26.097  27.679  1.00  0.00     0.040 C 
BRANCH   7   8
ATOM      8  C   UNL A   1      49.041  26.638  28.191  1.00  0.00    -0.015 C 
ATOM      9  C   UNL A   1      49.269  28.144  28.356  1.00  0.00     0.007 C 
ATOM     10  C   UNL A   1      49.386  25.983  29.536  1.00  0.00     0.007 C 
ENDBRANCH   7   8
ENDBRANCH   6   7
BRANCH   6  11
ATOM     11  N   UNL A   1      47.455  27.444  25.545  1.00  0.00    -0.341 N 
ATOM     12  C   UNL A   1      46.656  28.560  25.430  1.00  0.00     0.243 C 
ATOM     13  H   UNL A   1      48.324  27.585  25.104  1.00  0.00     0.164 HD
ATOM     14  O   UNL A   1      46.525  28.888  24.233  1.00  0.00    -0.273 OA
BRANCH  12  15
ATOM     15  C   UNL A   1      46.109  29.677  26.607  1.00  0.00     0.174 C 
BRANCH  15  16
ATOM     16  N   UNL A   1      46.224  31.464  26.704  1.00  0.00    -0.342 N 
ATOM     17  C   UNL A   1      45.763  32.779  26.735  1.00  0.00     0.242 C 
ATOM     18  H   UNL A   1      47.197  31.595  26.782  1.00  0.00     0.164 HD
ATOM     19  O   UNL A   1      46.767  33.528  26.826  1.00  0.00    -0.273 OA
BRANCH  17  20
ATOM     20  C   UNL A   1      44.289  33.640  26.393  1.00  0.00     0.168 C 
ATOM     21  C   UNL A   1      44.023  33.588  24.876  1.00  0.00     0.041 C 
BRANCH  20  22
ATOM     22  N   UNL A   1      43.692  34.927  26.930  1.00  0.00    -0.343 N 
ATOM     23  C   UNL A   1      44.346  36.165  26.971  1.00  0.00     0.240 C 
ATOM     24  H   UNL A   1      42.772  34.889  27.276  1.00  0.00     0.164 HD
ATOM     25  O   UNL A   1      45.456  36.350  26.473  1.00  0.00    -0.273 OA
BRANCH  23  26
ATOM     26  C   UNL A   1      43.604  37.321  27.693  1.00  0.00     0.219 C 
BRANCH  26  27
ATOM     27  N   UNL A   1      44.223  38.494  27.177  1.00  0.00    -0.312 N 
ATOM     28  C   UNL A   1      44.681  39.387  28.093  1.00  0.00     0.407 C 
ATOM     29  H   UNL A   1      44.315  38.650  26.209  1.00  0.00     0.167 HD
ATOM     30  O   UNL A   1      44.575  40.589  27.885  1.00  0.00    -0.225 OA
BRANCH  28  31
ATOM     31  O   UNL A   1      45.111  38.773  29.231  1.00  0.00    -0.445 OA
BRANCH  31  32
ATOM     32  C   UNL A   1      45.921  39.531  30.147  1.00  0.00     0.270 C 
BRANCH  32  33
ATOM     33  C   UNL A   1      45.433  39.150  31.517  1.00  0.00    -0.011 A 
ATOM     34  C   UNL A   1      45.886  39.916  32.598  1.00  0.00     0.007 A 
ATOM     35  C   UNL A   1      44.960  37.849  31.729  1.00  0.00     0.007 A 
ATOM     36  C   UNL A   1      46.128  39.296  33.816  1.00  0.00     0.000 A 
ATOM     37  C   UNL A   1      45.136  37.257  32.976  1.00  0.00     0.000 A 
ATOM     38  C   UNL A   1      45.776  37.962  33.996  1.00  0.00     0.000 A 
ENDBRANCH  32  33
ENDBRANCH  31  32
ENDBRANCH  28  31
ENDBRANCH  26  27
ENDBRANCH  23  26
ENDBRANCH  20  22
ENDBRANCH  17  20
ENDBRANCH  15  16
BRANCH  15  39
ATOM     39  C   UNL A   1      44.911  29.093  27.462  1.00  0.00     0.015 C 
ATOM     40  C   UNL A   1      45.154  29.181  28.976  1.00  0.00     0.010 C 
ATOM     41  C   UNL A   1      43.586  29.761  27.094  1.00  0.00     0.010 C 
ENDBRANCH  15  39
ENDBRANCH  12  15
ENDBRANCH   6  11
ENDBRANCH   4   6
ENDBRANCH   3   4
ENDBRANCH   2   3
ENDBRANCH   1   2
BRANCH   1  42
ATOM     42  O   UNL A   1      46.205  21.479  23.951  1.00  0.00    -0.376 OA
BRANCH  42  43
ATOM     43  C   UNL A   1      46.499  20.066  24.268  1.00  0.00     0.188 C 
BRANCH  43  44
ATOM     44  C   UNL A   1      46.268  19.120  25.628  1.00  0.00     0.188 C 
BRANCH  44  45
ATOM     45  O   UNL A   1      45.085  18.592  26.215  1.00  0.00    -0.377 OA
BRANCH  45  46
ATOM     46  C   UNL A   1      43.774  18.274  25.742  1.00  0.00     0.188 C 
BRANCH  46  47
ATOM     47  C   UNL A   1      42.734  19.256  25.223  1.00  0.00     0.188 C 
BRANCH  47  48
ATOM     48  O   UNL A   1      42.962  20.643  25.432  1.00  0.00    -0.376 OA
BRANCH  48  49
ATOM     49  C   UNL A   1      42.009  21.329  26.221  1.00  0.00     0.202 C 
BRANCH  49  50
ATOM     50  C   UNL A   1      41.669  22.758  25.731  1.00  0.00     0.261 C 
BRANCH  50  51
ATOM     51  O   UNL A   1      42.169  23.882  26.500  1.00  0.00    -0.460 OA
BRANCH  51  52
ATOM     52  C   UNL A   1      41.868  25.134  26.042  1.00  0.00     0.338 C 
ATOM     53  O   UNL A   1      41.975  25.528  24.912  1.00  0.00    -0.246 OA
BRANCH  52  54
ATOM     54  C   UNL A   1      41.260  25.979  27.127  1.00  0.00     0.060 A 
ATOM     55  C   UNL A   1      40.801  27.263  26.788  1.00  0.00     0.016 A 
ATOM     56  C   UNL A   1      41.252  25.596  28.471  1.00  0.00     0.016 A 
ATOM     57  C   UNL A   1      40.417  28.181  27.782  1.00  0.00     0.010 A 
ATOM     58  C   UNL A   1      40.876  26.521  29.469  1.00  0.00     0.010 A 
ATOM     59  C   UNL A   1      40.504  27.839  29.138  1.00  0.00    -0.014 A 
BRANCH  59  60
ATOM     60  C   UNL A   1      40.496  28.913  30.185  1.00  0.00     0.031 A 
ATOM     61  C   UNL A   1      41.622  28.918  31.194  1.00  0.00     0.074 A 
ATOM     62  C   UNL A   1      39.565  29.887  30.255  1.00  0.00     0.049 A 
ATOM     63  N   UNL A   1      41.823  29.700  32.227  1.00  0.00    -0.248 NA
ATOM     64  C   UNL A   1      42.662  27.896  31.006  1.00  0.00     0.031 C 
ATOM     65  C   UNL A   1      38.457  30.067  29.328  1.00  0.00     0.029 A 
ATOM     66  N   UNL A   1      39.405  30.912  31.165  1.00  0.00    -0.354 N 
ATOM     67  C   UNL A   1      43.005  29.258  32.809  1.00  0.00     0.074 A 
ATOM     68  C   UNL A   1      43.457  28.121  32.038  1.00  0.00     0.031 C 
ATOM     69  C   UNL A   1      37.718  31.122  29.721  1.00  0.00     0.029 A 
ATOM     70  C   UNL A   1      38.283  31.679  30.950  1.00  0.00     0.049 A 
ATOM     71  H   UNL A   1      40.037  31.079  31.901  1.00  0.00     0.167 HD
ATOM     72  C   UNL A   1      43.667  29.754  33.884  1.00  0.00     0.037 A 
ATOM     73  C   UNL A   1      37.761  32.696  31.670  1.00  0.00     0.037 A 
ATOM     74  C   UNL A   1      43.230  30.880  34.666  1.00  0.00     0.049 A 
ATOM     75  C   UNL A   1      38.462  33.171  32.922  1.00  0.00     0.074 A 
ATOM     76  C   UNL A   1      43.843  31.455  35.766  1.00  0.00     0.029 A 
ATOM     77  N   UNL A   1      42.065  31.596  34.438  1.00  0.00    -0.354 N 
ATOM     78  N   UNL A   1      39.588  32.759  33.451  1.00  0.00    -0.248 NA
ATOM     79  C   UNL A   1      37.819  34.259  33.677  1.00  0.00     0.031 C 
ATOM     80  C   UNL A   1      43.016  32.476  36.244  1.00  0.00     0.029 A 
ATOM     81  C   UNL A   1      41.925  32.587  35.398  1.00  0.00     0.049 A 
ATOM     82  H   UNL A   1      41.432  31.426  33.704  1.00  0.00     0.167 HD
ATOM     83  C   UNL A   1      39.805  33.557  34.570  1.00  0.00     0.074 A 
ATOM     84  C   UNL A   1      38.700  34.487  34.641  1.00  0.00     0.031 C 
ATOM     85  C   UNL A   1      40.831  33.522  35.458  1.00  0.00     0.037 A 
BRANCH  72  86
ATOM     86  C   UNL A   1      44.927  29.050  34.304  1.00  0.00     0.064 A 
ATOM     87  C   UNL A   1      46.181  29.404  33.783  1.00  0.00     0.173 A 
ATOM     88  C   UNL A   1      44.880  28.026  35.262  1.00  0.00     0.173 A 
ATOM     89  F   UNL A   1      46.281  30.366  32.854  1.00  0.00    -0.203 F 
ATOM     90  C   UNL A   1      47.337  28.735  34.182  1.00  0.00     0.198 A 
ATOM     91  C   UNL A   1      46.041  27.385  35.685  1.00  0.00     0.198 A 
ATOM     92  F   UNL A   1      43.708  27.653  35.797  1.00  0.00    -0.203 F 
ATOM     93  F   UNL A   1      48.516  29.052  33.631  1.00  0.00    -0.200 F 
ATOM     94  C   UNL A   1      47.266  27.733  35.138  1.00  0.00     0.200 A 
ATOM     95  F   UNL A   1      45.972  26.428  36.620  1.00  0.00    -0.200 F 
ATOM     96  F   UNL A   1      48.380  27.096  35.527  1.00  0.00    -0.200 F 
ENDBRANCH  72  86
BRANCH  73  97
ATOM     97  C   UNL A   1      36.481  33.339  31.250  1.00  0.00     0.064 A 
ATOM     98  C   UNL A   1      36.364  33.999  30.017  1.00  0.00     0.173 A 
ATOM     99  C   UNL A   1      35.364  33.356  32.099  1.00  0.00     0.173 A 
ATOM    100  F   UNL A   1      37.413  34.048  29.182  1.00  0.00    -0.203 F 
ATOM    101  C   UNL A   1      35.193  34.668  29.661  1.00  0.00     0.198 A 
ATOM    102  C   UNL A   1      34.181  33.995  31.728  1.00  0.00     0.198 A 
ATOM    103  F   UNL A   1      35.419  32.753  33.295  1.00  0.00    -0.203 F 
ATOM    104  F   UNL A   1      35.132  35.341  28.503  1.00  0.00    -0.200 F 
ATOM    105  C   UNL A   1      34.099  34.659  30.514  1.00  0.00     0.200 A 
ATOM    106  F   UNL A   1      33.124  33.977  32.552  1.00  0.00    -0.200 F 
ATOM    107  F   UNL A   1      32.973  35.300  30.171  1.00  0.00    -0.200 F 
ENDBRANCH  73  97
BRANCH  85 108
ATOM    108  C   UNL A   1      40.847  34.549  36.557  1.00  0.00     0.064 A 
ATOM    109  C   UNL A   1      41.667  35.686  36.501  1.00  0.00     0.173 A 
ATOM    110  C   UNL A   1      39.988  34.419  37.661  1.00  0.00     0.173 A 
ATOM    111  F   UNL A   1      42.516  35.857  35.475  1.00  0.00    -0.203 F 
ATOM    112  C   UNL A   1      41.647  36.637  37.520  1.00  0.00     0.198 A 
ATOM    113  C   UNL A   1      39.944  35.388  38.659  1.00  0.00     0.198 A 
ATOM    114  F   UNL A   1      39.173  33.358  37.763  1.00  0.00    -0.203 F 
ATOM    115  F   UNL A   1      42.476  37.689  37.468  1.00  0.00    -0.200 F 
ATOM    116  C   UNL A   1      40.781  36.493  38.592  1.00  0.00     0.200 A 
ATOM    117  F   UNL A   1      39.091  35.256  39.684  1.00  0.00    -0.200 F 
ATOM    118  F   UNL A   1      40.755  37.414  39.565  1.00  0.00    -0.200 F 
ENDBRANCH  85 108
ENDBRANCH  59  60
ENDBRANCH  52  54
ENDBRANCH  51  52
ENDBRANCH  50  51
ENDBRANCH  49  50
ENDBRANCH  48  49
ENDBRANCH  47  48
ENDBRANCH  46  47
ENDBRANCH  45  46
ENDBRANCH  44  45
ENDBRANCH  43  44
ENDBRANCH  42  43
ENDBRANCH   1  42
TORSDOF 33
ENDMDL
MODEL 2
REMARK VINA RESULT:      -7.3      6.643     13.681
REMARK SMILES CC(C)C[C@H](NC(=O)[C@@H](NC(=O)[C@H](C)NC(=O)CNC(=O)OCc1ccccc1)C(C)C)C(=O)OCCOCCOCCOCCOC(=O)c1ccc(-c2c3nc(c(-c4c(F)c(F)c(F)c(F)c4F)c4ccc([nH]4)c(-c4c(F)c(F)c(F)c(F)c4F)c4nc(c(-c5c(F)c(F)c(F)c(F)c5F)c5ccc2[nH]5)C=C4)C=C3)cc1
REMARK SMILES IDX 37 1 36 2 35 3 33 4 34 5 5 6 4 7 2 8 1 9 3 10 6 11 7 12 8 14
REMARK SMILES IDX 9 15 10 16 11 17 12 19 13 20 14 21 15 22 16 23 17 25 18 26
REMARK SMILES IDX 19 27 20 28 21 30 22 31 23 32 24 33 25 34 29 35 26 36 28 37
REMARK SMILES IDX 27 38 30 39 31 40 32 41 38 42 39 43 40 44 41 45 42 46 43 47
REMARK SMILES IDX 44 48 45 49 46 50 47 51 48 52 49 53 50 54 51 55 112 56 52 57
REMARK SMILES IDX 111 58 53 59 54 60 55 61 105 62 56 63 110 64 104 65 106 66
REMARK SMILES IDX 57 67 109 68 103 69 102 70 58 72 90 73 70 74 89 75 71 76
REMARK SMILES IDX 74 77 88 78 107 79 72 80 73 81 87 83 108 84 75 85 59 86
REMARK SMILES IDX 60 87 68 88 61 89 62 90 66 91 69 92 63 93 64 94 67 95 65 96
REMARK SMILES IDX 91 97 92 98 100 99 93 100 94 101 98 102 101 103 95 104
REMARK SMILES IDX 96 105 99 106 97 107 76 108 77 109 85 110 78 111 79 112
REMARK SMILES IDX 83 113 86 114 80 115 81 116 84 117 82 118
REMARK H PARENT 6 13 10 18 15 24 19 29 106 71 74 82
REMARK Flexibility Score: inf
ROOT
ATOM      1  C   UNL A   1      46.141  43.516  29.389  1.00  0.00     0.202 C 
ENDROOT
BRANCH   1   2
ATOM      2  C   UNL A   1      45.442  44.281  28.264  1.00  0.00     0.261 C 
BRANCH   2   3
ATOM      3  O   UNL A   1      44.725  43.505  27.339  1.00  0.00    -0.462 OA
BRANCH   3   4
ATOM      4  C   UNL A   1      45.011  43.812  26.061  1.00  0.00     0.328 C 
ATOM      5  O   UNL A   1      45.151  44.982  25.709  1.00  0.00    -0.250 OA
BRANCH   4   6
ATOM      6  C   UNL A   1      44.893  42.636  25.070  1.00  0.00     0.192 C 
BRANCH   6   7
ATOM      7  C   UNL A   1      43.417  42.820  24.632  1.00  0.00     0.040 C 
BRANCH   7   8
ATOM      8  C   UNL A   1      43.082  43.237  23.174  1.00  0.00    -0.015 C 
ATOM      9  C   UNL A   1      44.100  43.022  22.050  1.00  0.00     0.007 C 
ATOM     10  C   UNL A   1      41.776  42.564  22.731  1.00  0.00     0.007 C 
ENDBRANCH   7   8
ENDBRANCH   6   7
BRANCH   6  11
ATOM     11  N   UNL A   1      45.225  41.173  25.292  1.00  0.00    -0.341 N 
ATOM     12  C   UNL A   1      44.901  40.171  26.182  1.00  0.00     0.243 C 
ATOM     13  H   UNL A   1      45.849  40.845  24.604  1.00  0.00     0.164 HD
ATOM     14  O   UNL A   1      45.932  39.675  26.682  1.00  0.00    -0.273 OA
BRANCH  12  15
ATOM     15  C   UNL A   1      43.428  39.343  26.456  1.00  0.00     0.174 C 
BRANCH  15  16
ATOM     16  N   UNL A   1      43.051  37.599  26.633  1.00  0.00    -0.342 N 
ATOM     17  C   UNL A   1      43.283  36.264  26.957  1.00  0.00     0.242 C 
ATOM     18  H   UNL A   1      42.125  37.563  26.301  1.00  0.00     0.164 HD
ATOM     19  O   UNL A   1      42.242  35.621  26.672  1.00  0.00    -0.273 OA
BRANCH  17  20
ATOM     20  C   UNL A   1      44.641  35.244  27.339  1.00  0.00     0.168 C 
ATOM     21  C   UNL A   1      44.582  34.877  28.835  1.00  0.00     0.041 C 
BRANCH  20  22
ATOM     22  N   UNL A   1      46.098  35.255  26.917  1.00  0.00    -0.343 N 
ATOM     23  C   UNL A   1      46.589  34.773  25.697  1.00  0.00     0.240 C 
ATOM     24  H   UNL A   1      46.750  35.632  27.551  1.00  0.00     0.164 HD
ATOM     25  O   UNL A   1      45.855  34.377  24.792  1.00  0.00    -0.273 OA
BRANCH  23  26
ATOM     26  C   UNL A   1      48.131  34.749  25.528  1.00  0.00     0.219 C 
BRANCH  26  27
ATOM     27  N   UNL A   1      48.573  33.902  26.583  1.00  0.00    -0.312 N 
ATOM     28  C   UNL A   1      49.478  32.944  26.249  1.00  0.00     0.407 C 
ATOM     29  H   UNL A   1      48.243  34.005  27.505  1.00  0.00     0.167 HD
ATOM     30  O   UNL A   1      49.414  31.834  26.761  1.00  0.00    -0.225 OA
BRANCH  28  31
ATOM     31  O   UNL A   1      50.302  33.352  25.243  1.00  0.00    -0.445 OA
BRANCH  31  32
ATOM     32  C   UNL A   1      51.682  33.611  25.558  1.00  0.00     0.270 C 
BRANCH  32  33
ATOM     33  C   UNL A   1      51.829  35.105  25.495  1.00  0.00    -0.011 A 
ATOM     34  C   UNL A   1      51.691  35.713  24.241  1.00  0.00     0.007 A 
ATOM     35  C   UNL A   1      52.525  35.761  26.518  1.00  0.00     0.007 A 
ATOM     36  C   UNL A   1      52.472  36.818  23.931  1.00  0.00     0.000 A 
ATOM     37  C   UNL A   1      53.245  36.913  26.220  1.00  0.00     0.000 A 
ATOM     38  C   UNL A   1      53.266  37.402  24.913  1.00  0.00     0.000 A 
ENDBRANCH  32  33
ENDBRANCH  31  32
ENDBRANCH  28  31
ENDBRANCH  26  27
ENDBRANCH  23  26
ENDBRANCH  20  22
ENDBRANCH  17  20
ENDBRANCH  15  16
BRANCH  15  39
ATOM     39  C   UNL A   1      42.347  40.276  27.140  1.00  0.00     0.015 C 
ATOM     40  C   UNL A   1      41.096  40.482  26.273  1.00  0.00     0.010 C 
ATOM     41  C   UNL A   1      41.957  39.755  28.524  1.00  0.00     0.010 C 
ENDBRANCH  15  39
ENDBRANCH  12  15
ENDBRANCH   6  11
ENDBRANCH   4   6
ENDBRANCH   3   4
ENDBRANCH   2   3
ENDBRANCH   1   2
BRANCH   1  42
ATOM     42  O   UNL A   1      45.585  43.511  30.744  1.00  0.00    -0.376 OA
BRANCH  42  43
ATOM     43  C   UNL A   1      44.314  43.754  31.454  1.00  0.00     0.188 C 
BRANCH  43  44
ATOM     44  C   UNL A   1      42.784  43.087  31.336  1.00  0.00     0.188 C 
BRANCH  44  45
ATOM     45  O   UNL A   1      42.323  41.755  31.527  1.00  0.00    -0.377 OA
BRANCH  45  46
ATOM     46  C   UNL A   1      42.873  40.564  32.092  1.00  0.00     0.188 C 
BRANCH  46  47
ATOM     47  C   UNL A   1      44.088  39.797  31.589  1.00  0.00     0.188 C 
BRANCH  47  48
ATOM     48  O   UNL A   1      44.323  38.499  32.116  1.00  0.00    -0.376 OA
BRANCH  48  49
ATOM     49  C   UNL A   1      43.871  38.261  33.436  1.00  0.00     0.202 C 
BRANCH  49  50
ATOM     50  C   UNL A   1      43.071  36.948  33.621  1.00  0.00     0.261 C 
BRANCH  50  51
ATOM     51  O   UNL A   1      43.780  35.690  33.481  1.00  0.00    -0.460 OA
BRANCH  51  52
ATOM     52  C   UNL A   1      43.335  34.827  32.520  1.00  0.00     0.338 C 
ATOM     53  O   UNL A   1      42.393  34.991  31.792  1.00  0.00    -0.246 OA
BRANCH  52  54
ATOM     54  C   UNL A   1      44.249  33.641  32.386  1.00  0.00     0.060 A 
ATOM     55  C   UNL A   1      43.669  32.374  32.213  1.00  0.00     0.016 A 
ATOM     56  C   UNL A   1      45.633  33.729  32.557  1.00  0.00     0.016 A 
ATOM     57  C   UNL A   1      44.446  31.203  32.291  1.00  0.00     0.010 A 
ATOM     58  C   UNL A   1      46.412  32.555  32.646  1.00  0.00     0.010 A 
ATOM     59  C   UNL A   1      45.818  31.278  32.565  1.00  0.00    -0.014 A 
BRANCH  59  60
ATOM     60  C   UNL A   1      46.555  30.065  33.049  1.00  0.00     0.031 A 
ATOM     61  C   UNL A   1      47.349  29.275  32.033  1.00  0.00     0.074 A 
ATOM     62  C   UNL A   1      46.576  29.662  34.335  1.00  0.00     0.049 A 
ATOM     63  N   UNL A   1      48.030  28.164  32.175  1.00  0.00    -0.248 NA
ATOM     64  C   UNL A   1      47.373  29.820  30.667  1.00  0.00     0.031 C 
ATOM     65  C   UNL A   1      45.924  30.341  35.446  1.00  0.00     0.029 A 
ATOM     66  N   UNL A   1      47.171  28.564  34.922  1.00  0.00    -0.354 N 
ATOM     67  C   UNL A   1      48.554  27.879  30.920  1.00  0.00     0.074 A 
ATOM     68  C   UNL A   1      48.086  28.912  30.023  1.00  0.00     0.031 C 
ATOM     69  C   UNL A   1      46.134  29.642  36.578  1.00  0.00     0.029 A 
ATOM     70  C   UNL A   1      46.914  28.442  36.269  1.00  0.00     0.049 A 
ATOM     71  H   UNL A   1      47.731  27.926  34.423  1.00  0.00     0.167 HD
ATOM     72  C   UNL A   1      49.361  26.858  30.542  1.00  0.00     0.037 A 
ATOM     73  C   UNL A   1      47.249  27.471  37.145  1.00  0.00     0.037 A 
ATOM     74  C   UNL A   1      49.833  25.820  31.420  1.00  0.00     0.049 A 
ATOM     75  C   UNL A   1      48.068  26.287  36.681  1.00  0.00     0.074 A 
ATOM     76  C   UNL A   1      50.660  24.751  31.123  1.00  0.00     0.029 A 
ATOM     77  N   UNL A   1      49.508  25.712  32.763  1.00  0.00    -0.354 N 
ATOM     78  N   UNL A   1      48.574  26.040  35.498  1.00  0.00    -0.248 NA
ATOM     79  C   UNL A   1      48.365  25.247  37.680  1.00  0.00     0.031 C 
ATOM     80  C   UNL A   1      50.784  23.960  32.270  1.00  0.00     0.029 A 
ATOM     81  C   UNL A   1      50.095  24.577  33.301  1.00  0.00     0.049 A 
ATOM     82  H   UNL A   1      48.947  26.350  33.261  1.00  0.00     0.167 HD
ATOM     83  C   UNL A   1      49.276  24.845  35.620  1.00  0.00     0.074 A 
ATOM     84  C   UNL A   1      49.142  24.419  36.996  1.00  0.00     0.031 C 
ATOM     85  C   UNL A   1      49.972  24.163  34.675  1.00  0.00     0.037 A 
BRANCH  72  86
ATOM     86  C   UNL A   1      49.759  26.792  29.094  1.00  0.00     0.064 A 
ATOM     87  C   UNL A   1      50.917  27.424  28.615  1.00  0.00     0.173 A 
ATOM     88  C   UNL A   1      48.985  26.062  28.179  1.00  0.00     0.173 A 
ATOM     89  F   UNL A   1      51.685  28.146  29.444  1.00  0.00    -0.203 F 
ATOM     90  C   UNL A   1      51.265  27.355  27.267  1.00  0.00     0.198 A 
ATOM     91  C   UNL A   1      49.355  25.965  26.842  1.00  0.00     0.198 A 
ATOM     92  F   UNL A   1      47.872  25.433  28.586  1.00  0.00    -0.203 F 
ATOM     93  F   UNL A   1      52.344  28.012  26.822  1.00  0.00    -0.200 F 
ATOM     94  C   UNL A   1      50.489  26.619  26.384  1.00  0.00     0.200 A 
ATOM     95  F   UNL A   1      48.613  25.240  25.993  1.00  0.00    -0.200 F 
ATOM     96  F   UNL A   1      50.830  26.547  25.090  1.00  0.00    -0.200 F 
ENDBRANCH  72  86
BRANCH  73  97
ATOM     97  C   UNL A   1      46.793  27.544  38.565  1.00  0.00     0.064 A 
ATOM     98  C   UNL A   1      47.558  28.195  39.545  1.00  0.00     0.173 A 
ATOM     99  C   UNL A   1      45.612  26.914  38.983  1.00  0.00     0.173 A 
ATOM    100  F   UNL A   1      48.717  28.781  39.209  1.00  0.00    -0.203 F 
ATOM    101  C   UNL A   1      47.173  28.194  40.886  1.00  0.00     0.198 A 
ATOM    102  C   UNL A   1      45.208  26.943  40.318  1.00  0.00     0.198 A 
ATOM    103  F   UNL A   1      44.845  26.265  38.094  1.00  0.00    -0.203 F 
ATOM    104  F   UNL A   1      47.955  28.772  41.808  1.00  0.00    -0.200 F 
ATOM    105  C   UNL A   1      45.993  27.574  41.270  1.00  0.00     0.200 A 
ATOM    106  F   UNL A   1      44.063  26.349  40.682  1.00  0.00    -0.200 F 
ATOM    107  F   UNL A   1      45.621  27.573  42.557  1.00  0.00    -0.200 F 
ENDBRANCH  73  97
BRANCH  85 108
ATOM    108  C   UNL A   1      50.692  22.911  35.096  1.00  0.00     0.064 A 
ATOM    109  C   UNL A   1      50.142  21.635  34.903  1.00  0.00     0.173 A 
ATOM    110  C   UNL A   1      51.979  22.987  35.653  1.00  0.00     0.173 A 
ATOM    111  F   UNL A   1      48.911  21.502  34.385  1.00  0.00    -0.203 F 
ATOM    112  C   UNL A   1      50.839  20.488  35.278  1.00  0.00     0.198 A 
ATOM    113  C   UNL A   1      52.688  21.839  35.994  1.00  0.00     0.198 A 
ATOM    114  F   UNL A   1      52.561  24.181  35.851  1.00  0.00    -0.203 F 
ATOM    115  F   UNL A   1      50.271  19.283  35.130  1.00  0.00    -0.200 F 
ATOM    116  C   UNL A   1      52.113  20.589  35.814  1.00  0.00     0.200 A 
ATOM    117  F   UNL A   1      53.927  21.940  36.493  1.00  0.00    -0.200 F 
ATOM    118  F   UNL A   1      52.786  19.485  36.163  1.00  0.00    -0.200 F 
ENDBRANCH  85 108
ENDBRANCH  59  60
ENDBRANCH  52  54
ENDBRANCH  51  52
ENDBRANCH  50  51
ENDBRANCH  49  50
ENDBRANCH  48  49
ENDBRANCH  47  48
ENDBRANCH  46  47
ENDBRANCH  45  46
ENDBRANCH  44  45
ENDBRANCH  43  44
ENDBRANCH  42  43
ENDBRANCH   1  42
TORSDOF 33
ENDMDL
MODEL 3
REMARK VINA RESULT:      -7.3      6.496     13.694
REMARK SMILES CC(C)C[C@H](NC(=O)[C@@H](NC(=O)[C@H](C)NC(=O)CNC(=O)OCc1ccccc1)C(C)C)C(=O)OCCOCCOCCOCCOC(=O)c1ccc(-c2c3nc(c(-c4c(F)c(F)c(F)c(F)c4F)c4ccc([nH]4)c(-c4c(F)c(F)c(F)c(F)c4F)c4nc(c(-c5c(F)c(F)c(F)c(F)c5F)c5ccc2[nH]5)C=C4)C=C3)cc1
REMARK SMILES IDX 37 1 36 2 35 3 33 4 34 5 5 6 4 7 2 8 1 9 3 10 6 11 7 12 8 14
REMARK SMILES IDX 9 15 10 16 11 17 12 19 13 20 14 21 15 22 16 23 17 25 18 26
REMARK SMILES IDX 19 27 20 28 21 30 22 31 23 32 24 33 25 34 29 35 26 36 28 37
REMARK SMILES IDX 27 38 30 39 31 40 32 41 38 42 39 43 40 44 41 45 42 46 43 47
REMARK SMILES IDX 44 48 45 49 46 50 47 51 48 52 49 53 50 54 51 55 112 56 52 57
REMARK SMILES IDX 111 58 53 59 54 60 55 61 105 62 56 63 110 64 104 65 106 66
REMARK SMILES IDX 57 67 109 68 103 69 102 70 58 72 90 73 70 74 89 75 71 76
REMARK SMILES IDX 74 77 88 78 107 79 72 80 73 81 87 83 108 84 75 85 59 86
REMARK SMILES IDX 60 87 68 88 61 89 62 90 66 91 69 92 63 93 64 94 67 95 65 96
REMARK SMILES IDX 91 97 92 98 100 99 93 100 94 101 98 102 101 103 95 104
REMARK SMILES IDX 96 105 99 106 97 107 76 108 77 109 85 110 78 111 79 112
REMARK SMILES IDX 83 113 86 114 80 115 81 116 84 117 82 118
REMARK H PARENT 6 13 10 18 15 24 19 29 106 71 74 82
REMARK Flexibility Score: inf
ROOT
ATOM      1  C   UNL A   1      37.157  33.638  36.255  1.00  0.00     0.202 C 
ENDROOT
BRANCH   1   2
ATOM      2  C   UNL A   1      38.446  32.822  36.151  1.00  0.00     0.261 C 
BRANCH   2   3
ATOM      3  O   UNL A   1      39.635  33.498  36.470  1.00  0.00    -0.462 OA
BRANCH   3   4
ATOM      4  C   UNL A   1      40.518  32.725  37.128  1.00  0.00     0.328 C 
ATOM      5  O   UNL A   1      40.463  31.499  37.053  1.00  0.00    -0.250 OA
BRANCH   4   6
ATOM      6  C   UNL A   1      41.400  33.475  38.148  1.00  0.00     0.192 C 
BRANCH   6   7
ATOM      7  C   UNL A   1      41.760  34.724  37.303  1.00  0.00     0.040 C 
BRANCH   7   8
ATOM      8  C   UNL A   1      42.772  34.608  36.132  1.00  0.00    -0.015 C 
ATOM      9  C   UNL A   1      42.430  35.172  34.749  1.00  0.00     0.007 C 
ATOM     10  C   UNL A   1      44.116  35.222  36.546  1.00  0.00     0.007 C 
ENDBRANCH   7   8
ENDBRANCH   6   7
BRANCH   6  11
ATOM     11  N   UNL A   1      42.603  32.963  38.918  1.00  0.00    -0.341 N 
ATOM     12  C   UNL A   1      43.575  33.466  39.755  1.00  0.00     0.243 C 
ATOM     13  H   UNL A   1      42.723  31.995  38.780  1.00  0.00     0.164 HD
ATOM     14  O   UNL A   1      44.714  33.192  39.324  1.00  0.00    -0.273 OA
BRANCH  12  15
ATOM     15  C   UNL A   1      43.475  34.093  41.345  1.00  0.00     0.174 C 
BRANCH  15  16
ATOM     16  N   UNL A   1      43.603  33.305  42.951  1.00  0.00    -0.342 N 
ATOM     17  C   UNL A   1      43.246  32.449  43.991  1.00  0.00     0.242 C 
ATOM     18  H   UNL A   1      44.407  33.738  43.320  1.00  0.00     0.164 HD
ATOM     19  O   UNL A   1      44.075  32.618  44.920  1.00  0.00    -0.273 OA
BRANCH  17  20
ATOM     20  C   UNL A   1      41.874  31.485  44.459  1.00  0.00     0.168 C 
ATOM     21  C   UNL A   1      42.203  30.000  44.215  1.00  0.00     0.041 C 
BRANCH  20  22
ATOM     22  N   UNL A   1      40.376  31.666  44.297  1.00  0.00    -0.343 N 
ATOM     23  C   UNL A   1      39.684  31.620  43.081  1.00  0.00     0.240 C 
ATOM     24  H   UNL A   1      39.850  31.829  45.113  1.00  0.00     0.164 HD
ATOM     25  O   UNL A   1      40.225  31.322  42.016  1.00  0.00    -0.273 OA
BRANCH  23  26
ATOM     26  C   UNL A   1      38.175  31.974  43.125  1.00  0.00     0.219 C 
BRANCH  26  27
ATOM     27  N   UNL A   1      37.630  31.271  42.014  1.00  0.00    -0.312 N 
ATOM     28  C   UNL A   1      36.938  32.014  41.110  1.00  0.00     0.407 C 
ATOM     29  H   UNL A   1      37.747  30.300  41.906  1.00  0.00     0.167 HD
ATOM     30  O   UNL A   1      35.929  31.560  40.585  1.00  0.00    -0.225 OA
BRANCH  28  31
ATOM     31  O   UNL A   1      37.436  33.278  41.003  1.00  0.00    -0.445 OA
BRANCH  31  32
ATOM     32  C   UNL A   1      38.023  33.673  39.750  1.00  0.00     0.270 C 
BRANCH  32  33
ATOM     33  C   UNL A   1      38.944  34.812  40.085  1.00  0.00    -0.011 A 
ATOM     34  C   UNL A   1      39.381  34.918  41.411  1.00  0.00     0.007 A 
ATOM     35  C   UNL A   1      38.963  35.936  39.250  1.00  0.00     0.007 A 
ATOM     36  C   UNL A   1      39.562  36.176  41.970  1.00  0.00     0.000 A 
ATOM     37  C   UNL A   1      39.220  37.188  39.800  1.00  0.00     0.000 A 
ATOM     38  C   UNL A   1      39.457  37.310  41.170  1.00  0.00     0.000 A 
ENDBRANCH  32  33
ENDBRANCH  31  32
ENDBRANCH  28  31
ENDBRANCH  26  27
ENDBRANCH  23  26
ENDBRANCH  20  22
ENDBRANCH  17  20
ENDBRANCH  15  16
BRANCH  15  39
ATOM     39  C   UNL A   1      43.816  35.638  41.392  1.00  0.00     0.015 C 
ATOM     40  C   UNL A   1      45.297  35.936  41.114  1.00  0.00     0.010 C 
ATOM     41  C   UNL A   1      42.923  36.435  40.440  1.00  0.00     0.010 C 
ENDBRANCH  15  39
ENDBRANCH  12  15
ENDBRANCH   6  11
ENDBRANCH   4   6
ENDBRANCH   3   4
ENDBRANCH   2   3
ENDBRANCH   1   2
BRANCH   1  42
ATOM     42  O   UNL A   1      36.074  33.448  35.287  1.00  0.00    -0.376 OA
BRANCH  42  43
ATOM     43  C   UNL A   1      35.442  34.126  34.138  1.00  0.00     0.188 C 
BRANCH  43  44
ATOM     44  C   UNL A   1      34.206  33.704  33.091  1.00  0.00     0.188 C 
BRANCH  44  45
ATOM     45  O   UNL A   1      34.182  32.826  31.972  1.00  0.00    -0.377 OA
BRANCH  45  46
ATOM     46  C   UNL A   1      35.171  32.161  31.185  1.00  0.00     0.188 C 
BRANCH  46  47
ATOM     47  C   UNL A   1      36.132  32.809  30.198  1.00  0.00     0.188 C 
BRANCH  47  48
ATOM     48  O   UNL A   1      37.425  33.168  30.663  1.00  0.00    -0.376 OA
BRANCH  48  49
ATOM     49  C   UNL A   1      38.163  32.156  31.322  1.00  0.00     0.202 C 
BRANCH  49  50
ATOM     50  C   UNL A   1      39.368  31.606  30.519  1.00  0.00     0.261 C 
BRANCH  50  51
ATOM     51  O   UNL A   1      40.648  32.275  30.663  1.00  0.00    -0.460 OA
BRANCH  51  52
ATOM     52  C   UNL A   1      40.846  33.003  31.802  1.00  0.00     0.338 C 
ATOM     53  O   UNL A   1      40.461  34.122  32.012  1.00  0.00    -0.246 OA
BRANCH  52  54
ATOM     54  C   UNL A   1      41.537  32.186  32.859  1.00  0.00     0.060 A 
ATOM     55  C   UNL A   1      42.933  32.288  32.966  1.00  0.00     0.016 A 
ATOM     56  C   UNL A   1      40.869  31.241  33.642  1.00  0.00     0.016 A 
ATOM     57  C   UNL A   1      43.664  31.404  33.782  1.00  0.00     0.010 A 
ATOM     58  C   UNL A   1      41.603  30.347  34.452  1.00  0.00     0.010 A 
ATOM     59  C   UNL A   1      43.011  30.387  34.491  1.00  0.00    -0.014 A 
BRANCH  59  60
ATOM     60  C   UNL A   1      43.791  29.218  35.016  1.00  0.00     0.031 A 
ATOM     61  C   UNL A   1      44.082  28.083  34.062  1.00  0.00     0.074 A 
ATOM     62  C   UNL A   1      44.273  29.141  36.273  1.00  0.00     0.049 A 
ATOM     63  N   UNL A   1      44.688  26.939  34.272  1.00  0.00    -0.248 NA
ATOM     64  C   UNL A   1      43.621  28.269  32.677  1.00  0.00     0.031 C 
ATOM     65  C   UNL A   1      44.142  30.170  37.295  1.00  0.00     0.029 A 
ATOM     66  N   UNL A   1      44.971  28.133  36.906  1.00  0.00    -0.354 N 
ATOM     67  C   UNL A   1      44.674  26.274  33.052  1.00  0.00     0.074 A 
ATOM     68  C   UNL A   1      43.971  27.124  32.116  1.00  0.00     0.031 C 
ATOM     69  C   UNL A   1      44.719  29.740  38.434  1.00  0.00     0.029 A 
ATOM     70  C   UNL A   1      45.239  28.386  38.233  1.00  0.00     0.049 A 
ATOM     71  H   UNL A   1      45.253  27.307  36.451  1.00  0.00     0.167 HD
ATOM     72  C   UNL A   1      45.204  25.069  32.729  1.00  0.00     0.037 A 
ATOM     73  C   UNL A   1      45.814  27.613  39.179  1.00  0.00     0.037 A 
ATOM     74  C   UNL A   1      45.902  24.209  33.648  1.00  0.00     0.049 A 
ATOM     75  C   UNL A   1      46.312  26.231  38.821  1.00  0.00     0.074 A 
ATOM     76  C   UNL A   1      46.478  22.975  33.403  1.00  0.00     0.029 A 
ATOM     77  N   UNL A   1      46.108  24.487  34.990  1.00  0.00    -0.354 N 
ATOM     78  N   UNL A   1      46.311  25.621  37.661  1.00  0.00    -0.248 NA
ATOM     79  C   UNL A   1      46.896  25.428  39.909  1.00  0.00     0.031 C 
ATOM     80  C   UNL A   1      46.976  22.476  34.611  1.00  0.00     0.029 A 
ATOM     81  C   UNL A   1      46.775  23.433  35.593  1.00  0.00     0.049 A 
ATOM     82  H   UNL A   1      45.823  25.312  35.446  1.00  0.00     0.167 HD
ATOM     83  C   UNL A   1      46.923  24.389  37.870  1.00  0.00     0.074 A 
ATOM     84  C   UNL A   1      47.294  24.339  39.267  1.00  0.00     0.031 C 
ATOM     85  C   UNL A   1      47.157  23.391  36.982  1.00  0.00     0.037 A 
BRANCH  72  86
ATOM     86  C   UNL A   1      45.015  24.588  31.318  1.00  0.00     0.064 A 
ATOM     87  C   UNL A   1      45.797  25.072  30.258  1.00  0.00     0.173 A 
ATOM     88  C   UNL A   1      44.054  23.607  31.027  1.00  0.00     0.173 A 
ATOM     89  F   UNL A   1      46.720  26.021  30.479  1.00  0.00    -0.203 F 
ATOM     90  C   UNL A   1      45.602  24.617  28.956  1.00  0.00     0.198 A 
ATOM     91  C   UNL A   1      43.887  23.128  29.731  1.00  0.00     0.198 A 
ATOM     92  F   UNL A   1      43.283  23.105  32.004  1.00  0.00    -0.203 F 
ATOM     93  F   UNL A   1      46.323  25.134  27.953  1.00  0.00    -0.200 F 
ATOM     94  C   UNL A   1      44.653  23.639  28.696  1.00  0.00     0.200 A 
ATOM     95  F   UNL A   1      42.980  22.172  29.484  1.00  0.00    -0.200 F 
ATOM     96  F   UNL A   1      44.472  23.196  27.444  1.00  0.00    -0.200 F 
ENDBRANCH  72  86
BRANCH  73  97
ATOM     97  C   UNL A   1      45.941  28.104  40.582  1.00  0.00     0.064 A 
ATOM     98  C   UNL A   1      45.082  27.650  41.595  1.00  0.00     0.173 A 
ATOM     99  C   UNL A   1      46.885  29.081  40.929  1.00  0.00     0.173 A 
ATOM    100  F   UNL A   1      44.134  26.744  41.312  1.00  0.00    -0.203 F 
ATOM    101  C   UNL A   1      45.148  28.168  42.889  1.00  0.00     0.198 A 
ATOM    102  C   UNL A   1      46.975  29.575  42.231  1.00  0.00     0.198 A 
ATOM    103  F   UNL A   1      47.725  29.563  40.001  1.00  0.00    -0.203 F 
ATOM    104  F   UNL A   1      44.274  27.759  43.819  1.00  0.00    -0.200 F 
ATOM    105  C   UNL A   1      46.100  29.126  43.207  1.00  0.00     0.200 A 
ATOM    106  F   UNL A   1      47.902  30.493  42.535  1.00  0.00    -0.200 F 
ATOM    107  F   UNL A   1      46.165  29.623  44.450  1.00  0.00    -0.200 F 
ENDBRANCH  73  97
BRANCH  85 108
ATOM    108  C   UNL A   1      47.896  22.174  37.468  1.00  0.00     0.064 A 
ATOM    109  C   UNL A   1      47.226  21.014  37.886  1.00  0.00     0.173 A 
ATOM    110  C   UNL A   1      49.300  22.149  37.464  1.00  0.00     0.173 A 
ATOM    111  F   UNL A   1      45.885  20.984  37.921  1.00  0.00    -0.203 F 
ATOM    112  C   UNL A   1      47.932  19.890  38.308  1.00  0.00     0.198 A 
ATOM    113  C   UNL A   1      50.003  21.012  37.853  1.00  0.00     0.198 A 
ATOM    114  F   UNL A   1      49.995  23.225  37.063  1.00  0.00    -0.203 F 
ATOM    115  F   UNL A   1      47.270  18.812  38.751  1.00  0.00    -0.200 F 
ATOM    116  C   UNL A   1      49.319  19.885  38.283  1.00  0.00     0.200 A 
ATOM    117  F   UNL A   1      51.342  21.005  37.808  1.00  0.00    -0.200 F 
ATOM    118  F   UNL A   1      49.996  18.799  38.679  1.00  0.00    -0.200 F 
ENDBRANCH  85 108
ENDBRANCH  59  60
ENDBRANCH  52  54
ENDBRANCH  51  52
ENDBRANCH  50  51
ENDBRANCH  49  50
ENDBRANCH  48  49
ENDBRANCH  47  48
ENDBRANCH  46  47
ENDBRANCH  45  46
ENDBRANCH  44  45
ENDBRANCH  43  44
ENDBRANCH  42  43
ENDBRANCH   1  42
TORSDOF 33
ENDMDL
