MODEL 1
REMARK VINA RESULT:      -9.8      0.000      0.000
REMARK SMILES CCOc1cc2c(cc1/C=C1/C(=O)N(c3cccc(C(=O)OCCOCCOCCOCCOC(=O)c4ccc(-c5c6nc(c(-c7c(F)c(F)c(F)c(F)c7F)c7ccc([nH]7)c(-c7c(F)c(F)c(F)c(F)c7F)c7nc(c(-c8c(F)c(F)c(F)c(F)c8F)c8ccc5[nH]8)C=C7)C=C6)cc4)c3)C(=S)N=C1O)OCO2
REMARK SMILES IDX 27 1 26 2 25 3 24 4 23 5 22 6 20 7 21 8 19 9 15 10 16 11
REMARK SMILES IDX 100 12 17 13 18 14 14 15 10 16 11 17 12 18 104 19 13 20
REMARK SMILES IDX 103 21 101 22 102 23 9 24 4 25 5 26 6 27 8 28 7 29 108 30
REMARK SMILES IDX 106 31 107 32 3 33 2 34 1 35 105 36 28 38 29 39 30 40 31 41
REMARK SMILES IDX 32 42 33 43 34 44 35 45 36 46 37 47 38 48 99 49 39 50 98 51
REMARK SMILES IDX 40 52 41 53 42 54 92 55 43 56 97 57 91 58 93 59 44 60 96 61
REMARK SMILES IDX 90 62 89 63 45 65 77 66 57 67 76 68 58 69 61 70 75 71 94 72
REMARK SMILES IDX 59 73 60 74 74 76 95 77 62 78 46 79 47 80 55 81 48 82 49 83
REMARK SMILES IDX 53 84 56 85 50 86 51 87 54 88 52 89 78 90 79 91 87 92 80 93
REMARK SMILES IDX 81 94 85 95 88 96 82 97 83 98 86 99 84 100 63 101 64 102
REMARK SMILES IDX 72 103 65 104 66 105 70 106 73 107 67 108 68 109 71 110
REMARK SMILES IDX 69 111
REMARK H PARENT 105 37 93 64 61 75
REMARK Flexibility Score: inf
ROOT
ATOM      1  C   UNL A   1      32.475  36.535  32.271  1.00  0.00     0.188 C 
ENDROOT
BRANCH   1   2
ATOM      2  C   UNL A   1      33.651  37.236  32.985  1.00  0.00     0.188 C 
BRANCH   2   3
ATOM      3  O   UNL A   1      34.805  36.422  33.130  1.00  0.00    -0.376 OA
BRANCH   3   4
ATOM      4  C   UNL A   1      34.646  35.017  33.168  1.00  0.00     0.202 C 
BRANCH   4   5
ATOM      5  C   UNL A   1      35.829  34.183  33.681  1.00  0.00     0.261 C 
BRANCH   5   6
ATOM      6  O   UNL A   1      37.000  34.926  34.034  1.00  0.00    -0.460 OA
BRANCH   6   7
ATOM      7  C   UNL A   1      38.193  34.402  33.670  1.00  0.00     0.338 C 
ATOM      8  O   UNL A   1      38.840  34.687  32.679  1.00  0.00    -0.246 OA
BRANCH   7   9
ATOM      9  C   UNL A   1      38.694  33.587  34.805  1.00  0.00     0.062 A 
ATOM     10  C   UNL A   1      38.889  33.174  37.207  1.00  0.00     0.052 A 
ATOM     11  C   UNL A   1      39.791  32.138  36.917  1.00  0.00     0.027 A 
ATOM     12  C   UNL A   1      38.340  33.890  36.128  1.00  0.00     0.042 A 
ATOM     13  C   UNL A   1      40.172  31.856  35.599  1.00  0.00     0.003 A 
ATOM     14  C   UNL A   1      39.620  32.575  34.542  1.00  0.00     0.016 A 
BRANCH  10  15
ATOM     15  N   UNL A   1      38.512  33.520  38.564  1.00  0.00    -0.251 N 
ATOM     16  C   UNL A   1      36.061  32.387  41.069  1.00  0.00     0.031 C 
ATOM     17  C   UNL A   1      36.976  33.196  40.476  1.00  0.00     0.103 C 
ATOM     18  C   UNL A   1      37.374  32.853  39.072  1.00  0.00     0.270 C 
ATOM     19  C   UNL A   1      37.681  34.356  41.004  1.00  0.00     0.226 C 
ATOM     20  O   UNL A   1      36.735  32.000  38.450  1.00  0.00    -0.268 OA
ATOM     21  N   UNL A   1      38.709  34.924  40.508  1.00  0.00    -0.184 NA
ATOM     22  C   UNL A   1      39.213  34.512  39.299  1.00  0.00     0.210 C 
ATOM     23  S   UNL A   1      40.572  35.392  38.769  1.00  0.00    -0.038 S 
BRANCH  16  24
ATOM     24  C   UNL A   1      35.457  32.353  42.432  1.00  0.00     0.021 A 
ATOM     25  C   UNL A   1      34.555  33.374  42.874  1.00  0.00     0.130 A 
ATOM     26  C   UNL A   1      34.032  33.357  44.176  1.00  0.00     0.097 A 
ATOM     27  C   UNL A   1      34.452  32.371  45.035  1.00  0.00     0.169 A 
ATOM     28  C   UNL A   1      35.709  31.284  43.308  1.00  0.00     0.062 A 
ATOM     29  C   UNL A   1      35.258  31.354  44.608  1.00  0.00     0.166 A 
ATOM     30  O   UNL A   1      34.102  32.246  46.342  1.00  0.00    -0.453 OA
ATOM     31  O   UNL A   1      35.530  30.459  45.593  1.00  0.00    -0.454 OA
ATOM     32  C   UNL A   1      34.908  31.110  46.720  1.00  0.00     0.468 C 
BRANCH  25  33
ATOM     33  O   UNL A   1      34.070  34.278  41.956  1.00  0.00    -0.493 OA
BRANCH  33  34
ATOM     34  C   UNL A   1      33.026  33.817  41.084  1.00  0.00     0.226 C 
ATOM     35  C   UNL A   1      32.434  34.897  40.185  1.00  0.00     0.049 C 
ENDBRANCH  33  34
ENDBRANCH  25  33
ENDBRANCH  16  24
BRANCH  19  36
ATOM     36  O   UNL A   1      37.182  34.952  42.084  1.00  0.00    -0.493 OA
ATOM     37  H   UNL A   1      37.730  35.496  42.614  1.00  0.00     0.295 HD
ENDBRANCH  19  36
ENDBRANCH  10  15
ENDBRANCH   7   9
ENDBRANCH   6   7
ENDBRANCH   5   6
ENDBRANCH   4   5
ENDBRANCH   3   4
ENDBRANCH   2   3
ENDBRANCH   1   2
BRANCH   1  38
ATOM     38  O   UNL A   1      32.256  36.777  30.887  1.00  0.00    -0.377 OA
BRANCH  38  39
ATOM     39  C   UNL A   1      33.254  36.414  29.937  1.00  0.00     0.188 C 
BRANCH  39  40
ATOM     40  C   UNL A   1      33.291  35.003  29.298  1.00  0.00     0.188 C 
BRANCH  40  41
ATOM     41  O   UNL A   1      34.270  34.138  29.844  1.00  0.00    -0.376 OA
BRANCH  41  42
ATOM     42  C   UNL A   1      35.161  33.500  28.950  1.00  0.00     0.202 C 
BRANCH  42  43
ATOM     43  C   UNL A   1      34.572  32.460  27.987  1.00  0.00     0.261 C 
BRANCH  43  44
ATOM     44  O   UNL A   1      34.364  31.142  28.518  1.00  0.00    -0.460 OA
BRANCH  44  45
ATOM     45  C   UNL A   1      34.772  30.088  27.770  1.00  0.00     0.338 C 
ATOM     46  O   UNL A   1      34.199  29.575  26.840  1.00  0.00    -0.246 OA
BRANCH  45  47
ATOM     47  C   UNL A   1      36.161  29.790  28.192  1.00  0.00     0.060 A 
ATOM     48  C   UNL A   1      37.219  29.998  27.295  1.00  0.00     0.016 A 
ATOM     49  C   UNL A   1      36.413  29.354  29.494  1.00  0.00     0.016 A 
ATOM     50  C   UNL A   1      38.534  29.767  27.702  1.00  0.00     0.010 A 
ATOM     51  C   UNL A   1      37.726  29.097  29.890  1.00  0.00     0.010 A 
ATOM     52  C   UNL A   1      38.792  29.286  28.992  1.00  0.00    -0.014 A 
BRANCH  52  53
ATOM     53  C   UNL A   1      40.145  28.810  29.368  1.00  0.00     0.031 A 
ATOM     54  C   UNL A   1      41.004  29.709  30.211  1.00  0.00     0.074 A 
ATOM     55  C   UNL A   1      40.613  27.621  28.951  1.00  0.00     0.049 A 
ATOM     56  N   UNL A   1      42.256  29.577  30.564  1.00  0.00    -0.248 NA
ATOM     57  C   UNL A   1      40.358  30.929  30.719  1.00  0.00     0.031 C 
ATOM     58  C   UNL A   1      39.858  26.639  28.178  1.00  0.00     0.029 A 
ATOM     59  N   UNL A   1      41.851  27.049  29.110  1.00  0.00    -0.354 N 
ATOM     60  C   UNL A   1      42.550  30.698  31.328  1.00  0.00     0.074 A 
ATOM     61  C   UNL A   1      41.356  31.516  31.358  1.00  0.00     0.031 C 
ATOM     62  C   UNL A   1      40.656  25.589  27.914  1.00  0.00     0.029 A 
ATOM     63  C   UNL A   1      41.988  25.847  28.460  1.00  0.00     0.049 A 
ATOM     64  H   UNL A   1      42.572  27.462  29.638  1.00  0.00     0.167 HD
ATOM     65  C   UNL A   1      43.709  31.013  31.952  1.00  0.00     0.037 A 
ATOM     66  C   UNL A   1      43.075  25.066  28.301  1.00  0.00     0.037 A 
ATOM     67  C   UNL A   1      44.897  30.204  31.902  1.00  0.00     0.049 A 
ATOM     68  C   UNL A   1      44.390  25.497  28.905  1.00  0.00     0.074 A 
ATOM     69  C   UNL A   1      46.122  30.430  32.505  1.00  0.00     0.029 A 
ATOM     70  N   UNL A   1      45.012  29.017  31.193  1.00  0.00    -0.354 N 
ATOM     71  N   UNL A   1      44.661  26.547  29.644  1.00  0.00    -0.248 NA
ATOM     72  C   UNL A   1      45.554  24.639  28.643  1.00  0.00     0.031 C 
ATOM     73  C   UNL A   1      46.996  29.413  32.108  1.00  0.00     0.029 A 
ATOM     74  C   UNL A   1      46.299  28.517  31.312  1.00  0.00     0.049 A 
ATOM     75  H   UNL A   1      44.287  28.592  30.682  1.00  0.00     0.167 HD
ATOM     76  C   UNL A   1      46.010  26.457  29.961  1.00  0.00     0.074 A 
ATOM     77  C   UNL A   1      46.504  25.244  29.343  1.00  0.00     0.031 C 
ATOM     78  C   UNL A   1      46.773  27.302  30.698  1.00  0.00     0.037 A 
BRANCH  65  79
ATOM     79  C   UNL A   1      43.752  32.309  32.710  1.00  0.00     0.064 A 
ATOM     80  C   UNL A   1      44.083  33.522  32.085  1.00  0.00     0.173 A 
ATOM     81  C   UNL A   1      43.449  32.341  34.080  1.00  0.00     0.173 A 
ATOM     82  F   UNL A   1      44.396  33.546  30.781  1.00  0.00    -0.203 F 
ATOM     83  C   UNL A   1      44.148  34.708  32.811  1.00  0.00     0.198 A 
ATOM     84  C   UNL A   1      43.479  33.535  34.794  1.00  0.00     0.198 A 
ATOM     85  F   UNL A   1      43.121  31.212  34.726  1.00  0.00    -0.203 F 
ATOM     86  F   UNL A   1      44.529  35.842  32.206  1.00  0.00    -0.200 F 
ATOM     87  C   UNL A   1      43.840  34.715  34.163  1.00  0.00     0.200 A 
ATOM     88  F   UNL A   1      43.166  33.541  36.098  1.00  0.00    -0.200 F 
ATOM     89  F   UNL A   1      43.900  35.858  34.860  1.00  0.00    -0.200 F 
ENDBRANCH  65  79
BRANCH  66  90
ATOM     90  C   UNL A   1      42.980  23.800  27.524  1.00  0.00     0.064 A 
ATOM     91  C   UNL A   1      43.341  23.760  26.170  1.00  0.00     0.173 A 
ATOM     92  C   UNL A   1      42.505  22.614  28.106  1.00  0.00     0.173 A 
ATOM     93  F   UNL A   1      43.772  24.873  25.559  1.00  0.00    -0.203 F 
ATOM     94  C   UNL A   1      43.215  22.589  25.423  1.00  0.00     0.198 A 
ATOM     95  C   UNL A   1      42.410  21.436  27.367  1.00  0.00     0.198 A 
ATOM     96  F   UNL A   1      42.138  22.598  29.395  1.00  0.00    -0.203 F 
ATOM     97  F   UNL A   1      43.519  22.594  24.119  1.00  0.00    -0.200 F 
ATOM     98  C   UNL A   1      42.756  21.427  26.024  1.00  0.00     0.200 A 
ATOM     99  F   UNL A   1      41.975  20.312  27.953  1.00  0.00    -0.200 F 
ATOM    100  F   UNL A   1      42.637  20.301  25.308  1.00  0.00    -0.200 F 
ENDBRANCH  66  90
BRANCH  78 101
ATOM    101  C   UNL A   1      48.216  26.935  30.913  1.00  0.00     0.064 A 
ATOM    102  C   UNL A   1      48.611  26.066  31.941  1.00  0.00     0.173 A 
ATOM    103  C   UNL A   1      49.206  27.405  30.036  1.00  0.00     0.173 A 
ATOM    104  F   UNL A   1      47.707  25.600  32.816  1.00  0.00    -0.203 F 
ATOM    105  C   UNL A   1      49.945  25.696  32.093  1.00  0.00     0.198 A 
ATOM    106  C   UNL A   1      50.533  27.006  30.171  1.00  0.00     0.198 A 
ATOM    107  F   UNL A   1      48.882  28.232  29.030  1.00  0.00    -0.203 F 
ATOM    108  F   UNL A   1      50.306  24.898  33.107  1.00  0.00    -0.200 F 
ATOM    109  C   UNL A   1      50.902  26.157  31.201  1.00  0.00     0.200 A 
ATOM    110  F   UNL A   1      51.453  27.439  29.296  1.00  0.00    -0.200 F 
ATOM    111  F   UNL A   1      52.182  25.785  31.339  1.00  0.00    -0.200 F 
ENDBRANCH  78 101
ENDBRANCH  52  53
ENDBRANCH  45  47
ENDBRANCH  44  45
ENDBRANCH  43  44
ENDBRANCH  42  43
ENDBRANCH  41  42
ENDBRANCH  40  41
ENDBRANCH  39  40
ENDBRANCH  38  39
ENDBRANCH   1  38
TORSDOF 25
ENDMDL
MODEL 2
REMARK VINA RESULT:      -9.2      2.584      4.111
REMARK SMILES CCOc1cc2c(cc1/C=C1/C(=O)N(c3cccc(C(=O)OCCOCCOCCOCCOC(=O)c4ccc(-c5c6nc(c(-c7c(F)c(F)c(F)c(F)c7F)c7ccc([nH]7)c(-c7c(F)c(F)c(F)c(F)c7F)c7nc(c(-c8c(F)c(F)c(F)c(F)c8F)c8ccc5[nH]8)C=C7)C=C6)cc4)c3)C(=S)N=C1O)OCO2
REMARK SMILES IDX 27 1 26 2 25 3 24 4 23 5 22 6 20 7 21 8 19 9 15 10 16 11
REMARK SMILES IDX 100 12 17 13 18 14 14 15 10 16 11 17 12 18 104 19 13 20
REMARK SMILES IDX 103 21 101 22 102 23 9 24 4 25 5 26 6 27 8 28 7 29 108 30
REMARK SMILES IDX 106 31 107 32 3 33 2 34 1 35 105 36 28 38 29 39 30 40 31 41
REMARK SMILES IDX 32 42 33 43 34 44 35 45 36 46 37 47 38 48 99 49 39 50 98 51
REMARK SMILES IDX 40 52 41 53 42 54 92 55 43 56 97 57 91 58 93 59 44 60 96 61
REMARK SMILES IDX 90 62 89 63 45 65 77 66 57 67 76 68 58 69 61 70 75 71 94 72
REMARK SMILES IDX 59 73 60 74 74 76 95 77 62 78 46 79 47 80 55 81 48 82 49 83
REMARK SMILES IDX 53 84 56 85 50 86 51 87 54 88 52 89 78 90 79 91 87 92 80 93
REMARK SMILES IDX 81 94 85 95 88 96 82 97 83 98 86 99 84 100 63 101 64 102
REMARK SMILES IDX 72 103 65 104 66 105 70 106 73 107 67 108 68 109 71 110
REMARK SMILES IDX 69 111
REMARK H PARENT 105 37 93 64 61 75
REMARK Flexibility Score: inf
ROOT
ATOM      1  C   UNL A   1      32.619  36.290  32.353  1.00  0.00     0.188 C 
ENDROOT
BRANCH   1   2
ATOM      2  C   UNL A   1      33.730  36.944  33.203  1.00  0.00     0.188 C 
BRANCH   2   3
ATOM      3  O   UNL A   1      34.980  36.277  33.130  1.00  0.00    -0.376 OA
BRANCH   3   4
ATOM      4  C   UNL A   1      34.995  34.883  32.894  1.00  0.00     0.202 C 
BRANCH   4   5
ATOM      5  C   UNL A   1      36.214  34.092  33.389  1.00  0.00     0.261 C 
BRANCH   5   6
ATOM      6  O   UNL A   1      37.256  34.873  33.984  1.00  0.00    -0.460 OA
BRANCH   6   7
ATOM      7  C   UNL A   1      38.521  34.415  33.849  1.00  0.00     0.338 C 
ATOM      8  O   UNL A   1      39.258  34.589  32.896  1.00  0.00    -0.246 OA
BRANCH   7   9
ATOM      9  C   UNL A   1      38.944  33.862  35.159  1.00  0.00     0.062 A 
ATOM     10  C   UNL A   1      39.396  34.146  37.545  1.00  0.00     0.052 A 
ATOM     11  C   UNL A   1      39.906  32.838  37.565  1.00  0.00     0.027 A 
ATOM     12  C   UNL A   1      38.908  34.643  36.323  1.00  0.00     0.042 A 
ATOM     13  C   UNL A   1      39.976  32.068  36.397  1.00  0.00     0.003 A 
ATOM     14  C   UNL A   1      39.489  32.576  35.196  1.00  0.00     0.016 A 
BRANCH  10  15
ATOM     15  N   UNL A   1      39.355  34.984  38.729  1.00  0.00    -0.251 N 
ATOM     16  C   UNL A   1      40.714  38.236  39.795  1.00  0.00     0.031 C 
ATOM     17  C   UNL A   1      40.143  37.009  39.909  1.00  0.00     0.103 C 
ATOM     18  C   UNL A   1      40.180  36.130  38.695  1.00  0.00     0.270 C 
ATOM     19  C   UNL A   1      39.451  36.400  41.036  1.00  0.00     0.226 C 
ATOM     20  O   UNL A   1      40.878  36.455  37.731  1.00  0.00    -0.268 OA
ATOM     21  N   UNL A   1      38.714  35.361  41.017  1.00  0.00    -0.184 NA
ATOM     22  C   UNL A   1      38.580  34.627  39.864  1.00  0.00     0.210 C 
ATOM     23  S   UNL A   1      37.580  33.256  40.016  1.00  0.00    -0.038 S 
BRANCH  16  24
ATOM     24  C   UNL A   1      40.839  39.396  40.725  1.00  0.00     0.021 A 
ATOM     25  C   UNL A   1      42.066  39.677  41.407  1.00  0.00     0.130 A 
ATOM     26  C   UNL A   1      42.155  40.742  42.316  1.00  0.00     0.097 A 
ATOM     27  C   UNL A   1      41.022  41.472  42.580  1.00  0.00     0.169 A 
ATOM     28  C   UNL A   1      39.770  40.287  40.915  1.00  0.00     0.062 A 
ATOM     29  C   UNL A   1      39.864  41.259  41.888  1.00  0.00     0.166 A 
ATOM     30  O   UNL A   1      40.914  42.486  43.478  1.00  0.00    -0.453 OA
ATOM     31  O   UNL A   1      38.870  42.105  42.265  1.00  0.00    -0.454 OA
ATOM     32  C   UNL A   1      39.506  42.782  43.369  1.00  0.00     0.468 C 
BRANCH  25  33
ATOM     33  O   UNL A   1      43.206  39.000  41.036  1.00  0.00    -0.493 OA
BRANCH  33  34
ATOM     34  C   UNL A   1      43.877  38.253  42.062  1.00  0.00     0.226 C 
ATOM     35  C   UNL A   1      43.178  36.955  42.454  1.00  0.00     0.049 C 
ENDBRANCH  33  34
ENDBRANCH  25  33
ENDBRANCH  16  24
BRANCH  19  36
ATOM     36  O   UNL A   1      39.645  36.923  42.244  1.00  0.00    -0.493 OA
ATOM     37  H   UNL A   1      39.980  37.795  42.330  1.00  0.00     0.295 HD
ENDBRANCH  19  36
ENDBRANCH  10  15
ENDBRANCH   7   9
ENDBRANCH   6   7
ENDBRANCH   5   6
ENDBRANCH   4   5
ENDBRANCH   3   4
ENDBRANCH   2   3
ENDBRANCH   1   2
BRANCH   1  38
ATOM     38  O   UNL A   1      32.316  36.825  31.071  1.00  0.00    -0.377 OA
BRANCH  38  39
ATOM     39  C   UNL A   1      33.261  36.704  30.011  1.00  0.00     0.188 C 
BRANCH  39  40
ATOM     40  C   UNL A   1      33.328  35.434  29.127  1.00  0.00     0.188 C 
BRANCH  40  41
ATOM     41  O   UNL A   1      34.345  34.520  29.491  1.00  0.00    -0.376 OA
BRANCH  41  42
ATOM     42  C   UNL A   1      34.963  33.773  28.461  1.00  0.00     0.202 C 
BRANCH  42  43
ATOM     43  C   UNL A   1      34.160  32.619  27.845  1.00  0.00     0.261 C 
BRANCH  43  44
ATOM     44  O   UNL A   1      34.209  31.363  28.539  1.00  0.00    -0.460 OA
BRANCH  44  45
ATOM     45  C   UNL A   1      34.595  30.269  27.838  1.00  0.00     0.338 C 
ATOM     46  O   UNL A   1      34.014  29.730  26.927  1.00  0.00    -0.246 OA
BRANCH  45  47
ATOM     47  C   UNL A   1      35.975  29.956  28.279  1.00  0.00     0.060 A 
ATOM     48  C   UNL A   1      37.046  30.138  27.392  1.00  0.00     0.016 A 
ATOM     49  C   UNL A   1      36.206  29.532  29.589  1.00  0.00     0.016 A 
ATOM     50  C   UNL A   1      38.353  29.893  27.816  1.00  0.00     0.010 A 
ATOM     51  C   UNL A   1      37.511  29.261  30.002  1.00  0.00     0.010 A 
ATOM     52  C   UNL A   1      38.590  29.424  29.114  1.00  0.00    -0.014 A 
BRANCH  52  53
ATOM     53  C   UNL A   1      39.931  28.933  29.511  1.00  0.00     0.031 A 
ATOM     54  C   UNL A   1      40.769  29.804  30.403  1.00  0.00     0.074 A 
ATOM     55  C   UNL A   1      40.408  27.756  29.071  1.00  0.00     0.049 A 
ATOM     56  N   UNL A   1      42.011  29.658  30.785  1.00  0.00    -0.248 NA
ATOM     57  C   UNL A   1      40.113  31.010  30.931  1.00  0.00     0.031 C 
ATOM     58  C   UNL A   1      39.672  26.800  28.248  1.00  0.00     0.029 A 
ATOM     59  N   UNL A   1      41.641  27.177  29.244  1.00  0.00    -0.354 N 
ATOM     60  C   UNL A   1      42.287  30.755  31.590  1.00  0.00     0.074 A 
ATOM     61  C   UNL A   1      41.095  31.574  31.614  1.00  0.00     0.031 C 
ATOM     62  C   UNL A   1      40.475  25.756  27.974  1.00  0.00     0.029 A 
ATOM     63  C   UNL A   1      41.792  25.994  28.562  1.00  0.00     0.049 A 
ATOM     64  H   UNL A   1      42.348  27.571  29.803  1.00  0.00     0.167 HD
ATOM     65  C   UNL A   1      43.430  31.048  32.254  1.00  0.00     0.037 A 
ATOM     66  C   UNL A   1      42.882  25.216  28.408  1.00  0.00     0.037 A 
ATOM     67  C   UNL A   1      44.618  30.237  32.211  1.00  0.00     0.049 A 
ATOM     68  C   UNL A   1      44.182  25.625  29.059  1.00  0.00     0.074 A 
ATOM     69  C   UNL A   1      45.827  30.441  32.852  1.00  0.00     0.029 A 
ATOM     70  N   UNL A   1      44.749  29.072  31.469  1.00  0.00    -0.354 N 
ATOM     71  N   UNL A   1      44.434  26.651  29.836  1.00  0.00    -0.248 NA
ATOM     72  C   UNL A   1      45.351  24.772  28.802  1.00  0.00     0.031 C 
ATOM     73  C   UNL A   1      46.709  29.435  32.447  1.00  0.00     0.029 A 
ATOM     74  C   UNL A   1      46.032  28.566  31.607  1.00  0.00     0.049 A 
ATOM     75  H   UNL A   1      44.037  28.664  30.926  1.00  0.00     0.167 HD
ATOM     76  C   UNL A   1      45.775  26.548  30.186  1.00  0.00     0.074 A 
ATOM     77  C   UNL A   1      46.282  25.354  29.545  1.00  0.00     0.031 C 
ATOM     78  C   UNL A   1      46.520  27.368  30.968  1.00  0.00     0.037 A 
BRANCH  65  79
ATOM     79  C   UNL A   1      43.455  32.320  33.052  1.00  0.00     0.064 A 
ATOM     80  C   UNL A   1      43.728  33.562  32.456  1.00  0.00     0.173 A 
ATOM     81  C   UNL A   1      43.195  32.298  34.431  1.00  0.00     0.173 A 
ATOM     82  F   UNL A   1      43.998  33.637  31.145  1.00  0.00    -0.203 F 
ATOM     83  C   UNL A   1      43.777  34.727  33.218  1.00  0.00     0.198 A 
ATOM     84  C   UNL A   1      43.210  33.470  35.182  1.00  0.00     0.198 A 
ATOM     85  F   UNL A   1      42.924  31.140  35.050  1.00  0.00    -0.203 F 
ATOM     86  F   UNL A   1      44.102  35.891  32.639  1.00  0.00    -0.200 F 
ATOM     87  C   UNL A   1      43.512  34.680  34.578  1.00  0.00     0.200 A 
ATOM     88  F   UNL A   1      42.937  33.425  36.494  1.00  0.00    -0.200 F 
ATOM     89  F   UNL A   1      43.557  35.803  35.310  1.00  0.00    -0.200 F 
ENDBRANCH  65  79
BRANCH  66  90
ATOM     90  C   UNL A   1      42.805  23.975  27.590  1.00  0.00     0.064 A 
ATOM     91  C   UNL A   1      42.439  22.753  28.172  1.00  0.00     0.173 A 
ATOM     92  C   UNL A   1      43.118  23.975  26.222  1.00  0.00     0.173 A 
ATOM     93  F   UNL A   1      42.160  22.693  29.482  1.00  0.00    -0.203 F 
ATOM     94  C   UNL A   1      42.405  21.577  27.423  1.00  0.00     0.198 A 
ATOM     95  C   UNL A   1      43.053  22.805  25.466  1.00  0.00     0.198 A 
ATOM     96  F   UNL A   1      43.482  25.114  25.616  1.00  0.00    -0.203 F 
ATOM     97  F   UNL A   1      42.102  20.416  28.017  1.00  0.00    -0.200 F 
ATOM     98  C   UNL A   1      42.705  21.606  26.069  1.00  0.00     0.200 A 
ATOM     99  F   UNL A   1      43.334  22.838  24.156  1.00  0.00    -0.200 F 
ATOM    100  F   UNL A   1      42.671  20.477  25.349  1.00  0.00    -0.200 F 
ENDBRANCH  66  90
BRANCH  78 101
ATOM    101  C   UNL A   1      47.955  26.991  31.210  1.00  0.00     0.064 A 
ATOM    102  C   UNL A   1      48.318  26.065  32.199  1.00  0.00     0.173 A 
ATOM    103  C   UNL A   1      48.973  27.512  30.395  1.00  0.00     0.173 A 
ATOM    104  F   UNL A   1      47.388  25.548  33.015  1.00  0.00    -0.203 F 
ATOM    105  C   UNL A   1      49.648  25.689  32.374  1.00  0.00     0.198 A 
ATOM    106  C   UNL A   1      50.295  27.108  30.551  1.00  0.00     0.198 A 
ATOM    107  F   UNL A   1      48.680  28.395  29.428  1.00  0.00    -0.203 F 
ATOM    108  F   UNL A   1      49.977  24.834  33.352  1.00  0.00    -0.200 F 
ATOM    109  C   UNL A   1      50.633  26.201  31.543  1.00  0.00     0.200 A 
ATOM    110  F   UNL A   1      51.243  27.591  29.734  1.00  0.00    -0.200 F 
ATOM    111  F   UNL A   1      51.909  25.823  31.701  1.00  0.00    -0.200 F 
ENDBRANCH  78 101
ENDBRANCH  52  53
ENDBRANCH  45  47
ENDBRANCH  44  45
ENDBRANCH  43  44
ENDBRANCH  42  43
ENDBRANCH  41  42
ENDBRANCH  40  41
ENDBRANCH  39  40
ENDBRANCH  38  39
ENDBRANCH   1  38
TORSDOF 25
ENDMDL
MODEL 3
REMARK VINA RESULT:      -8.7      5.823     10.505
REMARK SMILES CCOc1cc2c(cc1/C=C1/C(=O)N(c3cccc(C(=O)OCCOCCOCCOCCOC(=O)c4ccc(-c5c6nc(c(-c7c(F)c(F)c(F)c(F)c7F)c7ccc([nH]7)c(-c7c(F)c(F)c(F)c(F)c7F)c7nc(c(-c8c(F)c(F)c(F)c(F)c8F)c8ccc5[nH]8)C=C7)C=C6)cc4)c3)C(=S)N=C1O)OCO2
REMARK SMILES IDX 27 1 26 2 25 3 24 4 23 5 22 6 20 7 21 8 19 9 15 10 16 11
REMARK SMILES IDX 100 12 17 13 18 14 14 15 10 16 11 17 12 18 104 19 13 20
REMARK SMILES IDX 103 21 101 22 102 23 9 24 4 25 5 26 6 27 8 28 7 29 108 30
REMARK SMILES IDX 106 31 107 32 3 33 2 34 1 35 105 36 28 38 29 39 30 40 31 41
REMARK SMILES IDX 32 42 33 43 34 44 35 45 36 46 37 47 38 48 99 49 39 50 98 51
REMARK SMILES IDX 40 52 41 53 42 54 92 55 43 56 97 57 91 58 93 59 44 60 96 61
REMARK SMILES IDX 90 62 89 63 45 65 77 66 57 67 76 68 58 69 61 70 75 71 94 72
REMARK SMILES IDX 59 73 60 74 74 76 95 77 62 78 46 79 47 80 55 81 48 82 49 83
REMARK SMILES IDX 53 84 56 85 50 86 51 87 54 88 52 89 78 90 79 91 87 92 80 93
REMARK SMILES IDX 81 94 85 95 88 96 82 97 83 98 86 99 84 100 63 101 64 102
REMARK SMILES IDX 72 103 65 104 66 105 70 106 73 107 67 108 68 109 71 110
REMARK SMILES IDX 69 111
REMARK H PARENT 105 37 93 64 61 75
REMARK Flexibility Score: inf
ROOT
ATOM      1  C   UNL A   1      38.576  33.656  31.609  1.00  0.00     0.188 C 
ENDROOT
BRANCH   1   2
ATOM      2  C   UNL A   1      37.623  33.760  32.819  1.00  0.00     0.188 C 
BRANCH   2   3
ATOM      3  O   UNL A   1      36.619  34.753  32.680  1.00  0.00    -0.376 OA
BRANCH   3   4
ATOM      4  C   UNL A   1      35.620  34.854  33.676  1.00  0.00     0.202 C 
BRANCH   4   5
ATOM      5  C   UNL A   1      34.178  35.100  33.210  1.00  0.00     0.261 C 
BRANCH   5   6
ATOM      6  O   UNL A   1      34.008  36.155  32.258  1.00  0.00    -0.460 OA
BRANCH   6   7
ATOM      7  C   UNL A   1      32.885  36.128  31.504  1.00  0.00     0.338 C 
ATOM      8  O   UNL A   1      31.776  36.499  31.840  1.00  0.00    -0.246 OA
BRANCH   7   9
ATOM      9  C   UNL A   1      33.281  35.786  30.116  1.00  0.00     0.062 A 
ATOM     10  C   UNL A   1      33.857  34.130  28.411  1.00  0.00     0.052 A 
ATOM     11  C   UNL A   1      34.192  35.188  27.551  1.00  0.00     0.027 A 
ATOM     12  C   UNL A   1      33.392  34.452  29.699  1.00  0.00     0.042 A 
ATOM     13  C   UNL A   1      34.115  36.520  27.976  1.00  0.00     0.003 A 
ATOM     14  C   UNL A   1      33.654  36.821  29.254  1.00  0.00     0.016 A 
BRANCH  10  15
ATOM     15  N   UNL A   1      33.971  32.739  28.016  1.00  0.00    -0.251 N 
ATOM     16  C   UNL A   1      31.778  30.128  26.623  1.00  0.00     0.031 C 
ATOM     17  C   UNL A   1      32.867  30.671  27.228  1.00  0.00     0.103 C 
ATOM     18  C   UNL A   1      32.762  32.107  27.645  1.00  0.00     0.270 C 
ATOM     19  C   UNL A   1      34.168  30.084  27.516  1.00  0.00     0.226 C 
ATOM     20  O   UNL A   1      31.666  32.672  27.612  1.00  0.00    -0.268 OA
ATOM     21  N   UNL A   1      35.234  30.698  27.847  1.00  0.00    -0.184 NA
ATOM     22  C   UNL A   1      35.214  32.054  28.063  1.00  0.00     0.210 C 
ATOM     23  S   UNL A   1      36.716  32.715  28.522  1.00  0.00    -0.038 S 
BRANCH  16  24
ATOM     24  C   UNL A   1      31.502  28.788  26.028  1.00  0.00     0.021 A 
ATOM     25  C   UNL A   1      31.037  28.653  24.680  1.00  0.00     0.130 A 
ATOM     26  C   UNL A   1      30.734  27.390  24.149  1.00  0.00     0.097 A 
ATOM     27  C   UNL A   1      30.838  26.294  24.970  1.00  0.00     0.169 A 
ATOM     28  C   UNL A   1      31.746  27.611  26.754  1.00  0.00     0.062 A 
ATOM     29  C   UNL A   1      31.343  26.400  26.235  1.00  0.00     0.166 A 
ATOM     30  O   UNL A   1      30.520  25.014  24.642  1.00  0.00    -0.453 OA
ATOM     31  O   UNL A   1      31.402  25.202  26.873  1.00  0.00    -0.454 OA
ATOM     32  C   UNL A   1      30.747  24.356  25.905  1.00  0.00     0.468 C 
BRANCH  25  33
ATOM     33  O   UNL A   1      31.054  29.754  23.855  1.00  0.00    -0.493 OA
BRANCH  33  34
ATOM     34  C   UNL A   1      29.780  30.267  23.437  1.00  0.00     0.226 C 
ATOM     35  C   UNL A   1      29.483  30.083  21.953  1.00  0.00     0.049 C 
ENDBRANCH  33  34
ENDBRANCH  25  33
ENDBRANCH  16  24
BRANCH  19  36
ATOM     36  O   UNL A   1      34.269  28.757  27.508  1.00  0.00    -0.493 OA
ATOM     37  H   UNL A   1      33.571  28.235  27.164  1.00  0.00     0.295 HD
ENDBRANCH  19  36
ENDBRANCH  10  15
ENDBRANCH   7   9
ENDBRANCH   6   7
ENDBRANCH   5   6
ENDBRANCH   4   5
ENDBRANCH   3   4
ENDBRANCH   2   3
ENDBRANCH   1   2
BRANCH   1  38
ATOM     38  O   UNL A   1      39.163  32.401  31.289  1.00  0.00    -0.377 OA
BRANCH  38  39
ATOM     39  C   UNL A   1      39.102  31.330  32.227  1.00  0.00     0.188 C 
BRANCH  39  40
ATOM     40  C   UNL A   1      38.888  29.865  31.772  1.00  0.00     0.188 C 
BRANCH  40  41
ATOM     41  O   UNL A   1      37.940  29.706  30.734  1.00  0.00    -0.376 OA
BRANCH  41  42
ATOM     42  C   UNL A   1      38.130  28.641  29.822  1.00  0.00     0.202 C 
BRANCH  42  43
ATOM     43  C   UNL A   1      38.759  28.978  28.463  1.00  0.00     0.261 C 
BRANCH  43  44
ATOM     44  O   UNL A   1      40.110  28.540  28.257  1.00  0.00    -0.460 OA
BRANCH  44  45
ATOM     45  C   UNL A   1      40.320  27.219  28.043  1.00  0.00     0.338 C 
ATOM     46  O   UNL A   1      39.563  26.420  27.547  1.00  0.00    -0.246 OA
BRANCH  45  47
ATOM     47  C   UNL A   1      41.743  26.965  28.369  1.00  0.00     0.060 A 
ATOM     48  C   UNL A   1      42.252  25.660  28.287  1.00  0.00     0.016 A 
ATOM     49  C   UNL A   1      42.580  28.030  28.706  1.00  0.00     0.016 A 
ATOM     50  C   UNL A   1      43.603  25.420  28.544  1.00  0.00     0.010 A 
ATOM     51  C   UNL A   1      43.924  27.784  28.989  1.00  0.00     0.010 A 
ATOM     52  C   UNL A   1      44.439  26.477  28.926  1.00  0.00    -0.014 A 
BRANCH  52  53
ATOM     53  C   UNL A   1      45.809  26.216  29.431  1.00  0.00     0.031 A 
ATOM     54  C   UNL A   1      45.969  25.807  30.867  1.00  0.00     0.074 A 
ATOM     55  C   UNL A   1      46.888  26.364  28.644  1.00  0.00     0.049 A 
ATOM     56  N   UNL A   1      47.058  25.646  31.573  1.00  0.00    -0.248 NA
ATOM     57  C   UNL A   1      44.725  25.552  31.609  1.00  0.00     0.031 C 
ATOM     58  C   UNL A   1      46.860  26.702  27.224  1.00  0.00     0.029 A 
ATOM     59  N   UNL A   1      48.225  26.264  28.943  1.00  0.00    -0.354 N 
ATOM     60  C   UNL A   1      46.631  25.278  32.842  1.00  0.00     0.074 A 
ATOM     61  C   UNL A   1      45.184  25.273  32.818  1.00  0.00     0.031 C 
ATOM     62  C   UNL A   1      48.124  26.798  26.776  1.00  0.00     0.029 A 
ATOM     63  C   UNL A   1      49.047  26.574  27.887  1.00  0.00     0.049 A 
ATOM     64  H   UNL A   1      48.562  25.997  29.828  1.00  0.00     0.167 HD
ATOM     65  C   UNL A   1      47.379  24.966  33.927  1.00  0.00     0.037 A 
ATOM     66  C   UNL A   1      50.390  26.693  27.839  1.00  0.00     0.037 A 
ATOM     67  C   UNL A   1      48.817  24.990  33.948  1.00  0.00     0.049 A 
ATOM     68  C   UNL A   1      51.198  26.459  29.094  1.00  0.00     0.074 A 
ATOM     69  C   UNL A   1      49.670  24.686  34.994  1.00  0.00     0.029 A 
ATOM     70  N   UNL A   1      49.614  25.357  32.873  1.00  0.00    -0.354 N 
ATOM     71  N   UNL A   1      50.793  26.091  30.286  1.00  0.00    -0.248 NA
ATOM     72  C   UNL A   1      52.650  26.666  28.996  1.00  0.00     0.031 C 
ATOM     73  C   UNL A   1      50.980  24.930  34.571  1.00  0.00     0.029 A 
ATOM     74  C   UNL A   1      50.949  25.323  33.242  1.00  0.00     0.049 A 
ATOM     75  H   UNL A   1      49.281  25.604  31.981  1.00  0.00     0.167 HD
ATOM     76  C   UNL A   1      51.938  25.991  31.067  1.00  0.00     0.074 A 
ATOM     77  C   UNL A   1      53.057  26.327  30.212  1.00  0.00     0.031 C 
ATOM     78  C   UNL A   1      52.054  25.652  32.375  1.00  0.00     0.037 A 
BRANCH  65  79
ATOM     79  C   UNL A   1      46.645  24.609  35.189  1.00  0.00     0.064 A 
ATOM     80  C   UNL A   1      46.205  25.591  36.091  1.00  0.00     0.173 A 
ATOM     81  C   UNL A   1      46.373  23.267  35.496  1.00  0.00     0.173 A 
ATOM     82  F   UNL A   1      46.452  26.887  35.853  1.00  0.00    -0.203 F 
ATOM     83  C   UNL A   1      45.553  25.238  37.270  1.00  0.00     0.198 A 
ATOM     84  C   UNL A   1      45.690  22.922  36.658  1.00  0.00     0.198 A 
ATOM     85  F   UNL A   1      46.766  22.290  34.666  1.00  0.00    -0.203 F 
ATOM     86  F   UNL A   1      45.199  26.188  38.147  1.00  0.00    -0.200 F 
ATOM     87  C   UNL A   1      45.291  23.906  37.550  1.00  0.00     0.200 A 
ATOM     88  F   UNL A   1      45.423  21.634  36.919  1.00  0.00    -0.200 F 
ATOM     89  F   UNL A   1      44.663  23.569  38.685  1.00  0.00    -0.200 F 
ENDBRANCH  65  79
BRANCH  66  90
ATOM     90  C   UNL A   1      51.063  27.067  26.566  1.00  0.00     0.064 A 
ATOM     91  C   UNL A   1      51.091  28.400  26.133  1.00  0.00     0.173 A 
ATOM     92  C   UNL A   1      51.668  26.104  25.744  1.00  0.00     0.173 A 
ATOM     93  F   UNL A   1      50.500  29.354  26.868  1.00  0.00    -0.203 F 
ATOM     94  C   UNL A   1      51.682  28.754  24.921  1.00  0.00     0.198 A 
ATOM     95  C   UNL A   1      52.287  26.463  24.548  1.00  0.00     0.198 A 
ATOM     96  F   UNL A   1      51.664  24.813  26.105  1.00  0.00    -0.203 F 
ATOM     97  F   UNL A   1      51.649  30.028  24.510  1.00  0.00    -0.200 F 
ATOM     98  C   UNL A   1      52.286  27.786  24.133  1.00  0.00     0.200 A 
ATOM     99  F   UNL A   1      52.878  25.526  23.793  1.00  0.00    -0.200 F 
ATOM    100  F   UNL A   1      52.857  28.126  22.969  1.00  0.00    -0.200 F 
ENDBRANCH  66  90
BRANCH  78 101
ATOM    101  C   UNL A   1      53.437  25.588  32.962  1.00  0.00     0.064 A 
ATOM    102  C   UNL A   1      54.186  24.402  32.960  1.00  0.00     0.173 A 
ATOM    103  C   UNL A   1      54.045  26.747  33.470  1.00  0.00     0.173 A 
ATOM    104  F   UNL A   1      53.647  23.264  32.499  1.00  0.00    -0.203 F 
ATOM    105  C   UNL A   1      55.485  24.375  33.461  1.00  0.00     0.198 A 
ATOM    106  C   UNL A   1      55.356  26.723  33.938  1.00  0.00     0.198 A 
ATOM    107  F   UNL A   1      53.377  27.910  33.488  1.00  0.00    -0.203 F 
ATOM    108  F   UNL A   1      56.167  23.222  33.487  1.00  0.00    -0.200 F 
ATOM    109  C   UNL A   1      56.073  25.537  33.938  1.00  0.00     0.200 A 
ATOM    110  F   UNL A   1      55.928  27.852  34.383  1.00  0.00    -0.200 F 
ATOM    111  F   UNL A   1      57.330  25.512  34.403  1.00  0.00    -0.200 F 
ENDBRANCH  78 101
ENDBRANCH  52  53
ENDBRANCH  45  47
ENDBRANCH  44  45
ENDBRANCH  43  44
ENDBRANCH  42  43
ENDBRANCH  41  42
ENDBRANCH  40  41
ENDBRANCH  39  40
ENDBRANCH  38  39
ENDBRANCH   1  38
TORSDOF 25
ENDMDL
