MODEL 1
REMARK VINA RESULT:     -11.3      0.000      0.000
REMARK SMILES Cc1ccnc(C(=O)c2[nH]c3ccc(OC(F)(F)F)cc3c2CC(=O)OCCOCCOCCOCCOC(=O)c2ccc(-c3c4nc(c(-c5c(F)c(F)c(F)c(F)c5F)c5ccc([nH]5)c(-c5c(F)c(F)c(F)c(F)c5F)c5nc(c(-c6c(F)c(F)c(F)c(F)c6F)c6ccc3[nH]6)C=C5)C=C4)cc2)c1
REMARK SMILES IDX 31 1 30 2 29 3 28 4 27 5 26 6 24 7 25 8 23 9 22 10 9 11
REMARK SMILES IDX 10 12 11 13 21 15 12 16 20 17 13 18 14 19 7 20 8 21 6 22
REMARK SMILES IDX 1 23 2 24 3 25 104 26 4 27 5 28 15 29 16 30 17 31 18 32
REMARK SMILES IDX 19 33 32 34 33 35 34 36 35 37 36 38 37 39 38 40 39 41 40 42
REMARK SMILES IDX 41 43 42 44 103 45 43 46 102 47 44 48 45 49 46 50 96 51
REMARK SMILES IDX 47 52 101 53 95 54 97 55 48 56 100 57 94 58 93 59 49 61
REMARK SMILES IDX 81 62 61 63 80 64 62 65 65 66 79 67 98 68 63 69 64 70 78 72
REMARK SMILES IDX 99 73 66 74 50 75 51 76 59 77 52 78 53 79 57 80 60 81 54 82
REMARK SMILES IDX 55 83 58 84 56 85 82 86 83 87 91 88 84 89 85 90 89 91 92 92
REMARK SMILES IDX 86 93 87 94 90 95 88 96 67 97 68 98 76 99 69 100 70 101
REMARK SMILES IDX 74 102 77 103 71 104 72 105 75 106 73 107
REMARK H PARENT 10 14 97 60 65 71
REMARK Flexibility Score: inf
ROOT
ATOM      1  C   UNL A   1      28.501  29.231  22.319  1.00  0.00     0.188 C 
ENDROOT
BRANCH   1   2
ATOM      2  C   UNL A   1      29.392  28.177  22.973  1.00  0.00     0.188 C 
BRANCH   2   3
ATOM      3  O   UNL A   1      28.822  26.908  23.219  1.00  0.00    -0.376 OA
BRANCH   3   4
ATOM      4  C   UNL A   1      28.883  26.411  24.554  1.00  0.00     0.202 C 
BRANCH   4   5
ATOM      5  C   UNL A   1      30.198  25.831  25.117  1.00  0.00     0.261 C 
BRANCH   5   6
ATOM      6  O   UNL A   1      30.106  25.252  26.448  1.00  0.00    -0.463 OA
BRANCH   6   7
ATOM      7  C   UNL A   1      30.414  23.934  26.539  1.00  0.00     0.310 C 
ATOM      8  O   UNL A   1      29.951  23.207  27.419  1.00  0.00    -0.252 OA
BRANCH   7   9
ATOM      9  C   UNL A   1      31.330  23.333  25.486  1.00  0.00     0.161 C 
BRANCH   9  10
ATOM     10  C   UNL A   1      32.817  23.148  25.701  1.00  0.00     0.000 A 
ATOM     11  C   UNL A   1      33.810  24.140  25.788  1.00  0.00     0.093 A 
ATOM     12  N   UNL A   1      34.993  23.476  26.048  1.00  0.00    -0.352 N 
ATOM     13  C   UNL A   1      34.882  22.159  25.669  1.00  0.00     0.046 A 
ATOM     14  H   UNL A   1      35.796  23.884  26.445  1.00  0.00     0.167 HD
ATOM     15  C   UNL A   1      33.528  21.918  25.467  1.00  0.00     0.008 A 
ATOM     16  C   UNL A   1      35.865  21.183  25.463  1.00  0.00     0.030 A 
ATOM     17  C   UNL A   1      33.142  20.645  24.996  1.00  0.00     0.057 A 
ATOM     18  C   UNL A   1      35.457  19.947  24.939  1.00  0.00     0.049 A 
ATOM     19  C   UNL A   1      34.113  19.685  24.678  1.00  0.00     0.130 A 
BRANCH  11  20
ATOM     20  C   UNL A   1      33.657  25.589  25.626  1.00  0.00     0.227 C 
ATOM     21  O   UNL A   1      33.386  26.332  26.571  1.00  0.00    -0.285 OA
BRANCH  20  22
ATOM     22  C   UNL A   1      33.754  26.253  24.295  1.00  0.00     0.113 A 
ATOM     23  C   UNL A   1      32.731  25.668  20.699  1.00  0.00     0.044 C 
ATOM     24  C   UNL A   1      33.230  26.315  21.957  1.00  0.00    -0.047 A 
ATOM     25  C   UNL A   1      33.419  27.700  21.998  1.00  0.00     0.023 A 
ATOM     26  C   UNL A   1      33.397  25.575  23.134  1.00  0.00     0.036 A 
ATOM     27  C   UNL A   1      33.800  28.285  23.193  1.00  0.00     0.112 A 
ATOM     28  N   UNL A   1      33.987  27.592  24.334  1.00  0.00    -0.253 NA
ENDBRANCH  20  22
ENDBRANCH  11  20
BRANCH  19  29
ATOM     29  O   UNL A   1      33.605  18.554  24.101  1.00  0.00    -0.406 OA
BRANCH  29  30
ATOM     30  C   UNL A   1      33.514  17.386  24.898  1.00  0.00     0.573 C 
ATOM     31  F   UNL A   1      34.725  16.830  25.112  1.00  0.00    -0.132 F 
ATOM     32  F   UNL A   1      32.930  17.660  26.083  1.00  0.00    -0.132 F 
ATOM     33  F   UNL A   1      32.748  16.479  24.251  1.00  0.00    -0.132 F 
ENDBRANCH  29  30
ENDBRANCH  19  29
ENDBRANCH   9  10
ENDBRANCH   7   9
ENDBRANCH   6   7
ENDBRANCH   5   6
ENDBRANCH   4   5
ENDBRANCH   3   4
ENDBRANCH   2   3
ENDBRANCH   1   2
BRANCH   1  34
ATOM     34  O   UNL A   1      27.796  30.141  23.147  1.00  0.00    -0.377 OA
BRANCH  34  35
ATOM     35  C   UNL A   1      28.012  31.537  23.002  1.00  0.00     0.188 C 
BRANCH  35  36
ATOM     36  C   UNL A   1      29.132  32.187  23.813  1.00  0.00     0.188 C 
BRANCH  36  37
ATOM     37  O   UNL A   1      29.977  31.341  24.596  1.00  0.00    -0.376 OA
BRANCH  37  38
ATOM     38  C   UNL A   1      30.785  31.916  25.618  1.00  0.00     0.202 C 
BRANCH  38  39
ATOM     39  C   UNL A   1      31.507  30.901  26.499  1.00  0.00     0.261 C 
BRANCH  39  40
ATOM     40  O   UNL A   1      32.925  31.118  26.479  1.00  0.00    -0.460 OA
BRANCH  40  41
ATOM     41  C   UNL A   1      33.370  32.110  27.282  1.00  0.00     0.338 C 
ATOM     42  O   UNL A   1      32.781  33.125  27.615  1.00  0.00    -0.246 OA
BRANCH  41  43
ATOM     43  C   UNL A   1      34.660  31.698  27.859  1.00  0.00     0.060 A 
ATOM     44  C   UNL A   1      34.801  30.371  28.286  1.00  0.00     0.016 A 
ATOM     45  C   UNL A   1      35.710  32.609  27.995  1.00  0.00     0.016 A 
ATOM     46  C   UNL A   1      35.994  29.951  28.866  1.00  0.00     0.010 A 
ATOM     47  C   UNL A   1      36.896  32.193  28.597  1.00  0.00     0.010 A 
ATOM     48  C   UNL A   1      37.033  30.871  29.052  1.00  0.00    -0.014 A 
BRANCH  48  49
ATOM     49  C   UNL A   1      38.209  30.502  29.864  1.00  0.00     0.031 A 
ATOM     50  C   UNL A   1      39.193  29.525  29.289  1.00  0.00     0.074 A 
ATOM     51  C   UNL A   1      38.377  31.016  31.092  1.00  0.00     0.049 A 
ATOM     52  N   UNL A   1      40.228  28.960  29.852  1.00  0.00    -0.248 NA
ATOM     53  C   UNL A   1      38.976  29.128  27.889  1.00  0.00     0.031 C 
ATOM     54  C   UNL A   1      37.508  32.011  31.717  1.00  0.00     0.029 A 
ATOM     55  N   UNL A   1      39.331  30.755  32.042  1.00  0.00    -0.354 N 
ATOM     56  C   UNL A   1      40.776  28.131  28.883  1.00  0.00     0.074 A 
ATOM     57  C   UNL A   1      39.952  28.252  27.701  1.00  0.00     0.031 C 
ATOM     58  C   UNL A   1      37.956  32.261  32.959  1.00  0.00     0.029 A 
ATOM     59  C   UNL A   1      39.114  31.410  33.228  1.00  0.00     0.049 A 
ATOM     60  H   UNL A   1      40.097  30.156  31.887  1.00  0.00     0.167 HD
ATOM     61  C   UNL A   1      41.870  27.342  28.981  1.00  0.00     0.037 A 
ATOM     62  C   UNL A   1      39.759  31.299  34.405  1.00  0.00     0.037 A 
ATOM     63  C   UNL A   1      42.676  27.234  30.166  1.00  0.00     0.049 A 
ATOM     64  C   UNL A   1      40.917  30.338  34.510  1.00  0.00     0.074 A 
ATOM     65  C   UNL A   1      43.824  26.489  30.364  1.00  0.00     0.029 A 
ATOM     66  N   UNL A   1      42.407  27.884  31.362  1.00  0.00    -0.354 N 
ATOM     67  N   UNL A   1      41.455  29.580  33.584  1.00  0.00    -0.248 NA
ATOM     68  C   UNL A   1      41.554  30.211  35.829  1.00  0.00     0.031 C 
ATOM     69  C   UNL A   1      44.212  26.635  31.700  1.00  0.00     0.029 A 
ATOM     70  C   UNL A   1      43.344  27.522  32.317  1.00  0.00     0.049 A 
ATOM     71  H   UNL A   1      41.661  28.509  31.511  1.00  0.00     0.167 HD
ATOM     72  C   UNL A   1      42.505  28.909  34.199  1.00  0.00     0.074 A 
ATOM     73  C   UNL A   1      42.542  29.366  35.572  1.00  0.00     0.031 C 
ATOM     74  C   UNL A   1      43.360  27.995  33.678  1.00  0.00     0.037 A 
BRANCH  61  75
ATOM     75  C   UNL A   1      42.236  26.503  27.792  1.00  0.00     0.064 A 
ATOM     76  C   UNL A   1      43.180  26.926  26.846  1.00  0.00     0.173 A 
ATOM     77  C   UNL A   1      41.666  25.231  27.625  1.00  0.00     0.173 A 
ATOM     78  F   UNL A   1      43.742  28.140  26.948  1.00  0.00    -0.203 F 
ATOM     79  C   UNL A   1      43.527  26.115  25.768  1.00  0.00     0.198 A 
ATOM     80  C   UNL A   1      42.037  24.410  26.564  1.00  0.00     0.198 A 
ATOM     81  F   UNL A   1      40.755  24.778  28.501  1.00  0.00    -0.203 F 
ATOM     82  F   UNL A   1      44.403  26.556  24.854  1.00  0.00    -0.200 F 
ATOM     83  C   UNL A   1      42.963  24.855  25.634  1.00  0.00     0.200 A 
ATOM     84  F   UNL A   1      41.499  23.189  26.443  1.00  0.00    -0.200 F 
ATOM     85  F   UNL A   1      43.310  24.070  24.604  1.00  0.00    -0.200 F 
ENDBRANCH  61  75
BRANCH  62  86
ATOM     86  C   UNL A   1      39.312  32.084  35.587  1.00  0.00     0.064 A 
ATOM     87  C   UNL A   1      39.804  33.375  35.822  1.00  0.00     0.173 A 
ATOM     88  C   UNL A   1      38.416  31.548  36.524  1.00  0.00     0.173 A 
ATOM     89  F   UNL A   1      40.683  33.922  34.969  1.00  0.00    -0.203 F 
ATOM     90  C   UNL A   1      39.438  34.089  36.961  1.00  0.00     0.198 A 
ATOM     91  C   UNL A   1      38.025  32.276  37.646  1.00  0.00     0.198 A 
ATOM     92  F   UNL A   1      37.918  30.315  36.351  1.00  0.00    -0.203 F 
ATOM     93  F   UNL A   1      39.970  35.297  37.191  1.00  0.00    -0.200 F 
ATOM     94  C   UNL A   1      38.545  33.542  37.870  1.00  0.00     0.200 A 
ATOM     95  F   UNL A   1      37.153  31.747  38.515  1.00  0.00    -0.200 F 
ATOM     96  F   UNL A   1      38.197  34.228  38.967  1.00  0.00    -0.200 F 
ENDBRANCH  62  86
BRANCH  74  97
ATOM     97  C   UNL A   1      44.423  27.449  34.589  1.00  0.00     0.064 A 
ATOM     98  C   UNL A   1      44.239  26.253  35.299  1.00  0.00     0.173 A 
ATOM     99  C   UNL A   1      45.658  28.103  34.712  1.00  0.00     0.173 A 
ATOM    100  F   UNL A   1      43.071  25.597  35.226  1.00  0.00    -0.203 F 
ATOM    101  C   UNL A   1      45.243  25.748  36.121  1.00  0.00     0.198 A 
ATOM    102  C   UNL A   1      46.673  27.575  35.506  1.00  0.00     0.198 A 
ATOM    103  F   UNL A   1      45.889  29.244  34.046  1.00  0.00    -0.203 F 
ATOM    104  F   UNL A   1      45.026  24.631  36.830  1.00  0.00    -0.200 F 
ATOM    105  C   UNL A   1      46.460  26.404  36.216  1.00  0.00     0.200 A 
ATOM    106  F   UNL A   1      47.855  28.201  35.581  1.00  0.00    -0.200 F 
ATOM    107  F   UNL A   1      47.431  25.909  36.998  1.00  0.00    -0.200 F 
ENDBRANCH  74  97
ENDBRANCH  48  49
ENDBRANCH  41  43
ENDBRANCH  40  41
ENDBRANCH  39  40
ENDBRANCH  38  39
ENDBRANCH  37  38
ENDBRANCH  36  37
ENDBRANCH  35  36
ENDBRANCH  34  35
ENDBRANCH   1  34
TORSDOF 25
ENDMDL
MODEL 2
REMARK VINA RESULT:     -11.2      2.484      7.827
REMARK SMILES Cc1ccnc(C(=O)c2[nH]c3ccc(OC(F)(F)F)cc3c2CC(=O)OCCOCCOCCOCCOC(=O)c2ccc(-c3c4nc(c(-c5c(F)c(F)c(F)c(F)c5F)c5ccc([nH]5)c(-c5c(F)c(F)c(F)c(F)c5F)c5nc(c(-c6c(F)c(F)c(F)c(F)c6F)c6ccc3[nH]6)C=C5)C=C4)cc2)c1
REMARK SMILES IDX 31 1 30 2 29 3 28 4 27 5 26 6 24 7 25 8 23 9 22 10 9 11
REMARK SMILES IDX 10 12 11 13 21 15 12 16 20 17 13 18 14 19 7 20 8 21 6 22
REMARK SMILES IDX 1 23 2 24 3 25 104 26 4 27 5 28 15 29 16 30 17 31 18 32
REMARK SMILES IDX 19 33 32 34 33 35 34 36 35 37 36 38 37 39 38 40 39 41 40 42
REMARK SMILES IDX 41 43 42 44 103 45 43 46 102 47 44 48 45 49 46 50 96 51
REMARK SMILES IDX 47 52 101 53 95 54 97 55 48 56 100 57 94 58 93 59 49 61
REMARK SMILES IDX 81 62 61 63 80 64 62 65 65 66 79 67 98 68 63 69 64 70 78 72
REMARK SMILES IDX 99 73 66 74 50 75 51 76 59 77 52 78 53 79 57 80 60 81 54 82
REMARK SMILES IDX 55 83 58 84 56 85 82 86 83 87 91 88 84 89 85 90 89 91 92 92
REMARK SMILES IDX 86 93 87 94 90 95 88 96 67 97 68 98 76 99 69 100 70 101
REMARK SMILES IDX 74 102 77 103 71 104 72 105 75 106 73 107
REMARK H PARENT 10 14 97 60 65 71
REMARK Flexibility Score: inf
ROOT
ATOM      1  C   UNL A   1      33.912  30.592  27.034  1.00  0.00     0.188 C 
ENDROOT
BRANCH   1   2
ATOM      2  C   UNL A   1      32.809  29.554  27.228  1.00  0.00     0.188 C 
BRANCH   2   3
ATOM      3  O   UNL A   1      32.575  28.650  26.167  1.00  0.00    -0.376 OA
BRANCH   3   4
ATOM      4  C   UNL A   1      31.699  27.555  26.422  1.00  0.00     0.202 C 
BRANCH   4   5
ATOM      5  C   UNL A   1      32.257  26.125  26.585  1.00  0.00     0.261 C 
BRANCH   5   6
ATOM      6  O   UNL A   1      31.258  25.072  26.680  1.00  0.00    -0.463 OA
BRANCH   6   7
ATOM      7  C   UNL A   1      31.742  23.808  26.767  1.00  0.00     0.310 C 
ATOM      8  O   UNL A   1      31.307  22.989  27.579  1.00  0.00    -0.252 OA
BRANCH   7   9
ATOM      9  C   UNL A   1      32.828  23.382  25.794  1.00  0.00     0.161 C 
BRANCH   9  10
ATOM     10  C   UNL A   1      32.525  22.789  24.434  1.00  0.00     0.000 A 
ATOM     11  C   UNL A   1      31.758  23.348  23.396  1.00  0.00     0.093 A 
ATOM     12  N   UNL A   1      31.830  22.455  22.344  1.00  0.00    -0.352 N 
ATOM     13  C   UNL A   1      32.184  21.211  22.810  1.00  0.00     0.046 A 
ATOM     14  H   UNL A   1      31.654  22.677  21.401  1.00  0.00     0.167 HD
ATOM     15  C   UNL A   1      32.645  21.392  24.109  1.00  0.00     0.008 A 
ATOM     16  C   UNL A   1      32.104  19.953  22.202  1.00  0.00     0.030 A 
ATOM     17  C   UNL A   1      33.008  20.247  24.850  1.00  0.00     0.057 A 
ATOM     18  C   UNL A   1      32.415  18.829  22.983  1.00  0.00     0.049 A 
ATOM     19  C   UNL A   1      32.836  18.967  24.305  1.00  0.00     0.130 A 
BRANCH  11  20
ATOM     20  C   UNL A   1      31.010  24.608  23.402  1.00  0.00     0.227 C 
ATOM     21  O   UNL A   1      29.826  24.669  23.742  1.00  0.00    -0.285 OA
BRANCH  20  22
ATOM     22  C   UNL A   1      31.610  25.890  22.934  1.00  0.00     0.113 A 
ATOM     23  C   UNL A   1      30.633  29.507  22.405  1.00  0.00     0.044 C 
ATOM     24  C   UNL A   1      31.436  28.248  22.541  1.00  0.00    -0.047 A 
ATOM     25  C   UNL A   1      32.830  28.319  22.634  1.00  0.00     0.023 A 
ATOM     26  C   UNL A   1      30.811  27.005  22.699  1.00  0.00     0.036 A 
ATOM     27  C   UNL A   1      33.544  27.153  22.843  1.00  0.00     0.112 A 
ATOM     28  N   UNL A   1      32.968  25.942  22.978  1.00  0.00    -0.253 NA
ENDBRANCH  20  22
ENDBRANCH  11  20
BRANCH  19  29
ATOM     29  O   UNL A   1      33.093  17.951  25.184  1.00  0.00    -0.406 OA
BRANCH  29  30
ATOM     30  C   UNL A   1      33.968  16.918  24.765  1.00  0.00     0.573 C 
ATOM     31  F   UNL A   1      33.431  16.182  23.768  1.00  0.00    -0.132 F 
ATOM     32  F   UNL A   1      35.151  17.426  24.361  1.00  0.00    -0.132 F 
ATOM     33  F   UNL A   1      34.197  16.095  25.813  1.00  0.00    -0.132 F 
ENDBRANCH  29  30
ENDBRANCH  19  29
ENDBRANCH   9  10
ENDBRANCH   7   9
ENDBRANCH   6   7
ENDBRANCH   5   6
ENDBRANCH   4   5
ENDBRANCH   3   4
ENDBRANCH   2   3
ENDBRANCH   1   2
BRANCH   1  34
ATOM     34  O   UNL A   1      34.521  31.165  28.180  1.00  0.00    -0.377 OA
BRANCH  34  35
ATOM     35  C   UNL A   1      35.504  32.178  28.023  1.00  0.00     0.188 C 
BRANCH  35  36
ATOM     36  C   UNL A   1      35.436  33.404  28.932  1.00  0.00     0.188 C 
BRANCH  36  37
ATOM     37  O   UNL A   1      34.149  33.922  29.271  1.00  0.00    -0.376 OA
BRANCH  37  38
ATOM     38  C   UNL A   1      33.739  35.176  28.735  1.00  0.00     0.202 C 
BRANCH  38  39
ATOM     39  C   UNL A   1      32.946  36.049  29.703  1.00  0.00     0.261 C 
BRANCH  39  40
ATOM     40  O   UNL A   1      32.486  35.285  30.827  1.00  0.00    -0.460 OA
BRANCH  40  41
ATOM     41  C   UNL A   1      32.784  35.803  32.039  1.00  0.00     0.338 C 
ATOM     42  O   UNL A   1      32.158  36.640  32.671  1.00  0.00    -0.246 OA
BRANCH  41  43
ATOM     43  C   UNL A   1      33.930  35.064  32.592  1.00  0.00     0.060 A 
ATOM     44  C   UNL A   1      35.205  35.632  32.474  1.00  0.00     0.016 A 
ATOM     45  C   UNL A   1      33.755  33.820  33.204  1.00  0.00     0.016 A 
ATOM     46  C   UNL A   1      36.317  34.950  32.956  1.00  0.00     0.010 A 
ATOM     47  C   UNL A   1      34.872  33.127  33.665  1.00  0.00     0.010 A 
ATOM     48  C   UNL A   1      36.156  33.681  33.523  1.00  0.00    -0.014 A 
BRANCH  48  49
ATOM     49  C   UNL A   1      37.340  32.853  33.830  1.00  0.00     0.031 A 
ATOM     50  C   UNL A   1      38.089  33.126  35.102  1.00  0.00     0.074 A 
ATOM     51  C   UNL A   1      37.741  31.897  32.978  1.00  0.00     0.049 A 
ATOM     52  N   UNL A   1      39.216  32.620  35.526  1.00  0.00    -0.248 NA
ATOM     53  C   UNL A   1      37.485  34.107  36.018  1.00  0.00     0.031 C 
ATOM     54  C   UNL A   1      37.052  31.520  31.746  1.00  0.00     0.029 A 
ATOM     55  N   UNL A   1      38.842  31.080  33.015  1.00  0.00    -0.354 N 
ATOM     56  C   UNL A   1      39.464  33.229  36.748  1.00  0.00     0.074 A 
ATOM     57  C   UNL A   1      38.381  34.155  36.992  1.00  0.00     0.031 C 
ATOM     58  C   UNL A   1      37.760  30.559  31.129  1.00  0.00     0.029 A 
ATOM     59  C   UNL A   1      38.971  30.287  31.901  1.00  0.00     0.049 A 
ATOM     60  H   UNL A   1      39.478  31.063  33.767  1.00  0.00     0.167 HD
ATOM     61  C   UNL A   1      40.508  33.029  37.585  1.00  0.00     0.037 A 
ATOM     62  C   UNL A   1      39.976  29.469  31.537  1.00  0.00     0.037 A 
ATOM     63  C   UNL A   1      41.577  32.104  37.324  1.00  0.00     0.049 A 
ATOM     64  C   UNL A   1      41.172  29.340  32.447  1.00  0.00     0.074 A 
ATOM     65  C   UNL A   1      42.667  31.799  38.119  1.00  0.00     0.029 A 
ATOM     66  N   UNL A   1      41.696  31.344  36.170  1.00  0.00    -0.354 N 
ATOM     67  N   UNL A   1      41.390  29.891  33.617  1.00  0.00    -0.248 NA
ATOM     68  C   UNL A   1      42.268  28.477  31.980  1.00  0.00     0.031 C 
ATOM     69  C   UNL A   1      43.481  30.905  37.416  1.00  0.00     0.029 A 
ATOM     70  C   UNL A   1      42.865  30.602  36.211  1.00  0.00     0.049 A 
ATOM     71  H   UNL A   1      41.046  31.333  35.430  1.00  0.00     0.167 HD
ATOM     72  C   UNL A   1      42.629  29.424  34.037  1.00  0.00     0.074 A 
ATOM     73  C   UNL A   1      43.106  28.527  33.005  1.00  0.00     0.031 C 
ATOM     74  C   UNL A   1      43.315  29.713  35.170  1.00  0.00     0.037 A 
BRANCH  61  75
ATOM     75  C   UNL A   1      40.567  33.851  38.839  1.00  0.00     0.064 A 
ATOM     76  C   UNL A   1      41.265  35.066  38.899  1.00  0.00     0.173 A 
ATOM     77  C   UNL A   1      39.872  33.437  39.986  1.00  0.00     0.173 A 
ATOM     78  F   UNL A   1      41.960  35.499  37.836  1.00  0.00    -0.203 F 
ATOM     79  C   UNL A   1      41.278  35.827  40.065  1.00  0.00     0.198 A 
ATOM     80  C   UNL A   1      39.863  34.214  41.141  1.00  0.00     0.198 A 
ATOM     81  F   UNL A   1      39.190  32.281  39.983  1.00  0.00    -0.203 F 
ATOM     82  F   UNL A   1      41.984  36.966  40.113  1.00  0.00    -0.200 F 
ATOM     83  C   UNL A   1      40.570  35.406  41.181  1.00  0.00     0.200 A 
ATOM     84  F   UNL A   1      39.168  33.811  42.213  1.00  0.00    -0.200 F 
ATOM     85  F   UNL A   1      40.572  36.148  42.298  1.00  0.00    -0.200 F 
ENDBRANCH  61  75
BRANCH  62  86
ATOM     86  C   UNL A   1      39.921  28.737  30.243  1.00  0.00     0.064 A 
ATOM     87  C   UNL A   1      39.382  27.445  30.169  1.00  0.00     0.173 A 
ATOM     88  C   UNL A   1      40.439  29.294  29.065  1.00  0.00     0.173 A 
ATOM     89  F   UNL A   1      38.898  26.857  31.274  1.00  0.00    -0.203 F 
ATOM     90  C   UNL A   1      39.388  26.729  28.974  1.00  0.00     0.198 A 
ATOM     91  C   UNL A   1      40.412  28.591  27.862  1.00  0.00     0.198 A 
ATOM     92  F   UNL A   1      40.970  30.526  29.079  1.00  0.00    -0.203 F 
ATOM     93  F   UNL A   1      38.921  25.473  28.946  1.00  0.00    -0.200 F 
ATOM     94  C   UNL A   1      39.897  27.304  27.819  1.00  0.00     0.200 A 
ATOM     95  F   UNL A   1      40.896  29.156  26.748  1.00  0.00    -0.200 F 
ATOM     96  F   UNL A   1      39.905  26.614  26.671  1.00  0.00    -0.200 F 
ENDBRANCH  62  86
BRANCH  74  97
ATOM     97  C   UNL A   1      44.640  29.033  35.366  1.00  0.00     0.064 A 
ATOM     98  C   UNL A   1      45.840  29.626  34.948  1.00  0.00     0.173 A 
ATOM     99  C   UNL A   1      44.714  27.795  36.025  1.00  0.00     0.173 A 
ATOM    100  F   UNL A   1      45.823  30.802  34.302  1.00  0.00    -0.203 F 
ATOM    101  C   UNL A   1      47.063  28.994  35.157  1.00  0.00     0.198 A 
ATOM    102  C   UNL A   1      45.941  27.183  36.264  1.00  0.00     0.198 A 
ATOM    103  F   UNL A   1      43.597  27.190  36.454  1.00  0.00    -0.203 F 
ATOM    104  F   UNL A   1      48.192  29.556  34.704  1.00  0.00    -0.200 F 
ATOM    105  C   UNL A   1      47.112  27.779  35.823  1.00  0.00     0.200 A 
ATOM    106  F   UNL A   1      45.988  26.018  36.925  1.00  0.00    -0.200 F 
ATOM    107  F   UNL A   1      48.292  27.177  36.036  1.00  0.00    -0.200 F 
ENDBRANCH  74  97
ENDBRANCH  48  49
ENDBRANCH  41  43
ENDBRANCH  40  41
ENDBRANCH  39  40
ENDBRANCH  38  39
ENDBRANCH  37  38
ENDBRANCH  36  37
ENDBRANCH  35  36
ENDBRANCH  34  35
ENDBRANCH   1  34
TORSDOF 25
ENDMDL
MODEL 3
REMARK VINA RESULT:     -11.2      3.053      8.412
REMARK SMILES Cc1ccnc(C(=O)c2[nH]c3ccc(OC(F)(F)F)cc3c2CC(=O)OCCOCCOCCOCCOC(=O)c2ccc(-c3c4nc(c(-c5c(F)c(F)c(F)c(F)c5F)c5ccc([nH]5)c(-c5c(F)c(F)c(F)c(F)c5F)c5nc(c(-c6c(F)c(F)c(F)c(F)c6F)c6ccc3[nH]6)C=C5)C=C4)cc2)c1
REMARK SMILES IDX 31 1 30 2 29 3 28 4 27 5 26 6 24 7 25 8 23 9 22 10 9 11
REMARK SMILES IDX 10 12 11 13 21 15 12 16 20 17 13 18 14 19 7 20 8 21 6 22
REMARK SMILES IDX 1 23 2 24 3 25 104 26 4 27 5 28 15 29 16 30 17 31 18 32
REMARK SMILES IDX 19 33 32 34 33 35 34 36 35 37 36 38 37 39 38 40 39 41 40 42
REMARK SMILES IDX 41 43 42 44 103 45 43 46 102 47 44 48 45 49 46 50 96 51
REMARK SMILES IDX 47 52 101 53 95 54 97 55 48 56 100 57 94 58 93 59 49 61
REMARK SMILES IDX 81 62 61 63 80 64 62 65 65 66 79 67 98 68 63 69 64 70 78 72
REMARK SMILES IDX 99 73 66 74 50 75 51 76 59 77 52 78 53 79 57 80 60 81 54 82
REMARK SMILES IDX 55 83 58 84 56 85 82 86 83 87 91 88 84 89 85 90 89 91 92 92
REMARK SMILES IDX 86 93 87 94 90 95 88 96 67 97 68 98 76 99 69 100 70 101
REMARK SMILES IDX 74 102 77 103 71 104 72 105 75 106 73 107
REMARK H PARENT 10 14 97 60 65 71
REMARK Flexibility Score: inf
ROOT
ATOM      1  C   UNL A   1      33.691  30.644  27.102  1.00  0.00     0.188 C 
ENDROOT
BRANCH   1   2
ATOM      2  C   UNL A   1      33.151  29.261  27.459  1.00  0.00     0.188 C 
BRANCH   2   3
ATOM      3  O   UNL A   1      32.386  28.591  26.479  1.00  0.00    -0.376 OA
BRANCH   3   4
ATOM      4  C   UNL A   1      31.543  27.528  26.920  1.00  0.00     0.202 C 
BRANCH   4   5
ATOM      5  C   UNL A   1      31.704  26.107  26.340  1.00  0.00     0.261 C 
BRANCH   5   6
ATOM      6  O   UNL A   1      30.578  25.213  26.558  1.00  0.00    -0.463 OA
BRANCH   6   7
ATOM      7  C   UNL A   1      30.875  23.889  26.589  1.00  0.00     0.310 C 
ATOM      8  O   UNL A   1      31.238  23.317  27.618  1.00  0.00    -0.252 OA
BRANCH   7   9
ATOM      9  C   UNL A   1      30.708  23.083  25.312  1.00  0.00     0.161 C 
BRANCH   9  10
ATOM     10  C   UNL A   1      31.701  23.138  24.170  1.00  0.00     0.000 A 
ATOM     11  C   UNL A   1      32.935  22.472  24.063  1.00  0.00     0.093 A 
ATOM     12  N   UNL A   1      33.437  22.794  22.816  1.00  0.00    -0.352 N 
ATOM     13  C   UNL A   1      32.843  23.947  22.358  1.00  0.00     0.046 A 
ATOM     14  H   UNL A   1      34.118  22.276  22.329  1.00  0.00     0.167 HD
ATOM     15  C   UNL A   1      31.740  24.174  23.172  1.00  0.00     0.008 A 
ATOM     16  C   UNL A   1      33.210  24.810  21.319  1.00  0.00     0.030 A 
ATOM     17  C   UNL A   1      30.987  25.349  22.959  1.00  0.00     0.057 A 
ATOM     18  C   UNL A   1      32.479  25.999  21.169  1.00  0.00     0.049 A 
ATOM     19  C   UNL A   1      31.395  26.285  21.997  1.00  0.00     0.130 A 
BRANCH  11  20
ATOM     20  C   UNL A   1      33.591  21.618  25.057  1.00  0.00     0.227 C 
ATOM     21  O   UNL A   1      32.964  20.823  25.759  1.00  0.00    -0.285 OA
BRANCH  20  22
ATOM     22  C   UNL A   1      35.055  21.700  25.332  1.00  0.00     0.113 A 
ATOM     23  C   UNL A   1      38.183  19.607  24.949  1.00  0.00     0.044 C 
ATOM     24  C   UNL A   1      37.254  20.757  25.198  1.00  0.00    -0.047 A 
ATOM     25  C   UNL A   1      37.766  22.055  25.299  1.00  0.00     0.023 A 
ATOM     26  C   UNL A   1      35.865  20.576  25.211  1.00  0.00     0.036 A 
ATOM     27  C   UNL A   1      36.883  23.110  25.444  1.00  0.00     0.112 A 
ATOM     28  N   UNL A   1      35.544  22.960  25.480  1.00  0.00    -0.253 NA
ENDBRANCH  20  22
ENDBRANCH  11  20
BRANCH  19  29
ATOM     29  O   UNL A   1      30.657  27.437  21.998  1.00  0.00    -0.406 OA
BRANCH  29  30
ATOM     30  C   UNL A   1      30.956  28.414  22.979  1.00  0.00     0.573 C 
ATOM     31  F   UNL A   1      30.760  29.667  22.513  1.00  0.00    -0.132 F 
ATOM     32  F   UNL A   1      30.208  28.226  24.086  1.00  0.00    -0.132 F 
ATOM     33  F   UNL A   1      32.258  28.297  23.324  1.00  0.00    -0.132 F 
ENDBRANCH  29  30
ENDBRANCH  19  29
ENDBRANCH   9  10
ENDBRANCH   7   9
ENDBRANCH   6   7
ENDBRANCH   5   6
ENDBRANCH   4   5
ENDBRANCH   3   4
ENDBRANCH   2   3
ENDBRANCH   1   2
BRANCH   1  34
ATOM     34  O   UNL A   1      34.068  31.523  28.150  1.00  0.00    -0.377 OA
BRANCH  34  35
ATOM     35  C   UNL A   1      35.279  32.259  28.051  1.00  0.00     0.188 C 
BRANCH  35  36
ATOM     36  C   UNL A   1      35.260  33.742  28.417  1.00  0.00     0.188 C 
BRANCH  36  37
ATOM     37  O   UNL A   1      34.087  34.498  28.110  1.00  0.00    -0.376 OA
BRANCH  37  38
ATOM     38  C   UNL A   1      34.066  35.895  28.385  1.00  0.00     0.202 C 
BRANCH  38  39
ATOM     39  C   UNL A   1      32.907  36.348  29.267  1.00  0.00     0.261 C 
BRANCH  39  40
ATOM     40  O   UNL A   1      32.556  35.335  30.219  1.00  0.00    -0.460 OA
BRANCH  40  41
ATOM     41  C   UNL A   1      32.657  35.700  31.517  1.00  0.00     0.338 C 
ATOM     42  O   UNL A   1      31.888  36.394  32.161  1.00  0.00    -0.246 OA
BRANCH  41  43
ATOM     43  C   UNL A   1      33.787  34.974  32.118  1.00  0.00     0.060 A 
ATOM     44  C   UNL A   1      35.071  35.519  31.987  1.00  0.00     0.016 A 
ATOM     45  C   UNL A   1      33.590  33.763  32.786  1.00  0.00     0.016 A 
ATOM     46  C   UNL A   1      36.169  34.848  32.514  1.00  0.00     0.010 A 
ATOM     47  C   UNL A   1      34.693  33.079  33.294  1.00  0.00     0.010 A 
ATOM     48  C   UNL A   1      35.985  33.609  33.140  1.00  0.00    -0.014 A 
BRANCH  48  49
ATOM     49  C   UNL A   1      37.155  32.783  33.500  1.00  0.00     0.031 A 
ATOM     50  C   UNL A   1      37.853  33.064  34.797  1.00  0.00     0.074 A 
ATOM     51  C   UNL A   1      37.588  31.819  32.672  1.00  0.00     0.049 A 
ATOM     52  N   UNL A   1      38.962  32.560  35.270  1.00  0.00    -0.248 NA
ATOM     53  C   UNL A   1      37.215  34.053  35.681  1.00  0.00     0.031 C 
ATOM     54  C   UNL A   1      36.947  31.434  31.416  1.00  0.00     0.029 A 
ATOM     55  N   UNL A   1      38.685  31.001  32.758  1.00  0.00    -0.354 N 
ATOM     56  C   UNL A   1      39.163  33.179  36.496  1.00  0.00     0.074 A 
ATOM     57  C   UNL A   1      38.072  34.108  36.690  1.00  0.00     0.031 C 
ATOM     58  C   UNL A   1      37.677  30.466  30.835  1.00  0.00     0.029 A 
ATOM     59  C   UNL A   1      38.856  30.199  31.657  1.00  0.00     0.049 A 
ATOM     60  H   UNL A   1      39.290  30.989  33.534  1.00  0.00     0.167 HD
ATOM     61  C   UNL A   1      40.172  32.985  37.375  1.00  0.00     0.037 A 
ATOM     62  C   UNL A   1      39.874  29.377  31.339  1.00  0.00     0.037 A 
ATOM     63  C   UNL A   1      41.249  32.056  37.164  1.00  0.00     0.049 A 
ATOM     64  C   UNL A   1      41.033  29.254  32.296  1.00  0.00     0.074 A 
ATOM     65  C   UNL A   1      42.307  31.756  38.003  1.00  0.00     0.029 A 
ATOM     66  N   UNL A   1      41.413  31.287  36.021  1.00  0.00    -0.354 N 
ATOM     67  N   UNL A   1      41.206  29.814  33.469  1.00  0.00    -0.248 NA
ATOM     68  C   UNL A   1      42.145  28.386  31.880  1.00  0.00     0.031 C 
ATOM     69  C   UNL A   1      43.146  30.855  37.339  1.00  0.00     0.029 A 
ATOM     70  C   UNL A   1      42.579  30.544  36.114  1.00  0.00     0.049 A 
ATOM     71  H   UNL A   1      40.792  31.271  35.256  1.00  0.00     0.167 HD
ATOM     72  C   UNL A   1      42.427  29.349  33.941  1.00  0.00     0.074 A 
ATOM     73  C   UNL A   1      42.943  28.443  32.936  1.00  0.00     0.031 C 
ATOM     74  C   UNL A   1      43.068  29.646  35.099  1.00  0.00     0.037 A 
BRANCH  61  75
ATOM     75  C   UNL A   1      40.183  33.816  38.624  1.00  0.00     0.064 A 
ATOM     76  C   UNL A   1      39.483  33.434  39.777  1.00  0.00     0.173 A 
ATOM     77  C   UNL A   1      40.949  34.992  38.680  1.00  0.00     0.173 A 
ATOM     78  F   UNL A   1      38.723  32.329  39.771  1.00  0.00    -0.203 F 
ATOM     79  C   UNL A   1      39.536  34.207  40.935  1.00  0.00     0.198 A 
ATOM     80  C   UNL A   1      41.023  35.745  39.848  1.00  0.00     0.198 A 
ATOM     81  F   UNL A   1      41.637  35.403  37.604  1.00  0.00    -0.203 F 
ATOM     82  F   UNL A   1      38.827  33.844  42.013  1.00  0.00    -0.200 F 
ATOM     83  C   UNL A   1      40.313  35.355  40.973  1.00  0.00     0.200 A 
ATOM     84  F   UNL A   1      41.784  36.847  39.885  1.00  0.00    -0.200 F 
ATOM     85  F   UNL A   1      40.374  36.089  42.093  1.00  0.00    -0.200 F 
ENDBRANCH  61  75
BRANCH  62  86
ATOM     86  C   UNL A   1      39.869  28.635  30.050  1.00  0.00     0.064 A 
ATOM     87  C   UNL A   1      39.325  27.346  29.963  1.00  0.00     0.173 A 
ATOM     88  C   UNL A   1      40.440  29.179  28.890  1.00  0.00     0.173 A 
ATOM     89  F   UNL A   1      38.790  26.771  31.051  1.00  0.00    -0.203 F 
ATOM     90  C   UNL A   1      39.376  26.620  28.775  1.00  0.00     0.198 A 
ATOM     91  C   UNL A   1      40.459  28.467  27.693  1.00  0.00     0.198 A 
ATOM     92  F   UNL A   1      40.979  30.407  28.917  1.00  0.00    -0.203 F 
ATOM     93  F   UNL A   1      38.902  25.368  28.737  1.00  0.00    -0.200 F 
ATOM     94  C   UNL A   1      39.938  27.183  27.638  1.00  0.00     0.200 A 
ATOM     95  F   UNL A   1      40.994  29.019  26.596  1.00  0.00    -0.200 F 
ATOM     96  F   UNL A   1      39.990  26.483  26.497  1.00  0.00    -0.200 F 
ENDBRANCH  62  86
BRANCH  74  97
ATOM     97  C   UNL A   1      44.383  28.965  35.352  1.00  0.00     0.064 A 
ATOM     98  C   UNL A   1      44.454  27.715  35.983  1.00  0.00     0.173 A 
ATOM     99  C   UNL A   1      45.582  29.548  34.911  1.00  0.00     0.173 A 
ATOM    100  F   UNL A   1      43.339  27.122  36.435  1.00  0.00    -0.203 F 
ATOM    101  C   UNL A   1      45.679  27.086  36.189  1.00  0.00     0.198 A 
ATOM    102  C   UNL A   1      46.801  28.900  35.087  1.00  0.00     0.198 A 
ATOM    103  F   UNL A   1      45.568  30.738  34.293  1.00  0.00    -0.203 F 
ATOM    104  F   UNL A   1      45.728  25.915  36.840  1.00  0.00    -0.200 F 
ATOM    105  C   UNL A   1      46.849  27.674  35.732  1.00  0.00     0.200 A 
ATOM    106  F   UNL A   1      47.928  29.461  34.628  1.00  0.00    -0.200 F 
ATOM    107  F   UNL A   1      48.026  27.061  35.920  1.00  0.00    -0.200 F 
ENDBRANCH  74  97
ENDBRANCH  48  49
ENDBRANCH  41  43
ENDBRANCH  40  41
ENDBRANCH  39  40
ENDBRANCH  38  39
ENDBRANCH  37  38
ENDBRANCH  36  37
ENDBRANCH  35  36
ENDBRANCH  34  35
ENDBRANCH   1  34
TORSDOF 25
ENDMDL
