MODEL 1
REMARK VINA RESULT:     -10.5      0.000      0.000
REMARK SMILES CC(C)C[C@H](C(=O)OCCOCCOCCOCCOC(=O)c1ccc(-c2c3nc(c(-c4c(F)c(F)c(F)c(F)c4F)c4ccc([nH]4)c(-c4c(F)c(F)c(F)c(F)c4F)c4nc(c(-c5c(F)c(F)c(F)c(F)c5F)c5ccc2[nH]5)C=C4)C=C3)cc1)N1C(=O)/C(=C2\C(=O)Nc3ccc(Br)cc32)SC1=S
REMARK SMILES IDX 14 1 13 2 12 3 11 4 10 5 9 6 8 7 6 8 7 9 5 10 4 11 2 12 1 13
REMARK SMILES IDX 3 14 86 15 87 16 102 17 88 18 89 19 101 20 103 21 90 22
REMARK SMILES IDX 91 23 100 24 92 25 93 26 94 27 99 28 95 30 97 31 96 32 98 33
REMARK SMILES IDX 15 34 16 35 17 36 18 37 19 38 20 39 21 40 22 41 23 42 24 43
REMARK SMILES IDX 85 44 25 45 84 46 26 47 27 48 28 49 78 50 29 51 83 52 77 53
REMARK SMILES IDX 79 54 30 55 82 56 76 57 75 58 31 60 63 61 43 62 62 63 44 64
REMARK SMILES IDX 47 65 61 66 80 67 45 68 46 69 60 71 81 72 48 73 32 74 33 75
REMARK SMILES IDX 41 76 34 77 35 78 39 79 42 80 36 81 37 82 40 83 38 84 64 85
REMARK SMILES IDX 65 86 73 87 66 88 67 89 71 90 74 91 68 92 69 93 72 94 70 95
REMARK SMILES IDX 49 96 50 97 58 98 51 99 52 100 56 101 59 102 53 103 54 104
REMARK SMILES IDX 57 105 55 106
REMARK H PARENT 93 29 79 59 47 70
REMARK Flexibility Score: inf
ROOT
ATOM      1  O   UNL A   1      39.788  23.000  26.518  1.00  0.00    -0.377 OA
ENDROOT
BRANCH   1   2
ATOM      2  C   UNL A   1      38.434  22.978  26.116  1.00  0.00     0.188 C 
BRANCH   2   3
ATOM      3  C   UNL A   1      37.858  21.706  25.466  1.00  0.00     0.188 C 
BRANCH   3   4
ATOM      4  O   UNL A   1      36.459  21.511  25.526  1.00  0.00    -0.376 OA
BRANCH   4   5
ATOM      5  C   UNL A   1      35.657  22.335  26.365  1.00  0.00     0.202 C 
BRANCH   5   6
ATOM      6  C   UNL A   1      34.290  21.899  26.921  1.00  0.00     0.261 C 
BRANCH   6   7
ATOM      7  O   UNL A   1      33.398  22.973  27.253  1.00  0.00    -0.462 OA
BRANCH   7   8
ATOM      8  C   UNL A   1      32.229  23.041  26.552  1.00  0.00     0.329 C 
ATOM      9  O   UNL A   1      31.119  23.005  27.077  1.00  0.00    -0.250 OA
BRANCH   8  10
ATOM     10  C   UNL A   1      32.422  23.420  25.044  1.00  0.00     0.202 C 
BRANCH  10  11
ATOM     11  C   UNL A   1      31.743  22.177  24.333  1.00  0.00     0.040 C 
BRANCH  11  12
ATOM     12  C   UNL A   1      32.562  21.173  23.508  1.00  0.00    -0.015 C 
ATOM     13  C   UNL A   1      32.669  19.841  24.250  1.00  0.00     0.007 C 
ATOM     14  C   UNL A   1      31.946  20.924  22.123  1.00  0.00     0.007 C 
ENDBRANCH  11  12
ENDBRANCH  10  11
BRANCH  10  15
ATOM     15  N   UNL A   1      31.889  24.763  24.656  1.00  0.00    -0.278 N 
ATOM     16  C   UNL A   1      32.096  25.842  25.506  1.00  0.00     0.267 C 
ATOM     17  C   UNL A   1      31.845  25.283  23.387  1.00  0.00     0.149 C 
ATOM     18  O   UNL A   1      33.004  25.889  26.326  1.00  0.00    -0.268 OA
ATOM     19  C   UNL A   1      31.327  27.047  25.041  1.00  0.00     0.093 C 
ATOM     20  S   UNL A   1      30.861  26.742  23.408  1.00  0.00    -0.053 SA
ATOM     21  S   UNL A   1      32.749  24.890  22.039  1.00  0.00    -0.052 S 
ATOM     22  C   UNL A   1      31.203  28.210  25.693  1.00  0.00     0.069 C 
ATOM     23  C   UNL A   1      31.748  28.437  27.078  1.00  0.00     0.257 C 
ATOM     24  C   UNL A   1      30.770  29.533  25.197  1.00  0.00     0.013 A 
ATOM     25  O   UNL A   1      31.895  27.648  27.987  1.00  0.00    -0.269 OA
ATOM     26  N   UNL A   1      31.916  29.808  27.160  1.00  0.00    -0.321 N 
ATOM     27  C   UNL A   1      31.310  30.460  26.097  1.00  0.00     0.049 A 
ATOM     28  C   UNL A   1      29.979  29.985  24.153  1.00  0.00     0.026 A 
ATOM     29  H   UNL A   1      32.404  30.263  27.883  1.00  0.00     0.170 HD
ATOM     30  C   UNL A   1      31.157  31.827  25.971  1.00  0.00     0.028 A 
ATOM     31  C   UNL A   1      29.785  31.367  24.022  1.00  0.00     0.018 A 
ATOM     32  C   UNL A   1      30.383  32.285  24.905  1.00  0.00     0.018 A 
ATOM     33  Br  UNL A   1      28.607  32.017  22.690  1.00  0.00    -0.051 Br
ENDBRANCH  10  15
ENDBRANCH   8  10
ENDBRANCH   7   8
ENDBRANCH   6   7
ENDBRANCH   5   6
ENDBRANCH   4   5
ENDBRANCH   3   4
ENDBRANCH   2   3
ENDBRANCH   1   2
BRANCH   1  34
ATOM     34  C   UNL A   1      40.432  21.779  26.855  1.00  0.00     0.188 C 
BRANCH  34  35
ATOM     35  C   UNL A   1      41.811  21.422  26.267  1.00  0.00     0.188 C 
BRANCH  35  36
ATOM     36  O   UNL A   1      41.902  20.150  25.648  1.00  0.00    -0.376 OA
BRANCH  36  37
ATOM     37  C   UNL A   1      42.652  19.135  26.301  1.00  0.00     0.202 C 
BRANCH  37  38
ATOM     38  C   UNL A   1      43.578  18.281  25.424  1.00  0.00     0.261 C 
BRANCH  38  39
ATOM     39  O   UNL A   1      44.969  18.645  25.428  1.00  0.00    -0.460 OA
BRANCH  39  40
ATOM     40  C   UNL A   1      45.468  19.332  24.377  1.00  0.00     0.338 C 
ATOM     41  O   UNL A   1      45.892  18.899  23.326  1.00  0.00    -0.246 OA
BRANCH  40  42
ATOM     42  C   UNL A   1      45.310  20.763  24.691  1.00  0.00     0.060 A 
ATOM     43  C   UNL A   1      44.884  21.680  23.719  1.00  0.00     0.016 A 
ATOM     44  C   UNL A   1      45.594  21.185  25.981  1.00  0.00     0.016 A 
ATOM     45  C   UNL A   1      44.750  23.038  24.040  1.00  0.00     0.010 A 
ATOM     46  C   UNL A   1      45.461  22.536  26.288  1.00  0.00     0.010 A 
ATOM     47  C   UNL A   1      45.057  23.488  25.328  1.00  0.00    -0.014 A 
BRANCH  47  48
ATOM     48  C   UNL A   1      45.127  24.933  25.702  1.00  0.00     0.031 A 
ATOM     49  C   UNL A   1      46.485  25.592  25.728  1.00  0.00     0.074 A 
ATOM     50  C   UNL A   1      44.056  25.636  26.123  1.00  0.00     0.049 A 
ATOM     51  N   UNL A   1      46.854  26.734  26.253  1.00  0.00    -0.248 NA
ATOM     52  C   UNL A   1      47.585  24.831  25.115  1.00  0.00     0.031 C 
ATOM     53  C   UNL A   1      42.672  25.171  26.143  1.00  0.00     0.029 A 
ATOM     54  N   UNL A   1      43.987  26.893  26.683  1.00  0.00    -0.354 N 
ATOM     55  C   UNL A   1      48.226  26.809  26.048  1.00  0.00     0.074 A 
ATOM     56  C   UNL A   1      48.637  25.552  25.464  1.00  0.00     0.031 C 
ATOM     57  C   UNL A   1      41.904  26.092  26.754  1.00  0.00     0.029 A 
ATOM     58  C   UNL A   1      42.740  27.217  27.165  1.00  0.00     0.049 A 
ATOM     59  H   UNL A   1      44.758  27.503  26.733  1.00  0.00     0.167 HD
ATOM     60  C   UNL A   1      49.066  27.851  26.258  1.00  0.00     0.037 A 
ATOM     61  C   UNL A   1      42.322  28.289  27.870  1.00  0.00     0.037 A 
ATOM     62  C   UNL A   1      48.657  29.133  26.762  1.00  0.00     0.049 A 
ATOM     63  C   UNL A   1      43.277  29.423  28.149  1.00  0.00     0.074 A 
ATOM     64  C   UNL A   1      49.412  30.283  26.906  1.00  0.00     0.029 A 
ATOM     65  N   UNL A   1      47.377  29.437  27.193  1.00  0.00    -0.354 N 
ATOM     66  N   UNL A   1      44.554  29.517  27.873  1.00  0.00    -0.248 NA
ATOM     67  C   UNL A   1      42.718  30.620  28.798  1.00  0.00     0.031 C 
ATOM     68  C   UNL A   1      48.598  31.272  27.464  1.00  0.00     0.029 A 
ATOM     69  C   UNL A   1      47.324  30.753  27.620  1.00  0.00     0.049 A 
ATOM     70  H   UNL A   1      46.617  28.810  27.197  1.00  0.00     0.167 HD
ATOM     71  C   UNL A   1      44.931  30.804  28.243  1.00  0.00     0.074 A 
ATOM     72  C   UNL A   1      43.753  31.447  28.783  1.00  0.00     0.031 C 
ATOM     73  C   UNL A   1      46.142  31.402  28.124  1.00  0.00     0.037 A 
BRANCH  60  74
ATOM     74  C   UNL A   1      50.508  27.656  25.886  1.00  0.00     0.064 A 
ATOM     75  C   UNL A   1      51.474  27.318  26.849  1.00  0.00     0.173 A 
ATOM     76  C   UNL A   1      50.928  27.790  24.556  1.00  0.00     0.173 A 
ATOM     77  F   UNL A   1      51.126  27.187  28.138  1.00  0.00    -0.203 F 
ATOM     78  C   UNL A   1      52.813  27.173  26.501  1.00  0.00     0.198 A 
ATOM     79  C   UNL A   1      52.263  27.602  24.205  1.00  0.00     0.198 A 
ATOM     80  F   UNL A   1      50.046  28.101  23.595  1.00  0.00    -0.203 F 
ATOM     81  F   UNL A   1      53.726  26.924  27.450  1.00  0.00    -0.200 F 
ATOM     82  C   UNL A   1      53.205  27.307  25.178  1.00  0.00     0.200 A 
ATOM     83  F   UNL A   1      52.639  27.715  22.923  1.00  0.00    -0.200 F 
ATOM     84  F   UNL A   1      54.495  27.161  24.844  1.00  0.00    -0.200 F 
ENDBRANCH  60  74
BRANCH  61  85
ATOM     85  C   UNL A   1      40.913  28.374  28.338  1.00  0.00     0.064 A 
ATOM     86  C   UNL A   1      39.918  28.941  27.529  1.00  0.00     0.173 A 
ATOM     87  C   UNL A   1      40.545  27.944  29.621  1.00  0.00     0.173 A 
ATOM     88  F   UNL A   1      40.231  29.392  26.306  1.00  0.00    -0.203 F 
ATOM     89  C   UNL A   1      38.616  29.106  27.997  1.00  0.00     0.198 A 
ATOM     90  C   UNL A   1      39.236  28.090  30.080  1.00  0.00     0.198 A 
ATOM     91  F   UNL A   1      41.460  27.392  30.432  1.00  0.00    -0.203 F 
ATOM     92  F   UNL A   1      37.701  29.706  27.223  1.00  0.00    -0.200 F 
ATOM     93  C   UNL A   1      38.276  28.681  29.271  1.00  0.00     0.200 A 
ATOM     94  F   UNL A   1      38.910  27.678  31.312  1.00  0.00    -0.200 F 
ATOM     95  F   UNL A   1      37.027  28.853  29.725  1.00  0.00    -0.200 F 
ENDBRANCH  61  85
BRANCH  73  96
ATOM     96  C   UNL A   1      46.251  32.853  28.503  1.00  0.00     0.064 A 
ATOM     97  C   UNL A   1      45.952  33.884  27.600  1.00  0.00     0.173 A 
ATOM     98  C   UNL A   1      46.609  33.212  29.812  1.00  0.00     0.173 A 
ATOM     99  F   UNL A   1      45.618  33.595  26.333  1.00  0.00    -0.203 F 
ATOM    100  C   UNL A   1      46.028  35.219  27.988  1.00  0.00     0.198 A 
ATOM    101  C   UNL A   1      46.652  34.547  30.206  1.00  0.00     0.198 A 
ATOM    102  F   UNL A   1      46.897  32.266  30.718  1.00  0.00    -0.203 F 
ATOM    103  F   UNL A   1      45.782  36.189  27.097  1.00  0.00    -0.200 F 
ATOM    104  C   UNL A   1      46.369  35.549  29.292  1.00  0.00     0.200 A 
ATOM    105  F   UNL A   1      46.965  34.861  31.471  1.00  0.00    -0.200 F 
ATOM    106  F   UNL A   1      46.429  36.835  29.666  1.00  0.00    -0.200 F 
ENDBRANCH  73  96
ENDBRANCH  47  48
ENDBRANCH  40  42
ENDBRANCH  39  40
ENDBRANCH  38  39
ENDBRANCH  37  38
ENDBRANCH  36  37
ENDBRANCH  35  36
ENDBRANCH  34  35
ENDBRANCH   1  34
TORSDOF 23
ENDMDL
MODEL 2
REMARK VINA RESULT:     -10.1      3.269      6.099
REMARK SMILES CC(C)C[C@H](C(=O)OCCOCCOCCOCCOC(=O)c1ccc(-c2c3nc(c(-c4c(F)c(F)c(F)c(F)c4F)c4ccc([nH]4)c(-c4c(F)c(F)c(F)c(F)c4F)c4nc(c(-c5c(F)c(F)c(F)c(F)c5F)c5ccc2[nH]5)C=C4)C=C3)cc1)N1C(=O)/C(=C2\C(=O)Nc3ccc(Br)cc32)SC1=S
REMARK SMILES IDX 14 1 13 2 12 3 11 4 10 5 9 6 8 7 6 8 7 9 5 10 4 11 2 12 1 13
REMARK SMILES IDX 3 14 86 15 87 16 102 17 88 18 89 19 101 20 103 21 90 22
REMARK SMILES IDX 91 23 100 24 92 25 93 26 94 27 99 28 95 30 97 31 96 32 98 33
REMARK SMILES IDX 15 34 16 35 17 36 18 37 19 38 20 39 21 40 22 41 23 42 24 43
REMARK SMILES IDX 85 44 25 45 84 46 26 47 27 48 28 49 78 50 29 51 83 52 77 53
REMARK SMILES IDX 79 54 30 55 82 56 76 57 75 58 31 60 63 61 43 62 62 63 44 64
REMARK SMILES IDX 47 65 61 66 80 67 45 68 46 69 60 71 81 72 48 73 32 74 33 75
REMARK SMILES IDX 41 76 34 77 35 78 39 79 42 80 36 81 37 82 40 83 38 84 64 85
REMARK SMILES IDX 65 86 73 87 66 88 67 89 71 90 74 91 68 92 69 93 72 94 70 95
REMARK SMILES IDX 49 96 50 97 58 98 51 99 52 100 56 101 59 102 53 103 54 104
REMARK SMILES IDX 57 105 55 106
REMARK H PARENT 93 29 79 59 47 70
REMARK Flexibility Score: inf
ROOT
ATOM      1  O   UNL A   1      39.115  29.654  27.930  1.00  0.00    -0.377 OA
ENDROOT
BRANCH   1   2
ATOM      2  C   UNL A   1      38.511  30.535  28.854  1.00  0.00     0.188 C 
BRANCH   2   3
ATOM      3  C   UNL A   1      36.978  30.537  29.008  1.00  0.00     0.188 C 
BRANCH   3   4
ATOM      4  O   UNL A   1      36.283  29.348  28.693  1.00  0.00    -0.376 OA
BRANCH   4   5
ATOM      5  C   UNL A   1      35.400  29.310  27.578  1.00  0.00     0.202 C 
BRANCH   5   6
ATOM      6  C   UNL A   1      34.168  30.223  27.443  1.00  0.00     0.261 C 
BRANCH   6   7
ATOM      7  O   UNL A   1      32.904  29.544  27.457  1.00  0.00    -0.462 OA
BRANCH   7   8
ATOM      8  C   UNL A   1      31.958  29.986  26.577  1.00  0.00     0.329 C 
ATOM      9  O   UNL A   1      31.771  31.174  26.322  1.00  0.00    -0.250 OA
BRANCH   8  10
ATOM     10  C   UNL A   1      31.301  28.842  25.733  1.00  0.00     0.202 C 
BRANCH  10  11
ATOM     11  C   UNL A   1      30.948  29.620  24.398  1.00  0.00     0.040 C 
BRANCH  11  12
ATOM     12  C   UNL A   1      29.602  29.425  23.683  1.00  0.00    -0.015 C 
ATOM     13  C   UNL A   1      29.034  30.776  23.247  1.00  0.00     0.007 C 
ATOM     14  C   UNL A   1      29.728  28.517  22.451  1.00  0.00     0.007 C 
ENDBRANCH  11  12
ENDBRANCH  10  11
BRANCH  10  15
ATOM     15  N   UNL A   1      32.141  27.615  25.568  1.00  0.00    -0.278 N 
ATOM     16  C   UNL A   1      31.549  26.368  25.718  1.00  0.00     0.267 C 
ATOM     17  C   UNL A   1      33.160  27.445  24.665  1.00  0.00     0.149 C 
ATOM     18  O   UNL A   1      30.349  26.169  25.572  1.00  0.00    -0.268 OA
ATOM     19  C   UNL A   1      32.584  25.278  25.707  1.00  0.00     0.093 C 
ATOM     20  S   UNL A   1      34.030  25.969  25.066  1.00  0.00    -0.053 SA
ATOM     21  S   UNL A   1      33.457  28.238  23.225  1.00  0.00    -0.052 S 
ATOM     22  C   UNL A   1      32.372  23.979  25.953  1.00  0.00     0.069 C 
ATOM     23  C   UNL A   1      31.040  23.433  26.395  1.00  0.00     0.257 C 
ATOM     24  C   UNL A   1      33.219  22.806  25.650  1.00  0.00     0.013 A 
ATOM     25  O   UNL A   1      30.169  23.964  27.051  1.00  0.00    -0.269 OA
ATOM     26  N   UNL A   1      31.069  22.104  26.013  1.00  0.00    -0.321 N 
ATOM     27  C   UNL A   1      32.342  21.715  25.624  1.00  0.00     0.049 A 
ATOM     28  C   UNL A   1      34.573  22.592  25.454  1.00  0.00     0.026 A 
ATOM     29  H   UNL A   1      30.286  21.510  26.018  1.00  0.00     0.170 HD
ATOM     30  C   UNL A   1      32.740  20.421  25.344  1.00  0.00     0.028 A 
ATOM     31  C   UNL A   1      35.004  21.282  25.197  1.00  0.00     0.018 A 
ATOM     32  C   UNL A   1      34.099  20.208  25.119  1.00  0.00     0.018 A 
ATOM     33  Br  UNL A   1      36.858  20.926  25.053  1.00  0.00    -0.051 Br
ENDBRANCH  10  15
ENDBRANCH   8  10
ENDBRANCH   7   8
ENDBRANCH   6   7
ENDBRANCH   5   6
ENDBRANCH   4   5
ENDBRANCH   3   4
ENDBRANCH   2   3
ENDBRANCH   1   2
BRANCH   1  34
ATOM     34  C   UNL A   1      40.083  28.721  28.391  1.00  0.00     0.188 C 
BRANCH  34  35
ATOM     35  C   UNL A   1      40.430  27.467  27.565  1.00  0.00     0.188 C 
BRANCH  35  36
ATOM     36  O   UNL A   1      40.332  26.232  28.256  1.00  0.00    -0.376 OA
BRANCH  36  37
ATOM     37  C   UNL A   1      39.356  25.294  27.823  1.00  0.00     0.202 C 
BRANCH  37  38
ATOM     38  C   UNL A   1      39.869  23.930  27.339  1.00  0.00     0.261 C 
BRANCH  38  39
ATOM     39  O   UNL A   1      41.257  23.649  27.590  1.00  0.00    -0.460 OA
BRANCH  39  40
ATOM     40  C   UNL A   1      42.082  23.444  26.541  1.00  0.00     0.338 C 
ATOM     41  O   UNL A   1      42.010  22.590  25.680  1.00  0.00    -0.246 OA
BRANCH  40  42
ATOM     42  C   UNL A   1      43.070  24.536  26.556  1.00  0.00     0.060 A 
ATOM     43  C   UNL A   1      43.594  25.029  27.759  1.00  0.00     0.016 A 
ATOM     44  C   UNL A   1      43.473  25.071  25.341  1.00  0.00     0.016 A 
ATOM     45  C   UNL A   1      44.527  26.076  27.747  1.00  0.00     0.010 A 
ATOM     46  C   UNL A   1      44.396  26.112  25.340  1.00  0.00     0.010 A 
ATOM     47  C   UNL A   1      44.926  26.645  26.534  1.00  0.00    -0.014 A 
BRANCH  47  48
ATOM     48  C   UNL A   1      45.762  27.881  26.438  1.00  0.00     0.031 A 
ATOM     49  C   UNL A   1      47.258  27.715  26.318  1.00  0.00     0.074 A 
ATOM     50  C   UNL A   1      45.255  29.124  26.567  1.00  0.00     0.049 A 
ATOM     51  N   UNL A   1      48.215  28.595  26.473  1.00  0.00    -0.248 NA
ATOM     52  C   UNL A   1      47.737  26.354  26.027  1.00  0.00     0.031 C 
ATOM     53  C   UNL A   1      43.840  29.473  26.668  1.00  0.00     0.029 A 
ATOM     54  N   UNL A   1      45.900  30.334  26.698  1.00  0.00    -0.354 N 
ATOM     55  C   UNL A   1      49.399  27.885  26.318  1.00  0.00     0.074 A 
ATOM     56  C   UNL A   1      49.043  26.491  26.179  1.00  0.00     0.031 C 
ATOM     57  C   UNL A   1      43.726  30.789  26.922  1.00  0.00     0.029 A 
ATOM     58  C   UNL A   1      45.060  31.381  26.996  1.00  0.00     0.049 A 
ATOM     59  H   UNL A   1      46.873  30.439  26.589  1.00  0.00     0.167 HD
ATOM     60  C   UNL A   1      50.668  28.349  26.228  1.00  0.00     0.037 A 
ATOM     61  C   UNL A   1      45.332  32.665  27.308  1.00  0.00     0.037 A 
ATOM     62  C   UNL A   1      51.030  29.738  26.284  1.00  0.00     0.049 A 
ATOM     63  C   UNL A   1      46.755  33.164  27.260  1.00  0.00     0.074 A 
ATOM     64  C   UNL A   1      52.272  30.314  26.094  1.00  0.00     0.029 A 
ATOM     65  N   UNL A   1      50.143  30.772  26.538  1.00  0.00    -0.354 N 
ATOM     66  N   UNL A   1      47.859  32.497  27.027  1.00  0.00    -0.248 NA
ATOM     67  C   UNL A   1      46.963  34.605  27.473  1.00  0.00     0.031 C 
ATOM     68  C   UNL A   1      52.147  31.694  26.274  1.00  0.00     0.029 A 
ATOM     69  C   UNL A   1      50.816  31.982  26.526  1.00  0.00     0.049 A 
ATOM     70  H   UNL A   1      49.178  30.663  26.704  1.00  0.00     0.167 HD
ATOM     71  C   UNL A   1      48.877  33.445  26.990  1.00  0.00     0.074 A 
ATOM     72  C   UNL A   1      48.263  34.729  27.245  1.00  0.00     0.031 C 
ATOM     73  C   UNL A   1      50.197  33.264  26.745  1.00  0.00     0.037 A 
BRANCH  60  74
ATOM     74  C   UNL A   1      51.756  27.337  26.003  1.00  0.00     0.064 A 
ATOM     75  C   UNL A   1      52.483  26.792  27.075  1.00  0.00     0.173 A 
ATOM     76  C   UNL A   1      52.063  26.893  24.710  1.00  0.00     0.173 A 
ATOM     77  F   UNL A   1      52.233  27.190  28.332  1.00  0.00    -0.203 F 
ATOM     78  C   UNL A   1      53.510  25.881  26.855  1.00  0.00     0.198 A 
ATOM     79  C   UNL A   1      53.064  25.948  24.498  1.00  0.00     0.198 A 
ATOM     80  F   UNL A   1      51.393  27.372  23.652  1.00  0.00    -0.203 F 
ATOM     81  F   UNL A   1      54.238  25.432  27.888  1.00  0.00    -0.200 F 
ATOM     82  C   UNL A   1      53.795  25.453  25.567  1.00  0.00     0.200 A 
ATOM     83  F   UNL A   1      53.328  25.522  23.254  1.00  0.00    -0.200 F 
ATOM     84  F   UNL A   1      54.781  24.571  25.358  1.00  0.00    -0.200 F 
ENDBRANCH  60  74
BRANCH  61  85
ATOM     85  C   UNL A   1      44.231  33.600  27.660  1.00  0.00     0.064 A 
ATOM     86  C   UNL A   1      43.709  34.490  26.710  1.00  0.00     0.173 A 
ATOM     87  C   UNL A   1      43.717  33.662  28.964  1.00  0.00     0.173 A 
ATOM     88  F   UNL A   1      44.191  34.485  25.459  1.00  0.00    -0.203 F 
ATOM     89  C   UNL A   1      42.741  35.429  27.058  1.00  0.00     0.198 A 
ATOM     90  C   UNL A   1      42.732  34.589  29.305  1.00  0.00     0.198 A 
ATOM     91  F   UNL A   1      44.181  32.829  29.908  1.00  0.00    -0.203 F 
ATOM     92  F   UNL A   1      42.305  36.306  26.142  1.00  0.00    -0.200 F 
ATOM     93  C   UNL A   1      42.253  35.478  28.354  1.00  0.00     0.200 A 
ATOM     94  F   UNL A   1      42.263  34.634  30.558  1.00  0.00    -0.200 F 
ATOM     95  F   UNL A   1      41.333  36.393  28.690  1.00  0.00    -0.200 F 
ENDBRANCH  61  85
BRANCH  73  96
ATOM     96  C   UNL A   1      51.070  34.484  26.653  1.00  0.00     0.064 A 
ATOM     97  C   UNL A   1      51.243  35.188  25.452  1.00  0.00     0.173 A 
ATOM     98  C   UNL A   1      51.699  34.987  27.803  1.00  0.00     0.173 A 
ATOM     99  F   UNL A   1      50.675  34.743  24.322  1.00  0.00    -0.203 F 
ATOM    100  C   UNL A   1      52.030  36.336  25.403  1.00  0.00     0.198 A 
ATOM    101  C   UNL A   1      52.459  36.152  27.757  1.00  0.00     0.198 A 
ATOM    102  F   UNL A   1      51.561  34.357  28.980  1.00  0.00    -0.203 F 
ATOM    103  F   UNL A   1      52.218  36.967  24.236  1.00  0.00    -0.200 F 
ATOM    104  C   UNL A   1      52.629  36.822  26.556  1.00  0.00     0.200 A 
ATOM    105  F   UNL A   1      53.021  36.629  28.876  1.00  0.00    -0.200 F 
ATOM    106  F   UNL A   1      53.375  37.935  26.508  1.00  0.00    -0.200 F 
ENDBRANCH  73  96
ENDBRANCH  47  48
ENDBRANCH  40  42
ENDBRANCH  39  40
ENDBRANCH  38  39
ENDBRANCH  37  38
ENDBRANCH  36  37
ENDBRANCH  35  36
ENDBRANCH  34  35
ENDBRANCH   1  34
TORSDOF 23
ENDMDL
MODEL 3
REMARK VINA RESULT:     -10.1      5.303      9.472
REMARK SMILES CC(C)C[C@H](C(=O)OCCOCCOCCOCCOC(=O)c1ccc(-c2c3nc(c(-c4c(F)c(F)c(F)c(F)c4F)c4ccc([nH]4)c(-c4c(F)c(F)c(F)c(F)c4F)c4nc(c(-c5c(F)c(F)c(F)c(F)c5F)c5ccc2[nH]5)C=C4)C=C3)cc1)N1C(=O)/C(=C2\C(=O)Nc3ccc(Br)cc32)SC1=S
REMARK SMILES IDX 14 1 13 2 12 3 11 4 10 5 9 6 8 7 6 8 7 9 5 10 4 11 2 12 1 13
REMARK SMILES IDX 3 14 86 15 87 16 102 17 88 18 89 19 101 20 103 21 90 22
REMARK SMILES IDX 91 23 100 24 92 25 93 26 94 27 99 28 95 30 97 31 96 32 98 33
REMARK SMILES IDX 15 34 16 35 17 36 18 37 19 38 20 39 21 40 22 41 23 42 24 43
REMARK SMILES IDX 85 44 25 45 84 46 26 47 27 48 28 49 78 50 29 51 83 52 77 53
REMARK SMILES IDX 79 54 30 55 82 56 76 57 75 58 31 60 63 61 43 62 62 63 44 64
REMARK SMILES IDX 47 65 61 66 80 67 45 68 46 69 60 71 81 72 48 73 32 74 33 75
REMARK SMILES IDX 41 76 34 77 35 78 39 79 42 80 36 81 37 82 40 83 38 84 64 85
REMARK SMILES IDX 65 86 73 87 66 88 67 89 71 90 74 91 68 92 69 93 72 94 70 95
REMARK SMILES IDX 49 96 50 97 58 98 51 99 52 100 56 101 59 102 53 103 54 104
REMARK SMILES IDX 57 105 55 106
REMARK H PARENT 93 29 79 59 47 70
REMARK Flexibility Score: inf
ROOT
ATOM      1  O   UNL A   1      41.572  20.048  26.883  1.00  0.00    -0.377 OA
ENDROOT
BRANCH   1   2
ATOM      2  C   UNL A   1      40.241  20.285  26.474  1.00  0.00     0.188 C 
BRANCH   2   3
ATOM      3  C   UNL A   1      39.774  21.730  26.216  1.00  0.00     0.188 C 
BRANCH   3   4
ATOM      4  O   UNL A   1      38.397  21.946  25.984  1.00  0.00    -0.376 OA
BRANCH   4   5
ATOM      5  C   UNL A   1      37.688  21.121  25.067  1.00  0.00     0.202 C 
BRANCH   5   6
ATOM      6  C   UNL A   1      36.154  20.989  25.059  1.00  0.00     0.261 C 
BRANCH   6   7
ATOM      7  O   UNL A   1      35.516  21.235  26.321  1.00  0.00    -0.462 OA
BRANCH   7   8
ATOM      8  C   UNL A   1      34.152  21.226  26.332  1.00  0.00     0.329 C 
ATOM      9  O   UNL A   1      33.479  21.457  27.334  1.00  0.00    -0.250 OA
BRANCH   8  10
ATOM     10  C   UNL A   1      33.512  21.143  24.905  1.00  0.00     0.202 C 
BRANCH  10  11
ATOM     11  C   UNL A   1      32.791  19.734  24.981  1.00  0.00     0.040 C 
BRANCH  11  12
ATOM     12  C   UNL A   1      33.415  18.474  24.359  1.00  0.00    -0.015 C 
ATOM     13  C   UNL A   1      33.253  17.283  25.303  1.00  0.00     0.007 C 
ATOM     14  C   UNL A   1      32.783  18.125  23.003  1.00  0.00     0.007 C 
ENDBRANCH  11  12
ENDBRANCH  10  11
BRANCH  10  15
ATOM     15  N   UNL A   1      32.640  22.301  24.534  1.00  0.00    -0.278 N 
ATOM     16  C   UNL A   1      33.114  23.592  24.729  1.00  0.00     0.267 C 
ATOM     17  C   UNL A   1      31.794  22.366  23.455  1.00  0.00     0.149 C 
ATOM     18  O   UNL A   1      34.305  23.870  24.791  1.00  0.00    -0.268 OA
ATOM     19  C   UNL A   1      32.031  24.604  24.480  1.00  0.00     0.093 C 
ATOM     20  S   UNL A   1      30.774  23.790  23.624  1.00  0.00    -0.053 SA
ATOM     21  S   UNL A   1      31.816  21.504  22.025  1.00  0.00    -0.052 S 
ATOM     22  C   UNL A   1      32.112  25.922  24.700  1.00  0.00     0.069 C 
ATOM     23  C   UNL A   1      33.303  26.576  25.347  1.00  0.00     0.257 C 
ATOM     24  C   UNL A   1      31.262  27.021  24.194  1.00  0.00     0.013 A 
ATOM     25  O   UNL A   1      34.071  26.132  26.173  1.00  0.00    -0.269 OA
ATOM     26  N   UNL A   1      33.259  27.886  24.904  1.00  0.00    -0.321 N 
ATOM     27  C   UNL A   1      32.057  28.170  24.274  1.00  0.00     0.049 A 
ATOM     28  C   UNL A   1      29.955  27.131  23.748  1.00  0.00     0.026 A 
ATOM     29  H   UNL A   1      33.989  28.535  25.022  1.00  0.00     0.170 HD
ATOM     30  C   UNL A   1      31.636  29.422  23.867  1.00  0.00     0.028 A 
ATOM     31  C   UNL A   1      29.496  28.397  23.357  1.00  0.00     0.018 A 
ATOM     32  C   UNL A   1      30.330  29.530  23.392  1.00  0.00     0.018 A 
ATOM     33  Br  UNL A   1      27.680  28.615  22.865  1.00  0.00    -0.051 Br
ENDBRANCH  10  15
ENDBRANCH   8  10
ENDBRANCH   7   8
ENDBRANCH   6   7
ENDBRANCH   5   6
ENDBRANCH   4   5
ENDBRANCH   3   4
ENDBRANCH   2   3
ENDBRANCH   1   2
BRANCH   1  34
ATOM     34  C   UNL A   1      42.589  19.919  25.899  1.00  0.00     0.188 C 
BRANCH  34  35
ATOM     35  C   UNL A   1      43.613  21.047  25.666  1.00  0.00     0.188 C 
BRANCH  35  36
ATOM     36  O   UNL A   1      43.262  21.998  24.674  1.00  0.00    -0.376 OA
BRANCH  36  37
ATOM     37  C   UNL A   1      44.269  22.884  24.205  1.00  0.00     0.202 C 
BRANCH  37  38
ATOM     38  C   UNL A   1      44.460  24.194  24.981  1.00  0.00     0.261 C 
BRANCH  38  39
ATOM     39  O   UNL A   1      43.389  24.570  25.865  1.00  0.00    -0.460 OA
BRANCH  39  40
ATOM     40  C   UNL A   1      42.719  25.718  25.629  1.00  0.00     0.338 C 
ATOM     41  O   UNL A   1      42.324  26.157  24.568  1.00  0.00    -0.246 OA
BRANCH  40  42
ATOM     42  C   UNL A   1      42.445  26.328  26.942  1.00  0.00     0.060 A 
ATOM     43  C   UNL A   1      41.553  25.739  27.849  1.00  0.00     0.016 A 
ATOM     44  C   UNL A   1      43.097  27.510  27.262  1.00  0.00     0.016 A 
ATOM     45  C   UNL A   1      41.303  26.345  29.088  1.00  0.00     0.010 A 
ATOM     46  C   UNL A   1      42.839  28.105  28.493  1.00  0.00     0.010 A 
ATOM     47  C   UNL A   1      41.929  27.549  29.419  1.00  0.00    -0.014 A 
BRANCH  47  48
ATOM     48  C   UNL A   1      41.579  28.357  30.627  1.00  0.00     0.031 A 
ATOM     49  C   UNL A   1      40.434  29.335  30.516  1.00  0.00     0.074 A 
ATOM     50  C   UNL A   1      42.304  28.334  31.763  1.00  0.00     0.049 A 
ATOM     51  N   UNL A   1      40.092  30.320  31.308  1.00  0.00    -0.248 NA
ATOM     52  C   UNL A   1      39.588  29.209  29.318  1.00  0.00     0.031 C 
ATOM     53  C   UNL A   1      43.423  27.440  32.055  1.00  0.00     0.029 A 
ATOM     54  N   UNL A   1      42.236  29.145  32.875  1.00  0.00    -0.354 N 
ATOM     55  C   UNL A   1      39.010  30.934  30.690  1.00  0.00     0.074 A 
ATOM     56  C   UNL A   1      38.832  30.289  29.408  1.00  0.00     0.031 C 
ATOM     57  C   UNL A   1      43.984  27.801  33.223  1.00  0.00     0.029 A 
ATOM     58  C   UNL A   1      43.260  28.947  33.770  1.00  0.00     0.049 A 
ATOM     59  H   UNL A   1      41.520  29.807  33.015  1.00  0.00     0.167 HD
ATOM     60  C   UNL A   1      38.187  31.899  31.165  1.00  0.00     0.037 A 
ATOM     61  C   UNL A   1      43.589  29.619  34.892  1.00  0.00     0.037 A 
ATOM     62  C   UNL A   1      38.303  32.492  32.469  1.00  0.00     0.049 A 
ATOM     63  C   UNL A   1      42.699  30.731  35.389  1.00  0.00     0.074 A 
ATOM     64  C   UNL A   1      37.456  33.397  33.082  1.00  0.00     0.029 A 
ATOM     65  N   UNL A   1      39.325  32.229  33.365  1.00  0.00    -0.354 N 
ATOM     66  N   UNL A   1      41.628  31.244  34.836  1.00  0.00    -0.248 NA
ATOM     67  C   UNL A   1      43.040  31.325  36.691  1.00  0.00     0.031 C 
ATOM     68  C   UNL A   1      37.988  33.714  34.335  1.00  0.00     0.029 A 
ATOM     69  C   UNL A   1      39.139  32.967  34.522  1.00  0.00     0.049 A 
ATOM     70  H   UNL A   1      40.074  31.610  33.204  1.00  0.00     0.167 HD
ATOM     71  C   UNL A   1      41.127  32.163  35.753  1.00  0.00     0.074 A 
ATOM     72  C   UNL A   1      42.023  32.152  36.888  1.00  0.00     0.031 C 
ATOM     73  C   UNL A   1      40.012  32.929  35.666  1.00  0.00     0.037 A 
BRANCH  60  74
ATOM     74  C   UNL A   1      37.053  32.333  30.281  1.00  0.00     0.064 A 
ATOM     75  C   UNL A   1      36.993  33.632  29.749  1.00  0.00     0.173 A 
ATOM     76  C   UNL A   1      36.025  31.441  29.947  1.00  0.00     0.173 A 
ATOM     77  F   UNL A   1      37.948  34.527  30.045  1.00  0.00    -0.203 F 
ATOM     78  C   UNL A   1      35.922  34.035  28.959  1.00  0.00     0.198 A 
ATOM     79  C   UNL A   1      34.976  31.835  29.121  1.00  0.00     0.198 A 
ATOM     80  F   UNL A   1      36.038  30.185  30.420  1.00  0.00    -0.203 F 
ATOM     81  F   UNL A   1      35.851  35.301  28.525  1.00  0.00    -0.200 F 
ATOM     82  C   UNL A   1      34.918  33.134  28.639  1.00  0.00     0.200 A 
ATOM     83  F   UNL A   1      34.014  30.959  28.798  1.00  0.00    -0.200 F 
ATOM     84  F   UNL A   1      33.889  33.522  27.873  1.00  0.00    -0.200 F 
ENDBRANCH  60  74
BRANCH  61  85
ATOM     85  C   UNL A   1      44.804  29.242  35.663  1.00  0.00     0.064 A 
ATOM     86  C   UNL A   1      46.045  29.835  35.388  1.00  0.00     0.173 A 
ATOM     87  C   UNL A   1      44.761  28.245  36.648  1.00  0.00     0.173 A 
ATOM     88  F   UNL A   1      46.138  30.773  34.434  1.00  0.00    -0.203 F 
ATOM     89  C   UNL A   1      47.202  29.422  36.043  1.00  0.00     0.198 A 
ATOM     90  C   UNL A   1      45.918  27.847  37.318  1.00  0.00     0.198 A 
ATOM     91  F   UNL A   1      43.597  27.650  36.950  1.00  0.00    -0.203 F 
ATOM     92  F   UNL A   1      48.383  29.965  35.717  1.00  0.00    -0.200 F 
ATOM     93  C   UNL A   1      47.138  28.429  37.008  1.00  0.00     0.200 A 
ATOM     94  F   UNL A   1      45.852  26.887  38.250  1.00  0.00    -0.200 F 
ATOM     95  F   UNL A   1      48.255  28.021  37.627  1.00  0.00    -0.200 F 
ENDBRANCH  61  85
BRANCH  73  96
ATOM     96  C   UNL A   1      39.636  33.763  36.858  1.00  0.00     0.064 A 
ATOM     97  C   UNL A   1      40.050  35.096  36.996  1.00  0.00     0.173 A 
ATOM     98  C   UNL A   1      38.800  33.231  37.853  1.00  0.00     0.173 A 
ATOM     99  F   UNL A   1      40.860  35.649  36.081  1.00  0.00    -0.203 F 
ATOM    100  C   UNL A   1      39.658  35.856  38.095  1.00  0.00     0.198 A 
ATOM    101  C   UNL A   1      38.384  34.004  38.933  1.00  0.00     0.198 A 
ATOM    102  F   UNL A   1      38.369  31.963  37.767  1.00  0.00    -0.203 F 
ATOM    103  F   UNL A   1      40.101  37.114  38.229  1.00  0.00    -0.200 F 
ATOM    104  C   UNL A   1      38.819  35.313  39.057  1.00  0.00     0.200 A 
ATOM    105  F   UNL A   1      37.559  33.481  39.851  1.00  0.00    -0.200 F 
ATOM    106  F   UNL A   1      38.433  36.053  40.107  1.00  0.00    -0.200 F 
ENDBRANCH  73  96
ENDBRANCH  47  48
ENDBRANCH  40  42
ENDBRANCH  39  40
ENDBRANCH  38  39
ENDBRANCH  37  38
ENDBRANCH  36  37
ENDBRANCH  35  36
ENDBRANCH  34  35
ENDBRANCH   1  34
TORSDOF 23
ENDMDL
