MODEL 1
REMARK VINA RESULT:     -10.0      0.000      0.000
REMARK SMILES Cc1cnccc1N[C@@H]1C=C[C@@H](C(=O)OCCOCCOCCOCCOC(=O)c2ccc(-c3c4nc(c(-c5c(F)c(F)c(F)c(F)c5F)c5ccc([nH]5)c(-c5c(F)c(F)c(F)c(F)c5F)c5nc(c(-c6c(F)c(F)c(F)c(F)c6F)c6ccc3[nH]6)C=C5)C=C4)cc2)C1
REMARK SMILES IDX 21 1 20 2 19 3 18 4 17 5 16 6 15 7 13 8 14 9 12 10 9 11
REMARK SMILES IDX 10 12 93 13 11 14 8 15 7 17 1 18 2 19 3 20 4 21 6 22 5 23
REMARK SMILES IDX 22 24 23 25 24 26 25 27 26 28 27 29 28 30 29 31 30 32 31 33
REMARK SMILES IDX 92 34 32 35 91 36 33 37 34 38 35 39 85 40 36 41 90 42 84 43
REMARK SMILES IDX 86 44 37 45 89 46 83 47 82 48 38 50 70 51 50 52 69 53 51 54
REMARK SMILES IDX 54 55 68 56 87 57 52 58 53 59 67 61 88 62 55 63 39 64 40 65
REMARK SMILES IDX 48 66 41 67 42 68 46 69 49 70 43 71 44 72 47 73 45 74 71 75
REMARK SMILES IDX 72 76 80 77 73 78 74 79 78 80 81 81 75 82 76 83 79 84 77 85
REMARK SMILES IDX 56 86 57 87 65 88 58 89 59 90 63 91 66 92 60 93 61 94 64 95
REMARK SMILES IDX 62 96
REMARK H PARENT 8 16 86 49 54 60
REMARK Flexibility Score: inf
ROOT
ATOM      1  O   UNL A   1      42.387  20.044  25.433  1.00  0.00    -0.377 OA
ENDROOT
BRANCH   1   2
ATOM      2  C   UNL A   1      41.600  20.224  26.592  1.00  0.00     0.188 C 
BRANCH   2   3
ATOM      3  C   UNL A   1      40.125  20.575  26.353  1.00  0.00     0.188 C 
BRANCH   3   4
ATOM      4  O   UNL A   1      39.772  21.858  25.869  1.00  0.00    -0.376 OA
BRANCH   4   5
ATOM      5  C   UNL A   1      38.485  22.411  26.113  1.00  0.00     0.202 C 
BRANCH   5   6
ATOM      6  C   UNL A   1      37.281  22.232  25.172  1.00  0.00     0.261 C 
BRANCH   6   7
ATOM      7  O   UNL A   1      36.245  23.215  25.306  1.00  0.00    -0.463 OA
BRANCH   7   8
ATOM      8  C   UNL A   1      34.982  22.735  25.399  1.00  0.00     0.312 C 
ATOM      9  O   UNL A   1      34.714  21.587  25.745  1.00  0.00    -0.252 OA
BRANCH   8  10
ATOM     10  C   UNL A   1      33.912  23.816  25.262  1.00  0.00     0.124 C 
ATOM     11  C   UNL A   1      33.462  26.233  25.198  1.00  0.00     0.103 C 
ATOM     12  C   UNL A   1      33.695  25.690  23.836  1.00  0.00    -0.006 C 
ATOM     13  C   UNL A   1      33.919  25.093  26.119  1.00  0.00     0.048 C 
ATOM     14  C   UNL A   1      33.960  24.379  23.864  1.00  0.00    -0.014 C 
BRANCH  11  15
ATOM     15  N   UNL A   1      32.086  26.705  25.375  1.00  0.00    -0.379 N 
ATOM     16  H   UNL A   1      31.702  26.462  26.249  1.00  0.00     0.161 HD
BRANCH  15  17
ATOM     17  C   UNL A   1      31.215  27.420  24.573  1.00  0.00     0.040 A 
ATOM     18  C   UNL A   1      32.379  29.670  25.077  1.00  0.00     0.048 C 
ATOM     19  C   UNL A   1      31.281  28.828  24.493  1.00  0.00    -0.010 A 
ATOM     20  C   UNL A   1      30.308  29.509  23.744  1.00  0.00     0.116 A 
ATOM     21  N   UNL A   1      29.287  28.928  23.090  1.00  0.00    -0.264 NA
ATOM     22  C   UNL A   1      30.196  26.825  23.830  1.00  0.00     0.046 A 
ATOM     23  C   UNL A   1      29.265  27.590  23.136  1.00  0.00     0.113 A 
ENDBRANCH  15  17
ENDBRANCH  11  15
ENDBRANCH   8  10
ENDBRANCH   7   8
ENDBRANCH   6   7
ENDBRANCH   5   6
ENDBRANCH   4   5
ENDBRANCH   3   4
ENDBRANCH   2   3
ENDBRANCH   1   2
BRANCH   1  24
ATOM     24  C   UNL A   1      43.318  18.968  25.396  1.00  0.00     0.188 C 
BRANCH  24  25
ATOM     25  C   UNL A   1      44.683  19.129  24.692  1.00  0.00     0.188 C 
BRANCH  25  26
ATOM     26  O   UNL A   1      44.801  20.280  23.874  1.00  0.00    -0.376 OA
BRANCH  26  27
ATOM     27  C   UNL A   1      45.108  21.526  24.480  1.00  0.00     0.202 C 
BRANCH  27  28
ATOM     28  C   UNL A   1      44.359  22.776  23.988  1.00  0.00     0.261 C 
BRANCH  28  29
ATOM     29  O   UNL A   1      43.841  23.657  25.000  1.00  0.00    -0.460 OA
BRANCH  29  30
ATOM     30  C   UNL A   1      44.586  24.717  25.367  1.00  0.00     0.338 C 
ATOM     31  O   UNL A   1      45.630  25.099  24.862  1.00  0.00    -0.246 OA
BRANCH  30  32
ATOM     32  C   UNL A   1      43.822  25.478  26.377  1.00  0.00     0.060 A 
ATOM     33  C   UNL A   1      44.070  26.849  26.527  1.00  0.00     0.016 A 
ATOM     34  C   UNL A   1      42.864  24.845  27.174  1.00  0.00     0.016 A 
ATOM     35  C   UNL A   1      43.390  27.583  27.500  1.00  0.00     0.010 A 
ATOM     36  C   UNL A   1      42.201  25.576  28.164  1.00  0.00     0.010 A 
ATOM     37  C   UNL A   1      42.487  26.940  28.356  1.00  0.00    -0.014 A 
BRANCH  37  38
ATOM     38  C   UNL A   1      42.003  27.639  29.572  1.00  0.00     0.031 A 
ATOM     39  C   UNL A   1      40.724  28.426  29.480  1.00  0.00     0.074 A 
ATOM     40  C   UNL A   1      42.663  27.560  30.741  1.00  0.00     0.049 A 
ATOM     41  N   UNL A   1      40.128  29.162  30.383  1.00  0.00    -0.248 NA
ATOM     42  C   UNL A   1      40.024  28.378  28.186  1.00  0.00     0.031 C 
ATOM     43  C   UNL A   1      43.881  26.792  30.974  1.00  0.00     0.029 A 
ATOM     44  N   UNL A   1      42.396  28.149  31.954  1.00  0.00    -0.354 N 
ATOM     45  C   UNL A   1      38.992  29.670  29.765  1.00  0.00     0.074 A 
ATOM     46  C   UNL A   1      38.999  29.187  28.401  1.00  0.00     0.031 C 
ATOM     47  C   UNL A   1      44.267  26.966  32.250  1.00  0.00     0.029 A 
ATOM     48  C   UNL A   1      43.343  27.887  32.912  1.00  0.00     0.049 A 
ATOM     49  H   UNL A   1      41.601  28.707  32.118  1.00  0.00     0.167 HD
ATOM     50  C   UNL A   1      38.026  30.459  30.290  1.00  0.00     0.037 A 
ATOM     51  C   UNL A   1      43.461  28.359  34.169  1.00  0.00     0.037 A 
ATOM     52  C   UNL A   1      38.025  30.941  31.646  1.00  0.00     0.049 A 
ATOM     53  C   UNL A   1      42.419  29.311  34.704  1.00  0.00     0.074 A 
ATOM     54  C   UNL A   1      37.082  31.732  32.279  1.00  0.00     0.029 A 
ATOM     55  N   UNL A   1      39.022  30.688  32.575  1.00  0.00    -0.354 N 
ATOM     56  N   UNL A   1      41.334  29.766  34.125  1.00  0.00    -0.248 NA
ATOM     57  C   UNL A   1      42.619  29.812  36.072  1.00  0.00     0.031 C 
ATOM     58  C   UNL A   1      37.543  32.013  33.569  1.00  0.00     0.029 A 
ATOM     59  C   UNL A   1      38.736  31.337  33.766  1.00  0.00     0.049 A 
ATOM     60  H   UNL A   1      39.817  30.129  32.413  1.00  0.00     0.167 HD
ATOM     61  C   UNL A   1      40.708  30.578  35.065  1.00  0.00     0.074 A 
ATOM     62  C   UNL A   1      41.527  30.541  36.257  1.00  0.00     0.031 C 
ATOM     63  C   UNL A   1      39.558  31.289  34.949  1.00  0.00     0.037 A 
BRANCH  50  64
ATOM     64  C   UNL A   1      36.909  30.884  29.380  1.00  0.00     0.064 A 
ATOM     65  C   UNL A   1      36.842  32.177  28.838  1.00  0.00     0.173 A 
ATOM     66  C   UNL A   1      35.900  29.974  29.026  1.00  0.00     0.173 A 
ATOM     67  F   UNL A   1      37.773  33.090  29.155  1.00  0.00    -0.203 F 
ATOM     68  C   UNL A   1      35.791  32.553  28.006  1.00  0.00     0.198 A 
ATOM     69  C   UNL A   1      34.870  30.343  28.166  1.00  0.00     0.198 A 
ATOM     70  F   UNL A   1      35.916  28.723  29.511  1.00  0.00    -0.203 F 
ATOM     71  F   UNL A   1      35.717  33.811  27.550  1.00  0.00    -0.200 F 
ATOM     72  C   UNL A   1      34.811  31.634  27.664  1.00  0.00     0.200 A 
ATOM     73  F   UNL A   1      33.932  29.448  27.824  1.00  0.00    -0.200 F 
ATOM     74  F   UNL A   1      33.802  31.995  26.858  1.00  0.00    -0.200 F 
ENDBRANCH  50  64
BRANCH  51  75
ATOM     75  C   UNL A   1      44.620  27.956  35.011  1.00  0.00     0.064 A 
ATOM     76  C   UNL A   1      44.555  26.829  35.843  1.00  0.00     0.173 A 
ATOM     77  C   UNL A   1      45.806  28.705  35.022  1.00  0.00     0.173 A 
ATOM     78  F   UNL A   1      43.433  26.096  35.890  1.00  0.00    -0.203 F 
ATOM     79  C   UNL A   1      45.624  26.479  36.665  1.00  0.00     0.198 A 
ATOM     80  C   UNL A   1      46.886  28.334  35.821  1.00  0.00     0.198 A 
ATOM     81  F   UNL A   1      45.920  29.796  34.250  1.00  0.00    -0.203 F 
ATOM     82  F   UNL A   1      45.514  25.427  37.489  1.00  0.00    -0.200 F 
ATOM     83  C   UNL A   1      46.791  27.227  36.649  1.00  0.00     0.200 A 
ATOM     84  F   UNL A   1      48.016  29.054  35.792  1.00  0.00    -0.200 F 
ATOM     85  F   UNL A   1      47.819  26.887  37.437  1.00  0.00    -0.200 F 
ENDBRANCH  51  75
BRANCH  63  86
ATOM     86  C   UNL A   1      39.090  32.055  36.157  1.00  0.00     0.064 A 
ATOM     87  C   UNL A   1      38.216  31.492  37.100  1.00  0.00     0.173 A 
ATOM     88  C   UNL A   1      39.561  33.356  36.397  1.00  0.00     0.173 A 
ATOM     89  F   UNL A   1      37.728  30.257  36.914  1.00  0.00    -0.203 F 
ATOM     90  C   UNL A   1      37.808  32.214  38.219  1.00  0.00     0.198 A 
ATOM     91  C   UNL A   1      39.180  34.060  37.535  1.00  0.00     0.198 A 
ATOM     92  F   UNL A   1      40.406  33.940  35.533  1.00  0.00    -0.203 F 
ATOM     93  F   UNL A   1      36.931  31.676  39.077  1.00  0.00    -0.200 F 
ATOM     94  C   UNL A   1      38.297  33.493  38.440  1.00  0.00     0.200 A 
ATOM     95  F   UNL A   1      39.668  35.289  37.757  1.00  0.00    -0.200 F 
ATOM     96  F   UNL A   1      37.911  34.181  39.524  1.00  0.00    -0.200 F 
ENDBRANCH  63  86
ENDBRANCH  37  38
ENDBRANCH  30  32
ENDBRANCH  29  30
ENDBRANCH  28  29
ENDBRANCH  27  28
ENDBRANCH  26  27
ENDBRANCH  25  26
ENDBRANCH  24  25
ENDBRANCH   1  24
TORSDOF 22
ENDMDL
MODEL 2
REMARK VINA RESULT:      -9.4      5.358     12.364
REMARK SMILES Cc1cnccc1N[C@@H]1C=C[C@@H](C(=O)OCCOCCOCCOCCOC(=O)c2ccc(-c3c4nc(c(-c5c(F)c(F)c(F)c(F)c5F)c5ccc([nH]5)c(-c5c(F)c(F)c(F)c(F)c5F)c5nc(c(-c6c(F)c(F)c(F)c(F)c6F)c6ccc3[nH]6)C=C5)C=C4)cc2)C1
REMARK SMILES IDX 21 1 20 2 19 3 18 4 17 5 16 6 15 7 13 8 14 9 12 10 9 11
REMARK SMILES IDX 10 12 93 13 11 14 8 15 7 17 1 18 2 19 3 20 4 21 6 22 5 23
REMARK SMILES IDX 22 24 23 25 24 26 25 27 26 28 27 29 28 30 29 31 30 32 31 33
REMARK SMILES IDX 92 34 32 35 91 36 33 37 34 38 35 39 85 40 36 41 90 42 84 43
REMARK SMILES IDX 86 44 37 45 89 46 83 47 82 48 38 50 70 51 50 52 69 53 51 54
REMARK SMILES IDX 54 55 68 56 87 57 52 58 53 59 67 61 88 62 55 63 39 64 40 65
REMARK SMILES IDX 48 66 41 67 42 68 46 69 49 70 43 71 44 72 47 73 45 74 71 75
REMARK SMILES IDX 72 76 80 77 73 78 74 79 78 80 81 81 75 82 76 83 79 84 77 85
REMARK SMILES IDX 56 86 57 87 65 88 58 89 59 90 63 91 66 92 60 93 61 94 64 95
REMARK SMILES IDX 62 96
REMARK H PARENT 8 16 86 49 54 60
REMARK Flexibility Score: inf
ROOT
ATOM      1  O   UNL A   1      37.442  31.170  32.700  1.00  0.00    -0.377 OA
ENDROOT
BRANCH   1   2
ATOM      2  C   UNL A   1      37.753  30.094  33.561  1.00  0.00     0.188 C 
BRANCH   2   3
ATOM      3  C   UNL A   1      38.964  29.242  33.159  1.00  0.00     0.188 C 
BRANCH   3   4
ATOM      4  O   UNL A   1      40.056  29.100  34.048  1.00  0.00    -0.376 OA
BRANCH   4   5
ATOM      5  C   UNL A   1      41.121  28.199  33.772  1.00  0.00     0.202 C 
BRANCH   5   6
ATOM      6  C   UNL A   1      42.110  27.686  34.834  1.00  0.00     0.261 C 
BRANCH   6   7
ATOM      7  O   UNL A   1      42.776  26.458  34.511  1.00  0.00    -0.463 OA
BRANCH   7   8
ATOM      8  C   UNL A   1      44.093  26.559  34.213  1.00  0.00     0.312 C 
ATOM      9  O   UNL A   1      44.733  27.604  34.305  1.00  0.00    -0.252 OA
BRANCH   8  10
ATOM     10  C   UNL A   1      44.765  25.209  33.974  1.00  0.00     0.124 C 
ATOM     11  C   UNL A   1      44.491  22.766  34.023  1.00  0.00     0.103 C 
ATOM     12  C   UNL A   1      44.165  23.320  32.685  1.00  0.00    -0.006 C 
ATOM     13  C   UNL A   1      44.561  24.011  34.917  1.00  0.00     0.048 C 
ATOM     14  C   UNL A   1      44.293  24.651  32.656  1.00  0.00    -0.014 C 
BRANCH  11  15
ATOM     15  N   UNL A   1      45.684  21.916  33.991  1.00  0.00    -0.379 N 
ATOM     16  H   UNL A   1      45.726  21.334  33.197  1.00  0.00     0.161 HD
BRANCH  15  17
ATOM     17  C   UNL A   1      46.764  21.760  34.841  1.00  0.00     0.040 A 
ATOM     18  C   UNL A   1      45.809  19.597  35.881  1.00  0.00     0.048 C 
ATOM     19  C   UNL A   1      46.797  20.726  35.802  1.00  0.00    -0.010 A 
ATOM     20  C   UNL A   1      47.870  20.676  36.706  1.00  0.00     0.116 A 
ATOM     21  N   UNL A   1      48.889  21.554  36.748  1.00  0.00    -0.264 NA
ATOM     22  C   UNL A   1      47.862  22.619  34.848  1.00  0.00     0.046 A 
ATOM     23  C   UNL A   1      48.867  22.501  35.801  1.00  0.00     0.113 A 
ENDBRANCH  15  17
ENDBRANCH  11  15
ENDBRANCH   8  10
ENDBRANCH   7   8
ENDBRANCH   6   7
ENDBRANCH   5   6
ENDBRANCH   4   5
ENDBRANCH   3   4
ENDBRANCH   2   3
ENDBRANCH   1   2
BRANCH   1  24
ATOM     24  C   UNL A   1      36.315  31.986  33.000  1.00  0.00     0.188 C 
BRANCH  24  25
ATOM     25  C   UNL A   1      36.159  33.383  32.360  1.00  0.00     0.188 C 
BRANCH  25  26
ATOM     26  O   UNL A   1      34.995  33.552  31.570  1.00  0.00    -0.376 OA
BRANCH  26  27
ATOM     27  C   UNL A   1      35.120  34.120  30.275  1.00  0.00     0.202 C 
BRANCH  27  28
ATOM     28  C   UNL A   1      34.803  33.233  29.060  1.00  0.00     0.261 C 
BRANCH  28  29
ATOM     29  O   UNL A   1      34.692  31.821  29.304  1.00  0.00    -0.460 OA
BRANCH  29  30
ATOM     30  C   UNL A   1      34.844  30.979  28.264  1.00  0.00     0.338 C 
ATOM     31  O   UNL A   1      34.145  30.901  27.266  1.00  0.00    -0.246 OA
BRANCH  30  32
ATOM     32  C   UNL A   1      36.135  30.279  28.433  1.00  0.00     0.060 A 
ATOM     33  C   UNL A   1      36.397  29.620  29.641  1.00  0.00     0.016 A 
ATOM     34  C   UNL A   1      37.083  30.273  27.406  1.00  0.00     0.016 A 
ATOM     35  C   UNL A   1      37.624  28.984  29.841  1.00  0.00     0.010 A 
ATOM     36  C   UNL A   1      38.320  29.657  27.617  1.00  0.00     0.010 A 
ATOM     37  C   UNL A   1      38.610  29.041  28.848  1.00  0.00    -0.014 A 
BRANCH  37  38
ATOM     38  C   UNL A   1      40.003  28.643  29.172  1.00  0.00     0.031 A 
ATOM     39  C   UNL A   1      40.838  29.584  29.997  1.00  0.00     0.074 A 
ATOM     40  C   UNL A   1      40.512  27.465  28.771  1.00  0.00     0.049 A 
ATOM     41  N   UNL A   1      42.090  29.487  30.363  1.00  0.00    -0.248 NA
ATOM     42  C   UNL A   1      40.167  30.806  30.468  1.00  0.00     0.031 C 
ATOM     43  C   UNL A   1      39.791  26.447  28.013  1.00  0.00     0.029 A 
ATOM     44  N   UNL A   1      41.767  26.935  28.944  1.00  0.00    -0.354 N 
ATOM     45  C   UNL A   1      42.358  30.635  31.098  1.00  0.00     0.074 A 
ATOM     46  C   UNL A   1      41.149  31.431  31.097  1.00  0.00     0.031 C 
ATOM     47  C   UNL A   1      40.621  25.416  27.772  1.00  0.00     0.029 A 
ATOM     48  C   UNL A   1      41.940  25.720  28.328  1.00  0.00     0.049 A 
ATOM     49  H   UNL A   1      42.476  27.384  29.459  1.00  0.00     0.167 HD
ATOM     50  C   UNL A   1      43.504  30.990  31.726  1.00  0.00     0.037 A 
ATOM     51  C   UNL A   1      43.044  24.957  28.205  1.00  0.00     0.037 A 
ATOM     52  C   UNL A   1      44.706  30.198  31.721  1.00  0.00     0.049 A 
ATOM     53  C   UNL A   1      44.337  25.417  28.837  1.00  0.00     0.074 A 
ATOM     54  C   UNL A   1      45.915  30.462  32.342  1.00  0.00     0.029 A 
ATOM     55  N   UNL A   1      44.854  28.993  31.052  1.00  0.00    -0.354 N 
ATOM     56  N   UNL A   1      44.576  26.489  29.552  1.00  0.00    -0.248 NA
ATOM     57  C   UNL A   1      45.512  24.554  28.644  1.00  0.00     0.031 C 
ATOM     58  C   UNL A   1      46.815  29.450  31.992  1.00  0.00     0.029 A 
ATOM     59  C   UNL A   1      46.147  28.518  31.214  1.00  0.00     0.049 A 
ATOM     60  H   UNL A   1      44.147  28.540  30.537  1.00  0.00     0.167 HD
ATOM     61  C   UNL A   1      45.915  26.415  29.921  1.00  0.00     0.074 A 
ATOM     62  C   UNL A   1      46.431  25.183  29.362  1.00  0.00     0.031 C 
ATOM     63  C   UNL A   1      46.649  27.287  30.656  1.00  0.00     0.037 A 
BRANCH  50  64
ATOM     64  C   UNL A   1      43.523  32.313  32.436  1.00  0.00     0.064 A 
ATOM     65  C   UNL A   1      43.894  33.500  31.786  1.00  0.00     0.173 A 
ATOM     66  C   UNL A   1      43.142  32.397  33.785  1.00  0.00     0.173 A 
ATOM     67  F   UNL A   1      44.279  33.474  30.501  1.00  0.00    -0.203 F 
ATOM     68  C   UNL A   1      43.916  34.715  32.468  1.00  0.00     0.198 A 
ATOM     69  C   UNL A   1      43.132  33.618  34.453  1.00  0.00     0.198 A 
ATOM     70  F   UNL A   1      42.775  31.295  34.455  1.00  0.00    -0.203 F 
ATOM     71  F   UNL A   1      44.331  35.825  31.841  1.00  0.00    -0.200 F 
ATOM     72  C   UNL A   1      43.528  34.774  33.797  1.00  0.00     0.200 A 
ATOM     73  F   UNL A   1      42.741  33.675  35.734  1.00  0.00    -0.200 F 
ATOM     74  F   UNL A   1      43.543  35.944  34.451  1.00  0.00    -0.200 F 
ENDBRANCH  50  64
BRANCH  51  75
ATOM     75  C   UNL A   1      42.989  23.683  27.439  1.00  0.00     0.064 A 
ATOM     76  C   UNL A   1      43.356  23.633  26.087  1.00  0.00     0.173 A 
ATOM     77  C   UNL A   1      42.542  22.494  28.036  1.00  0.00     0.173 A 
ATOM     78  F   UNL A   1      43.763  24.748  25.462  1.00  0.00    -0.203 F 
ATOM     79  C   UNL A   1      43.260  22.449  25.358  1.00  0.00     0.198 A 
ATOM     80  C   UNL A   1      42.478  21.304  27.315  1.00  0.00     0.198 A 
ATOM     81  F   UNL A   1      42.173  22.487  29.325  1.00  0.00    -0.203 F 
ATOM     82  F   UNL A   1      43.567  22.442  24.053  1.00  0.00    -0.200 F 
ATOM     83  C   UNL A   1      42.828  21.284  25.974  1.00  0.00     0.200 A 
ATOM     84  F   UNL A   1      42.072  20.178  27.918  1.00  0.00    -0.200 F 
ATOM     85  F   UNL A   1      42.740  20.146  25.273  1.00  0.00    -0.200 F 
ENDBRANCH  51  75
BRANCH  63  86
ATOM     86  C   UNL A   1      48.082  26.926  30.937  1.00  0.00     0.064 A 
ATOM     87  C   UNL A   1      48.435  26.028  31.957  1.00  0.00     0.173 A 
ATOM     88  C   UNL A   1      49.114  27.451  30.143  1.00  0.00     0.173 A 
ATOM     89  F   UNL A   1      47.489  25.505  32.752  1.00  0.00    -0.203 F 
ATOM     90  C   UNL A   1      49.767  25.695  32.190  1.00  0.00     0.198 A 
ATOM     91  C   UNL A   1      50.441  27.087  30.356  1.00  0.00     0.198 A 
ATOM     92  F   UNL A   1      48.835  28.307  29.149  1.00  0.00    -0.203 F 
ATOM     93  F   UNL A   1      50.083  24.878  33.204  1.00  0.00    -0.200 F 
ATOM     94  C   UNL A   1      50.767  26.218  31.384  1.00  0.00     0.200 A 
ATOM     95  F   UNL A   1      51.405  27.579  29.564  1.00  0.00    -0.200 F 
ATOM     96  F   UNL A   1      52.048  25.887  31.604  1.00  0.00    -0.200 F 
ENDBRANCH  63  86
ENDBRANCH  37  38
ENDBRANCH  30  32
ENDBRANCH  29  30
ENDBRANCH  28  29
ENDBRANCH  27  28
ENDBRANCH  26  27
ENDBRANCH  25  26
ENDBRANCH  24  25
ENDBRANCH   1  24
TORSDOF 22
ENDMDL
MODEL 3
REMARK VINA RESULT:      -9.4      1.167      2.498
REMARK SMILES Cc1cnccc1N[C@@H]1C=C[C@@H](C(=O)OCCOCCOCCOCCOC(=O)c2ccc(-c3c4nc(c(-c5c(F)c(F)c(F)c(F)c5F)c5ccc([nH]5)c(-c5c(F)c(F)c(F)c(F)c5F)c5nc(c(-c6c(F)c(F)c(F)c(F)c6F)c6ccc3[nH]6)C=C5)C=C4)cc2)C1
REMARK SMILES IDX 21 1 20 2 19 3 18 4 17 5 16 6 15 7 13 8 14 9 12 10 9 11
REMARK SMILES IDX 10 12 93 13 11 14 8 15 7 17 1 18 2 19 3 20 4 21 6 22 5 23
REMARK SMILES IDX 22 24 23 25 24 26 25 27 26 28 27 29 28 30 29 31 30 32 31 33
REMARK SMILES IDX 92 34 32 35 91 36 33 37 34 38 35 39 85 40 36 41 90 42 84 43
REMARK SMILES IDX 86 44 37 45 89 46 83 47 82 48 38 50 70 51 50 52 69 53 51 54
REMARK SMILES IDX 54 55 68 56 87 57 52 58 53 59 67 61 88 62 55 63 39 64 40 65
REMARK SMILES IDX 48 66 41 67 42 68 46 69 49 70 43 71 44 72 47 73 45 74 71 75
REMARK SMILES IDX 72 76 80 77 73 78 74 79 78 80 81 81 75 82 76 83 79 84 77 85
REMARK SMILES IDX 56 86 57 87 65 88 58 89 59 90 63 91 66 92 60 93 61 94 64 95
REMARK SMILES IDX 62 96
REMARK H PARENT 8 16 86 49 54 60
REMARK Flexibility Score: inf
ROOT
ATOM      1  O   UNL A   1      41.712  21.285  25.756  1.00  0.00    -0.377 OA
ENDROOT
BRANCH   1   2
ATOM      2  C   UNL A   1      41.052  22.022  26.764  1.00  0.00     0.188 C 
BRANCH   2   3
ATOM      3  C   UNL A   1      39.568  22.322  26.512  1.00  0.00     0.188 C 
BRANCH   3   4
ATOM      4  O   UNL A   1      38.791  21.438  25.724  1.00  0.00    -0.376 OA
BRANCH   4   5
ATOM      5  C   UNL A   1      37.538  21.838  25.184  1.00  0.00     0.202 C 
BRANCH   5   6
ATOM      6  C   UNL A   1      36.257  20.989  25.267  1.00  0.00     0.261 C 
BRANCH   6   7
ATOM      7  O   UNL A   1      35.181  21.414  24.419  1.00  0.00    -0.463 OA
BRANCH   7   8
ATOM      8  C   UNL A   1      33.932  21.157  24.873  1.00  0.00     0.312 C 
ATOM      9  O   UNL A   1      33.549  20.041  25.214  1.00  0.00    -0.252 OA
BRANCH   8  10
ATOM     10  C   UNL A   1      33.115  22.418  25.142  1.00  0.00     0.124 C 
ATOM     11  C   UNL A   1      32.418  24.066  26.830  1.00  0.00     0.103 C 
ATOM     12  C   UNL A   1      33.650  24.501  26.126  1.00  0.00    -0.006 C 
ATOM     13  C   UNL A   1      32.271  22.595  26.417  1.00  0.00     0.048 C 
ATOM     14  C   UNL A   1      34.047  23.601  25.220  1.00  0.00    -0.014 C 
BRANCH  11  15
ATOM     15  N   UNL A   1      31.280  24.943  26.540  1.00  0.00    -0.379 N 
ATOM     16  H   UNL A   1      30.424  24.594  26.881  1.00  0.00     0.161 HD
BRANCH  15  17
ATOM     17  C   UNL A   1      31.156  26.157  25.888  1.00  0.00     0.040 A 
ATOM     18  C   UNL A   1      30.317  25.057  23.707  1.00  0.00     0.048 C 
ATOM     19  C   UNL A   1      30.792  26.223  24.526  1.00  0.00    -0.010 A 
ATOM     20  C   UNL A   1      30.781  27.475  23.889  1.00  0.00     0.116 A 
ATOM     21  N   UNL A   1      31.105  28.643  24.472  1.00  0.00    -0.264 NA
ATOM     22  C   UNL A   1      31.418  27.382  26.499  1.00  0.00     0.046 A 
ATOM     23  C   UNL A   1      31.403  28.569  25.775  1.00  0.00     0.113 A 
ENDBRANCH  15  17
ENDBRANCH  11  15
ENDBRANCH   8  10
ENDBRANCH   7   8
ENDBRANCH   6   7
ENDBRANCH   5   6
ENDBRANCH   4   5
ENDBRANCH   3   4
ENDBRANCH   2   3
ENDBRANCH   1   2
BRANCH   1  24
ATOM     24  C   UNL A   1      42.146  19.961  26.047  1.00  0.00     0.188 C 
BRANCH  24  25
ATOM     25  C   UNL A   1      43.409  19.378  25.376  1.00  0.00     0.188 C 
BRANCH  25  26
ATOM     26  O   UNL A   1      44.156  20.303  24.606  1.00  0.00    -0.376 OA
BRANCH  26  27
ATOM     27  C   UNL A   1      45.036  21.198  25.271  1.00  0.00     0.202 C 
BRANCH  27  28
ATOM     28  C   UNL A   1      45.054  22.667  24.817  1.00  0.00     0.261 C 
BRANCH  28  29
ATOM     29  O   UNL A   1      44.834  23.658  25.835  1.00  0.00    -0.460 OA
BRANCH  29  30
ATOM     30  C   UNL A   1      43.805  24.514  25.683  1.00  0.00     0.338 C 
ATOM     31  O   UNL A   1      43.031  24.581  24.741  1.00  0.00    -0.246 OA
BRANCH  30  32
ATOM     32  C   UNL A   1      43.634  25.246  26.955  1.00  0.00     0.060 A 
ATOM     33  C   UNL A   1      42.860  24.672  27.972  1.00  0.00     0.016 A 
ATOM     34  C   UNL A   1      44.234  26.494  27.147  1.00  0.00     0.016 A 
ATOM     35  C   UNL A   1      42.651  25.360  29.168  1.00  0.00     0.010 A 
ATOM     36  C   UNL A   1      44.005  27.193  28.335  1.00  0.00     0.010 A 
ATOM     37  C   UNL A   1      43.182  26.645  29.337  1.00  0.00    -0.014 A 
BRANCH  37  38
ATOM     38  C   UNL A   1      42.712  27.493  30.461  1.00  0.00     0.031 A 
ATOM     39  C   UNL A   1      41.450  28.290  30.271  1.00  0.00     0.074 A 
ATOM     40  C   UNL A   1      43.368  27.538  31.633  1.00  0.00     0.049 A 
ATOM     41  N   UNL A   1      40.869  29.140  31.079  1.00  0.00    -0.248 NA
ATOM     42  C   UNL A   1      40.751  28.105  28.989  1.00  0.00     0.031 C 
ATOM     43  C   UNL A   1      44.569  26.777  31.960  1.00  0.00     0.029 A 
ATOM     44  N   UNL A   1      43.112  28.271  32.767  1.00  0.00    -0.354 N 
ATOM     45  C   UNL A   1      39.746  29.595  30.401  1.00  0.00     0.074 A 
ATOM     46  C   UNL A   1      39.744  28.955  29.103  1.00  0.00     0.031 C 
ATOM     47  C   UNL A   1      44.957  27.092  33.209  1.00  0.00     0.029 A 
ATOM     48  C   UNL A   1      44.052  28.104  33.754  1.00  0.00     0.049 A 
ATOM     49  H   UNL A   1      42.330  28.861  32.862  1.00  0.00     0.167 HD
ATOM     50  C   UNL A   1      38.796  30.462  30.825  1.00  0.00     0.037 A 
ATOM     51  C   UNL A   1      44.178  28.718  34.947  1.00  0.00     0.037 A 
ATOM     52  C   UNL A   1      38.803  31.100  32.115  1.00  0.00     0.049 A 
ATOM     53  C   UNL A   1      43.156  29.749  35.362  1.00  0.00     0.074 A 
ATOM     54  C   UNL A   1      37.876  31.980  32.647  1.00  0.00     0.029 A 
ATOM     55  N   UNL A   1      39.793  30.937  33.072  1.00  0.00    -0.354 N 
ATOM     56  N   UNL A   1      42.082  30.155  34.729  1.00  0.00    -0.248 NA
ATOM     57  C   UNL A   1      43.365  30.403  36.662  1.00  0.00     0.031 C 
ATOM     58  C   UNL A   1      38.341  32.401  33.897  1.00  0.00     0.029 A 
ATOM     59  C   UNL A   1      39.519  31.728  34.177  1.00  0.00     0.049 A 
ATOM     60  H   UNL A   1      40.576  30.346  32.980  1.00  0.00     0.167 HD
ATOM     61  C   UNL A   1      41.472  31.085  35.564  1.00  0.00     0.074 A 
ATOM     62  C   UNL A   1      42.289  31.171  36.756  1.00  0.00     0.031 C 
ATOM     63  C   UNL A   1      40.338  31.802  35.361  1.00  0.00     0.037 A 
BRANCH  50  64
ATOM     64  C   UNL A   1      37.690  30.800  29.867  1.00  0.00     0.064 A 
ATOM     65  C   UNL A   1      36.655  29.897  29.578  1.00  0.00     0.173 A 
ATOM     66  C   UNL A   1      37.653  32.057  29.244  1.00  0.00     0.173 A 
ATOM     67  F   UNL A   1      36.649  28.676  30.135  1.00  0.00    -0.203 F 
ATOM     68  C   UNL A   1      35.646  30.227  28.676  1.00  0.00     0.198 A 
ATOM     69  C   UNL A   1      36.624  32.396  28.371  1.00  0.00     0.198 A 
ATOM     70  F   UNL A   1      38.615  32.961  29.486  1.00  0.00    -0.203 F 
ATOM     71  F   UNL A   1      34.702  29.326  28.372  1.00  0.00    -0.200 F 
ATOM     72  C   UNL A   1      35.627  31.478  28.080  1.00  0.00     0.200 A 
ATOM     73  F   UNL A   1      36.599  33.613  27.808  1.00  0.00    -0.200 F 
ATOM     74  F   UNL A   1      34.651  31.797  27.217  1.00  0.00    -0.200 F 
ENDBRANCH  50  64
BRANCH  51  75
ATOM     75  C   UNL A   1      45.327  28.392  35.835  1.00  0.00     0.064 A 
ATOM     76  C   UNL A   1      46.552  29.062  35.712  1.00  0.00     0.173 A 
ATOM     77  C   UNL A   1      45.230  27.385  36.807  1.00  0.00     0.173 A 
ATOM     78  F   UNL A   1      46.704  30.014  34.779  1.00  0.00    -0.203 F 
ATOM     79  C   UNL A   1      47.641  28.725  36.514  1.00  0.00     0.198 A 
ATOM     80  C   UNL A   1      46.311  27.071  37.630  1.00  0.00     0.198 A 
ATOM     81  F   UNL A   1      44.084  26.708  36.963  1.00  0.00    -0.203 F 
ATOM     82  F   UNL A   1      48.816  29.346  36.338  1.00  0.00    -0.200 F 
ATOM     83  C   UNL A   1      47.518  27.735  37.477  1.00  0.00     0.200 A 
ATOM     84  F   UNL A   1      46.182  26.122  38.567  1.00  0.00    -0.200 F 
ATOM     85  F   UNL A   1      48.564  27.414  38.249  1.00  0.00    -0.200 F 
ENDBRANCH  51  75
BRANCH  63  86
ATOM     86  C   UNL A   1      39.886  32.714  36.468  1.00  0.00     0.064 A 
ATOM     87  C   UNL A   1      40.463  33.977  36.672  1.00  0.00     0.173 A 
ATOM     88  C   UNL A   1      38.826  32.337  37.308  1.00  0.00     0.173 A 
ATOM     89  F   UNL A   1      41.485  34.383  35.904  1.00  0.00    -0.203 F 
ATOM     90  C   UNL A   1      40.017  34.812  37.694  1.00  0.00     0.198 A 
ATOM     91  C   UNL A   1      38.360  33.190  38.305  1.00  0.00     0.198 A 
ATOM     92  F   UNL A   1      38.230  31.145  37.154  1.00  0.00    -0.203 F 
ATOM     93  F   UNL A   1      40.621  35.991  37.903  1.00  0.00    -0.200 F 
ATOM     94  C   UNL A   1      38.961  34.422  38.503  1.00  0.00     0.200 A 
ATOM     95  F   UNL A   1      37.326  32.818  39.074  1.00  0.00    -0.200 F 
ATOM     96  F   UNL A   1      38.528  35.233  39.479  1.00  0.00    -0.200 F 
ENDBRANCH  63  86
ENDBRANCH  37  38
ENDBRANCH  30  32
ENDBRANCH  29  30
ENDBRANCH  28  29
ENDBRANCH  27  28
ENDBRANCH  26  27
ENDBRANCH  25  26
ENDBRANCH  24  25
ENDBRANCH   1  24
TORSDOF 22
ENDMDL
