MODEL 1
REMARK VINA RESULT:     -10.5      0.000      0.000
REMARK SMILES Cc1cccc(CS[C@@H]2CC[C@]([NH3+])(C(=O)OCCOCCOCCOCCOC(=O)c3ccc(-c4c5nc(c(-c6c(F)c(F)c(F)c(F)c6F)c6ccc([nH]6)c(-c6c(F)c(F)c(F)c(F)c6F)c6nc(c(-c7c(F)c(F)c(F)c(F)c7F)c7ccc4[nH]7)C=C6)C=C5)cc3)C2)c1
REMARK SMILES IDX 21 1 20 2 19 3 18 4 17 5 16 6 14 7 15 8 12 9 9 10 10 11
REMARK SMILES IDX 94 12 11 13 8 14 7 15 6 16 1 17 2 18 3 19 95 20 4 21 5 22
REMARK SMILES IDX 13 23 22 27 23 28 24 29 25 30 26 31 27 32 28 33 29 34 30 35
REMARK SMILES IDX 31 36 32 37 93 38 33 39 92 40 34 41 35 42 36 43 86 44 37 45
REMARK SMILES IDX 91 46 85 47 87 48 38 49 90 50 84 51 83 52 39 54 71 55 51 56
REMARK SMILES IDX 70 57 52 58 55 59 69 60 88 61 53 62 54 63 68 65 89 66 56 67
REMARK SMILES IDX 40 68 41 69 49 70 42 71 43 72 47 73 50 74 44 75 45 76 48 77
REMARK SMILES IDX 46 78 72 79 73 80 81 81 74 82 75 83 79 84 82 85 76 86 77 87
REMARK SMILES IDX 80 88 78 89 57 90 58 91 66 92 59 93 60 94 64 95 67 96 61 97
REMARK SMILES IDX 62 98 65 99 63 100
REMARK H PARENT 13 24 13 25 13 26 87 53 55 64
REMARK Flexibility Score: inf
ROOT
ATOM      1  C   UNL A   1      38.433  22.233  25.862  1.00  0.00     0.188 C 
ENDROOT
BRANCH   1   2
ATOM      2  C   UNL A   1      36.912  22.124  26.025  1.00  0.00     0.188 C 
BRANCH   2   3
ATOM      3  O   UNL A   1      36.124  22.044  24.844  1.00  0.00    -0.376 OA
BRANCH   3   4
ATOM      4  C   UNL A   1      34.938  22.841  24.837  1.00  0.00     0.202 C 
BRANCH   4   5
ATOM      5  C   UNL A   1      34.158  22.809  23.531  1.00  0.00     0.261 C 
BRANCH   5   6
ATOM      6  O   UNL A   1      33.447  24.047  23.362  1.00  0.00    -0.459 OA
BRANCH   6   7
ATOM      7  C   UNL A   1      33.143  24.355  22.081  1.00  0.00     0.368 C 
ATOM      8  O   UNL A   1      33.301  23.590  21.132  1.00  0.00    -0.245 OA
BRANCH   7   9
ATOM      9  C   UNL A   1      32.430  25.711  21.962  1.00  0.00     0.193 C 
ATOM     10  C   UNL A   1      32.825  28.025  22.621  1.00  0.00     0.054 C 
ATOM     11  C   UNL A   1      31.461  27.569  23.154  1.00  0.00     0.022 C 
ATOM     12  C   UNL A   1      33.512  26.790  22.063  1.00  0.00     0.095 C 
ATOM     13  C   UNL A   1      31.484  26.040  23.117  1.00  0.00     0.082 C 
BRANCH  10  14
ATOM     14  S   UNL A   1      33.970  28.919  23.734  1.00  0.00    -0.154 SA
BRANCH  14  15
ATOM     15  C   UNL A   1      32.963  29.169  25.253  1.00  0.00     0.105 C 
BRANCH  15  16
ATOM     16  C   UNL A   1      33.759  29.688  26.426  1.00  0.00    -0.038 A 
ATOM     17  C   UNL A   1      34.022  32.844  28.555  1.00  0.00     0.044 C 
ATOM     18  C   UNL A   1      34.276  31.481  27.994  1.00  0.00    -0.051 A 
ATOM     19  C   UNL A   1      35.381  30.760  28.447  1.00  0.00     0.003 A 
ATOM     20  C   UNL A   1      33.472  30.946  26.976  1.00  0.00     0.008 A 
ATOM     21  C   UNL A   1      35.629  29.482  27.964  1.00  0.00     0.001 A 
ATOM     22  C   UNL A   1      34.802  28.938  26.987  1.00  0.00     0.004 A 
ENDBRANCH  15  16
ENDBRANCH  14  15
ENDBRANCH  10  14
BRANCH   9  23
ATOM     23  N   UNL A   1      31.722  25.838  20.671  1.00  0.00    -0.343 N 
ATOM     24  H   UNL A   1      31.109  25.032  20.538  1.00  0.00     0.345 HD
ATOM     25  H   UNL A   1      32.403  25.876  19.913  1.00  0.00     0.345 HD
ATOM     26  H   UNL A   1      31.165  26.692  20.672  1.00  0.00     0.345 HD
ENDBRANCH   9  23
ENDBRANCH   7   9
ENDBRANCH   6   7
ENDBRANCH   5   6
ENDBRANCH   4   5
ENDBRANCH   3   4
ENDBRANCH   2   3
ENDBRANCH   1   2
BRANCH   1  27
ATOM     27  O   UNL A   1      39.124  20.995  25.709  1.00  0.00    -0.377 OA
BRANCH  27  28
ATOM     28  C   UNL A   1      40.424  21.045  26.293  1.00  0.00     0.188 C 
BRANCH  28  29
ATOM     29  C   UNL A   1      40.844  19.713  26.918  1.00  0.00     0.188 C 
BRANCH  29  30
ATOM     30  O   UNL A   1      42.231  19.421  26.931  1.00  0.00    -0.376 OA
BRANCH  30  31
ATOM     31  C   UNL A   1      42.789  18.482  26.023  1.00  0.00     0.202 C 
BRANCH  31  32
ATOM     32  C   UNL A   1      44.138  18.865  25.406  1.00  0.00     0.261 C 
BRANCH  32  33
ATOM     33  O   UNL A   1      44.009  20.097  24.674  1.00  0.00    -0.460 OA
BRANCH  33  34
ATOM     34  C   UNL A   1      44.743  21.128  25.156  1.00  0.00     0.338 C 
ATOM     35  O   UNL A   1      45.944  21.069  25.436  1.00  0.00    -0.246 OA
BRANCH  34  36
ATOM     36  C   UNL A   1      43.845  22.227  25.597  1.00  0.00     0.060 A 
ATOM     37  C   UNL A   1      43.482  23.232  24.685  1.00  0.00     0.016 A 
ATOM     38  C   UNL A   1      43.684  22.451  26.961  1.00  0.00     0.016 A 
ATOM     39  C   UNL A   1      43.157  24.516  25.144  1.00  0.00     0.010 A 
ATOM     40  C   UNL A   1      43.469  23.745  27.397  1.00  0.00     0.010 A 
ATOM     41  C   UNL A   1      43.266  24.811  26.505  1.00  0.00    -0.014 A 
BRANCH  41  42
ATOM     42  C   UNL A   1      43.431  26.175  27.065  1.00  0.00     0.031 A 
ATOM     43  C   UNL A   1      42.215  27.033  27.315  1.00  0.00     0.074 A 
ATOM     44  C   UNL A   1      44.614  26.498  27.667  1.00  0.00     0.049 A 
ATOM     45  N   UNL A   1      42.233  28.168  27.930  1.00  0.00    -0.248 NA
ATOM     46  C   UNL A   1      40.850  26.687  26.906  1.00  0.00     0.031 C 
ATOM     47  C   UNL A   1      44.793  27.437  28.773  1.00  0.00     0.029 A 
ATOM     48  N   UNL A   1      45.926  26.022  27.460  1.00  0.00    -0.354 N 
ATOM     49  C   UNL A   1      40.947  28.503  28.299  1.00  0.00     0.074 A 
ATOM     50  C   UNL A   1      40.114  27.594  27.564  1.00  0.00     0.031 C 
ATOM     51  C   UNL A   1      46.086  27.595  29.076  1.00  0.00     0.029 A 
ATOM     52  C   UNL A   1      46.814  26.994  27.995  1.00  0.00     0.049 A 
ATOM     53  H   UNL A   1      46.179  25.176  27.024  1.00  0.00     0.167 HD
ATOM     54  C   UNL A   1      40.776  29.437  29.282  1.00  0.00     0.037 A 
ATOM     55  C   UNL A   1      47.646  27.724  27.194  1.00  0.00     0.037 A 
ATOM     56  C   UNL A   1      42.039  30.121  29.551  1.00  0.00     0.049 A 
ATOM     57  C   UNL A   1      47.249  29.186  27.138  1.00  0.00     0.074 A 
ATOM     58  C   UNL A   1      42.885  30.151  30.642  1.00  0.00     0.029 A 
ATOM     59  N   UNL A   1      42.729  30.709  28.489  1.00  0.00    -0.354 N 
ATOM     60  N   UNL A   1      46.034  29.606  27.389  1.00  0.00    -0.248 NA
ATOM     61  C   UNL A   1      48.177  30.291  26.925  1.00  0.00     0.031 C 
ATOM     62  C   UNL A   1      44.159  30.544  30.157  1.00  0.00     0.029 A 
ATOM     63  C   UNL A   1      44.039  30.953  28.836  1.00  0.00     0.049 A 
ATOM     64  H   UNL A   1      42.333  30.920  27.613  1.00  0.00     0.167 HD
ATOM     65  C   UNL A   1      46.024  30.969  27.489  1.00  0.00     0.074 A 
ATOM     66  C   UNL A   1      47.379  31.357  27.135  1.00  0.00     0.031 C 
ATOM     67  C   UNL A   1      44.941  31.673  27.944  1.00  0.00     0.037 A 
BRANCH  54  68
ATOM     68  C   UNL A   1      39.550  29.642  30.160  1.00  0.00     0.064 A 
ATOM     69  C   UNL A   1      38.895  30.898  30.193  1.00  0.00     0.173 A 
ATOM     70  C   UNL A   1      39.053  28.705  31.089  1.00  0.00     0.173 A 
ATOM     71  F   UNL A   1      39.261  31.893  29.370  1.00  0.00    -0.203 F 
ATOM     72  C   UNL A   1      37.850  31.190  31.080  1.00  0.00     0.198 A 
ATOM     73  C   UNL A   1      37.975  28.982  31.943  1.00  0.00     0.198 A 
ATOM     74  F   UNL A   1      39.618  27.504  31.251  1.00  0.00    -0.203 F 
ATOM     75  F   UNL A   1      37.308  32.416  31.096  1.00  0.00    -0.200 F 
ATOM     76  C   UNL A   1      37.382  30.227  31.948  1.00  0.00     0.200 A 
ATOM     77  F   UNL A   1      37.531  28.031  32.780  1.00  0.00    -0.200 F 
ATOM     78  F   UNL A   1      36.375  30.497  32.791  1.00  0.00    -0.200 F 
ENDBRANCH  54  68
BRANCH  55  79
ATOM     79  C   UNL A   1      48.312  26.853  26.188  1.00  0.00     0.064 A 
ATOM     80  C   UNL A   1      47.861  27.070  24.865  1.00  0.00     0.173 A 
ATOM     81  C   UNL A   1      49.651  26.482  26.363  1.00  0.00     0.173 A 
ATOM     82  F   UNL A   1      46.573  27.381  24.644  1.00  0.00    -0.203 F 
ATOM     83  C   UNL A   1      48.767  27.218  23.819  1.00  0.00     0.198 A 
ATOM     84  C   UNL A   1      50.548  26.584  25.295  1.00  0.00     0.198 A 
ATOM     85  F   UNL A   1      50.124  26.216  27.587  1.00  0.00    -0.203 F 
ATOM     86  F   UNL A   1      48.346  27.683  22.633  1.00  0.00    -0.200 F 
ATOM     87  C   UNL A   1      50.117  27.026  24.050  1.00  0.00     0.200 A 
ATOM     88  F   UNL A   1      51.860  26.396  25.505  1.00  0.00    -0.200 F 
ATOM     89  F   UNL A   1      51.009  27.337  23.097  1.00  0.00    -0.200 F 
ENDBRANCH  55  79
BRANCH  67  90
ATOM     90  C   UNL A   1      44.698  33.161  27.758  1.00  0.00     0.064 A 
ATOM     91  C   UNL A   1      44.025  33.711  26.657  1.00  0.00     0.173 A 
ATOM     92  C   UNL A   1      45.006  34.085  28.795  1.00  0.00     0.173 A 
ATOM     93  F   UNL A   1      43.573  32.944  25.658  1.00  0.00    -0.203 F 
ATOM     94  C   UNL A   1      43.740  35.078  26.570  1.00  0.00     0.198 A 
ATOM     95  C   UNL A   1      44.657  35.432  28.735  1.00  0.00     0.198 A 
ATOM     96  F   UNL A   1      45.634  33.712  29.919  1.00  0.00    -0.203 F 
ATOM     97  F   UNL A   1      43.143  35.557  25.470  1.00  0.00    -0.200 F 
ATOM     98  C   UNL A   1      44.042  35.933  27.612  1.00  0.00     0.200 A 
ATOM     99  F   UNL A   1      44.908  36.230  29.783  1.00  0.00    -0.200 F 
ATOM    100  F   UNL A   1      43.719  37.231  27.543  1.00  0.00    -0.200 F 
ENDBRANCH  67  90
ENDBRANCH  41  42
ENDBRANCH  34  36
ENDBRANCH  33  34
ENDBRANCH  32  33
ENDBRANCH  31  32
ENDBRANCH  30  31
ENDBRANCH  29  30
ENDBRANCH  28  29
ENDBRANCH  27  28
ENDBRANCH   1  27
TORSDOF 24
ENDMDL
MODEL 2
REMARK VINA RESULT:     -10.4      1.513      3.059
REMARK SMILES Cc1cccc(CS[C@@H]2CC[C@]([NH3+])(C(=O)OCCOCCOCCOCCOC(=O)c3ccc(-c4c5nc(c(-c6c(F)c(F)c(F)c(F)c6F)c6ccc([nH]6)c(-c6c(F)c(F)c(F)c(F)c6F)c6nc(c(-c7c(F)c(F)c(F)c(F)c7F)c7ccc4[nH]7)C=C6)C=C5)cc3)C2)c1
REMARK SMILES IDX 21 1 20 2 19 3 18 4 17 5 16 6 14 7 15 8 12 9 9 10 10 11
REMARK SMILES IDX 94 12 11 13 8 14 7 15 6 16 1 17 2 18 3 19 95 20 4 21 5 22
REMARK SMILES IDX 13 23 22 27 23 28 24 29 25 30 26 31 27 32 28 33 29 34 30 35
REMARK SMILES IDX 31 36 32 37 93 38 33 39 92 40 34 41 35 42 36 43 86 44 37 45
REMARK SMILES IDX 91 46 85 47 87 48 38 49 90 50 84 51 83 52 39 54 71 55 51 56
REMARK SMILES IDX 70 57 52 58 55 59 69 60 88 61 53 62 54 63 68 65 89 66 56 67
REMARK SMILES IDX 40 68 41 69 49 70 42 71 43 72 47 73 50 74 44 75 45 76 48 77
REMARK SMILES IDX 46 78 72 79 73 80 81 81 74 82 75 83 79 84 82 85 76 86 77 87
REMARK SMILES IDX 80 88 78 89 57 90 58 91 66 92 59 93 60 94 64 95 67 96 61 97
REMARK SMILES IDX 62 98 65 99 63 100
REMARK H PARENT 13 24 13 25 13 26 87 53 55 64
REMARK Flexibility Score: inf
ROOT
ATOM      1  C   UNL A   1      37.107  23.056  25.769  1.00  0.00     0.188 C 
ENDROOT
BRANCH   1   2
ATOM      2  C   UNL A   1      35.725  22.397  25.700  1.00  0.00     0.188 C 
BRANCH   2   3
ATOM      3  O   UNL A   1      34.593  23.199  26.016  1.00  0.00    -0.376 OA
BRANCH   3   4
ATOM      4  C   UNL A   1      34.425  24.373  25.220  1.00  0.00     0.202 C 
BRANCH   4   5
ATOM      5  C   UNL A   1      33.900  25.585  25.976  1.00  0.00     0.261 C 
BRANCH   5   6
ATOM      6  O   UNL A   1      34.030  26.759  25.157  1.00  0.00    -0.459 OA
BRANCH   6   7
ATOM      7  C   UNL A   1      33.671  27.914  25.762  1.00  0.00     0.368 C 
ATOM      8  O   UNL A   1      34.178  28.334  26.800  1.00  0.00    -0.245 OA
BRANCH   7   9
ATOM      9  C   UNL A   1      32.668  28.723  24.925  1.00  0.00     0.193 C 
ATOM     10  C   UNL A   1      30.513  28.365  23.843  1.00  0.00     0.054 C 
ATOM     11  C   UNL A   1      31.515  28.904  22.816  1.00  0.00     0.022 C 
ATOM     12  C   UNL A   1      31.302  28.055  25.104  1.00  0.00     0.095 C 
ATOM     13  C   UNL A   1      32.903  28.666  23.415  1.00  0.00     0.082 C 
BRANCH  10  14
ATOM     14  S   UNL A   1      29.461  26.933  23.406  1.00  0.00    -0.154 SA
BRANCH  14  15
ATOM     15  C   UNL A   1      30.228  25.551  24.348  1.00  0.00     0.105 C 
BRANCH  15  16
ATOM     16  C   UNL A   1      31.146  24.688  23.515  1.00  0.00    -0.038 A 
ATOM     17  C   UNL A   1      32.300  21.056  23.331  1.00  0.00     0.044 C 
ATOM     18  C   UNL A   1      32.157  22.519  23.056  1.00  0.00    -0.051 A 
ATOM     19  C   UNL A   1      33.018  23.120  22.136  1.00  0.00     0.003 A 
ATOM     20  C   UNL A   1      31.227  23.308  23.750  1.00  0.00     0.008 A 
ATOM     21  C   UNL A   1      32.893  24.471  21.841  1.00  0.00     0.001 A 
ATOM     22  C   UNL A   1      31.940  25.240  22.499  1.00  0.00     0.004 A 
ENDBRANCH  15  16
ENDBRANCH  14  15
ENDBRANCH  10  14
BRANCH   9  23
ATOM     23  N   UNL A   1      32.596  30.128  25.378  1.00  0.00    -0.343 N 
ATOM     24  H   UNL A   1      32.194  30.704  24.637  1.00  0.00     0.345 HD
ATOM     25  H   UNL A   1      33.533  30.462  25.598  1.00  0.00     0.345 HD
ATOM     26  H   UNL A   1      32.009  30.187  26.209  1.00  0.00     0.345 HD
ENDBRANCH   9  23
ENDBRANCH   7   9
ENDBRANCH   6   7
ENDBRANCH   5   6
ENDBRANCH   4   5
ENDBRANCH   3   4
ENDBRANCH   2   3
ENDBRANCH   1   2
BRANCH   1  27
ATOM     27  O   UNL A   1      38.166  22.326  25.152  1.00  0.00    -0.377 OA
BRANCH  27  28
ATOM     28  C   UNL A   1      39.136  21.901  26.107  1.00  0.00     0.188 C 
BRANCH  28  29
ATOM     29  C   UNL A   1      39.510  20.425  25.955  1.00  0.00     0.188 C 
BRANCH  29  30
ATOM     30  O   UNL A   1      40.804  20.044  26.391  1.00  0.00    -0.376 OA
BRANCH  30  31
ATOM     31  C   UNL A   1      41.543  19.045  25.704  1.00  0.00     0.202 C 
BRANCH  31  32
ATOM     32  C   UNL A   1      43.054  19.039  25.950  1.00  0.00     0.261 C 
BRANCH  32  33
ATOM     33  O   UNL A   1      43.725  19.756  24.898  1.00  0.00    -0.460 OA
BRANCH  33  34
ATOM     34  C   UNL A   1      44.475  20.806  25.309  1.00  0.00     0.338 C 
ATOM     35  O   UNL A   1      45.657  20.735  25.656  1.00  0.00    -0.246 OA
BRANCH  34  36
ATOM     36  C   UNL A   1      43.601  21.976  25.585  1.00  0.00     0.060 A 
ATOM     37  C   UNL A   1      43.477  22.990  24.622  1.00  0.00     0.016 A 
ATOM     38  C   UNL A   1      43.226  22.232  26.901  1.00  0.00     0.016 A 
ATOM     39  C   UNL A   1      43.177  24.302  25.015  1.00  0.00     0.010 A 
ATOM     40  C   UNL A   1      43.039  23.546  27.290  1.00  0.00     0.010 A 
ATOM     41  C   UNL A   1      43.073  24.609  26.373  1.00  0.00    -0.014 A 
BRANCH  41  42
ATOM     42  C   UNL A   1      43.244  25.966  26.950  1.00  0.00     0.031 A 
ATOM     43  C   UNL A   1      42.033  26.832  27.195  1.00  0.00     0.074 A 
ATOM     44  C   UNL A   1      44.423  26.272  27.568  1.00  0.00     0.049 A 
ATOM     45  N   UNL A   1      42.053  27.960  27.823  1.00  0.00    -0.248 NA
ATOM     46  C   UNL A   1      40.669  26.502  26.767  1.00  0.00     0.031 C 
ATOM     47  C   UNL A   1      44.597  27.199  28.686  1.00  0.00     0.029 A 
ATOM     48  N   UNL A   1      45.733  25.788  27.371  1.00  0.00    -0.354 N 
ATOM     49  C   UNL A   1      40.765  28.303  28.180  1.00  0.00     0.074 A 
ATOM     50  C   UNL A   1      39.933  27.408  27.427  1.00  0.00     0.031 C 
ATOM     51  C   UNL A   1      45.887  27.342  29.006  1.00  0.00     0.029 A 
ATOM     52  C   UNL A   1      46.623  26.747  27.927  1.00  0.00     0.049 A 
ATOM     53  H   UNL A   1      45.984  24.945  26.929  1.00  0.00     0.167 HD
ATOM     54  C   UNL A   1      40.591  29.227  29.171  1.00  0.00     0.037 A 
ATOM     55  C   UNL A   1      47.471  27.478  27.142  1.00  0.00     0.037 A 
ATOM     56  C   UNL A   1      41.857  29.898  29.462  1.00  0.00     0.049 A 
ATOM     57  C   UNL A   1      47.086  28.943  27.097  1.00  0.00     0.074 A 
ATOM     58  C   UNL A   1      42.691  29.909  30.562  1.00  0.00     0.029 A 
ATOM     59  N   UNL A   1      42.564  30.491  28.414  1.00  0.00    -0.354 N 
ATOM     60  N   UNL A   1      45.872  29.371  27.340  1.00  0.00    -0.248 NA
ATOM     61  C   UNL A   1      48.026  30.043  26.907  1.00  0.00     0.031 C 
ATOM     62  C   UNL A   1      43.973  30.296  30.096  1.00  0.00     0.029 A 
ATOM     63  C   UNL A   1      43.872  30.720  28.778  1.00  0.00     0.049 A 
ATOM     64  H   UNL A   1      42.179  30.715  27.536  1.00  0.00     0.167 HD
ATOM     65  C   UNL A   1      45.872  30.734  27.454  1.00  0.00     0.074 A 
ATOM     66  C   UNL A   1      47.234  31.113  27.120  1.00  0.00     0.031 C 
ATOM     67  C   UNL A   1      44.790  31.442  27.904  1.00  0.00     0.037 A 
BRANCH  54  68
ATOM     68  C   UNL A   1      39.357  29.433  30.038  1.00  0.00     0.064 A 
ATOM     69  C   UNL A   1      38.514  30.552  29.827  1.00  0.00     0.173 A 
ATOM     70  C   UNL A   1      39.022  28.660  31.168  1.00  0.00     0.173 A 
ATOM     71  F   UNL A   1      38.711  31.386  28.794  1.00  0.00    -0.203 F 
ATOM     72  C   UNL A   1      37.445  30.871  30.676  1.00  0.00     0.198 A 
ATOM     73  C   UNL A   1      37.923  28.952  31.988  1.00  0.00     0.198 A 
ATOM     74  F   UNL A   1      39.770  27.623  31.559  1.00  0.00    -0.203 F 
ATOM     75  F   UNL A   1      36.718  31.975  30.451  1.00  0.00    -0.200 F 
ATOM     76  C   UNL A   1      37.142  30.063  31.751  1.00  0.00     0.200 A 
ATOM     77  F   UNL A   1      37.642  28.153  33.029  1.00  0.00    -0.200 F 
ATOM     78  F   UNL A   1      36.114  30.358  32.559  1.00  0.00    -0.200 F 
ENDBRANCH  54  68
BRANCH  55  79
ATOM     79  C   UNL A   1      48.140  26.612  26.135  1.00  0.00     0.064 A 
ATOM     80  C   UNL A   1      47.723  26.863  24.807  1.00  0.00     0.173 A 
ATOM     81  C   UNL A   1      49.467  26.209  26.332  1.00  0.00     0.173 A 
ATOM     82  F   UNL A   1      46.448  27.206  24.564  1.00  0.00    -0.203 F 
ATOM     83  C   UNL A   1      48.656  27.011  23.784  1.00  0.00     0.198 A 
ATOM     84  C   UNL A   1      50.390  26.312  25.286  1.00  0.00     0.198 A 
ATOM     85  F   UNL A   1      49.907  25.910  27.561  1.00  0.00    -0.203 F 
ATOM     86  F   UNL A   1      48.271  27.507  22.598  1.00  0.00    -0.200 F 
ATOM     87  C   UNL A   1      49.996  26.786  24.041  1.00  0.00     0.200 A 
ATOM     88  F   UNL A   1      51.692  26.092  25.522  1.00  0.00    -0.200 F 
ATOM     89  F   UNL A   1      50.915  27.096  23.114  1.00  0.00    -0.200 F 
ENDBRANCH  55  79
BRANCH  67  90
ATOM     90  C   UNL A   1      44.562  32.933  27.731  1.00  0.00     0.064 A 
ATOM     91  C   UNL A   1      43.988  33.509  26.588  1.00  0.00     0.173 A 
ATOM     92  C   UNL A   1      44.775  33.833  28.812  1.00  0.00     0.173 A 
ATOM     93  F   UNL A   1      43.627  32.764  25.536  1.00  0.00    -0.203 F 
ATOM     94  C   UNL A   1      43.709  34.877  26.507  1.00  0.00     0.198 A 
ATOM     95  C   UNL A   1      44.431  35.181  28.752  1.00  0.00     0.198 A 
ATOM     96  F   UNL A   1      45.303  33.435  29.978  1.00  0.00    -0.203 F 
ATOM     97  F   UNL A   1      43.210  35.381  25.370  1.00  0.00    -0.200 F 
ATOM     98  C   UNL A   1      43.916  35.708  27.591  1.00  0.00     0.200 A 
ATOM     99  F   UNL A   1      44.587  35.955  29.836  1.00  0.00    -0.200 F 
ATOM    100  F   UNL A   1      43.599  37.007  27.523  1.00  0.00    -0.200 F 
ENDBRANCH  67  90
ENDBRANCH  41  42
ENDBRANCH  34  36
ENDBRANCH  33  34
ENDBRANCH  32  33
ENDBRANCH  31  32
ENDBRANCH  30  31
ENDBRANCH  29  30
ENDBRANCH  28  29
ENDBRANCH  27  28
ENDBRANCH   1  27
TORSDOF 24
ENDMDL
MODEL 3
REMARK VINA RESULT:     -10.3      4.699     10.787
REMARK SMILES Cc1cccc(CS[C@@H]2CC[C@]([NH3+])(C(=O)OCCOCCOCCOCCOC(=O)c3ccc(-c4c5nc(c(-c6c(F)c(F)c(F)c(F)c6F)c6ccc([nH]6)c(-c6c(F)c(F)c(F)c(F)c6F)c6nc(c(-c7c(F)c(F)c(F)c(F)c7F)c7ccc4[nH]7)C=C6)C=C5)cc3)C2)c1
REMARK SMILES IDX 21 1 20 2 19 3 18 4 17 5 16 6 14 7 15 8 12 9 9 10 10 11
REMARK SMILES IDX 94 12 11 13 8 14 7 15 6 16 1 17 2 18 3 19 95 20 4 21 5 22
REMARK SMILES IDX 13 23 22 27 23 28 24 29 25 30 26 31 27 32 28 33 29 34 30 35
REMARK SMILES IDX 31 36 32 37 93 38 33 39 92 40 34 41 35 42 36 43 86 44 37 45
REMARK SMILES IDX 91 46 85 47 87 48 38 49 90 50 84 51 83 52 39 54 71 55 51 56
REMARK SMILES IDX 70 57 52 58 55 59 69 60 88 61 53 62 54 63 68 65 89 66 56 67
REMARK SMILES IDX 40 68 41 69 49 70 42 71 43 72 47 73 50 74 44 75 45 76 48 77
REMARK SMILES IDX 46 78 72 79 73 80 81 81 74 82 75 83 79 84 82 85 76 86 77 87
REMARK SMILES IDX 80 88 78 89 57 90 58 91 66 92 59 93 60 94 64 95 67 96 61 97
REMARK SMILES IDX 62 98 65 99 63 100
REMARK H PARENT 13 24 13 25 13 26 87 53 55 64
REMARK Flexibility Score: inf
ROOT
ATOM      1  C   UNL A   1      30.686  29.532  24.151  1.00  0.00     0.188 C 
ENDROOT
BRANCH   1   2
ATOM      2  C   UNL A   1      31.134  28.972  22.796  1.00  0.00     0.188 C 
BRANCH   2   3
ATOM      3  O   UNL A   1      32.360  28.253  22.750  1.00  0.00    -0.376 OA
BRANCH   3   4
ATOM      4  C   UNL A   1      32.422  27.196  21.791  1.00  0.00     0.202 C 
BRANCH   4   5
ATOM      5  C   UNL A   1      33.262  26.000  22.215  1.00  0.00     0.261 C 
BRANCH   5   6
ATOM      6  O   UNL A   1      32.453  24.813  22.206  1.00  0.00    -0.459 OA
BRANCH   6   7
ATOM      7  C   UNL A   1      33.113  23.675  22.521  1.00  0.00     0.368 C 
ATOM      8  O   UNL A   1      34.304  23.483  22.289  1.00  0.00    -0.245 OA
BRANCH   7   9
ATOM      9  C   UNL A   1      32.247  22.709  23.344  1.00  0.00     0.193 C 
ATOM     10  C   UNL A   1      32.096  21.933  25.651  1.00  0.00     0.054 C 
ATOM     11  C   UNL A   1      32.219  20.725  24.714  1.00  0.00     0.022 C 
ATOM     12  C   UNL A   1      32.330  23.171  24.801  1.00  0.00     0.095 C 
ATOM     13  C   UNL A   1      32.763  21.270  23.392  1.00  0.00     0.082 C 
BRANCH  10  14
ATOM     14  S   UNL A   1      33.135  22.012  27.156  1.00  0.00    -0.154 SA
BRANCH  14  15
ATOM     15  C   UNL A   1      34.320  23.366  26.772  1.00  0.00     0.105 C 
BRANCH  15  16
ATOM     16  C   UNL A   1      35.629  22.877  26.200  1.00  0.00    -0.038 A 
ATOM     17  C   UNL A   1      37.149  19.655  24.833  1.00  0.00     0.044 C 
ATOM     18  C   UNL A   1      36.988  21.069  25.292  1.00  0.00    -0.051 A 
ATOM     19  C   UNL A   1      38.115  21.889  25.357  1.00  0.00     0.003 A 
ATOM     20  C   UNL A   1      35.748  21.563  25.723  1.00  0.00     0.008 A 
ATOM     21  C   UNL A   1      37.994  23.214  25.755  1.00  0.00     0.001 A 
ATOM     22  C   UNL A   1      36.754  23.713  26.138  1.00  0.00     0.004 A 
ENDBRANCH  15  16
ENDBRANCH  14  15
ENDBRANCH  10  14
BRANCH   9  23
ATOM     23  N   UNL A   1      30.839  22.731  22.897  1.00  0.00    -0.343 N 
ATOM     24  H   UNL A   1      30.721  22.090  22.111  1.00  0.00     0.345 HD
ATOM     25  H   UNL A   1      30.590  23.675  22.605  1.00  0.00     0.345 HD
ATOM     26  H   UNL A   1      30.234  22.441  23.665  1.00  0.00     0.345 HD
ENDBRANCH   9  23
ENDBRANCH   7   9
ENDBRANCH   6   7
ENDBRANCH   5   6
ENDBRANCH   4   5
ENDBRANCH   3   4
ENDBRANCH   2   3
ENDBRANCH   1   2
BRANCH   1  27
ATOM     27  O   UNL A   1      31.699  29.603  25.151  1.00  0.00    -0.377 OA
BRANCH  27  28
ATOM     28  C   UNL A   1      31.737  28.417  25.943  1.00  0.00     0.188 C 
BRANCH  28  29
ATOM     29  C   UNL A   1      32.504  28.604  27.254  1.00  0.00     0.188 C 
BRANCH  29  30
ATOM     30  O   UNL A   1      33.911  28.440  27.201  1.00  0.00    -0.376 OA
BRANCH  30  31
ATOM     31  C   UNL A   1      34.785  29.494  27.580  1.00  0.00     0.202 C 
BRANCH  31  32
ATOM     32  C   UNL A   1      34.322  30.910  27.227  1.00  0.00     0.261 C 
BRANCH  32  33
ATOM     33  O   UNL A   1      33.780  31.554  28.394  1.00  0.00    -0.460 OA
BRANCH  33  34
ATOM     34  C   UNL A   1      34.061  32.874  28.501  1.00  0.00     0.338 C 
ATOM     35  O   UNL A   1      33.607  33.754  27.764  1.00  0.00    -0.246 OA
BRANCH  34  36
ATOM     36  C   UNL A   1      35.220  33.074  29.410  1.00  0.00     0.060 A 
ATOM     37  C   UNL A   1      36.434  33.550  28.889  1.00  0.00     0.016 A 
ATOM     38  C   UNL A   1      35.208  32.450  30.654  1.00  0.00     0.016 A 
ATOM     39  C   UNL A   1      37.646  33.221  29.514  1.00  0.00     0.010 A 
ATOM     40  C   UNL A   1      36.410  32.040  31.200  1.00  0.00     0.010 A 
ATOM     41  C   UNL A   1      37.645  32.360  30.612  1.00  0.00    -0.014 A 
BRANCH  41  42
ATOM     42  C   UNL A   1      38.811  31.558  31.060  1.00  0.00     0.031 A 
ATOM     43  C   UNL A   1      39.091  30.222  30.416  1.00  0.00     0.074 A 
ATOM     44  C   UNL A   1      39.795  32.175  31.776  1.00  0.00     0.049 A 
ATOM     45  N   UNL A   1      40.151  29.515  30.624  1.00  0.00    -0.248 NA
ATOM     46  C   UNL A   1      38.204  29.554  29.457  1.00  0.00     0.031 C 
ATOM     47  C   UNL A   1      41.216  31.828  31.770  1.00  0.00     0.029 A 
ATOM     48  N   UNL A   1      39.761  33.290  32.640  1.00  0.00    -0.354 N 
ATOM     49  C   UNL A   1      40.260  28.559  29.636  1.00  0.00     0.074 A 
ATOM     50  C   UNL A   1      38.981  28.569  28.984  1.00  0.00     0.031 C 
ATOM     51  C   UNL A   1      41.904  32.569  32.645  1.00  0.00     0.029 A 
ATOM     52  C   UNL A   1      40.920  33.221  33.461  1.00  0.00     0.049 A 
ATOM     53  H   UNL A   1      39.065  33.985  32.670  1.00  0.00     0.167 HD
ATOM     54  C   UNL A   1      41.477  27.974  29.430  1.00  0.00     0.037 A 
ATOM     55  C   UNL A   1      40.833  32.992  34.806  1.00  0.00     0.037 A 
ATOM     56  C   UNL A   1      42.381  28.291  30.535  1.00  0.00     0.049 A 
ATOM     57  C   UNL A   1      41.375  31.630  35.191  1.00  0.00     0.074 A 
ATOM     58  C   UNL A   1      43.539  29.037  30.626  1.00  0.00     0.029 A 
ATOM     59  N   UNL A   1      41.970  28.024  31.842  1.00  0.00    -0.354 N 
ATOM     60  N   UNL A   1      41.447  30.627  34.352  1.00  0.00    -0.248 NA
ATOM     61  C   UNL A   1      41.985  31.312  36.478  1.00  0.00     0.031 C 
ATOM     62  C   UNL A   1      43.678  29.407  31.988  1.00  0.00     0.029 A 
ATOM     63  C   UNL A   1      42.740  28.720  32.746  1.00  0.00     0.049 A 
ATOM     64  H   UNL A   1      41.230  27.420  32.084  1.00  0.00     0.167 HD
ATOM     65  C   UNL A   1      42.180  29.612  34.901  1.00  0.00     0.074 A 
ATOM     66  C   UNL A   1      42.448  30.066  36.255  1.00  0.00     0.031 C 
ATOM     67  C   UNL A   1      42.593  28.521  34.184  1.00  0.00     0.037 A 
BRANCH  54  68
ATOM     68  C   UNL A   1      41.965  27.271  28.171  1.00  0.00     0.064 A 
ATOM     69  C   UNL A   1      42.053  27.978  26.946  1.00  0.00     0.173 A 
ATOM     70  C   UNL A   1      42.226  25.890  28.064  1.00  0.00     0.173 A 
ATOM     71  F   UNL A   1      41.826  29.299  26.889  1.00  0.00    -0.203 F 
ATOM     72  C   UNL A   1      42.362  27.356  25.729  1.00  0.00     0.198 A 
ATOM     73  C   UNL A   1      42.583  25.277  26.854  1.00  0.00     0.198 A 
ATOM     74  F   UNL A   1      42.097  25.065  29.108  1.00  0.00    -0.203 F 
ATOM     75  F   UNL A   1      42.378  28.073  24.596  1.00  0.00    -0.200 F 
ATOM     76  C   UNL A   1      42.639  26.006  25.685  1.00  0.00     0.200 A 
ATOM     77  F   UNL A   1      42.851  23.963  26.830  1.00  0.00    -0.200 F 
ATOM     78  F   UNL A   1      42.946  25.409  24.524  1.00  0.00    -0.200 F 
ENDBRANCH  54  68
BRANCH  55  79
ATOM     79  C   UNL A   1      39.765  33.828  35.417  1.00  0.00     0.064 A 
ATOM     80  C   UNL A   1      38.752  33.073  36.054  1.00  0.00     0.173 A 
ATOM     81  C   UNL A   1      40.082  35.077  35.965  1.00  0.00     0.173 A 
ATOM     82  F   UNL A   1      38.380  31.890  35.538  1.00  0.00    -0.203 F 
ATOM     83  C   UNL A   1      38.314  33.405  37.333  1.00  0.00     0.198 A 
ATOM     84  C   UNL A   1      39.599  35.428  37.230  1.00  0.00     0.198 A 
ATOM     85  F   UNL A   1      40.998  35.859  35.378  1.00  0.00    -0.203 F 
ATOM     86  F   UNL A   1      37.558  32.539  38.024  1.00  0.00    -0.200 F 
ATOM     87  C   UNL A   1      38.781  34.556  37.939  1.00  0.00     0.200 A 
ATOM     88  F   UNL A   1      40.041  36.544  37.826  1.00  0.00    -0.200 F 
ATOM     89  F   UNL A   1      38.505  34.791  39.231  1.00  0.00    -0.200 F 
ENDBRANCH  55  79
BRANCH  67  90
ATOM     90  C   UNL A   1      43.082  27.204  34.760  1.00  0.00     0.064 A 
ATOM     91  C   UNL A   1      44.398  26.981  35.190  1.00  0.00     0.173 A 
ATOM     92  C   UNL A   1      42.170  26.152  35.051  1.00  0.00     0.173 A 
ATOM     93  F   UNL A   1      45.339  27.927  35.085  1.00  0.00    -0.203 F 
ATOM     94  C   UNL A   1      44.786  25.783  35.801  1.00  0.00     0.198 A 
ATOM     95  C   UNL A   1      42.545  24.992  35.724  1.00  0.00     0.198 A 
ATOM     96  F   UNL A   1      40.873  26.220  34.718  1.00  0.00    -0.203 F 
ATOM     97  F   UNL A   1      46.068  25.604  36.144  1.00  0.00    -0.200 F 
ATOM     98  C   UNL A   1      43.858  24.798  36.081  1.00  0.00     0.200 A 
ATOM     99  F   UNL A   1      41.616  24.075  36.036  1.00  0.00    -0.200 F 
ATOM    100  F   UNL A   1      44.227  23.677  36.713  1.00  0.00    -0.200 F 
ENDBRANCH  67  90
ENDBRANCH  41  42
ENDBRANCH  34  36
ENDBRANCH  33  34
ENDBRANCH  32  33
ENDBRANCH  31  32
ENDBRANCH  30  31
ENDBRANCH  29  30
ENDBRANCH  28  29
ENDBRANCH  27  28
ENDBRANCH   1  27
TORSDOF 24
ENDMDL
