MODEL 1
REMARK VINA RESULT:     -10.3      0.000      0.000
REMARK SMILES C[C@](NC(=O)[C@](C)([NH3+])C(F)(F)F)(C(=O)OCCOCCOCCOCCOC(=O)c1ccc(-c2c3nc(c(-c4c(F)c(F)c(F)c(F)c4F)c4ccc([nH]4)c(-c4c(F)c(F)c(F)c(F)c4F)c4nc(c(-c5c(F)c(F)c(F)c(F)c5F)c5ccc2[nH]5)C=C4)C=C3)cc1)c1ccccc1
REMARK SMILES IDX 20 1 19 2 18 3 17 4 16 5 15 6 13 7 14 8 2 9 1 10 93 11 94 12
REMARK SMILES IDX 98 13 95 14 97 15 96 16 3 17 4 18 5 20 6 21 7 22 8 23 9 27
REMARK SMILES IDX 10 28 11 29 12 30 21 31 22 32 23 33 24 34 25 35 26 36 27 37
REMARK SMILES IDX 28 38 29 39 30 40 31 41 92 42 32 43 91 44 33 45 34 46 35 47
REMARK SMILES IDX 85 48 36 49 90 50 84 51 86 52 37 53 89 54 83 55 82 56 38 58
REMARK SMILES IDX 70 59 50 60 69 61 51 62 54 63 68 64 87 65 52 66 53 67 67 69
REMARK SMILES IDX 88 70 55 71 39 72 40 73 48 74 41 75 42 76 46 77 49 78 43 79
REMARK SMILES IDX 44 80 47 81 45 82 71 83 72 84 80 85 73 86 74 87 78 88 81 89
REMARK SMILES IDX 75 90 76 91 79 92 77 93 56 94 57 95 65 96 58 97 59 98 63 99
REMARK SMILES IDX 66 100 60 101 61 102 64 103 62 104
REMARK H PARENT 3 19 8 24 8 25 8 26 86 57 54 68
REMARK Flexibility Score: inf
ROOT
ATOM      1  C   UNL A   1      38.496  21.831  25.793  1.00  0.00     0.188 C 
ENDROOT
BRANCH   1   2
ATOM      2  C   UNL A   1      37.054  21.316  25.644  1.00  0.00     0.188 C 
BRANCH   2   3
ATOM      3  O   UNL A   1      36.517  21.549  24.342  1.00  0.00    -0.376 OA
BRANCH   3   4
ATOM      4  C   UNL A   1      36.478  22.892  23.881  1.00  0.00     0.202 C 
BRANCH   4   5
ATOM      5  C   UNL A   1      35.278  23.250  22.988  1.00  0.00     0.261 C 
BRANCH   5   6
ATOM      6  O   UNL A   1      34.211  23.971  23.645  1.00  0.00    -0.461 OA
BRANCH   6   7
ATOM      7  C   UNL A   1      33.006  23.948  23.021  1.00  0.00     0.336 C 
ATOM      8  O   UNL A   1      32.832  24.413  21.898  1.00  0.00    -0.249 OA
BRANCH   7   9
ATOM      9  C   UNL A   1      31.838  23.364  23.934  1.00  0.00     0.161 C 
ATOM     10  C   UNL A   1      30.614  23.842  23.120  1.00  0.00     0.053 C 
BRANCH   9  11
ATOM     11  C   UNL A   1      32.176  21.870  24.062  1.00  0.00    -0.012 A 
ATOM     12  C   UNL A   1      32.074  21.013  22.939  1.00  0.00     0.007 A 
ATOM     13  C   UNL A   1      32.461  21.270  25.292  1.00  0.00     0.007 A 
ATOM     14  C   UNL A   1      32.306  19.641  23.025  1.00  0.00     0.000 A 
ATOM     15  C   UNL A   1      32.680  19.891  25.385  1.00  0.00     0.000 A 
ATOM     16  C   UNL A   1      32.614  19.080  24.255  1.00  0.00     0.000 A 
ENDBRANCH   9  11
BRANCH   9  17
ATOM     17  N   UNL A   1      31.701  23.956  25.302  1.00  0.00    -0.331 N 
ATOM     18  C   UNL A   1      31.675  25.208  25.850  1.00  0.00     0.291 C 
ATOM     19  H   UNL A   1      31.605  23.259  25.991  1.00  0.00     0.165 HD
ATOM     20  O   UNL A   1      31.487  25.178  27.079  1.00  0.00    -0.267 OA
BRANCH  18  21
ATOM     21  C   UNL A   1      31.790  26.608  25.136  1.00  0.00     0.267 C 
ATOM     22  C   UNL A   1      30.401  26.976  24.557  1.00  0.00     0.100 C 
BRANCH  21  23
ATOM     23  N   UNL A   1      32.651  26.559  23.917  1.00  0.00    -0.337 N 
ATOM     24  H   UNL A   1      32.174  26.031  23.186  1.00  0.00     0.345 HD
ATOM     25  H   UNL A   1      33.536  26.104  24.144  1.00  0.00     0.345 HD
ATOM     26  H   UNL A   1      32.831  27.507  23.589  1.00  0.00     0.345 HD
ENDBRANCH  21  23
BRANCH  21  27
ATOM     27  C   UNL A   1      32.156  27.701  26.154  1.00  0.00     0.453 C 
ATOM     28  F   UNL A   1      31.101  28.056  26.926  1.00  0.00    -0.164 F 
ATOM     29  F   UNL A   1      33.142  27.308  26.992  1.00  0.00    -0.164 F 
ATOM     30  F   UNL A   1      32.560  28.834  25.533  1.00  0.00    -0.164 F 
ENDBRANCH  21  27
ENDBRANCH  18  21
ENDBRANCH   9  17
ENDBRANCH   7   9
ENDBRANCH   6   7
ENDBRANCH   5   6
ENDBRANCH   4   5
ENDBRANCH   3   4
ENDBRANCH   2   3
ENDBRANCH   1   2
BRANCH   1  31
ATOM     31  O   UNL A   1      39.551  20.890  25.801  1.00  0.00    -0.377 OA
BRANCH  31  32
ATOM     32  C   UNL A   1      40.567  21.120  26.753  1.00  0.00     0.188 C 
BRANCH  32  33
ATOM     33  C   UNL A   1      41.305  19.834  27.165  1.00  0.00     0.188 C 
BRANCH  33  34
ATOM     34  O   UNL A   1      42.612  19.526  26.697  1.00  0.00    -0.376 OA
BRANCH  34  35
ATOM     35  C   UNL A   1      43.134  20.045  25.486  1.00  0.00     0.202 C 
BRANCH  35  36
ATOM     36  C   UNL A   1      44.105  21.241  25.443  1.00  0.00     0.261 C 
BRANCH  36  37
ATOM     37  O   UNL A   1      43.754  22.408  26.188  1.00  0.00    -0.460 OA
BRANCH  37  38
ATOM     38  C   UNL A   1      43.856  23.586  25.536  1.00  0.00     0.338 C 
ATOM     39  O   UNL A   1      44.270  23.781  24.407  1.00  0.00    -0.246 OA
BRANCH  38  40
ATOM     40  C   UNL A   1      43.212  24.619  26.375  1.00  0.00     0.060 A 
ATOM     41  C   UNL A   1      43.778  25.901  26.416  1.00  0.00     0.016 A 
ATOM     42  C   UNL A   1      42.042  24.338  27.085  1.00  0.00     0.016 A 
ATOM     43  C   UNL A   1      43.184  26.903  27.177  1.00  0.00     0.010 A 
ATOM     44  C   UNL A   1      41.472  25.331  27.885  1.00  0.00     0.010 A 
ATOM     45  C   UNL A   1      42.061  26.605  27.956  1.00  0.00    -0.014 A 
BRANCH  45  46
ATOM     46  C   UNL A   1      41.666  27.538  29.034  1.00  0.00     0.031 A 
ATOM     47  C   UNL A   1      42.469  27.513  30.303  1.00  0.00     0.074 A 
ATOM     48  C   UNL A   1      40.638  28.391  28.891  1.00  0.00     0.049 A 
ATOM     49  N   UNL A   1      42.298  28.182  31.412  1.00  0.00    -0.248 NA
ATOM     50  C   UNL A   1      43.626  26.600  30.321  1.00  0.00     0.031 C 
ATOM     51  C   UNL A   1      39.816  28.534  27.692  1.00  0.00     0.029 A 
ATOM     52  N   UNL A   1      40.102  29.289  29.780  1.00  0.00    -0.354 N 
ATOM     53  C   UNL A   1      43.318  27.766  32.259  1.00  0.00     0.074 A 
ATOM     54  C   UNL A   1      44.087  26.770  31.548  1.00  0.00     0.031 C 
ATOM     55  C   UNL A   1      38.861  29.450  27.928  1.00  0.00     0.029 A 
ATOM     56  C   UNL A   1      38.986  29.931  29.305  1.00  0.00     0.049 A 
ATOM     57  H   UNL A   1      40.483  29.457  30.672  1.00  0.00     0.167 HD
ATOM     58  C   UNL A   1      43.589  28.182  33.517  1.00  0.00     0.037 A 
ATOM     59  C   UNL A   1      38.151  30.786  29.927  1.00  0.00     0.037 A 
ATOM     60  C   UNL A   1      42.812  29.165  34.222  1.00  0.00     0.049 A 
ATOM     61  C   UNL A   1      38.428  31.178  31.357  1.00  0.00     0.074 A 
ATOM     62  C   UNL A   1      43.013  29.673  35.492  1.00  0.00     0.029 A 
ATOM     63  N   UNL A   1      41.675  29.777  33.718  1.00  0.00    -0.354 N 
ATOM     64  N   UNL A   1      39.412  30.811  32.142  1.00  0.00    -0.248 NA
ATOM     65  C   UNL A   1      37.477  32.107  31.987  1.00  0.00     0.031 C 
ATOM     66  C   UNL A   1      41.963  30.551  35.779  1.00  0.00     0.029 A 
ATOM     67  C   UNL A   1      41.142  30.636  34.664  1.00  0.00     0.049 A 
ATOM     68  H   UNL A   1      41.301  29.624  32.819  1.00  0.00     0.167 HD
ATOM     69  C   UNL A   1      39.218  31.482  33.344  1.00  0.00     0.074 A 
ATOM     70  C   UNL A   1      38.026  32.287  33.181  1.00  0.00     0.031 C 
ATOM     71  C   UNL A   1      39.958  31.437  34.478  1.00  0.00     0.037 A 
BRANCH  58  72
ATOM     72  C   UNL A   1      44.747  27.540  34.219  1.00  0.00     0.064 A 
ATOM     73  C   UNL A   1      44.582  26.423  35.052  1.00  0.00     0.173 A 
ATOM     74  C   UNL A   1      46.045  28.045  34.048  1.00  0.00     0.173 A 
ATOM     75  F   UNL A   1      43.359  25.914  35.265  1.00  0.00    -0.203 F 
ATOM     76  C   UNL A   1      45.669  25.855  35.712  1.00  0.00     0.198 A 
ATOM     77  C   UNL A   1      47.133  27.457  34.684  1.00  0.00     0.198 A 
ATOM     78  F   UNL A   1      46.257  29.113  33.263  1.00  0.00    -0.203 F 
ATOM     79  F   UNL A   1      45.481  24.824  36.546  1.00  0.00    -0.200 F 
ATOM     80  C   UNL A   1      46.945  26.369  35.522  1.00  0.00     0.200 A 
ATOM     81  F   UNL A   1      48.366  27.947  34.491  1.00  0.00    -0.200 F 
ATOM     82  F   UNL A   1      47.990  25.818  36.154  1.00  0.00    -0.200 F 
ENDBRANCH  58  72
BRANCH  59  83
ATOM     83  C   UNL A   1      36.957  31.309  29.212  1.00  0.00     0.064 A 
ATOM     84  C   UNL A   1      36.886  32.645  28.798  1.00  0.00     0.173 A 
ATOM     85  C   UNL A   1      35.854  30.484  28.944  1.00  0.00     0.173 A 
ATOM     86  F   UNL A   1      37.903  33.481  29.054  1.00  0.00    -0.203 F 
ATOM     87  C   UNL A   1      35.751  33.142  28.158  1.00  0.00     0.198 A 
ATOM     88  C   UNL A   1      34.732  30.974  28.278  1.00  0.00     0.198 A 
ATOM     89  F   UNL A   1      35.869  29.196  29.320  1.00  0.00    -0.203 F 
ATOM     90  F   UNL A   1      35.691  34.435  27.814  1.00  0.00    -0.200 F 
ATOM     91  C   UNL A   1      34.678  32.304  27.893  1.00  0.00     0.200 A 
ATOM     92  F   UNL A   1      33.704  30.156  28.012  1.00  0.00    -0.200 F 
ATOM     93  F   UNL A   1      33.589  32.780  27.273  1.00  0.00    -0.200 F 
ENDBRANCH  59  83
BRANCH  71  94
ATOM     94  C   UNL A   1      39.531  32.310  35.623  1.00  0.00     0.064 A 
ATOM     95  C   UNL A   1      39.979  33.633  35.750  1.00  0.00     0.173 A 
ATOM     96  C   UNL A   1      38.610  31.834  36.570  1.00  0.00     0.173 A 
ATOM     97  F   UNL A   1      40.868  34.130  34.879  1.00  0.00    -0.203 F 
ATOM     98  C   UNL A   1      39.535  34.441  36.794  1.00  0.00     0.198 A 
ATOM     99  C   UNL A   1      38.145  32.655  37.594  1.00  0.00     0.198 A 
ATOM    100  F   UNL A   1      38.144  30.579  36.488  1.00  0.00    -0.203 F 
ATOM    101  F   UNL A   1      40.007  35.689  36.920  1.00  0.00    -0.200 F 
ATOM    102  C   UNL A   1      38.611  33.955  37.708  1.00  0.00     0.200 A 
ATOM    103  F   UNL A   1      37.240  32.188  38.465  1.00  0.00    -0.200 F 
ATOM    104  F   UNL A   1      38.175  34.739  38.703  1.00  0.00    -0.200 F 
ENDBRANCH  71  94
ENDBRANCH  45  46
ENDBRANCH  38  40
ENDBRANCH  37  38
ENDBRANCH  36  37
ENDBRANCH  35  36
ENDBRANCH  34  35
ENDBRANCH  33  34
ENDBRANCH  32  33
ENDBRANCH  31  32
ENDBRANCH   1  31
TORSDOF 25
ENDMDL
MODEL 2
REMARK VINA RESULT:      -9.5      1.517      2.580
REMARK SMILES C[C@](NC(=O)[C@](C)([NH3+])C(F)(F)F)(C(=O)OCCOCCOCCOCCOC(=O)c1ccc(-c2c3nc(c(-c4c(F)c(F)c(F)c(F)c4F)c4ccc([nH]4)c(-c4c(F)c(F)c(F)c(F)c4F)c4nc(c(-c5c(F)c(F)c(F)c(F)c5F)c5ccc2[nH]5)C=C4)C=C3)cc1)c1ccccc1
REMARK SMILES IDX 20 1 19 2 18 3 17 4 16 5 15 6 13 7 14 8 2 9 1 10 93 11 94 12
REMARK SMILES IDX 98 13 95 14 97 15 96 16 3 17 4 18 5 20 6 21 7 22 8 23 9 27
REMARK SMILES IDX 10 28 11 29 12 30 21 31 22 32 23 33 24 34 25 35 26 36 27 37
REMARK SMILES IDX 28 38 29 39 30 40 31 41 92 42 32 43 91 44 33 45 34 46 35 47
REMARK SMILES IDX 85 48 36 49 90 50 84 51 86 52 37 53 89 54 83 55 82 56 38 58
REMARK SMILES IDX 70 59 50 60 69 61 51 62 54 63 68 64 87 65 52 66 53 67 67 69
REMARK SMILES IDX 88 70 55 71 39 72 40 73 48 74 41 75 42 76 46 77 49 78 43 79
REMARK SMILES IDX 44 80 47 81 45 82 71 83 72 84 80 85 73 86 74 87 78 88 81 89
REMARK SMILES IDX 75 90 76 91 79 92 77 93 56 94 57 95 65 96 58 97 59 98 63 99
REMARK SMILES IDX 66 100 60 101 61 102 64 103 62 104
REMARK H PARENT 3 19 8 24 8 25 8 26 86 57 54 68
REMARK Flexibility Score: inf
ROOT
ATOM      1  C   UNL A   1      40.279  24.327  27.365  1.00  0.00     0.188 C 
ENDROOT
BRANCH   1   2
ATOM      2  C   UNL A   1      38.801  23.987  27.103  1.00  0.00     0.188 C 
BRANCH   2   3
ATOM      3  O   UNL A   1      38.585  23.425  25.810  1.00  0.00    -0.376 OA
BRANCH   3   4
ATOM      4  C   UNL A   1      37.995  22.133  25.748  1.00  0.00     0.202 C 
BRANCH   4   5
ATOM      5  C   UNL A   1      36.717  22.030  24.900  1.00  0.00     0.261 C 
BRANCH   5   6
ATOM      6  O   UNL A   1      35.912  23.230  24.844  1.00  0.00    -0.461 OA
BRANCH   6   7
ATOM      7  C   UNL A   1      34.858  23.280  25.699  1.00  0.00     0.336 C 
ATOM      8  O   UNL A   1      34.933  22.903  26.864  1.00  0.00    -0.249 OA
BRANCH   7   9
ATOM      9  C   UNL A   1      33.509  23.765  25.004  1.00  0.00     0.161 C 
ATOM     10  C   UNL A   1      34.059  24.954  24.182  1.00  0.00     0.053 C 
BRANCH   9  11
ATOM     11  C   UNL A   1      32.968  22.502  24.316  1.00  0.00    -0.012 A 
ATOM     12  C   UNL A   1      32.971  21.259  24.995  1.00  0.00     0.007 A 
ATOM     13  C   UNL A   1      32.583  22.488  22.972  1.00  0.00     0.007 A 
ATOM     14  C   UNL A   1      32.551  20.077  24.387  1.00  0.00     0.000 A 
ATOM     15  C   UNL A   1      32.177  21.300  22.354  1.00  0.00     0.000 A 
ATOM     16  C   UNL A   1      32.150  20.100  23.060  1.00  0.00     0.000 A 
ENDBRANCH   9  11
BRANCH   9  17
ATOM     17  N   UNL A   1      32.454  24.322  25.910  1.00  0.00    -0.331 N 
ATOM     18  C   UNL A   1      31.397  25.181  25.801  1.00  0.00     0.291 C 
ATOM     19  H   UNL A   1      32.549  23.980  26.828  1.00  0.00     0.165 HD
ATOM     20  O   UNL A   1      30.771  25.291  26.870  1.00  0.00    -0.267 OA
BRANCH  18  21
ATOM     21  C   UNL A   1      30.873  25.957  24.534  1.00  0.00     0.267 C 
ATOM     22  C   UNL A   1      29.354  26.205  24.707  1.00  0.00     0.100 C 
BRANCH  21  23
ATOM     23  N   UNL A   1      30.931  25.130  23.292  1.00  0.00    -0.337 N 
ATOM     24  H   UNL A   1      30.479  24.231  23.461  1.00  0.00     0.345 HD
ATOM     25  H   UNL A   1      31.906  24.976  23.031  1.00  0.00     0.345 HD
ATOM     26  H   UNL A   1      30.450  25.616  22.536  1.00  0.00     0.345 HD
ENDBRANCH  21  23
BRANCH  21  27
ATOM     27  C   UNL A   1      31.545  27.337  24.436  1.00  0.00     0.453 C 
ATOM     28  F   UNL A   1      32.222  27.496  23.273  1.00  0.00    -0.164 F 
ATOM     29  F   UNL A   1      30.649  28.347  24.512  1.00  0.00    -0.164 F 
ATOM     30  F   UNL A   1      32.456  27.510  25.422  1.00  0.00    -0.164 F 
ENDBRANCH  21  27
ENDBRANCH  18  21
ENDBRANCH   9  17
ENDBRANCH   7   9
ENDBRANCH   6   7
ENDBRANCH   5   6
ENDBRANCH   4   5
ENDBRANCH   3   4
ENDBRANCH   2   3
ENDBRANCH   1   2
BRANCH   1  31
ATOM     31  O   UNL A   1      41.258  23.793  26.497  1.00  0.00    -0.377 OA
BRANCH  31  32
ATOM     32  C   UNL A   1      42.055  24.740  25.820  1.00  0.00     0.188 C 
BRANCH  32  33
ATOM     33  C   UNL A   1      43.139  24.093  24.940  1.00  0.00     0.188 C 
BRANCH  33  34
ATOM     34  O   UNL A   1      43.078  22.730  24.540  1.00  0.00    -0.376 OA
BRANCH  34  35
ATOM     35  C   UNL A   1      43.954  21.741  25.053  1.00  0.00     0.202 C 
BRANCH  35  36
ATOM     36  C   UNL A   1      45.329  22.083  25.661  1.00  0.00     0.261 C 
BRANCH  36  37
ATOM     37  O   UNL A   1      45.357  22.582  26.998  1.00  0.00    -0.460 OA
BRANCH  37  38
ATOM     38  C   UNL A   1      46.052  23.722  27.197  1.00  0.00     0.338 C 
ATOM     39  O   UNL A   1      47.149  24.014  26.756  1.00  0.00    -0.246 OA
BRANCH  38  40
ATOM     40  C   UNL A   1      45.173  24.661  27.926  1.00  0.00     0.060 A 
ATOM     41  C   UNL A   1      45.357  26.039  27.737  1.00  0.00     0.016 A 
ATOM     42  C   UNL A   1      44.155  24.190  28.759  1.00  0.00     0.016 A 
ATOM     43  C   UNL A   1      44.532  26.949  28.389  1.00  0.00     0.010 A 
ATOM     44  C   UNL A   1      43.357  25.105  29.449  1.00  0.00     0.010 A 
ATOM     45  C   UNL A   1      43.566  26.486  29.289  1.00  0.00    -0.014 A 
BRANCH  45  46
ATOM     46  C   UNL A   1      42.962  27.436  30.248  1.00  0.00     0.031 A 
ATOM     47  C   UNL A   1      43.613  27.570  31.595  1.00  0.00     0.074 A 
ATOM     48  C   UNL A   1      41.880  28.168  29.934  1.00  0.00     0.049 A 
ATOM     49  N   UNL A   1      43.253  28.284  32.629  1.00  0.00    -0.248 NA
ATOM     50  C   UNL A   1      44.843  26.784  31.803  1.00  0.00     0.031 C 
ATOM     51  C   UNL A   1      41.192  28.153  28.647  1.00  0.00     0.029 A 
ATOM     52  N   UNL A   1      41.163  29.058  30.694  1.00  0.00    -0.354 N 
ATOM     53  C   UNL A   1      44.204  28.027  33.608  1.00  0.00     0.074 A 
ATOM     54  C   UNL A   1      45.141  27.075  33.057  1.00  0.00     0.031 C 
ATOM     55  C   UNL A   1      40.132  28.978  28.712  1.00  0.00     0.029 A 
ATOM     56  C   UNL A   1      40.052  29.552  30.056  1.00  0.00     0.049 A 
ATOM     57  H   UNL A   1      41.420  29.317  31.608  1.00  0.00     0.167 HD
ATOM     58  C   UNL A   1      44.288  28.544  34.855  1.00  0.00     0.037 A 
ATOM     59  C   UNL A   1      39.073  30.351  30.522  1.00  0.00     0.037 A 
ATOM     60  C   UNL A   1      43.345  29.482  35.400  1.00  0.00     0.049 A 
ATOM     61  C   UNL A   1      39.145  30.856  31.942  1.00  0.00     0.074 A 
ATOM     62  C   UNL A   1      43.349  30.084  36.644  1.00  0.00     0.029 A 
ATOM     63  N   UNL A   1      42.219  29.943  34.734  1.00  0.00    -0.354 N 
ATOM     64  N   UNL A   1      40.064  30.640  32.853  1.00  0.00    -0.248 NA
ATOM     65  C   UNL A   1      38.044  31.717  32.398  1.00  0.00     0.031 C 
ATOM     66  C   UNL A   1      42.194  30.864  36.753  1.00  0.00     0.029 A 
ATOM     67  C   UNL A   1      41.502  30.797  35.553  1.00  0.00     0.049 A 
ATOM     68  H   UNL A   1      41.968  29.697  33.813  1.00  0.00     0.167 HD
ATOM     69  C   UNL A   1      39.669  31.358  33.976  1.00  0.00     0.074 A 
ATOM     70  C   UNL A   1      38.433  32.025  33.628  1.00  0.00     0.031 C 
ATOM     71  C   UNL A   1      40.276  31.459  35.184  1.00  0.00     0.037 A 
BRANCH  58  72
ATOM     72  C   UNL A   1      45.415  28.068  35.722  1.00  0.00     0.064 A 
ATOM     73  C   UNL A   1      46.650  28.732  35.760  1.00  0.00     0.173 A 
ATOM     74  C   UNL A   1      45.253  26.935  36.533  1.00  0.00     0.173 A 
ATOM     75  F   UNL A   1      46.864  29.808  34.987  1.00  0.00    -0.203 F 
ATOM     76  C   UNL A   1      47.692  28.261  36.555  1.00  0.00     0.198 A 
ATOM     77  C   UNL A   1      46.285  26.486  37.350  1.00  0.00     0.198 A 
ATOM     78  F   UNL A   1      44.091  26.264  36.532  1.00  0.00    -0.203 F 
ATOM     79  F   UNL A   1      48.881  28.877  36.534  1.00  0.00    -0.200 F 
ATOM     80  C   UNL A   1      47.506  27.142  37.355  1.00  0.00     0.200 A 
ATOM     81  F   UNL A   1      46.100  25.411  38.130  1.00  0.00    -0.200 F 
ATOM     82  F   UNL A   1      48.508  26.693  38.123  1.00  0.00    -0.200 F 
ENDBRANCH  58  72
BRANCH  59  83
ATOM     83  C   UNL A   1      37.924  30.704  29.647  1.00  0.00     0.064 A 
ATOM     84  C   UNL A   1      37.780  31.995  29.123  1.00  0.00     0.173 A 
ATOM     85  C   UNL A   1      36.936  29.759  29.331  1.00  0.00     0.173 A 
ATOM     86  F   UNL A   1      38.683  32.942  29.416  1.00  0.00    -0.203 F 
ATOM     87  C   UNL A   1      36.684  32.333  28.330  1.00  0.00     0.198 A 
ATOM     88  C   UNL A   1      35.856  30.089  28.515  1.00  0.00     0.198 A 
ATOM     89  F   UNL A   1      37.024  28.508  29.809  1.00  0.00    -0.203 F 
ATOM     90  F   UNL A   1      36.547  33.587  27.879  1.00  0.00    -0.200 F 
ATOM     91  C   UNL A   1      35.726  31.377  28.022  1.00  0.00     0.200 A 
ATOM     92  F   UNL A   1      34.941  29.159  28.210  1.00  0.00    -0.200 F 
ATOM     93  F   UNL A   1      34.676  31.701  27.256  1.00  0.00    -0.200 F 
ENDBRANCH  59  83
BRANCH  71  94
ATOM     94  C   UNL A   1      39.639  32.350  36.211  1.00  0.00     0.064 A 
ATOM     95  C   UNL A   1      38.564  31.916  37.000  1.00  0.00     0.173 A 
ATOM     96  C   UNL A   1      40.155  33.634  36.451  1.00  0.00     0.173 A 
ATOM     97  F   UNL A   1      38.027  30.703  36.801  1.00  0.00    -0.203 F 
ATOM     98  C   UNL A   1      38.016  32.741  37.979  1.00  0.00     0.198 A 
ATOM     99  C   UNL A   1      39.624  34.444  37.452  1.00  0.00     0.198 A 
ATOM    100  F   UNL A   1      41.188  34.093  35.730  1.00  0.00    -0.203 F 
ATOM    101  F   UNL A   1      36.963  32.322  38.694  1.00  0.00    -0.200 F 
ATOM    102  C   UNL A   1      38.553  34.000  38.211  1.00  0.00     0.200 A 
ATOM    103  F   UNL A   1      40.156  35.651  37.684  1.00  0.00    -0.200 F 
ATOM    104  F   UNL A   1      38.033  34.787  39.162  1.00  0.00    -0.200 F 
ENDBRANCH  71  94
ENDBRANCH  45  46
ENDBRANCH  38  40
ENDBRANCH  37  38
ENDBRANCH  36  37
ENDBRANCH  35  36
ENDBRANCH  34  35
ENDBRANCH  33  34
ENDBRANCH  32  33
ENDBRANCH  31  32
ENDBRANCH   1  31
TORSDOF 25
ENDMDL
MODEL 3
REMARK VINA RESULT:      -9.0      2.051      3.095
REMARK SMILES C[C@](NC(=O)[C@](C)([NH3+])C(F)(F)F)(C(=O)OCCOCCOCCOCCOC(=O)c1ccc(-c2c3nc(c(-c4c(F)c(F)c(F)c(F)c4F)c4ccc([nH]4)c(-c4c(F)c(F)c(F)c(F)c4F)c4nc(c(-c5c(F)c(F)c(F)c(F)c5F)c5ccc2[nH]5)C=C4)C=C3)cc1)c1ccccc1
REMARK SMILES IDX 20 1 19 2 18 3 17 4 16 5 15 6 13 7 14 8 2 9 1 10 93 11 94 12
REMARK SMILES IDX 98 13 95 14 97 15 96 16 3 17 4 18 5 20 6 21 7 22 8 23 9 27
REMARK SMILES IDX 10 28 11 29 12 30 21 31 22 32 23 33 24 34 25 35 26 36 27 37
REMARK SMILES IDX 28 38 29 39 30 40 31 41 92 42 32 43 91 44 33 45 34 46 35 47
REMARK SMILES IDX 85 48 36 49 90 50 84 51 86 52 37 53 89 54 83 55 82 56 38 58
REMARK SMILES IDX 70 59 50 60 69 61 51 62 54 63 68 64 87 65 52 66 53 67 67 69
REMARK SMILES IDX 88 70 55 71 39 72 40 73 48 74 41 75 42 76 46 77 49 78 43 79
REMARK SMILES IDX 44 80 47 81 45 82 71 83 72 84 80 85 73 86 74 87 78 88 81 89
REMARK SMILES IDX 75 90 76 91 79 92 77 93 56 94 57 95 65 96 58 97 59 98 63 99
REMARK SMILES IDX 66 100 60 101 61 102 64 103 62 104
REMARK H PARENT 3 19 8 24 8 25 8 26 86 57 54 68
REMARK Flexibility Score: inf
ROOT
ATOM      1  C   UNL A   1      40.828  24.907  27.175  1.00  0.00     0.188 C 
ENDROOT
BRANCH   1   2
ATOM      2  C   UNL A   1      39.606  24.259  27.849  1.00  0.00     0.188 C 
BRANCH   2   3
ATOM      3  O   UNL A   1      38.850  23.444  26.955  1.00  0.00    -0.376 OA
BRANCH   3   4
ATOM      4  C   UNL A   1      38.129  24.101  25.922  1.00  0.00     0.202 C 
BRANCH   4   5
ATOM      5  C   UNL A   1      36.741  23.516  25.610  1.00  0.00     0.261 C 
BRANCH   5   6
ATOM      6  O   UNL A   1      35.682  24.486  25.450  1.00  0.00    -0.461 OA
BRANCH   6   7
ATOM      7  C   UNL A   1      34.736  24.188  24.523  1.00  0.00     0.336 C 
ATOM      8  O   UNL A   1      35.012  23.711  23.426  1.00  0.00    -0.249 OA
BRANCH   7   9
ATOM      9  C   UNL A   1      33.267  24.621  24.962  1.00  0.00     0.161 C 
ATOM     10  C   UNL A   1      33.619  25.552  26.145  1.00  0.00     0.053 C 
BRANCH   9  11
ATOM     11  C   UNL A   1      32.639  25.173  23.672  1.00  0.00    -0.012 A 
ATOM     12  C   UNL A   1      33.438  25.394  22.524  1.00  0.00     0.007 A 
ATOM     13  C   UNL A   1      31.310  25.602  23.611  1.00  0.00     0.007 A 
ATOM     14  C   UNL A   1      32.925  25.954  21.355  1.00  0.00     0.000 A 
ATOM     15  C   UNL A   1      30.796  26.179  22.444  1.00  0.00     0.000 A 
ATOM     16  C   UNL A   1      31.595  26.345  21.316  1.00  0.00     0.000 A 
ENDBRANCH   9  11
BRANCH   9  17
ATOM     17  N   UNL A   1      32.389  23.541  25.514  1.00  0.00    -0.331 N 
ATOM     18  C   UNL A   1      32.125  22.229  25.235  1.00  0.00     0.291 C 
ATOM     19  H   UNL A   1      31.860  23.861  26.280  1.00  0.00     0.165 HD
ATOM     20  O   UNL A   1      31.320  21.732  26.041  1.00  0.00    -0.267 OA
BRANCH  18  21
ATOM     21  C   UNL A   1      32.735  21.310  24.110  1.00  0.00     0.267 C 
ATOM     22  C   UNL A   1      32.291  19.850  24.377  1.00  0.00     0.100 C 
BRANCH  21  23
ATOM     23  N   UNL A   1      34.223  21.220  24.189  1.00  0.00    -0.337 N 
ATOM     24  H   UNL A   1      34.633  21.612  23.341  1.00  0.00     0.345 HD
ATOM     25  H   UNL A   1      34.500  20.243  24.280  1.00  0.00     0.345 HD
ATOM     26  H   UNL A   1      34.553  21.744  24.999  1.00  0.00     0.345 HD
ENDBRANCH  21  23
BRANCH  21  27
ATOM     27  C   UNL A   1      32.174  21.705  22.733  1.00  0.00     0.453 C 
ATOM     28  F   UNL A   1      31.057  22.466  22.834  1.00  0.00    -0.164 F 
ATOM     29  F   UNL A   1      33.066  22.410  22.001  1.00  0.00    -0.164 F 
ATOM     30  F   UNL A   1      31.815  20.613  22.018  1.00  0.00    -0.164 F 
ENDBRANCH  21  27
ENDBRANCH  18  21
ENDBRANCH   9  17
ENDBRANCH   7   9
ENDBRANCH   6   7
ENDBRANCH   5   6
ENDBRANCH   4   5
ENDBRANCH   3   4
ENDBRANCH   2   3
ENDBRANCH   1   2
BRANCH   1  31
ATOM     31  O   UNL A   1      41.555  24.153  26.226  1.00  0.00    -0.377 OA
BRANCH  31  32
ATOM     32  C   UNL A   1      42.456  24.885  25.425  1.00  0.00     0.188 C 
BRANCH  32  33
ATOM     33  C   UNL A   1      43.422  23.987  24.633  1.00  0.00     0.188 C 
BRANCH  33  34
ATOM     34  O   UNL A   1      43.300  22.571  24.616  1.00  0.00    -0.376 OA
BRANCH  34  35
ATOM     35  C   UNL A   1      44.152  21.720  25.363  1.00  0.00     0.202 C 
BRANCH  35  36
ATOM     36  C   UNL A   1      45.605  22.098  25.715  1.00  0.00     0.261 C 
BRANCH  36  37
ATOM     37  O   UNL A   1      45.833  22.777  26.951  1.00  0.00    -0.460 OA
BRANCH  37  38
ATOM     38  C   UNL A   1      46.280  24.048  26.862  1.00  0.00     0.338 C 
ATOM     39  O   UNL A   1      47.185  24.474  26.166  1.00  0.00    -0.246 OA
BRANCH  38  40
ATOM     40  C   UNL A   1      45.363  24.901  27.645  1.00  0.00     0.060 A 
ATOM     41  C   UNL A   1      45.396  26.289  27.442  1.00  0.00     0.016 A 
ATOM     42  C   UNL A   1      44.453  24.339  28.545  1.00  0.00     0.016 A 
ATOM     43  C   UNL A   1      44.530  27.119  28.146  1.00  0.00     0.010 A 
ATOM     44  C   UNL A   1      43.617  25.177  29.285  1.00  0.00     0.010 A 
ATOM     45  C   UNL A   1      43.676  26.570  29.109  1.00  0.00    -0.014 A 
BRANCH  45  46
ATOM     46  C   UNL A   1      43.046  27.464  30.104  1.00  0.00     0.031 A 
ATOM     47  C   UNL A   1      43.693  27.563  31.456  1.00  0.00     0.074 A 
ATOM     48  C   UNL A   1      41.945  28.178  29.818  1.00  0.00     0.049 A 
ATOM     49  N   UNL A   1      43.312  28.224  32.517  1.00  0.00    -0.248 NA
ATOM     50  C   UNL A   1      44.943  26.803  31.634  1.00  0.00     0.031 C 
ATOM     51  C   UNL A   1      41.257  28.196  28.530  1.00  0.00     0.029 A 
ATOM     52  N   UNL A   1      41.203  29.017  30.611  1.00  0.00    -0.354 N 
ATOM     53  C   UNL A   1      44.270  27.955  33.487  1.00  0.00     0.074 A 
ATOM     54  C   UNL A   1      45.233  27.052  32.900  1.00  0.00     0.031 C 
ATOM     55  C   UNL A   1      40.175  28.988  28.627  1.00  0.00     0.029 A 
ATOM     56  C   UNL A   1      40.079  29.506  29.992  1.00  0.00     0.049 A 
ATOM     57  H   UNL A   1      41.453  29.247  31.535  1.00  0.00     0.167 HD
ATOM     58  C   UNL A   1      44.339  28.424  34.754  1.00  0.00     0.037 A 
ATOM     59  C   UNL A   1      39.078  30.259  30.488  1.00  0.00     0.037 A 
ATOM     60  C   UNL A   1      43.370  29.314  35.334  1.00  0.00     0.049 A 
ATOM     61  C   UNL A   1      39.136  30.708  31.927  1.00  0.00     0.074 A 
ATOM     62  C   UNL A   1      43.357  29.865  36.602  1.00  0.00     0.029 A 
ATOM     63  N   UNL A   1      42.233  29.769  34.685  1.00  0.00    -0.354 N 
ATOM     64  N   UNL A   1      40.060  30.481  32.830  1.00  0.00    -0.248 NA
ATOM     65  C   UNL A   1      38.011  31.520  32.415  1.00  0.00     0.031 C 
ATOM     66  C   UNL A   1      42.181  30.608  36.740  1.00  0.00     0.029 A 
ATOM     67  C   UNL A   1      41.492  30.570  35.537  1.00  0.00     0.049 A 
ATOM     68  H   UNL A   1      41.988  29.554  33.755  1.00  0.00     0.167 HD
ATOM     69  C   UNL A   1      39.645  31.143  33.980  1.00  0.00     0.074 A 
ATOM     70  C   UNL A   1      38.391  31.789  33.657  1.00  0.00     0.031 C 
ATOM     71  C   UNL A   1      40.248  31.212  35.192  1.00  0.00     0.037 A 
BRANCH  58  72
ATOM     72  C   UNL A   1      45.478  27.945  35.602  1.00  0.00     0.064 A 
ATOM     73  C   UNL A   1      45.405  26.751  36.336  1.00  0.00     0.173 A 
ATOM     74  C   UNL A   1      46.665  28.690  35.677  1.00  0.00     0.173 A 
ATOM     75  F   UNL A   1      44.284  26.013  36.315  1.00  0.00    -0.203 F 
ATOM     76  C   UNL A   1      46.466  26.336  37.135  1.00  0.00     0.198 A 
ATOM     77  C   UNL A   1      47.735  28.256  36.453  1.00  0.00     0.198 A 
ATOM     78  F   UNL A   1      46.785  29.840  34.997  1.00  0.00    -0.203 F 
ATOM     79  F   UNL A   1      46.354  25.221  37.870  1.00  0.00    -0.200 F 
ATOM     80  C   UNL A   1      47.633  27.085  37.188  1.00  0.00     0.200 A 
ATOM     81  F   UNL A   1      48.866  28.975  36.494  1.00  0.00    -0.200 F 
ATOM     82  F   UNL A   1      48.655  26.681  37.955  1.00  0.00    -0.200 F 
ENDBRANCH  58  72
BRANCH  59  83
ATOM     83  C   UNL A   1      37.920  30.615  29.626  1.00  0.00     0.064 A 
ATOM     84  C   UNL A   1      37.762  31.912  29.121  1.00  0.00     0.173 A 
ATOM     85  C   UNL A   1      36.938  29.666  29.303  1.00  0.00     0.173 A 
ATOM     86  F   UNL A   1      38.660  32.862  29.422  1.00  0.00    -0.203 F 
ATOM     87  C   UNL A   1      36.658  32.252  28.341  1.00  0.00     0.198 A 
ATOM     88  C   UNL A   1      35.850  29.999  28.499  1.00  0.00     0.198 A 
ATOM     89  F   UNL A   1      37.040  28.409  29.762  1.00  0.00    -0.203 F 
ATOM     90  F   UNL A   1      36.507  33.511  27.909  1.00  0.00    -0.200 F 
ATOM     91  C   UNL A   1      35.706  31.293  28.025  1.00  0.00     0.200 A 
ATOM     92  F   UNL A   1      34.941  29.065  28.186  1.00  0.00    -0.200 F 
ATOM     93  F   UNL A   1      34.648  31.619  27.271  1.00  0.00    -0.200 F 
ENDBRANCH  59  83
BRANCH  71  94
ATOM     94  C   UNL A   1      39.586  32.044  36.253  1.00  0.00     0.064 A 
ATOM     95  C   UNL A   1      39.994  33.358  36.522  1.00  0.00     0.173 A 
ATOM     96  C   UNL A   1      38.485  31.538  36.963  1.00  0.00     0.173 A 
ATOM     97  F   UNL A   1      41.048  33.883  35.879  1.00  0.00    -0.203 F 
ATOM     98  C   UNL A   1      39.338  34.130  37.478  1.00  0.00     0.198 A 
ATOM     99  C   UNL A   1      37.812  32.324  37.896  1.00  0.00     0.198 A 
ATOM    100  F   UNL A   1      38.050  30.290  36.737  1.00  0.00    -0.203 F 
ATOM    101  F   UNL A   1      39.770  35.369  37.749  1.00  0.00    -0.200 F 
ATOM    102  C   UNL A   1      38.241  33.615  38.156  1.00  0.00     0.200 A 
ATOM    103  F   UNL A   1      36.744  31.830  38.536  1.00  0.00    -0.200 F 
ATOM    104  F   UNL A   1      37.603  34.364  39.065  1.00  0.00    -0.200 F 
ENDBRANCH  71  94
ENDBRANCH  45  46
ENDBRANCH  38  40
ENDBRANCH  37  38
ENDBRANCH  36  37
ENDBRANCH  35  36
ENDBRANCH  34  35
ENDBRANCH  33  34
ENDBRANCH  32  33
ENDBRANCH  31  32
ENDBRANCH   1  31
TORSDOF 25
ENDMDL
