MODEL 1
REMARK VINA RESULT:     -11.5      0.000      0.000
REMARK SMILES CN1C(=O)c2ccccc2[C@@H](C(=O)OCCOCCOCCOCCOC(=O)c2ccc(-c3c4nc(c(-c5c(F)c(F)c(F)c(F)c5F)c5ccc([nH]5)c(-c5c(F)c(F)c(F)c(F)c5F)c5nc(c(-c6c(F)c(F)c(F)c(F)c6F)c6ccc3[nH]6)C=C5)C=C4)cc2)[C@@H]1c1cc2ccccc2[nH]1
REMARK SMILES IDX 21 1 20 2 19 3 18 4 17 5 16 6 15 7 14 8 12 9 13 10 11 11
REMARK SMILES IDX 1 12 2 13 3 14 92 15 4 16 5 17 6 18 10 19 7 20 9 21 8 22
REMARK SMILES IDX 93 23 94 24 101 25 95 26 100 27 96 29 99 30 97 31 98 32
REMARK SMILES IDX 22 33 23 34 24 35 25 36 26 37 27 38 28 39 29 40 30 41 91 42
REMARK SMILES IDX 31 43 90 44 32 45 33 46 34 47 84 48 35 49 89 50 83 51 85 52
REMARK SMILES IDX 36 53 88 54 82 55 81 56 37 58 69 59 49 60 68 61 50 62 53 63
REMARK SMILES IDX 67 64 86 65 51 66 52 67 66 69 87 70 54 71 38 72 39 73 47 74
REMARK SMILES IDX 40 75 41 76 45 77 48 78 42 79 43 80 46 81 44 82 70 83 71 84
REMARK SMILES IDX 79 85 72 86 73 87 77 88 80 89 74 90 75 91 78 92 76 93 55 94
REMARK SMILES IDX 56 95 64 96 57 97 58 98 62 99 65 100 59 101 60 102 63 103
REMARK SMILES IDX 61 104
REMARK H PARENT 101 28 85 57 53 68
REMARK Flexibility Score: inf
ROOT
ATOM      1  C   UNL A   1      35.515  22.018  25.788  1.00  0.00     0.188 C 
ENDROOT
BRANCH   1   2
ATOM      2  O   UNL A   1      34.857  22.060  27.047  1.00  0.00    -0.377 OA
BRANCH   2   3
ATOM      3  C   UNL A   1      33.539  21.559  27.186  1.00  0.00     0.188 C 
BRANCH   3   4
ATOM      4  C   UNL A   1      32.625  21.485  25.965  1.00  0.00     0.188 C 
BRANCH   4   5
ATOM      5  O   UNL A   1      31.644  22.478  25.812  1.00  0.00    -0.376 OA
BRANCH   5   6
ATOM      6  C   UNL A   1      31.612  23.650  26.604  1.00  0.00     0.202 C 
BRANCH   6   7
ATOM      7  C   UNL A   1      31.561  25.113  26.116  1.00  0.00     0.261 C 
BRANCH   7   8
ATOM      8  O   UNL A   1      30.707  26.052  26.785  1.00  0.00    -0.463 OA
BRANCH   8   9
ATOM      9  C   UNL A   1      31.255  27.271  26.977  1.00  0.00     0.316 C 
ATOM     10  O   UNL A   1      31.114  27.911  28.021  1.00  0.00    -0.251 OA
BRANCH   9  11
ATOM     11  C   UNL A   1      32.067  27.841  25.817  1.00  0.00     0.159 C 
ATOM     12  C   UNL A   1      29.741  30.137  23.882  1.00  0.00     0.147 C 
ATOM     13  N   UNL A   1      30.968  29.786  24.587  1.00  0.00    -0.332 N 
ATOM     14  C   UNL A   1      31.477  30.669  25.528  1.00  0.00     0.254 C 
ATOM     15  C   UNL A   1      31.381  28.403  24.555  1.00  0.00     0.150 C 
ATOM     16  O   UNL A   1      30.984  31.772  25.744  1.00  0.00    -0.269 OA
ATOM     17  C   UNL A   1      32.665  30.216  26.308  1.00  0.00     0.044 A 
ATOM     18  C   UNL A   1      33.429  31.145  27.011  1.00  0.00     0.014 A 
ATOM     19  C   UNL A   1      33.015  28.863  26.367  1.00  0.00    -0.019 A 
ATOM     20  C   UNL A   1      34.557  30.725  27.720  1.00  0.00     0.001 A 
ATOM     21  C   UNL A   1      34.164  28.448  27.053  1.00  0.00     0.005 A 
ATOM     22  C   UNL A   1      34.935  29.383  27.726  1.00  0.00     0.000 A 
BRANCH  15  23
ATOM     23  C   UNL A   1      32.177  28.048  23.296  1.00  0.00     0.040 A 
ATOM     24  C   UNL A   1      33.523  27.714  23.132  1.00  0.00     0.034 A 
ATOM     25  N   UNL A   1      31.562  27.297  22.301  1.00  0.00    -0.357 N 
ATOM     26  C   UNL A   1      33.454  26.302  22.845  1.00  0.00    -0.000 A 
ATOM     27  C   UNL A   1      32.149  26.049  22.422  1.00  0.00     0.046 A 
ATOM     28  H   UNL A   1      30.873  27.585  21.660  1.00  0.00     0.166 HD
ATOM     29  C   UNL A   1      34.306  25.207  23.080  1.00  0.00     0.010 A 
ATOM     30  C   UNL A   1      31.609  24.768  22.294  1.00  0.00     0.026 A 
ATOM     31  C   UNL A   1      33.764  23.913  23.026  1.00  0.00     0.001 A 
ATOM     32  C   UNL A   1      32.431  23.703  22.667  1.00  0.00     0.002 A 
ENDBRANCH  15  23
ENDBRANCH   9  11
ENDBRANCH   8   9
ENDBRANCH   7   8
ENDBRANCH   6   7
ENDBRANCH   5   6
ENDBRANCH   4   5
ENDBRANCH   3   4
ENDBRANCH   2   3
ENDBRANCH   1   2
BRANCH   1  33
ATOM     33  C   UNL A   1      37.010  22.373  25.680  1.00  0.00     0.188 C 
BRANCH  33  34
ATOM     34  O   UNL A   1      37.750  21.602  24.758  1.00  0.00    -0.376 OA
BRANCH  34  35
ATOM     35  C   UNL A   1      37.837  20.195  24.905  1.00  0.00     0.202 C 
BRANCH  35  36
ATOM     36  C   UNL A   1      39.115  19.509  25.424  1.00  0.00     0.261 C 
BRANCH  36  37
ATOM     37  O   UNL A   1      39.666  19.970  26.667  1.00  0.00    -0.460 OA
BRANCH  37  38
ATOM     38  C   UNL A   1      40.985  20.243  26.691  1.00  0.00     0.338 C 
ATOM     39  O   UNL A   1      41.886  19.528  26.273  1.00  0.00    -0.246 OA
BRANCH  38  40
ATOM     40  C   UNL A   1      41.177  21.644  27.125  1.00  0.00     0.060 A 
ATOM     41  C   UNL A   1      40.654  22.676  26.336  1.00  0.00     0.016 A 
ATOM     42  C   UNL A   1      41.907  21.944  28.278  1.00  0.00     0.016 A 
ATOM     43  C   UNL A   1      40.894  24.007  26.665  1.00  0.00     0.010 A 
ATOM     44  C   UNL A   1      42.171  23.284  28.593  1.00  0.00     0.010 A 
ATOM     45  C   UNL A   1      41.698  24.318  27.767  1.00  0.00    -0.014 A 
BRANCH  45  46
ATOM     46  C   UNL A   1      42.148  25.721  27.948  1.00  0.00     0.031 A 
ATOM     47  C   UNL A   1      43.460  26.156  27.357  1.00  0.00     0.074 A 
ATOM     48  C   UNL A   1      41.358  26.614  28.570  1.00  0.00     0.049 A 
ATOM     49  N   UNL A   1      44.036  27.332  27.383  1.00  0.00    -0.248 NA
ATOM     50  C   UNL A   1      44.228  25.127  26.640  1.00  0.00     0.031 C 
ATOM     51  C   UNL A   1      40.046  26.321  29.143  1.00  0.00     0.029 A 
ATOM     52  N   UNL A   1      41.545  27.951  28.819  1.00  0.00    -0.354 N 
ATOM     53  C   UNL A   1      45.235  27.181  26.696  1.00  0.00     0.074 A 
ATOM     54  C   UNL A   1      45.321  25.793  26.298  1.00  0.00     0.031 C 
ATOM     55  C   UNL A   1      39.543  27.446  29.676  1.00  0.00     0.029 A 
ATOM     56  C   UNL A   1      40.515  28.525  29.521  1.00  0.00     0.049 A 
ATOM     57  H   UNL A   1      42.340  28.448  28.522  1.00  0.00     0.167 HD
ATOM     58  C   UNL A   1      46.171  28.121  26.417  1.00  0.00     0.037 A 
ATOM     59  C   UNL A   1      40.385  29.775  30.006  1.00  0.00     0.037 A 
ATOM     60  C   UNL A   1      46.080  29.500  26.826  1.00  0.00     0.049 A 
ATOM     61  C   UNL A   1      41.482  30.777  29.752  1.00  0.00     0.074 A 
ATOM     62  C   UNL A   1      46.968  30.533  26.582  1.00  0.00     0.029 A 
ATOM     63  N   UNL A   1      45.047  30.036  27.583  1.00  0.00    -0.354 N 
ATOM     64  N   UNL A   1      42.598  30.637  29.079  1.00  0.00    -0.248 NA
ATOM     65  C   UNL A   1      41.291  32.118  30.320  1.00  0.00     0.031 C 
ATOM     66  C   UNL A   1      46.517  31.669  27.260  1.00  0.00     0.029 A 
ATOM     67  C   UNL A   1      45.297  31.375  27.848  1.00  0.00     0.049 A 
ATOM     68  H   UNL A   1      44.253  29.539  27.887  1.00  0.00     0.167 HD
ATOM     69  C   UNL A   1      43.226  31.876  29.114  1.00  0.00     0.074 A 
ATOM     70  C   UNL A   1      42.346  32.762  29.849  1.00  0.00     0.031 C 
ATOM     71  C   UNL A   1      44.421  32.248  28.588  1.00  0.00     0.037 A 
BRANCH  58  72
ATOM     72  C   UNL A   1      47.399  27.681  25.668  1.00  0.00     0.064 A 
ATOM     73  C   UNL A   1      47.461  27.688  24.265  1.00  0.00     0.173 A 
ATOM     74  C   UNL A   1      48.548  27.278  26.367  1.00  0.00     0.173 A 
ATOM     75  F   UNL A   1      46.392  28.055  23.542  1.00  0.00    -0.203 F 
ATOM     76  C   UNL A   1      48.611  27.276  23.594  1.00  0.00     0.198 A 
ATOM     77  C   UNL A   1      49.709  26.908  25.695  1.00  0.00     0.198 A 
ATOM     78  F   UNL A   1      48.551  27.257  27.709  1.00  0.00    -0.203 F 
ATOM     79  F   UNL A   1      48.625  27.234  22.255  1.00  0.00    -0.200 F 
ATOM     80  C   UNL A   1      49.737  26.895  24.310  1.00  0.00     0.200 A 
ATOM     81  F   UNL A   1      50.802  26.560  26.390  1.00  0.00    -0.200 F 
ATOM     82  F   UNL A   1      50.845  26.509  23.663  1.00  0.00    -0.200 F 
ENDBRANCH  58  72
BRANCH  59  83
ATOM     83  C   UNL A   1      39.180  30.148  30.796  1.00  0.00     0.064 A 
ATOM     84  C   UNL A   1      38.067  30.744  30.187  1.00  0.00     0.173 A 
ATOM     85  C   UNL A   1      39.131  29.944  32.183  1.00  0.00     0.173 A 
ATOM     86  F   UNL A   1      38.073  30.984  28.867  1.00  0.00    -0.203 F 
ATOM     87  C   UNL A   1      36.967  31.150  30.939  1.00  0.00     0.198 A 
ATOM     88  C   UNL A   1      38.012  30.311  32.928  1.00  0.00     0.198 A 
ATOM     89  F   UNL A   1      40.169  29.379  32.817  1.00  0.00    -0.203 F 
ATOM     90  F   UNL A   1      35.945  31.779  30.341  1.00  0.00    -0.200 F 
ATOM     91  C   UNL A   1      36.937  30.926  32.307  1.00  0.00     0.200 A 
ATOM     92  F   UNL A   1      37.981  30.077  34.246  1.00  0.00    -0.200 F 
ATOM     93  F   UNL A   1      35.876  31.314  33.029  1.00  0.00    -0.200 F 
ENDBRANCH  59  83
BRANCH  71  94
ATOM     94  C   UNL A   1      44.821  33.692  28.750  1.00  0.00     0.064 A 
ATOM     95  C   UNL A   1      45.584  34.138  29.842  1.00  0.00     0.173 A 
ATOM     96  C   UNL A   1      44.422  34.650  27.804  1.00  0.00     0.173 A 
ATOM     97  F   UNL A   1      45.992  33.269  30.781  1.00  0.00    -0.203 F 
ATOM     98  C   UNL A   1      45.869  35.490  30.016  1.00  0.00     0.198 A 
ATOM     99  C   UNL A   1      44.754  35.994  27.953  1.00  0.00     0.198 A 
ATOM    100  F   UNL A   1      43.706  34.284  26.729  1.00  0.00    -0.203 F 
ATOM    101  F   UNL A   1      46.512  35.900  31.118  1.00  0.00    -0.200 F 
ATOM    102  C   UNL A   1      45.457  36.416  29.070  1.00  0.00     0.200 A 
ATOM    103  F   UNL A   1      44.379  36.882  27.023  1.00  0.00    -0.200 F 
ATOM    104  F   UNL A   1      45.726  37.718  29.242  1.00  0.00    -0.200 F 
ENDBRANCH  71  94
ENDBRANCH  45  46
ENDBRANCH  38  40
ENDBRANCH  37  38
ENDBRANCH  36  37
ENDBRANCH  35  36
ENDBRANCH  34  35
ENDBRANCH  33  34
ENDBRANCH   1  33
TORSDOF 21
ENDMDL
MODEL 2
REMARK VINA RESULT:     -11.3      3.119      8.794
REMARK SMILES CN1C(=O)c2ccccc2[C@@H](C(=O)OCCOCCOCCOCCOC(=O)c2ccc(-c3c4nc(c(-c5c(F)c(F)c(F)c(F)c5F)c5ccc([nH]5)c(-c5c(F)c(F)c(F)c(F)c5F)c5nc(c(-c6c(F)c(F)c(F)c(F)c6F)c6ccc3[nH]6)C=C5)C=C4)cc2)[C@@H]1c1cc2ccccc2[nH]1
REMARK SMILES IDX 21 1 20 2 19 3 18 4 17 5 16 6 15 7 14 8 12 9 13 10 11 11
REMARK SMILES IDX 1 12 2 13 3 14 92 15 4 16 5 17 6 18 10 19 7 20 9 21 8 22
REMARK SMILES IDX 93 23 94 24 101 25 95 26 100 27 96 29 99 30 97 31 98 32
REMARK SMILES IDX 22 33 23 34 24 35 25 36 26 37 27 38 28 39 29 40 30 41 91 42
REMARK SMILES IDX 31 43 90 44 32 45 33 46 34 47 84 48 35 49 89 50 83 51 85 52
REMARK SMILES IDX 36 53 88 54 82 55 81 56 37 58 69 59 49 60 68 61 50 62 53 63
REMARK SMILES IDX 67 64 86 65 51 66 52 67 66 69 87 70 54 71 38 72 39 73 47 74
REMARK SMILES IDX 40 75 41 76 45 77 48 78 42 79 43 80 46 81 44 82 70 83 71 84
REMARK SMILES IDX 79 85 72 86 73 87 77 88 80 89 74 90 75 91 78 92 76 93 55 94
REMARK SMILES IDX 56 95 64 96 57 97 58 98 62 99 65 100 59 101 60 102 63 103
REMARK SMILES IDX 61 104
REMARK H PARENT 101 28 85 57 53 68
REMARK Flexibility Score: inf
ROOT
ATOM      1  C   UNL A   1      34.009  35.261  31.101  1.00  0.00     0.188 C 
ENDROOT
BRANCH   1   2
ATOM      2  O   UNL A   1      33.166  34.624  30.151  1.00  0.00    -0.377 OA
BRANCH   2   3
ATOM      3  C   UNL A   1      33.462  34.692  28.767  1.00  0.00     0.188 C 
BRANCH   3   4
ATOM      4  C   UNL A   1      33.558  33.405  27.950  1.00  0.00     0.188 C 
BRANCH   4   5
ATOM      5  O   UNL A   1      34.808  32.771  27.862  1.00  0.00    -0.376 OA
BRANCH   5   6
ATOM      6  C   UNL A   1      34.947  31.382  27.630  1.00  0.00     0.202 C 
BRANCH   6   7
ATOM      7  C   UNL A   1      33.849  30.387  27.200  1.00  0.00     0.261 C 
BRANCH   7   8
ATOM      8  O   UNL A   1      34.206  29.228  26.432  1.00  0.00    -0.463 OA
BRANCH   8   9
ATOM      9  C   UNL A   1      33.355  28.187  26.557  1.00  0.00     0.316 C 
ATOM     10  O   UNL A   1      32.604  28.050  27.525  1.00  0.00    -0.251 OA
BRANCH   9  11
ATOM     11  C   UNL A   1      33.370  27.159  25.428  1.00  0.00     0.159 C 
ATOM     12  C   UNL A   1      32.049  23.913  26.894  1.00  0.00     0.147 C 
ATOM     13  N   UNL A   1      32.106  25.000  25.924  1.00  0.00    -0.332 N 
ATOM     14  C   UNL A   1      30.923  25.599  25.518  1.00  0.00     0.254 C 
ATOM     15  C   UNL A   1      33.382  25.645  25.720  1.00  0.00     0.150 C 
ATOM     16  O   UNL A   1      29.817  25.208  25.880  1.00  0.00    -0.269 OA
ATOM     17  C   UNL A   1      31.037  26.783  24.616  1.00  0.00     0.044 A 
ATOM     18  C   UNL A   1      29.924  27.223  23.905  1.00  0.00     0.014 A 
ATOM     19  C   UNL A   1      32.244  27.478  24.490  1.00  0.00    -0.019 A 
ATOM     20  C   UNL A   1      30.037  28.315  23.041  1.00  0.00     0.001 A 
ATOM     21  C   UNL A   1      32.365  28.554  23.601  1.00  0.00     0.005 A 
ATOM     22  C   UNL A   1      31.258  28.968  22.875  1.00  0.00     0.000 A 
BRANCH  15  23
ATOM     23  C   UNL A   1      34.272  24.902  24.720  1.00  0.00     0.040 A 
ATOM     24  C   UNL A   1      35.378  24.073  24.925  1.00  0.00     0.034 A 
ATOM     25  N   UNL A   1      33.693  24.348  23.586  1.00  0.00    -0.357 N 
ATOM     26  C   UNL A   1      34.844  22.771  24.611  1.00  0.00    -0.000 A 
ATOM     27  C   UNL A   1      33.699  22.988  23.845  1.00  0.00     0.046 A 
ATOM     28  H   UNL A   1      33.357  24.812  22.786  1.00  0.00     0.166 HD
ATOM     29  C   UNL A   1      35.116  21.463  25.054  1.00  0.00     0.010 A 
ATOM     30  C   UNL A   1      32.758  21.997  23.557  1.00  0.00     0.026 A 
ATOM     31  C   UNL A   1      34.149  20.468  24.837  1.00  0.00     0.001 A 
ATOM     32  C   UNL A   1      32.979  20.741  24.126  1.00  0.00     0.002 A 
ENDBRANCH  15  23
ENDBRANCH   9  11
ENDBRANCH   8   9
ENDBRANCH   7   8
ENDBRANCH   6   7
ENDBRANCH   5   6
ENDBRANCH   4   5
ENDBRANCH   3   4
ENDBRANCH   2   3
ENDBRANCH   1   2
BRANCH   1  33
ATOM     33  C   UNL A   1      33.436  35.756  32.442  1.00  0.00     0.188 C 
BRANCH  33  34
ATOM     34  O   UNL A   1      34.303  35.640  33.550  1.00  0.00    -0.376 OA
BRANCH  34  35
ATOM     35  C   UNL A   1      35.305  34.640  33.576  1.00  0.00     0.202 C 
BRANCH  35  36
ATOM     36  C   UNL A   1      34.968  33.144  33.410  1.00  0.00     0.261 C 
BRANCH  36  37
ATOM     37  O   UNL A   1      35.906  32.321  32.702  1.00  0.00    -0.460 OA
BRANCH  37  38
ATOM     38  C   UNL A   1      36.984  31.888  33.387  1.00  0.00     0.338 C 
ATOM     39  O   UNL A   1      37.116  31.872  34.603  1.00  0.00    -0.246 OA
BRANCH  38  40
ATOM     40  C   UNL A   1      37.922  31.240  32.445  1.00  0.00     0.060 A 
ATOM     41  C   UNL A   1      38.933  30.415  32.955  1.00  0.00     0.016 A 
ATOM     42  C   UNL A   1      37.838  31.478  31.071  1.00  0.00     0.016 A 
ATOM     43  C   UNL A   1      39.888  29.864  32.107  1.00  0.00     0.010 A 
ATOM     44  C   UNL A   1      38.816  30.944  30.221  1.00  0.00     0.010 A 
ATOM     45  C   UNL A   1      39.866  30.167  30.741  1.00  0.00    -0.014 A 
BRANCH  45  46
ATOM     46  C   UNL A   1      41.030  29.781  29.905  1.00  0.00     0.031 A 
ATOM     47  C   UNL A   1      41.056  28.422  29.263  1.00  0.00     0.074 A 
ATOM     48  C   UNL A   1      42.017  30.661  29.664  1.00  0.00     0.049 A 
ATOM     49  N   UNL A   1      41.963  27.885  28.486  1.00  0.00    -0.248 NA
ATOM     50  C   UNL A   1      39.904  27.548  29.532  1.00  0.00     0.031 C 
ATOM     51  C   UNL A   1      42.079  32.022  30.194  1.00  0.00     0.029 A 
ATOM     52  N   UNL A   1      43.155  30.541  28.906  1.00  0.00    -0.354 N 
ATOM     53  C   UNL A   1      41.497  26.612  28.182  1.00  0.00     0.074 A 
ATOM     54  C   UNL A   1      40.246  26.442  28.889  1.00  0.00     0.031 C 
ATOM     55  C   UNL A   1      43.196  32.613  29.742  1.00  0.00     0.029 A 
ATOM     56  C   UNL A   1      43.949  31.660  28.931  1.00  0.00     0.049 A 
ATOM     57  H   UNL A   1      43.379  29.731  28.394  1.00  0.00     0.167 HD
ATOM     58  C   UNL A   1      42.060  25.676  27.379  1.00  0.00     0.037 A 
ATOM     59  C   UNL A   1      45.159  31.880  28.380  1.00  0.00     0.037 A 
ATOM     60  C   UNL A   1      43.312  25.851  26.687  1.00  0.00     0.049 A 
ATOM     61  C   UNL A   1      45.800  30.788  27.562  1.00  0.00     0.074 A 
ATOM     62  C   UNL A   1      43.960  24.970  25.840  1.00  0.00     0.029 A 
ATOM     63  N   UNL A   1      44.117  26.979  26.777  1.00  0.00    -0.354 N 
ATOM     64  N   UNL A   1      45.342  29.599  27.255  1.00  0.00    -0.248 NA
ATOM     65  C   UNL A   1      47.126  31.081  27.002  1.00  0.00     0.031 C 
ATOM     66  C   UNL A   1      45.193  25.528  25.487  1.00  0.00     0.029 A 
ATOM     67  C   UNL A   1      45.273  26.798  26.033  1.00  0.00     0.049 A 
ATOM     68  H   UNL A   1      43.898  27.788  27.294  1.00  0.00     0.167 HD
ATOM     69  C   UNL A   1      46.306  29.014  26.443  1.00  0.00     0.074 A 
ATOM     70  C   UNL A   1      47.358  29.997  26.280  1.00  0.00     0.031 C 
ATOM     71  C   UNL A   1      46.321  27.778  25.883  1.00  0.00     0.037 A 
BRANCH  58  72
ATOM     72  C   UNL A   1      41.348  24.358  27.239  1.00  0.00     0.064 A 
ATOM     73  C   UNL A   1      40.159  24.226  26.503  1.00  0.00     0.173 A 
ATOM     74  C   UNL A   1      41.884  23.198  27.821  1.00  0.00     0.173 A 
ATOM     75  F   UNL A   1      39.594  25.300  25.931  1.00  0.00    -0.203 F 
ATOM     76  C   UNL A   1      39.519  22.993  26.387  1.00  0.00     0.198 A 
ATOM     77  C   UNL A   1      41.265  21.961  27.668  1.00  0.00     0.198 A 
ATOM     78  F   UNL A   1      43.022  23.261  28.530  1.00  0.00    -0.203 F 
ATOM     79  F   UNL A   1      38.354  22.905  25.732  1.00  0.00    -0.200 F 
ATOM     80  C   UNL A   1      40.077  21.861  26.962  1.00  0.00     0.200 A 
ATOM     81  F   UNL A   1      41.818  20.865  28.207  1.00  0.00    -0.200 F 
ATOM     82  F   UNL A   1      39.466  20.675  26.840  1.00  0.00    -0.200 F 
ENDBRANCH  58  72
BRANCH  59  83
ATOM     83  C   UNL A   1      45.854  33.177  28.599  1.00  0.00     0.064 A 
ATOM     84  C   UNL A   1      46.711  33.368  29.692  1.00  0.00     0.173 A 
ATOM     85  C   UNL A   1      45.650  34.264  27.735  1.00  0.00     0.173 A 
ATOM     86  F   UNL A   1      46.921  32.369  30.561  1.00  0.00    -0.203 F 
ATOM     87  C   UNL A   1      47.310  34.603  29.929  1.00  0.00     0.198 A 
ATOM     88  C   UNL A   1      46.284  35.486  27.949  1.00  0.00     0.198 A 
ATOM     89  F   UNL A   1      44.839  34.136  26.674  1.00  0.00    -0.203 F 
ATOM     90  F   UNL A   1      48.070  34.777  31.020  1.00  0.00    -0.200 F 
ATOM     91  C   UNL A   1      47.102  35.658  29.054  1.00  0.00     0.200 A 
ATOM     92  F   UNL A   1      46.093  36.496  27.091  1.00  0.00    -0.200 F 
ATOM     93  F   UNL A   1      47.682  36.845  29.282  1.00  0.00    -0.200 F 
ENDBRANCH  59  83
BRANCH  71  94
ATOM     94  C   UNL A   1      47.495  27.438  25.001  1.00  0.00     0.064 A 
ATOM     95  C   UNL A   1      48.645  26.803  25.500  1.00  0.00     0.173 A 
ATOM     96  C   UNL A   1      47.477  27.769  23.637  1.00  0.00     0.173 A 
ATOM     97  F   UNL A   1      48.721  26.465  26.796  1.00  0.00    -0.203 F 
ATOM     98  C   UNL A   1      49.751  26.577  24.685  1.00  0.00     0.198 A 
ATOM     99  C   UNL A   1      48.566  27.494  22.813  1.00  0.00     0.198 A 
ATOM    100  F   UNL A   1      46.401  28.363  23.097  1.00  0.00    -0.203 F 
ATOM    101  F   UNL A   1      50.871  26.059  25.210  1.00  0.00    -0.200 F 
ATOM    102  C   UNL A   1      49.710  26.919  23.343  1.00  0.00     0.200 A 
ATOM    103  F   UNL A   1      48.512  27.801  21.510  1.00  0.00    -0.200 F 
ATOM    104  F   UNL A   1      50.779  26.708  22.562  1.00  0.00    -0.200 F 
ENDBRANCH  71  94
ENDBRANCH  45  46
ENDBRANCH  38  40
ENDBRANCH  37  38
ENDBRANCH  36  37
ENDBRANCH  35  36
ENDBRANCH  34  35
ENDBRANCH  33  34
ENDBRANCH   1  33
TORSDOF 21
ENDMDL
MODEL 3
REMARK VINA RESULT:     -11.2      1.657      7.094
REMARK SMILES CN1C(=O)c2ccccc2[C@@H](C(=O)OCCOCCOCCOCCOC(=O)c2ccc(-c3c4nc(c(-c5c(F)c(F)c(F)c(F)c5F)c5ccc([nH]5)c(-c5c(F)c(F)c(F)c(F)c5F)c5nc(c(-c6c(F)c(F)c(F)c(F)c6F)c6ccc3[nH]6)C=C5)C=C4)cc2)[C@@H]1c1cc2ccccc2[nH]1
REMARK SMILES IDX 21 1 20 2 19 3 18 4 17 5 16 6 15 7 14 8 12 9 13 10 11 11
REMARK SMILES IDX 1 12 2 13 3 14 92 15 4 16 5 17 6 18 10 19 7 20 9 21 8 22
REMARK SMILES IDX 93 23 94 24 101 25 95 26 100 27 96 29 99 30 97 31 98 32
REMARK SMILES IDX 22 33 23 34 24 35 25 36 26 37 27 38 28 39 29 40 30 41 91 42
REMARK SMILES IDX 31 43 90 44 32 45 33 46 34 47 84 48 35 49 89 50 83 51 85 52
REMARK SMILES IDX 36 53 88 54 82 55 81 56 37 58 69 59 49 60 68 61 50 62 53 63
REMARK SMILES IDX 67 64 86 65 51 66 52 67 66 69 87 70 54 71 38 72 39 73 47 74
REMARK SMILES IDX 40 75 41 76 45 77 48 78 42 79 43 80 46 81 44 82 70 83 71 84
REMARK SMILES IDX 79 85 72 86 73 87 77 88 80 89 74 90 75 91 78 92 76 93 55 94
REMARK SMILES IDX 56 95 64 96 57 97 58 98 62 99 65 100 59 101 60 102 63 103
REMARK SMILES IDX 61 104
REMARK H PARENT 101 28 85 57 53 68
REMARK Flexibility Score: inf
ROOT
ATOM      1  C   UNL A   1      35.984  22.939  26.187  1.00  0.00     0.188 C 
ENDROOT
BRANCH   1   2
ATOM      2  O   UNL A   1      35.546  21.619  26.477  1.00  0.00    -0.377 OA
BRANCH   2   3
ATOM      3  C   UNL A   1      34.185  21.361  26.777  1.00  0.00     0.188 C 
BRANCH   3   4
ATOM      4  C   UNL A   1      33.468  22.211  27.824  1.00  0.00     0.188 C 
BRANCH   4   5
ATOM      5  O   UNL A   1      32.136  22.578  27.576  1.00  0.00    -0.376 OA
BRANCH   5   6
ATOM      6  C   UNL A   1      31.781  23.805  26.969  1.00  0.00     0.202 C 
BRANCH   6   7
ATOM      7  C   UNL A   1      30.564  24.087  26.061  1.00  0.00     0.261 C 
BRANCH   7   8
ATOM      8  O   UNL A   1      29.865  25.334  26.184  1.00  0.00    -0.463 OA
BRANCH   8   9
ATOM      9  C   UNL A   1      30.662  26.410  26.363  1.00  0.00     0.316 C 
ATOM     10  O   UNL A   1      30.702  27.044  27.419  1.00  0.00    -0.251 OA
BRANCH   9  11
ATOM     11  C   UNL A   1      31.523  26.822  25.172  1.00  0.00     0.159 C 
ATOM     12  C   UNL A   1      29.236  28.651  22.754  1.00  0.00     0.147 C 
ATOM     13  N   UNL A   1      30.428  28.482  23.575  1.00  0.00    -0.332 N 
ATOM     14  C   UNL A   1      30.840  29.531  24.384  1.00  0.00     0.254 C 
ATOM     15  C   UNL A   1      30.898  27.135  23.798  1.00  0.00     0.150 C 
ATOM     16  O   UNL A   1      30.291  30.629  24.385  1.00  0.00    -0.269 OA
ATOM     17  C   UNL A   1      31.993  29.273  25.295  1.00  0.00     0.044 A 
ATOM     18  C   UNL A   1      32.672  30.341  25.875  1.00  0.00     0.014 A 
ATOM     19  C   UNL A   1      32.393  27.967  25.597  1.00  0.00    -0.019 A 
ATOM     20  C   UNL A   1      33.769  30.100  26.707  1.00  0.00     0.001 A 
ATOM     21  C   UNL A   1      33.510  27.727  26.407  1.00  0.00     0.005 A 
ATOM     22  C   UNL A   1      34.198  28.797  26.958  1.00  0.00     0.000 A 
BRANCH  15  23
ATOM     23  C   UNL A   1      31.787  26.619  22.662  1.00  0.00     0.040 A 
ATOM     24  C   UNL A   1      33.177  26.520  22.566  1.00  0.00     0.034 A 
ATOM     25  N   UNL A   1      31.359  25.528  21.916  1.00  0.00    -0.357 N 
ATOM     26  C   UNL A   1      33.388  25.097  22.667  1.00  0.00    -0.000 A 
ATOM     27  C   UNL A   1      32.170  24.494  22.353  1.00  0.00     0.046 A 
ATOM     28  H   UNL A   1      30.648  25.496  21.236  1.00  0.00     0.166 HD
ATOM     29  C   UNL A   1      34.426  24.288  23.167  1.00  0.00     0.010 A 
ATOM     30  C   UNL A   1      31.889  23.145  22.582  1.00  0.00     0.026 A 
ATOM     31  C   UNL A   1      34.143  22.947  23.471  1.00  0.00     0.001 A 
ATOM     32  C   UNL A   1      32.888  22.397  23.208  1.00  0.00     0.002 A 
ENDBRANCH  15  23
ENDBRANCH   9  11
ENDBRANCH   8   9
ENDBRANCH   7   8
ENDBRANCH   6   7
ENDBRANCH   5   6
ENDBRANCH   4   5
ENDBRANCH   3   4
ENDBRANCH   2   3
ENDBRANCH   1   2
BRANCH   1  33
ATOM     33  C   UNL A   1      37.285  23.172  25.398  1.00  0.00     0.188 C 
BRANCH  33  34
ATOM     34  O   UNL A   1      37.973  22.004  25.006  1.00  0.00    -0.376 OA
BRANCH  34  35
ATOM     35  C   UNL A   1      39.058  21.517  25.776  1.00  0.00     0.202 C 
BRANCH  35  36
ATOM     36  C   UNL A   1      39.522  20.049  25.691  1.00  0.00     0.261 C 
BRANCH  36  37
ATOM     37  O   UNL A   1      40.459  19.585  26.674  1.00  0.00    -0.460 OA
BRANCH  37  38
ATOM     38  C   UNL A   1      41.737  19.423  26.277  1.00  0.00     0.338 C 
ATOM     39  O   UNL A   1      42.198  18.464  25.674  1.00  0.00    -0.246 OA
BRANCH  38  40
ATOM     40  C   UNL A   1      42.474  20.685  26.508  1.00  0.00     0.060 A 
ATOM     41  C   UNL A   1      42.518  21.217  27.803  1.00  0.00     0.016 A 
ATOM     42  C   UNL A   1      43.079  21.366  25.449  1.00  0.00     0.016 A 
ATOM     43  C   UNL A   1      43.123  22.448  28.039  1.00  0.00     0.010 A 
ATOM     44  C   UNL A   1      43.663  22.618  25.683  1.00  0.00     0.010 A 
ATOM     45  C   UNL A   1      43.654  23.181  26.971  1.00  0.00    -0.014 A 
BRANCH  45  46
ATOM     46  C   UNL A   1      44.060  24.589  27.204  1.00  0.00     0.031 A 
ATOM     47  C   UNL A   1      43.026  25.593  27.630  1.00  0.00     0.074 A 
ATOM     48  C   UNL A   1      45.352  24.949  27.108  1.00  0.00     0.049 A 
ATOM     49  N   UNL A   1      43.163  26.867  27.901  1.00  0.00    -0.248 NA
ATOM     50  C   UNL A   1      41.649  25.095  27.771  1.00  0.00     0.031 C 
ATOM     51  C   UNL A   1      46.450  24.054  26.748  1.00  0.00     0.029 A 
ATOM     52  N   UNL A   1      45.958  26.164  27.309  1.00  0.00    -0.354 N 
ATOM     53  C   UNL A   1      41.894  27.323  28.233  1.00  0.00     0.074 A 
ATOM     54  C   UNL A   1      40.993  26.199  28.094  1.00  0.00     0.031 C 
ATOM     55  C   UNL A   1      47.598  24.750  26.756  1.00  0.00     0.029 A 
ATOM     56  C   UNL A   1      47.310  26.146  27.077  1.00  0.00     0.049 A 
ATOM     57  H   UNL A   1      45.469  26.970  27.593  1.00  0.00     0.167 HD
ATOM     58  C   UNL A   1      41.519  28.565  28.627  1.00  0.00     0.037 A 
ATOM     59  C   UNL A   1      48.209  27.150  27.097  1.00  0.00     0.037 A 
ATOM     60  C   UNL A   1      42.423  29.680  28.753  1.00  0.00     0.049 A 
ATOM     61  C   UNL A   1      47.747  28.539  27.456  1.00  0.00     0.074 A 
ATOM     62  C   UNL A   1      42.145  30.974  29.157  1.00  0.00     0.029 A 
ATOM     63  N   UNL A   1      43.779  29.640  28.458  1.00  0.00    -0.354 N 
ATOM     64  N   UNL A   1      46.553  28.957  27.796  1.00  0.00    -0.248 NA
ATOM     65  C   UNL A   1      48.770  29.593  27.444  1.00  0.00     0.031 C 
ATOM     66  C   UNL A   1      43.312  31.735  29.025  1.00  0.00     0.029 A 
ATOM     67  C   UNL A   1      44.342  30.895  28.633  1.00  0.00     0.049 A 
ATOM     68  H   UNL A   1      44.269  28.837  28.167  1.00  0.00     0.167 HD
ATOM     69  C   UNL A   1      46.685  30.313  28.070  1.00  0.00     0.074 A 
ATOM     70  C   UNL A   1      48.085  30.636  27.886  1.00  0.00     0.031 C 
ATOM     71  C   UNL A   1      45.735  31.211  28.439  1.00  0.00     0.037 A 
BRANCH  58  72
ATOM     72  C   UNL A   1      40.059  28.797  28.909  1.00  0.00     0.064 A 
ATOM     73  C   UNL A   1      39.510  28.627  30.190  1.00  0.00     0.173 A 
ATOM     74  C   UNL A   1      39.201  29.231  27.886  1.00  0.00     0.173 A 
ATOM     75  F   UNL A   1      40.278  28.206  31.205  1.00  0.00    -0.203 F 
ATOM     76  C   UNL A   1      38.155  28.849  30.426  1.00  0.00     0.198 A 
ATOM     77  C   UNL A   1      37.857  29.493  28.134  1.00  0.00     0.198 A 
ATOM     78  F   UNL A   1      39.671  29.417  26.642  1.00  0.00    -0.203 F 
ATOM     79  F   UNL A   1      37.642  28.622  31.642  1.00  0.00    -0.200 F 
ATOM     80  C   UNL A   1      37.332  29.290  29.400  1.00  0.00     0.200 A 
ATOM     81  F   UNL A   1      37.069  29.939  27.145  1.00  0.00    -0.200 F 
ATOM     82  F   UNL A   1      36.031  29.514  29.631  1.00  0.00    -0.200 F 
ENDBRANCH  58  72
BRANCH  59  83
ATOM     83  C   UNL A   1      49.631  26.885  26.749  1.00  0.00     0.064 A 
ATOM     84  C   UNL A   1      50.081  26.955  25.424  1.00  0.00     0.173 A 
ATOM     85  C   UNL A   1      50.563  26.524  27.735  1.00  0.00     0.173 A 
ATOM     86  F   UNL A   1      49.225  27.271  24.441  1.00  0.00    -0.203 F 
ATOM     87  C   UNL A   1      51.399  26.644  25.093  1.00  0.00     0.198 A 
ATOM     88  C   UNL A   1      51.891  26.256  27.409  1.00  0.00     0.198 A 
ATOM     89  F   UNL A   1      50.186  26.440  29.019  1.00  0.00    -0.203 F 
ATOM     90  F   UNL A   1      51.784  26.654  23.809  1.00  0.00    -0.200 F 
ATOM     91  C   UNL A   1      52.304  26.303  26.086  1.00  0.00     0.200 A 
ATOM     92  F   UNL A   1      52.765  25.943  28.373  1.00  0.00    -0.200 F 
ATOM     93  F   UNL A   1      53.572  26.007  25.767  1.00  0.00    -0.200 F 
ENDBRANCH  59  83
BRANCH  71  94
ATOM     94  C   UNL A   1      46.194  32.620  28.714  1.00  0.00     0.064 A 
ATOM     95  C   UNL A   1      46.261  33.594  27.704  1.00  0.00     0.173 A 
ATOM     96  C   UNL A   1      46.588  32.998  30.008  1.00  0.00     0.173 A 
ATOM     97  F   UNL A   1      45.900  33.291  26.448  1.00  0.00    -0.203 F 
ATOM     98  C   UNL A   1      46.769  34.865  27.964  1.00  0.00     0.198 A 
ATOM     99  C   UNL A   1      47.046  34.286  30.275  1.00  0.00     0.198 A 
ATOM    100  F   UNL A   1      46.531  32.118  31.019  1.00  0.00    -0.203 F 
ATOM    101  F   UNL A   1      46.915  35.742  26.962  1.00  0.00    -0.200 F 
ATOM    102  C   UNL A   1      47.157  35.210  29.249  1.00  0.00     0.200 A 
ATOM    103  F   UNL A   1      47.394  34.625  31.523  1.00  0.00    -0.200 F 
ATOM    104  F   UNL A   1      47.653  36.431  29.496  1.00  0.00    -0.200 F 
ENDBRANCH  71  94
ENDBRANCH  45  46
ENDBRANCH  38  40
ENDBRANCH  37  38
ENDBRANCH  36  37
ENDBRANCH  35  36
ENDBRANCH  34  35
ENDBRANCH  33  34
ENDBRANCH   1  33
TORSDOF 21
ENDMDL
