MODEL 1
REMARK VINA RESULT:     -10.9      0.000      0.000
REMARK SMILES O=C(OCCOCCOCCOCCOC(=O)[C@H]1C[C@H]2CCCC[C@@H]2[N@@H+]1Cc1ccno1)c1ccc(-c2c3nc(c(-c4c(F)c(F)c(F)c(F)c4F)c4ccc([nH]4)c(-c4c(F)c(F)c(F)c(F)c4F)c4nc(c(-c5c(F)c(F)c(F)c(F)c5F)c5ccc2[nH]5)C=C4)C=C3)cc1
REMARK SMILES IDX 9 1 8 2 7 3 6 4 5 5 4 6 3 7 2 8 1 9 33 10 34 11 95 12 35 13
REMARK SMILES IDX 94 14 36 15 37 16 38 17 88 18 39 19 93 20 87 21 89 22 40 23
REMARK SMILES IDX 92 24 86 25 85 26 41 28 73 29 53 30 72 31 54 32 57 33 71 34
REMARK SMILES IDX 90 35 55 36 56 37 70 39 91 40 58 41 42 42 43 43 51 44 44 45
REMARK SMILES IDX 45 46 49 47 52 48 46 49 47 50 50 51 48 52 74 53 75 54 83 55
REMARK SMILES IDX 76 56 77 57 81 58 84 59 78 60 79 61 82 62 80 63 59 64 60 65
REMARK SMILES IDX 68 66 61 67 62 68 66 69 69 70 63 71 64 72 67 73 65 74 10 75
REMARK SMILES IDX 11 76 12 77 13 78 14 79 15 80 16 81 17 82 18 83 19 84 26 85
REMARK SMILES IDX 20 86 25 87 21 89 24 90 22 91 23 92 27 93 28 94 29 95 32 96
REMARK SMILES IDX 30 97 31 98
REMARK H PARENT 89 27 57 38 26 88
REMARK Flexibility Score: inf
ROOT
ATOM      1  O   UNL A   1      33.169  29.209  23.336  1.00  0.00    -0.377 OA
ENDROOT
BRANCH   1   2
ATOM      2  C   UNL A   1      31.775  29.017  23.207  1.00  0.00     0.188 C 
BRANCH   2   3
ATOM      3  C   UNL A   1      30.926  29.239  24.450  1.00  0.00     0.188 C 
BRANCH   3   4
ATOM      4  O   UNL A   1      31.401  28.461  25.551  1.00  0.00    -0.376 OA
BRANCH   4   5
ATOM      5  C   UNL A   1      31.879  29.206  26.673  1.00  0.00     0.202 C 
BRANCH   5   6
ATOM      6  C   UNL A   1      31.637  30.715  26.613  1.00  0.00     0.261 C 
BRANCH   6   7
ATOM      7  O   UNL A   1      32.836  31.491  26.508  1.00  0.00    -0.460 OA
BRANCH   7   8
ATOM      8  C   UNL A   1      33.601  32.013  27.497  1.00  0.00     0.338 C 
ATOM      9  O   UNL A   1      33.238  33.082  27.990  1.00  0.00    -0.246 OA
BRANCH   8  10
ATOM     10  C   UNL A   1      34.903  31.436  27.982  1.00  0.00     0.060 A 
ATOM     11  C   UNL A   1      35.132  30.111  28.366  1.00  0.00     0.016 A 
ATOM     12  C   UNL A   1      36.003  32.314  28.008  1.00  0.00     0.016 A 
ATOM     13  C   UNL A   1      36.382  29.655  28.748  1.00  0.00     0.010 A 
ATOM     14  C   UNL A   1      37.255  31.890  28.459  1.00  0.00     0.010 A 
ATOM     15  C   UNL A   1      37.423  30.563  28.862  1.00  0.00    -0.014 A 
BRANCH  15  16
ATOM     16  C   UNL A   1      38.532  30.173  29.737  1.00  0.00     0.031 A 
ATOM     17  C   UNL A   1      39.557  29.261  29.138  1.00  0.00     0.074 A 
ATOM     18  C   UNL A   1      38.685  30.738  30.942  1.00  0.00     0.049 A 
ATOM     19  N   UNL A   1      40.564  28.654  29.696  1.00  0.00    -0.248 NA
ATOM     20  C   UNL A   1      39.432  29.011  27.688  1.00  0.00     0.031 C 
ATOM     21  C   UNL A   1      37.831  31.788  31.496  1.00  0.00     0.029 A 
ATOM     22  N   UNL A   1      39.621  30.512  31.910  1.00  0.00    -0.354 N 
ATOM     23  C   UNL A   1      41.158  27.916  28.681  1.00  0.00     0.074 A 
ATOM     24  C   UNL A   1      40.418  28.162  27.468  1.00  0.00     0.031 C 
ATOM     25  C   UNL A   1      38.270  32.097  32.728  1.00  0.00     0.029 A 
ATOM     26  C   UNL A   1      39.382  31.214  33.064  1.00  0.00     0.049 A 
ATOM     27  H   UNL A   1      40.389  29.908  31.792  1.00  0.00     0.167 HD
ATOM     28  C   UNL A   1      42.217  27.081  28.778  1.00  0.00     0.037 A 
ATOM     29  C   UNL A   1      39.968  31.086  34.268  1.00  0.00     0.037 A 
ATOM     30  C   UNL A   1      42.900  26.862  30.021  1.00  0.00     0.049 A 
ATOM     31  C   UNL A   1      41.067  30.062  34.397  1.00  0.00     0.074 A 
ATOM     32  C   UNL A   1      43.928  25.990  30.310  1.00  0.00     0.029 A 
ATOM     33  N   UNL A   1      42.595  27.540  31.199  1.00  0.00    -0.354 N 
ATOM     34  N   UNL A   1      41.572  29.273  33.474  1.00  0.00    -0.248 NA
ATOM     35  C   UNL A   1      41.666  29.894  35.724  1.00  0.00     0.031 C 
ATOM     36  C   UNL A   1      44.206  26.099  31.677  1.00  0.00     0.029 A 
ATOM     37  C   UNL A   1      43.402  27.092  32.225  1.00  0.00     0.049 A 
ATOM     38  H   UNL A   1      41.905  28.236  31.287  1.00  0.00     0.167 HD
ATOM     39  C   UNL A   1      42.566  28.535  34.098  1.00  0.00     0.074 A 
ATOM     40  C   UNL A   1      42.591  28.972  35.482  1.00  0.00     0.031 C 
ATOM     41  C   UNL A   1      43.390  27.587  33.582  1.00  0.00     0.037 A 
BRANCH  28  42
ATOM     42  C   UNL A   1      42.572  26.290  27.554  1.00  0.00     0.064 A 
ATOM     43  C   UNL A   1      41.994  25.041  27.270  1.00  0.00     0.173 A 
ATOM     44  C   UNL A   1      43.590  26.745  26.701  1.00  0.00     0.173 A 
ATOM     45  F   UNL A   1      41.045  24.538  28.074  1.00  0.00    -0.203 F 
ATOM     46  C   UNL A   1      42.457  24.260  26.212  1.00  0.00     0.198 A 
ATOM     47  C   UNL A   1      44.026  25.976  25.625  1.00  0.00     0.198 A 
ATOM     48  F   UNL A   1      44.189  27.923  26.931  1.00  0.00    -0.203 F 
ATOM     49  F   UNL A   1      41.954  23.032  26.018  1.00  0.00    -0.200 F 
ATOM     50  C   UNL A   1      43.471  24.728  25.390  1.00  0.00     0.200 A 
ATOM     51  F   UNL A   1      45.005  26.432  24.832  1.00  0.00    -0.200 F 
ATOM     52  F   UNL A   1      43.930  23.965  24.389  1.00  0.00    -0.200 F 
ENDBRANCH  28  42
BRANCH  29  53
ATOM     53  C   UNL A   1      39.476  31.885  35.420  1.00  0.00     0.064 A 
ATOM     54  C   UNL A   1      38.497  31.391  36.291  1.00  0.00     0.173 A 
ATOM     55  C   UNL A   1      40.007  33.157  35.698  1.00  0.00     0.173 A 
ATOM     56  F   UNL A   1      37.942  30.191  36.062  1.00  0.00    -0.203 F 
ATOM     57  C   UNL A   1      38.069  32.133  37.392  1.00  0.00     0.198 A 
ATOM     58  C   UNL A   1      39.599  33.886  36.813  1.00  0.00     0.198 A 
ATOM     59  F   UNL A   1      40.946  33.682  34.896  1.00  0.00    -0.203 F 
ATOM     60  F   UNL A   1      37.110  31.648  38.192  1.00  0.00    -0.200 F 
ATOM     61  C   UNL A   1      38.627  33.375  37.657  1.00  0.00     0.200 A 
ATOM     62  F   UNL A   1      40.154  35.078  37.071  1.00  0.00    -0.200 F 
ATOM     63  F   UNL A   1      38.224  34.082  38.722  1.00  0.00    -0.200 F 
ENDBRANCH  29  53
BRANCH  41  64
ATOM     64  C   UNL A   1      44.424  27.012  34.499  1.00  0.00     0.064 A 
ATOM     65  C   UNL A   1      44.198  25.833  35.220  1.00  0.00     0.173 A 
ATOM     66  C   UNL A   1      45.695  27.602  34.566  1.00  0.00     0.173 A 
ATOM     67  F   UNL A   1      42.994  25.244  35.192  1.00  0.00    -0.203 F 
ATOM     68  C   UNL A   1      45.212  25.268  35.987  1.00  0.00     0.198 A 
ATOM     69  C   UNL A   1      46.714  27.016  35.306  1.00  0.00     0.198 A 
ATOM     70  F   UNL A   1      45.957  28.726  33.882  1.00  0.00    -0.203 F 
ATOM     71  F   UNL A   1      44.970  24.155  36.694  1.00  0.00    -0.200 F 
ATOM     72  C   UNL A   1      46.471  25.851  36.019  1.00  0.00     0.200 A 
ATOM     73  F   UNL A   1      47.934  27.568  35.319  1.00  0.00    -0.200 F 
ATOM     74  F   UNL A   1      47.452  25.288  36.736  1.00  0.00    -0.200 F 
ENDBRANCH  41  64
ENDBRANCH  15  16
ENDBRANCH   8  10
ENDBRANCH   7   8
ENDBRANCH   6   7
ENDBRANCH   5   6
ENDBRANCH   4   5
ENDBRANCH   3   4
ENDBRANCH   2   3
ENDBRANCH   1   2
BRANCH   1  75
ATOM     75  C   UNL A   1      34.018  28.099  23.132  1.00  0.00     0.188 C 
BRANCH  75  76
ATOM     76  C   UNL A   1      33.601  26.677  23.581  1.00  0.00     0.188 C 
BRANCH  76  77
ATOM     77  O   UNL A   1      33.113  25.710  22.670  1.00  0.00    -0.376 OA
BRANCH  77  78
ATOM     78  C   UNL A   1      31.753  25.737  22.297  1.00  0.00     0.202 C 
BRANCH  78  79
ATOM     79  C   UNL A   1      30.676  25.157  23.232  1.00  0.00     0.261 C 
BRANCH  79  80
ATOM     80  O   UNL A   1      30.715  23.743  23.501  1.00  0.00    -0.459 OA
BRANCH  80  81
ATOM     81  C   UNL A   1      31.211  23.351  24.708  1.00  0.00     0.365 C 
ATOM     82  O   UNL A   1      30.885  23.875  25.778  1.00  0.00    -0.245 OA
BRANCH  81  83
ATOM     83  C   UNL A   1      32.190  22.140  24.578  1.00  0.00     0.296 C 
ATOM     84  C   UNL A   1      33.076  22.357  23.332  1.00  0.00     0.087 C 
ATOM     85  N   UNL A   1      33.146  22.074  25.738  1.00  0.00    -0.314 N 
ATOM     86  C   UNL A   1      34.499  22.408  23.868  1.00  0.00     0.054 C 
ATOM     87  C   UNL A   1      34.331  22.819  25.321  1.00  0.00     0.188 C 
ATOM     88  H   UNL A   1      32.745  22.521  26.564  1.00  0.00     0.349 HD
ATOM     89  C   UNL A   1      35.489  23.332  23.183  1.00  0.00     0.010 C 
ATOM     90  C   UNL A   1      35.642  22.711  26.104  1.00  0.00     0.065 C 
ATOM     91  C   UNL A   1      36.845  23.192  23.887  1.00  0.00     0.001 C 
ATOM     92  C   UNL A   1      36.764  23.480  25.392  1.00  0.00     0.006 C 
BRANCH  85  93
ATOM     93  C   UNL A   1      33.342  20.750  26.355  1.00  0.00     0.342 C 
BRANCH  93  94
ATOM     94  C   UNL A   1      33.273  19.538  25.500  1.00  0.00     0.190 A 
ATOM     95  C   UNL A   1      34.126  18.911  24.621  1.00  0.00     0.075 A 
ATOM     96  O   UNL A   1      32.149  18.779  25.640  1.00  0.00    -0.355 OA
ATOM     97  C   UNL A   1      33.421  17.767  24.213  1.00  0.00     0.158 A 
ATOM     98  N   UNL A   1      32.240  17.664  24.824  1.00  0.00    -0.088 NA
ENDBRANCH  93  94
ENDBRANCH  85  93
ENDBRANCH  81  83
ENDBRANCH  80  81
ENDBRANCH  79  80
ENDBRANCH  78  79
ENDBRANCH  77  78
ENDBRANCH  76  77
ENDBRANCH  75  76
ENDBRANCH   1  75
TORSDOF 22
ENDMDL
MODEL 2
REMARK VINA RESULT:     -10.6      5.213      9.299
REMARK SMILES O=C(OCCOCCOCCOCCOC(=O)[C@H]1C[C@H]2CCCC[C@@H]2[N@@H+]1Cc1ccno1)c1ccc(-c2c3nc(c(-c4c(F)c(F)c(F)c(F)c4F)c4ccc([nH]4)c(-c4c(F)c(F)c(F)c(F)c4F)c4nc(c(-c5c(F)c(F)c(F)c(F)c5F)c5ccc2[nH]5)C=C4)C=C3)cc1
REMARK SMILES IDX 9 1 8 2 7 3 6 4 5 5 4 6 3 7 2 8 1 9 33 10 34 11 95 12 35 13
REMARK SMILES IDX 94 14 36 15 37 16 38 17 88 18 39 19 93 20 87 21 89 22 40 23
REMARK SMILES IDX 92 24 86 25 85 26 41 28 73 29 53 30 72 31 54 32 57 33 71 34
REMARK SMILES IDX 90 35 55 36 56 37 70 39 91 40 58 41 42 42 43 43 51 44 44 45
REMARK SMILES IDX 45 46 49 47 52 48 46 49 47 50 50 51 48 52 74 53 75 54 83 55
REMARK SMILES IDX 76 56 77 57 81 58 84 59 78 60 79 61 82 62 80 63 59 64 60 65
REMARK SMILES IDX 68 66 61 67 62 68 66 69 69 70 63 71 64 72 67 73 65 74 10 75
REMARK SMILES IDX 11 76 12 77 13 78 14 79 15 80 16 81 17 82 18 83 19 84 26 85
REMARK SMILES IDX 20 86 25 87 21 89 24 90 22 91 23 92 27 93 28 94 29 95 32 96
REMARK SMILES IDX 30 97 31 98
REMARK H PARENT 89 27 57 38 26 88
REMARK Flexibility Score: inf
ROOT
ATOM      1  O   UNL A   1      39.739  22.197  26.203  1.00  0.00    -0.377 OA
ENDROOT
BRANCH   1   2
ATOM      2  C   UNL A   1      41.000  21.567  26.117  1.00  0.00     0.188 C 
BRANCH   2   3
ATOM      3  C   UNL A   1      41.084  20.118  26.574  1.00  0.00     0.188 C 
BRANCH   3   4
ATOM      4  O   UNL A   1      41.773  19.309  25.618  1.00  0.00    -0.376 OA
BRANCH   4   5
ATOM      5  C   UNL A   1      42.389  18.129  26.138  1.00  0.00     0.202 C 
BRANCH   5   6
ATOM      6  C   UNL A   1      43.913  18.077  26.024  1.00  0.00     0.261 C 
BRANCH   6   7
ATOM      7  O   UNL A   1      44.406  18.364  24.711  1.00  0.00    -0.460 OA
BRANCH   7   8
ATOM      8  C   UNL A   1      45.087  19.452  24.276  1.00  0.00     0.338 C 
ATOM      9  O   UNL A   1      46.069  19.256  23.557  1.00  0.00    -0.246 OA
BRANCH   8  10
ATOM     10  C   UNL A   1      44.792  20.873  24.669  1.00  0.00     0.060 A 
ATOM     11  C   UNL A   1      44.523  21.935  23.800  1.00  0.00     0.016 A 
ATOM     12  C   UNL A   1      44.744  21.142  26.050  1.00  0.00     0.016 A 
ATOM     13  C   UNL A   1      44.207  23.204  24.256  1.00  0.00     0.010 A 
ATOM     14  C   UNL A   1      44.497  22.431  26.527  1.00  0.00     0.010 A 
ATOM     15  C   UNL A   1      44.265  23.464  25.616  1.00  0.00    -0.014 A 
BRANCH  15  16
ATOM     16  C   UNL A   1      44.443  24.867  26.002  1.00  0.00     0.031 A 
ATOM     17  C   UNL A   1      45.800  25.452  25.758  1.00  0.00     0.074 A 
ATOM     18  C   UNL A   1      43.399  25.606  26.398  1.00  0.00     0.049 A 
ATOM     19  N   UNL A   1      46.287  26.607  26.108  1.00  0.00    -0.248 NA
ATOM     20  C   UNL A   1      46.739  24.610  24.991  1.00  0.00     0.031 C 
ATOM     21  C   UNL A   1      42.013  25.145  26.457  1.00  0.00     0.029 A 
ATOM     22  N   UNL A   1      43.345  26.906  26.813  1.00  0.00    -0.354 N 
ATOM     23  C   UNL A   1      47.598  26.608  25.648  1.00  0.00     0.074 A 
ATOM     24  C   UNL A   1      47.829  25.353  24.977  1.00  0.00     0.031 C 
ATOM     25  C   UNL A   1      41.243  26.146  26.916  1.00  0.00     0.029 A 
ATOM     26  C   UNL A   1      42.099  27.281  27.247  1.00  0.00     0.049 A 
ATOM     27  H   UNL A   1      44.121  27.512  26.803  1.00  0.00     0.167 HD
ATOM     28  C   UNL A   1      48.528  27.576  25.810  1.00  0.00     0.037 A 
ATOM     29  C   UNL A   1      41.732  28.398  27.900  1.00  0.00     0.037 A 
ATOM     30  C   UNL A   1      48.242  28.796  26.507  1.00  0.00     0.049 A 
ATOM     31  C   UNL A   1      42.805  29.417  28.184  1.00  0.00     0.074 A 
ATOM     32  C   UNL A   1      49.088  29.834  26.833  1.00  0.00     0.029 A 
ATOM     33  N   UNL A   1      46.980  29.128  26.997  1.00  0.00    -0.354 N 
ATOM     34  N   UNL A   1      44.078  29.389  27.854  1.00  0.00    -0.248 NA
ATOM     35  C   UNL A   1      42.407  30.609  28.940  1.00  0.00     0.031 C 
ATOM     36  C   UNL A   1      48.352  30.768  27.571  1.00  0.00     0.029 A 
ATOM     37  C   UNL A   1      47.029  30.347  27.642  1.00  0.00     0.049 A 
ATOM     38  H   UNL A   1      46.173  28.573  26.899  1.00  0.00     0.167 HD
ATOM     39  C   UNL A   1      44.629  30.567  28.335  1.00  0.00     0.074 A 
ATOM     40  C   UNL A   1      43.547  31.288  28.981  1.00  0.00     0.031 C 
ATOM     41  C   UNL A   1      45.904  31.022  28.249  1.00  0.00     0.037 A 
BRANCH  28  42
ATOM     42  C   UNL A   1      49.918  27.265  25.339  1.00  0.00     0.064 A 
ATOM     43  C   UNL A   1      50.315  27.426  24.001  1.00  0.00     0.173 A 
ATOM     44  C   UNL A   1      50.843  26.694  26.227  1.00  0.00     0.173 A 
ATOM     45  F   UNL A   1      49.459  27.929  23.099  1.00  0.00    -0.203 F 
ATOM     46  C   UNL A   1      51.562  26.981  23.563  1.00  0.00     0.198 A 
ATOM     47  C   UNL A   1      52.100  26.282  25.793  1.00  0.00     0.198 A 
ATOM     48  F   UNL A   1      50.515  26.502  27.514  1.00  0.00    -0.203 F 
ATOM     49  F   UNL A   1      51.881  27.061  22.263  1.00  0.00    -0.200 F 
ATOM     50  C   UNL A   1      52.453  26.410  24.460  1.00  0.00     0.200 A 
ATOM     51  F   UNL A   1      52.960  25.732  26.662  1.00  0.00    -0.200 F 
ATOM     52  F   UNL A   1      53.641  25.963  24.032  1.00  0.00    -0.200 F 
ENDBRANCH  28  42
BRANCH  29  53
ATOM     53  C   UNL A   1      40.332  28.554  28.371  1.00  0.00     0.064 A 
ATOM     54  C   UNL A   1      39.940  28.145  29.652  1.00  0.00     0.173 A 
ATOM     55  C   UNL A   1      39.356  29.155  27.557  1.00  0.00     0.173 A 
ATOM     56  F   UNL A   1      40.825  27.548  30.464  1.00  0.00    -0.203 F 
ATOM     57  C   UNL A   1      38.632  28.329  30.101  1.00  0.00     0.198 A 
ATOM     58  C   UNL A   1      38.056  29.364  28.015  1.00  0.00     0.198 A 
ATOM     59  F   UNL A   1      39.673  29.563  26.320  1.00  0.00    -0.203 F 
ATOM     60  F   UNL A   1      38.277  27.903  31.320  1.00  0.00    -0.200 F 
ATOM     61  C   UNL A   1      37.694  28.947  29.286  1.00  0.00     0.200 A 
ATOM     62  F   UNL A   1      37.161  29.976  27.228  1.00  0.00    -0.200 F 
ATOM     63  F   UNL A   1      36.441  29.136  29.722  1.00  0.00    -0.200 F 
ENDBRANCH  29  53
BRANCH  41  64
ATOM     64  C   UNL A   1      46.182  32.382  28.809  1.00  0.00     0.064 A 
ATOM     65  C   UNL A   1      46.571  32.567  30.141  1.00  0.00     0.173 A 
ATOM     66  C   UNL A   1      46.157  33.499  27.960  1.00  0.00     0.173 A 
ATOM     67  F   UNL A   1      46.597  31.529  30.989  1.00  0.00    -0.203 F 
ATOM     68  C   UNL A   1      46.918  33.831  30.608  1.00  0.00     0.198 A 
ATOM     69  C   UNL A   1      46.537  34.753  28.421  1.00  0.00     0.198 A 
ATOM     70  F   UNL A   1      45.801  33.363  26.673  1.00  0.00    -0.203 F 
ATOM     71  F   UNL A   1      47.261  33.996  31.893  1.00  0.00    -0.200 F 
ATOM     72  C   UNL A   1      46.915  34.919  29.745  1.00  0.00     0.200 A 
ATOM     73  F   UNL A   1      46.553  35.796  27.582  1.00  0.00    -0.200 F 
ATOM     74  F   UNL A   1      47.276  36.129  30.191  1.00  0.00    -0.200 F 
ENDBRANCH  41  64
ENDBRANCH  15  16
ENDBRANCH   8  10
ENDBRANCH   7   8
ENDBRANCH   6   7
ENDBRANCH   5   6
ENDBRANCH   4   5
ENDBRANCH   3   4
ENDBRANCH   2   3
ENDBRANCH   1   2
BRANCH   1  75
ATOM     75  C   UNL A   1      38.594  21.453  25.839  1.00  0.00     0.188 C 
BRANCH  75  76
ATOM     76  C   UNL A   1      37.355  22.141  25.216  1.00  0.00     0.188 C 
BRANCH  76  77
ATOM     77  O   UNL A   1      36.203  22.455  25.975  1.00  0.00    -0.376 OA
BRANCH  77  78
ATOM     78  C   UNL A   1      35.136  21.533  26.024  1.00  0.00     0.202 C 
BRANCH  78  79
ATOM     79  C   UNL A   1      34.102  21.598  27.163  1.00  0.00     0.261 C 
BRANCH  79  80
ATOM     80  O   UNL A   1      33.563  22.888  27.505  1.00  0.00    -0.459 OA
BRANCH  80  81
ATOM     81  C   UNL A   1      32.326  23.195  27.024  1.00  0.00     0.365 C 
ATOM     82  O   UNL A   1      31.278  22.910  27.614  1.00  0.00    -0.245 OA
BRANCH  81  83
ATOM     83  C   UNL A   1      32.396  23.986  25.678  1.00  0.00     0.296 C 
ATOM     84  C   UNL A   1      31.182  24.937  25.604  1.00  0.00     0.087 C 
ATOM     85  N   UNL A   1      33.605  24.881  25.625  1.00  0.00    -0.314 N 
ATOM     86  C   UNL A   1      31.783  26.333  25.519  1.00  0.00     0.054 C 
ATOM     87  C   UNL A   1      33.164  26.178  26.132  1.00  0.00     0.188 C 
ATOM     88  H   UNL A   1      34.347  24.523  26.227  1.00  0.00     0.349 HD
ATOM     89  C   UNL A   1      31.044  27.472  26.196  1.00  0.00     0.010 C 
ATOM     90  C   UNL A   1      34.022  27.430  25.939  1.00  0.00     0.065 C 
ATOM     91  C   UNL A   1      31.830  28.767  25.954  1.00  0.00     0.001 C 
ATOM     92  C   UNL A   1      33.282  28.678  26.442  1.00  0.00     0.006 C 
BRANCH  85  93
ATOM     93  C   UNL A   1      34.388  24.857  24.377  1.00  0.00     0.342 C 
BRANCH  93  94
ATOM     94  C   UNL A   1      33.723  25.221  23.101  1.00  0.00     0.190 A 
ATOM     95  C   UNL A   1      32.810  24.618  22.266  1.00  0.00     0.075 A 
ATOM     96  O   UNL A   1      33.977  26.479  22.640  1.00  0.00    -0.355 OA
ATOM     97  C   UNL A   1      32.581  25.571  21.260  1.00  0.00     0.158 A 
ATOM     98  N   UNL A   1      33.261  26.698  21.475  1.00  0.00    -0.088 NA
ENDBRANCH  93  94
ENDBRANCH  85  93
ENDBRANCH  81  83
ENDBRANCH  80  81
ENDBRANCH  79  80
ENDBRANCH  78  79
ENDBRANCH  77  78
ENDBRANCH  76  77
ENDBRANCH  75  76
ENDBRANCH   1  75
TORSDOF 22
ENDMDL
MODEL 3
REMARK VINA RESULT:     -10.5      3.307      8.567
REMARK SMILES O=C(OCCOCCOCCOCCOC(=O)[C@H]1C[C@H]2CCCC[C@@H]2[N@@H+]1Cc1ccno1)c1ccc(-c2c3nc(c(-c4c(F)c(F)c(F)c(F)c4F)c4ccc([nH]4)c(-c4c(F)c(F)c(F)c(F)c4F)c4nc(c(-c5c(F)c(F)c(F)c(F)c5F)c5ccc2[nH]5)C=C4)C=C3)cc1
REMARK SMILES IDX 9 1 8 2 7 3 6 4 5 5 4 6 3 7 2 8 1 9 33 10 34 11 95 12 35 13
REMARK SMILES IDX 94 14 36 15 37 16 38 17 88 18 39 19 93 20 87 21 89 22 40 23
REMARK SMILES IDX 92 24 86 25 85 26 41 28 73 29 53 30 72 31 54 32 57 33 71 34
REMARK SMILES IDX 90 35 55 36 56 37 70 39 91 40 58 41 42 42 43 43 51 44 44 45
REMARK SMILES IDX 45 46 49 47 52 48 46 49 47 50 50 51 48 52 74 53 75 54 83 55
REMARK SMILES IDX 76 56 77 57 81 58 84 59 78 60 79 61 82 62 80 63 59 64 60 65
REMARK SMILES IDX 68 66 61 67 62 68 66 69 69 70 63 71 64 72 67 73 65 74 10 75
REMARK SMILES IDX 11 76 12 77 13 78 14 79 15 80 16 81 17 82 18 83 19 84 26 85
REMARK SMILES IDX 20 86 25 87 21 89 24 90 22 91 23 92 27 93 28 94 29 95 32 96
REMARK SMILES IDX 30 97 31 98
REMARK H PARENT 89 27 57 38 26 88
REMARK Flexibility Score: inf
ROOT
ATOM      1  O   UNL A   1      39.478  21.422  26.499  1.00  0.00    -0.377 OA
ENDROOT
BRANCH   1   2
ATOM      2  C   UNL A   1      40.491  20.443  26.393  1.00  0.00     0.188 C 
BRANCH   2   3
ATOM      3  C   UNL A   1      41.889  20.842  26.845  1.00  0.00     0.188 C 
BRANCH   3   4
ATOM      4  O   UNL A   1      42.355  21.994  26.140  1.00  0.00    -0.376 OA
BRANCH   4   5
ATOM      5  C   UNL A   1      43.535  21.803  25.356  1.00  0.00     0.202 C 
BRANCH   5   6
ATOM      6  C   UNL A   1      44.026  23.034  24.594  1.00  0.00     0.261 C 
BRANCH   6   7
ATOM      7  O   UNL A   1      43.263  24.218  24.852  1.00  0.00    -0.460 OA
BRANCH   7   8
ATOM      8  C   UNL A   1      43.699  25.448  25.215  1.00  0.00     0.338 C 
ATOM      9  O   UNL A   1      44.760  25.840  24.728  1.00  0.00    -0.246 OA
BRANCH   8  10
ATOM     10  C   UNL A   1      43.034  26.338  26.229  1.00  0.00     0.060 A 
ATOM     11  C   UNL A   1      43.509  27.570  26.690  1.00  0.00     0.016 A 
ATOM     12  C   UNL A   1      41.792  25.899  26.726  1.00  0.00     0.016 A 
ATOM     13  C   UNL A   1      42.799  28.349  27.588  1.00  0.00     0.010 A 
ATOM     14  C   UNL A   1      41.096  26.637  27.686  1.00  0.00     0.010 A 
ATOM     15  C   UNL A   1      41.630  27.847  28.137  1.00  0.00    -0.014 A 
BRANCH  15  16
ATOM     16  C   UNL A   1      41.210  28.429  29.415  1.00  0.00     0.031 A 
ATOM     17  C   UNL A   1      39.953  29.242  29.389  1.00  0.00     0.074 A 
ATOM     18  C   UNL A   1      41.838  28.107  30.553  1.00  0.00     0.049 A 
ATOM     19  N   UNL A   1      39.412  29.975  30.319  1.00  0.00    -0.248 NA
ATOM     20  C   UNL A   1      39.188  29.210  28.127  1.00  0.00     0.031 C 
ATOM     21  C   UNL A   1      42.942  27.155  30.668  1.00  0.00     0.029 A 
ATOM     22  N   UNL A   1      41.626  28.540  31.830  1.00  0.00    -0.354 N 
ATOM     23  C   UNL A   1      38.276  30.526  29.740  1.00  0.00     0.074 A 
ATOM     24  C   UNL A   1      38.188  30.032  28.388  1.00  0.00     0.031 C 
ATOM     25  C   UNL A   1      43.332  27.099  31.952  1.00  0.00     0.029 A 
ATOM     26  C   UNL A   1      42.553  28.063  32.722  1.00  0.00     0.049 A 
ATOM     27  H   UNL A   1      40.884  29.135  32.086  1.00  0.00     0.167 HD
ATOM     28  C   UNL A   1      37.405  31.395  30.298  1.00  0.00     0.037 A 
ATOM     29  C   UNL A   1      42.770  28.434  33.996  1.00  0.00     0.037 A 
ATOM     30  C   UNL A   1      37.558  31.867  31.644  1.00  0.00     0.049 A 
ATOM     31  C   UNL A   1      41.868  29.496  34.570  1.00  0.00     0.074 A 
ATOM     32  C   UNL A   1      36.820  32.809  32.329  1.00  0.00     0.029 A 
ATOM     33  N   UNL A   1      38.550  31.415  32.512  1.00  0.00    -0.354 N 
ATOM     34  N   UNL A   1      40.853  30.112  34.003  1.00  0.00    -0.248 NA
ATOM     35  C   UNL A   1      42.143  29.931  35.943  1.00  0.00     0.031 C 
ATOM     36  C   UNL A   1      37.401  32.969  33.591  1.00  0.00     0.029 A 
ATOM     37  C   UNL A   1      38.457  32.073  33.721  1.00  0.00     0.049 A 
ATOM     38  H   UNL A   1      39.219  30.727  32.294  1.00  0.00     0.167 HD
ATOM     39  C   UNL A   1      40.349  30.985  34.955  1.00  0.00     0.074 A 
ATOM     40  C   UNL A   1      41.174  30.818  36.138  1.00  0.00     0.031 C 
ATOM     41  C   UNL A   1      39.301  31.843  34.871  1.00  0.00     0.037 A 
BRANCH  28  42
ATOM     42  C   UNL A   1      36.336  31.952  29.404  1.00  0.00     0.064 A 
ATOM     43  C   UNL A   1      36.290  33.307  29.036  1.00  0.00     0.173 A 
ATOM     44  C   UNL A   1      35.275  31.130  28.992  1.00  0.00     0.173 A 
ATOM     45  F   UNL A   1      37.256  34.148  29.436  1.00  0.00    -0.203 F 
ATOM     46  C   UNL A   1      35.201  33.825  28.336  1.00  0.00     0.198 A 
ATOM     47  C   UNL A   1      34.206  31.644  28.263  1.00  0.00     0.198 A 
ATOM     48  F   UNL A   1      35.257  29.830  29.325  1.00  0.00    -0.203 F 
ATOM     49  F   UNL A   1      35.136  35.139  28.079  1.00  0.00    -0.200 F 
ATOM     50  C   UNL A   1      34.161  32.993  27.950  1.00  0.00     0.200 A 
ATOM     51  F   UNL A   1      33.202  30.837  27.890  1.00  0.00    -0.200 F 
ATOM     52  F   UNL A   1      33.105  33.498  27.298  1.00  0.00    -0.200 F 
ENDBRANCH  28  42
BRANCH  29  53
ATOM     53  C   UNL A   1      43.908  27.852  34.753  1.00  0.00     0.064 A 
ATOM     54  C   UNL A   1      43.774  26.658  35.474  1.00  0.00     0.173 A 
ATOM     55  C   UNL A   1      45.174  28.462  34.741  1.00  0.00     0.173 A 
ATOM     56  F   UNL A   1      42.584  26.043  35.536  1.00  0.00    -0.203 F 
ATOM     57  C   UNL A   1      44.858  26.099  36.151  1.00  0.00     0.198 A 
ATOM     58  C   UNL A   1      46.263  27.889  35.394  1.00  0.00     0.198 A 
ATOM     59  F   UNL A   1      45.360  29.609  34.070  1.00  0.00    -0.203 F 
ATOM     60  F   UNL A   1      44.696  24.971  36.856  1.00  0.00    -0.200 F 
ATOM     61  C   UNL A   1      46.103  26.709  36.102  1.00  0.00     0.200 A 
ATOM     62  F   UNL A   1      47.466  28.476  35.329  1.00  0.00    -0.200 F 
ATOM     63  F   UNL A   1      47.147  26.164  36.743  1.00  0.00    -0.200 F 
ENDBRANCH  29  53
BRANCH  41  64
ATOM     64  C   UNL A   1      38.949  32.612  36.106  1.00  0.00     0.064 A 
ATOM     65  C   UNL A   1      38.198  32.043  37.142  1.00  0.00     0.173 A 
ATOM     66  C   UNL A   1      39.468  33.903  36.289  1.00  0.00     0.173 A 
ATOM     67  F   UNL A   1      37.674  30.817  37.002  1.00  0.00    -0.203 F 
ATOM     68  C   UNL A   1      37.970  32.747  38.320  1.00  0.00     0.198 A 
ATOM     69  C   UNL A   1      39.267  34.589  37.480  1.00  0.00     0.198 A 
ATOM     70  F   UNL A   1      40.203  34.480  35.326  1.00  0.00    -0.203 F 
ATOM     71  F   UNL A   1      37.225  32.200  39.290  1.00  0.00    -0.200 F 
ATOM     72  C   UNL A   1      38.515  34.012  38.494  1.00  0.00     0.200 A 
ATOM     73  F   UNL A   1      39.811  35.800  37.654  1.00  0.00    -0.200 F 
ATOM     74  F   UNL A   1      38.317  34.676  39.640  1.00  0.00    -0.200 F 
ENDBRANCH  41  64
ENDBRANCH  15  16
ENDBRANCH   8  10
ENDBRANCH   7   8
ENDBRANCH   6   7
ENDBRANCH   5   6
ENDBRANCH   4   5
ENDBRANCH   3   4
ENDBRANCH   2   3
ENDBRANCH   1   2
BRANCH   1  75
ATOM     75  C   UNL A   1      38.563  21.555  25.430  1.00  0.00     0.188 C 
BRANCH  75  76
ATOM     76  C   UNL A   1      37.463  22.644  25.448  1.00  0.00     0.188 C 
BRANCH  76  77
ATOM     77  O   UNL A   1      36.944  23.213  24.260  1.00  0.00    -0.376 OA
BRANCH  77  78
ATOM     78  C   UNL A   1      35.560  23.128  24.000  1.00  0.00     0.202 C 
BRANCH  78  79
ATOM     79  C   UNL A   1      34.706  24.404  23.893  1.00  0.00     0.261 C 
BRANCH  79  80
ATOM     80  O   UNL A   1      33.992  24.630  22.665  1.00  0.00    -0.459 OA
BRANCH  80  81
ATOM     81  C   UNL A   1      33.618  25.911  22.387  1.00  0.00     0.365 C 
ATOM     82  O   UNL A   1      33.651  26.395  21.250  1.00  0.00    -0.245 OA
BRANCH  81  83
ATOM     83  C   UNL A   1      33.102  26.663  23.655  1.00  0.00     0.296 C 
ATOM     84  C   UNL A   1      32.871  28.145  23.286  1.00  0.00     0.087 C 
ATOM     85  N   UNL A   1      31.757  26.149  24.094  1.00  0.00    -0.314 N 
ATOM     86  C   UNL A   1      31.388  28.383  23.536  1.00  0.00     0.054 C 
ATOM     87  C   UNL A   1      30.770  27.000  23.433  1.00  0.00     0.188 C 
ATOM     88  H   UNL A   1      31.622  25.184  23.790  1.00  0.00     0.349 HD
ATOM     89  C   UNL A   1      30.655  29.343  22.617  1.00  0.00     0.010 C 
ATOM     90  C   UNL A   1      29.305  26.991  23.876  1.00  0.00     0.065 C 
ATOM     91  C   UNL A   1      29.194  29.430  23.080  1.00  0.00     0.001 C 
ATOM     92  C   UNL A   1      28.503  28.060  23.119  1.00  0.00     0.006 C 
BRANCH  85  93
ATOM     93  C   UNL A   1      31.591  25.887  25.534  1.00  0.00     0.342 C 
BRANCH  93  94
ATOM     94  C   UNL A   1      31.004  24.594  25.970  1.00  0.00     0.190 A 
ATOM     95  C   UNL A   1      31.275  23.267  25.731  1.00  0.00     0.075 A 
ATOM     96  O   UNL A   1      30.006  24.680  26.895  1.00  0.00    -0.355 OA
ATOM     97  C   UNL A   1      30.347  22.577  26.527  1.00  0.00     0.158 A 
ATOM     98  N   UNL A   1      29.588  23.407  27.242  1.00  0.00    -0.088 NA
ENDBRANCH  93  94
ENDBRANCH  85  93
ENDBRANCH  81  83
ENDBRANCH  80  81
ENDBRANCH  79  80
ENDBRANCH  78  79
ENDBRANCH  77  78
ENDBRANCH  76  77
ENDBRANCH  75  76
ENDBRANCH   1  75
TORSDOF 22
ENDMDL
