MODEL 1
REMARK VINA RESULT:     -10.9      0.000      0.000
REMARK SMILES O=C(C[C@H](NC(=O)[C@]12C[C@H]3C[C@H](C[C@H](C3)C1)C2)c1cccc([N+](=O)[O-])c1)OCCOCCOCCOCCOC(=O)c1ccc(-c2c3nc(c(-c4c(F)c(F)c(F)c(F)c4F)c4ccc([nH]4)c(-c4c(F)c(F)c(F)c(F)c4F)c4nc(c(-c5c(F)c(F)c(F)c(F)c5F)c5ccc2[nH]5)C=C4)C=C3)cc1
REMARK SMILES IDX 32 1 31 2 30 3 29 4 28 5 27 6 2 7 1 8 3 9 4 10 18 11 19 12
REMARK SMILES IDX 26 13 20 14 22 15 21 16 23 17 24 18 25 19 5 20 6 21 7 23
REMARK SMILES IDX 8 24 9 25 16 26 17 27 10 28 14 29 12 30 11 31 15 32 13 33
REMARK SMILES IDX 33 34 34 35 35 36 36 37 37 38 38 39 39 40 40 41 41 42 42 43
REMARK SMILES IDX 43 44 104 45 44 46 103 47 45 48 46 49 47 50 97 51 48 52
REMARK SMILES IDX 102 53 96 54 98 55 49 56 101 57 95 58 94 59 50 61 82 62
REMARK SMILES IDX 62 63 81 64 63 65 66 66 80 67 99 68 64 69 65 70 79 72 100 73
REMARK SMILES IDX 67 74 51 75 52 76 60 77 53 78 54 79 58 80 61 81 55 82 56 83
REMARK SMILES IDX 59 84 57 85 83 86 84 87 92 88 85 89 86 90 90 91 93 92 87 93
REMARK SMILES IDX 88 94 91 95 89 96 68 97 69 98 77 99 70 100 71 101 75 102
REMARK SMILES IDX 78 103 72 104 73 105 76 106 74 107
REMARK H PARENT 5 22 98 60 66 71
REMARK Flexibility Score: inf
ROOT
ATOM      1  C   UNL A   1      35.578  31.032  28.357  1.00  0.00     0.188 C 
ENDROOT
BRANCH   1   2
ATOM      2  C   UNL A   1      35.754  29.730  27.565  1.00  0.00     0.188 C 
BRANCH   2   3
ATOM      3  O   UNL A   1      34.681  28.872  27.217  1.00  0.00    -0.376 OA
BRANCH   3   4
ATOM      4  C   UNL A   1      33.468  29.330  26.635  1.00  0.00     0.202 C 
BRANCH   4   5
ATOM      5  C   UNL A   1      32.823  28.769  25.353  1.00  0.00     0.261 C 
BRANCH   5   6
ATOM      6  O   UNL A   1      33.584  27.915  24.495  1.00  0.00    -0.463 OA
BRANCH   6   7
ATOM      7  C   UNL A   1      33.652  28.170  23.159  1.00  0.00     0.308 C 
ATOM      8  O   UNL A   1      33.960  29.281  22.748  1.00  0.00    -0.252 OA
BRANCH   7   9
ATOM      9  C   UNL A   1      33.156  27.068  22.257  1.00  0.00     0.152 C 
BRANCH   9  10
ATOM     10  C   UNL A   1      32.284  26.058  22.960  1.00  0.00     0.123 C 
BRANCH  10  11
ATOM     11  C   UNL A   1      30.862  26.621  23.034  1.00  0.00    -0.018 A 
ATOM     12  C   UNL A   1      29.907  25.925  23.819  1.00  0.00     0.006 A 
ATOM     13  C   UNL A   1      30.477  27.830  22.448  1.00  0.00     0.091 A 
ATOM     14  C   UNL A   1      28.642  26.451  24.081  1.00  0.00     0.007 A 
ATOM     15  C   UNL A   1      29.186  28.337  22.685  1.00  0.00     0.269 A 
ATOM     16  C   UNL A   1      28.277  27.665  23.516  1.00  0.00     0.085 A 
BRANCH  15  17
ATOM     17  N   UNL A   1      28.781  29.602  22.068  1.00  0.00     0.062 N 
ATOM     18  O   UNL A   1      27.672  30.061  22.375  1.00  0.00    -0.258 OA
ATOM     19  O   UNL A   1      29.572  30.134  21.277  1.00  0.00    -0.258 OA
ENDBRANCH  15  17
ENDBRANCH  10  11
BRANCH  10  20
ATOM     20  N   UNL A   1      32.390  24.666  22.507  1.00  0.00    -0.348 N 
ATOM     21  C   UNL A   1      32.901  23.457  22.831  1.00  0.00     0.226 C 
ATOM     22  H   UNL A   1      31.912  24.580  21.651  1.00  0.00     0.164 HD
ATOM     23  O   UNL A   1      32.610  22.595  21.985  1.00  0.00    -0.274 OA
BRANCH  21  24
ATOM     24  C   UNL A   1      33.771  23.043  24.056  1.00  0.00     0.050 C 
ATOM     25  C   UNL A   1      35.269  22.926  23.701  1.00  0.00     0.020 C 
ATOM     26  C   UNL A   1      33.303  21.599  24.485  1.00  0.00     0.020 C 
ATOM     27  C   UNL A   1      33.566  23.906  25.326  1.00  0.00     0.020 C 
ATOM     28  C   UNL A   1      36.084  22.378  24.890  1.00  0.00    -0.010 C 
ATOM     29  C   UNL A   1      34.109  21.051  25.676  1.00  0.00    -0.010 C 
ATOM     30  C   UNL A   1      34.423  23.390  26.502  1.00  0.00    -0.010 C 
ATOM     31  C   UNL A   1      35.906  23.293  26.106  1.00  0.00     0.007 C 
ATOM     32  C   UNL A   1      35.588  20.978  25.273  1.00  0.00     0.007 C 
ATOM     33  C   UNL A   1      33.944  21.987  26.883  1.00  0.00     0.007 C 
ENDBRANCH  21  24
ENDBRANCH  10  20
ENDBRANCH   9  10
ENDBRANCH   7   9
ENDBRANCH   6   7
ENDBRANCH   5   6
ENDBRANCH   4   5
ENDBRANCH   3   4
ENDBRANCH   2   3
ENDBRANCH   1   2
BRANCH   1  34
ATOM     34  O   UNL A   1      35.107  32.174  27.674  1.00  0.00    -0.377 OA
BRANCH  34  35
ATOM     35  C   UNL A   1      34.153  32.941  28.376  1.00  0.00     0.188 C 
BRANCH  35  36
ATOM     36  C   UNL A   1      34.612  33.924  29.477  1.00  0.00     0.188 C 
BRANCH  36  37
ATOM     37  O   UNL A   1      33.620  34.256  30.444  1.00  0.00    -0.376 OA
BRANCH  37  38
ATOM     38  C   UNL A   1      33.968  33.989  31.800  1.00  0.00     0.202 C 
BRANCH  38  39
ATOM     39  C   UNL A   1      34.798  32.716  32.039  1.00  0.00     0.261 C 
BRANCH  39  40
ATOM     40  O   UNL A   1      35.961  32.886  32.862  1.00  0.00    -0.460 OA
BRANCH  40  41
ATOM     41  C   UNL A   1      36.924  33.731  32.435  1.00  0.00     0.338 C 
ATOM     42  O   UNL A   1      37.037  34.915  32.702  1.00  0.00    -0.246 OA
BRANCH  41  43
ATOM     43  C   UNL A   1      37.968  32.898  31.797  1.00  0.00     0.060 A 
ATOM     44  C   UNL A   1      38.790  32.104  32.615  1.00  0.00     0.016 A 
ATOM     45  C   UNL A   1      38.037  32.787  30.404  1.00  0.00     0.016 A 
ATOM     46  C   UNL A   1      39.646  31.162  32.037  1.00  0.00     0.010 A 
ATOM     47  C   UNL A   1      38.945  31.901  29.827  1.00  0.00     0.010 A 
ATOM     48  C   UNL A   1      39.763  31.098  30.641  1.00  0.00    -0.014 A 
BRANCH  48  49
ATOM     49  C   UNL A   1      40.962  30.474  30.036  1.00  0.00     0.031 A 
ATOM     50  C   UNL A   1      42.110  31.397  29.740  1.00  0.00     0.074 A 
ATOM     51  C   UNL A   1      41.010  29.178  29.682  1.00  0.00     0.049 A 
ATOM     52  N   UNL A   1      43.225  31.170  29.100  1.00  0.00    -0.248 NA
ATOM     53  C   UNL A   1      41.967  32.780  30.230  1.00  0.00     0.031 C 
ATOM     54  C   UNL A   1      39.970  28.186  29.937  1.00  0.00     0.029 A 
ATOM     55  N   UNL A   1      41.978  28.486  28.996  1.00  0.00    -0.354 N 
ATOM     56  C   UNL A   1      43.906  32.379  29.107  1.00  0.00     0.074 A 
ATOM     57  C   UNL A   1      43.083  33.339  29.804  1.00  0.00     0.031 C 
ATOM     58  C   UNL A   1      40.338  27.018  29.376  1.00  0.00     0.029 A 
ATOM     59  C   UNL A   1      41.620  27.196  28.694  1.00  0.00     0.049 A 
ATOM     60  H   UNL A   1      42.846  28.878  28.745  1.00  0.00     0.167 HD
ATOM     61  C   UNL A   1      45.109  32.673  28.565  1.00  0.00     0.037 A 
ATOM     62  C   UNL A   1      42.243  26.284  27.918  1.00  0.00     0.037 A 
ATOM     63  C   UNL A   1      45.894  31.734  27.820  1.00  0.00     0.049 A 
ATOM     64  C   UNL A   1      43.551  26.649  27.259  1.00  0.00     0.074 A 
ATOM     65  C   UNL A   1      47.127  31.921  27.226  1.00  0.00     0.029 A 
ATOM     66  N   UNL A   1      45.500  30.433  27.543  1.00  0.00    -0.354 N 
ATOM     67  N   UNL A   1      44.217  27.779  27.307  1.00  0.00    -0.248 NA
ATOM     68  C   UNL A   1      44.194  25.615  26.434  1.00  0.00     0.031 C 
ATOM     69  C   UNL A   1      47.454  30.747  26.540  1.00  0.00     0.029 A 
ATOM     70  C   UNL A   1      46.455  29.811  26.760  1.00  0.00     0.049 A 
ATOM     71  H   UNL A   1      44.664  30.016  27.856  1.00  0.00     0.167 HD
ATOM     72  C   UNL A   1      45.364  27.585  26.546  1.00  0.00     0.074 A 
ATOM     73  C   UNL A   1      45.307  26.226  26.048  1.00  0.00     0.031 C 
ATOM     74  C   UNL A   1      46.376  28.450  26.288  1.00  0.00     0.037 A 
BRANCH  61  75
ATOM     75  C   UNL A   1      45.583  34.087  28.710  1.00  0.00     0.064 A 
ATOM     76  C   UNL A   1      45.282  35.069  27.752  1.00  0.00     0.173 A 
ATOM     77  C   UNL A   1      46.402  34.450  29.789  1.00  0.00     0.173 A 
ATOM     78  F   UNL A   1      44.533  34.761  26.682  1.00  0.00    -0.203 F 
ATOM     79  C   UNL A   1      45.816  36.351  27.850  1.00  0.00     0.198 A 
ATOM     80  C   UNL A   1      46.908  35.742  29.900  1.00  0.00     0.198 A 
ATOM     81  F   UNL A   1      46.731  33.545  30.723  1.00  0.00    -0.203 F 
ATOM     82  F   UNL A   1      45.579  37.249  26.884  1.00  0.00    -0.200 F 
ATOM     83  C   UNL A   1      46.625  36.687  28.925  1.00  0.00     0.200 A 
ATOM     84  F   UNL A   1      47.688  36.066  30.941  1.00  0.00    -0.200 F 
ATOM     85  F   UNL A   1      47.149  37.917  29.012  1.00  0.00    -0.200 F 
ENDBRANCH  61  75
BRANCH  62  86
ATOM     86  C   UNL A   1      41.621  24.951  27.699  1.00  0.00     0.064 A 
ATOM     87  C   UNL A   1      40.545  24.787  26.817  1.00  0.00     0.173 A 
ATOM     88  C   UNL A   1      42.098  23.809  28.362  1.00  0.00     0.173 A 
ATOM     89  F   UNL A   1      40.033  25.851  26.183  1.00  0.00    -0.203 F 
ATOM     90  C   UNL A   1      39.966  23.535  26.609  1.00  0.00     0.198 A 
ATOM     91  C   UNL A   1      41.535  22.554  28.136  1.00  0.00     0.198 A 
ATOM     92  F   UNL A   1      43.120  23.912  29.224  1.00  0.00    -0.203 F 
ATOM     93  F   UNL A   1      38.918  23.412  25.785  1.00  0.00    -0.200 F 
ATOM     94  C   UNL A   1      40.467  22.418  27.262  1.00  0.00     0.200 A 
ATOM     95  F   UNL A   1      42.027  21.478  28.764  1.00  0.00    -0.200 F 
ATOM     96  F   UNL A   1      39.919  21.215  27.052  1.00  0.00    -0.200 F 
ENDBRANCH  62  86
BRANCH  74  97
ATOM     97  C   UNL A   1      47.532  27.953  25.470  1.00  0.00     0.064 A 
ATOM     98  C   UNL A   1      48.659  27.369  26.062  1.00  0.00     0.173 A 
ATOM     99  C   UNL A   1      47.459  27.974  24.068  1.00  0.00     0.173 A 
ATOM    100  F   UNL A   1      48.778  27.332  27.398  1.00  0.00    -0.203 F 
ATOM    101  C   UNL A   1      49.678  26.831  25.280  1.00  0.00     0.198 A 
ATOM    102  C   UNL A   1      48.465  27.410  23.290  1.00  0.00     0.198 A 
ATOM    103  F   UNL A   1      46.394  28.512  23.454  1.00  0.00    -0.203 F 
ATOM    104  F   UNL A   1      50.760  26.301  25.865  1.00  0.00    -0.200 F 
ATOM    105  C   UNL A   1      49.575  26.842  23.896  1.00  0.00     0.200 A 
ATOM    106  F   UNL A   1      48.354  27.405  21.954  1.00  0.00    -0.200 F 
ATOM    107  F   UNL A   1      50.547  26.304  23.146  1.00  0.00    -0.200 F 
ENDBRANCH  74  97
ENDBRANCH  48  49
ENDBRANCH  41  43
ENDBRANCH  40  41
ENDBRANCH  39  40
ENDBRANCH  38  39
ENDBRANCH  37  38
ENDBRANCH  36  37
ENDBRANCH  35  36
ENDBRANCH  34  35
ENDBRANCH   1  34
TORSDOF 25
ENDMDL
MODEL 2
REMARK VINA RESULT:     -10.1      5.168      9.940
REMARK SMILES O=C(C[C@H](NC(=O)[C@]12C[C@H]3C[C@H](C[C@H](C3)C1)C2)c1cccc([N+](=O)[O-])c1)OCCOCCOCCOCCOC(=O)c1ccc(-c2c3nc(c(-c4c(F)c(F)c(F)c(F)c4F)c4ccc([nH]4)c(-c4c(F)c(F)c(F)c(F)c4F)c4nc(c(-c5c(F)c(F)c(F)c(F)c5F)c5ccc2[nH]5)C=C4)C=C3)cc1
REMARK SMILES IDX 32 1 31 2 30 3 29 4 28 5 27 6 2 7 1 8 3 9 4 10 18 11 19 12
REMARK SMILES IDX 26 13 20 14 22 15 21 16 23 17 24 18 25 19 5 20 6 21 7 23
REMARK SMILES IDX 8 24 9 25 16 26 17 27 10 28 14 29 12 30 11 31 15 32 13 33
REMARK SMILES IDX 33 34 34 35 35 36 36 37 37 38 38 39 39 40 40 41 41 42 42 43
REMARK SMILES IDX 43 44 104 45 44 46 103 47 45 48 46 49 47 50 97 51 48 52
REMARK SMILES IDX 102 53 96 54 98 55 49 56 101 57 95 58 94 59 50 61 82 62
REMARK SMILES IDX 62 63 81 64 63 65 66 66 80 67 99 68 64 69 65 70 79 72 100 73
REMARK SMILES IDX 67 74 51 75 52 76 60 77 53 78 54 79 58 80 61 81 55 82 56 83
REMARK SMILES IDX 59 84 57 85 83 86 84 87 92 88 85 89 86 90 90 91 93 92 87 93
REMARK SMILES IDX 88 94 91 95 89 96 68 97 69 98 77 99 70 100 71 101 75 102
REMARK SMILES IDX 78 103 72 104 73 105 76 106 74 107
REMARK H PARENT 5 22 98 60 66 71
REMARK Flexibility Score: inf
ROOT
ATOM      1  C   UNL A   1      32.342  27.305  23.887  1.00  0.00     0.188 C 
ENDROOT
BRANCH   1   2
ATOM      2  C   UNL A   1      31.379  26.118  23.753  1.00  0.00     0.188 C 
BRANCH   2   3
ATOM      3  O   UNL A   1      31.246  25.345  22.573  1.00  0.00    -0.376 OA
BRANCH   3   4
ATOM      4  C   UNL A   1      32.347  24.952  21.764  1.00  0.00     0.202 C 
BRANCH   4   5
ATOM      5  C   UNL A   1      33.088  23.604  21.855  1.00  0.00     0.261 C 
BRANCH   5   6
ATOM      6  O   UNL A   1      33.602  23.164  23.114  1.00  0.00    -0.463 OA
BRANCH   6   7
ATOM      7  C   UNL A   1      34.737  23.720  23.622  1.00  0.00     0.308 C 
ATOM      8  O   UNL A   1      34.730  24.858  24.073  1.00  0.00    -0.252 OA
BRANCH   7   9
ATOM      9  C   UNL A   1      36.001  22.921  23.425  1.00  0.00     0.152 C 
BRANCH   9  10
ATOM     10  C   UNL A   1      36.188  21.825  24.443  1.00  0.00     0.123 C 
BRANCH  10  11
ATOM     11  C   UNL A   1      37.527  22.052  25.151  1.00  0.00    -0.018 A 
ATOM     12  C   UNL A   1      37.784  23.334  25.700  1.00  0.00     0.006 A 
ATOM     13  C   UNL A   1      38.469  21.042  25.366  1.00  0.00     0.091 A 
ATOM     14  C   UNL A   1      38.895  23.584  26.506  1.00  0.00     0.007 A 
ATOM     15  C   UNL A   1      39.608  21.311  26.147  1.00  0.00     0.269 A 
ATOM     16  C   UNL A   1      39.812  22.568  26.735  1.00  0.00     0.085 A 
BRANCH  15  17
ATOM     17  N   UNL A   1      40.598  20.255  26.370  1.00  0.00     0.062 N 
ATOM     18  O   UNL A   1      40.474  19.207  25.721  1.00  0.00    -0.258 OA
ATOM     19  O   UNL A   1      41.497  20.474  27.193  1.00  0.00    -0.258 OA
ENDBRANCH  15  17
ENDBRANCH  10  11
BRANCH  10  20
ATOM     20  N   UNL A   1      35.048  21.539  25.322  1.00  0.00    -0.348 N 
ATOM     21  C   UNL A   1      34.108  20.611  25.609  1.00  0.00     0.226 C 
ATOM     22  H   UNL A   1      34.922  22.305  25.926  1.00  0.00     0.164 HD
ATOM     23  O   UNL A   1      33.380  20.973  26.549  1.00  0.00    -0.274 OA
BRANCH  21  24
ATOM     24  C   UNL A   1      33.834  19.234  24.936  1.00  0.00     0.050 C 
ATOM     25  C   UNL A   1      33.014  19.368  23.634  1.00  0.00     0.020 C 
ATOM     26  C   UNL A   1      32.942  18.401  25.936  1.00  0.00     0.020 C 
ATOM     27  C   UNL A   1      35.088  18.352  24.715  1.00  0.00     0.020 C 
ATOM     28  C   UNL A   1      32.636  17.985  23.066  1.00  0.00    -0.010 C 
ATOM     29  C   UNL A   1      32.568  17.017  25.377  1.00  0.00    -0.010 C 
ATOM     30  C   UNL A   1      34.716  16.987  24.096  1.00  0.00    -0.010 C 
ATOM     31  C   UNL A   1      33.905  17.168  22.802  1.00  0.00     0.007 C 
ATOM     32  C   UNL A   1      31.777  17.213  24.076  1.00  0.00     0.007 C 
ATOM     33  C   UNL A   1      33.847  16.215  25.092  1.00  0.00     0.007 C 
ENDBRANCH  21  24
ENDBRANCH  10  20
ENDBRANCH   9  10
ENDBRANCH   7   9
ENDBRANCH   6   7
ENDBRANCH   5   6
ENDBRANCH   4   5
ENDBRANCH   3   4
ENDBRANCH   2   3
ENDBRANCH   1   2
BRANCH   1  34
ATOM     34  O   UNL A   1      32.047  28.491  23.182  1.00  0.00    -0.377 OA
BRANCH  34  35
ATOM     35  C   UNL A   1      31.103  29.338  23.802  1.00  0.00     0.188 C 
BRANCH  35  36
ATOM     36  C   UNL A   1      31.421  29.973  25.175  1.00  0.00     0.188 C 
BRANCH  36  37
ATOM     37  O   UNL A   1      30.843  31.255  25.397  1.00  0.00    -0.376 OA
BRANCH  37  38
ATOM     38  C   UNL A   1      31.355  31.976  26.515  1.00  0.00     0.202 C 
BRANCH  38  39
ATOM     39  C   UNL A   1      32.816  31.679  26.890  1.00  0.00     0.261 C 
BRANCH  39  40
ATOM     40  O   UNL A   1      33.205  32.076  28.213  1.00  0.00    -0.460 OA
BRANCH  40  41
ATOM     41  C   UNL A   1      33.737  33.306  28.378  1.00  0.00     0.338 C 
ATOM     42  O   UNL A   1      33.261  34.370  28.020  1.00  0.00    -0.246 OA
BRANCH  41  43
ATOM     43  C   UNL A   1      34.880  33.154  29.306  1.00  0.00     0.060 A 
ATOM     44  C   UNL A   1      36.027  33.938  29.096  1.00  0.00     0.016 A 
ATOM     45  C   UNL A   1      34.764  32.361  30.453  1.00  0.00     0.016 A 
ATOM     46  C   UNL A   1      37.038  33.965  30.060  1.00  0.00     0.010 A 
ATOM     47  C   UNL A   1      35.807  32.332  31.378  1.00  0.00     0.010 A 
ATOM     48  C   UNL A   1      36.953  33.121  31.177  1.00  0.00    -0.014 A 
BRANCH  48  49
ATOM     49  C   UNL A   1      38.179  32.787  31.937  1.00  0.00     0.031 A 
ATOM     50  C   UNL A   1      39.092  31.775  31.306  1.00  0.00     0.074 A 
ATOM     51  C   UNL A   1      38.437  33.281  33.160  1.00  0.00     0.049 A 
ATOM     52  N   UNL A   1      40.158  31.192  31.786  1.00  0.00    -0.248 NA
ATOM     53  C   UNL A   1      38.740  31.353  29.938  1.00  0.00     0.031 C 
ATOM     54  C   UNL A   1      37.638  34.281  33.861  1.00  0.00     0.029 A 
ATOM     55  N   UNL A   1      39.443  32.970  34.042  1.00  0.00    -0.354 N 
ATOM     56  C   UNL A   1      40.592  30.336  30.783  1.00  0.00     0.074 A 
ATOM     57  C   UNL A   1      39.678  30.464  29.674  1.00  0.00     0.031 C 
ATOM     58  C   UNL A   1      38.162  34.474  35.086  1.00  0.00     0.029 A 
ATOM     59  C   UNL A   1      39.309  33.582  35.264  1.00  0.00     0.049 A 
ATOM     60  H   UNL A   1      40.189  32.367  33.820  1.00  0.00     0.167 HD
ATOM     61  C   UNL A   1      41.654  29.499  30.790  1.00  0.00     0.037 A 
ATOM     62  C   UNL A   1      40.011  33.404  36.403  1.00  0.00     0.037 A 
ATOM     63  C   UNL A   1      42.522  29.328  31.917  1.00  0.00     0.049 A 
ATOM     64  C   UNL A   1      41.149  32.413  36.419  1.00  0.00     0.074 A 
ATOM     65  C   UNL A   1      43.628  28.510  32.037  1.00  0.00     0.029 A 
ATOM     66  N   UNL A   1      42.357  29.973  33.134  1.00  0.00    -0.354 N 
ATOM     67  N   UNL A   1      41.587  31.639  35.454  1.00  0.00    -0.248 NA
ATOM     68  C   UNL A   1      41.888  32.265  37.681  1.00  0.00     0.031 C 
ATOM     69  C   UNL A   1      44.100  28.617  33.349  1.00  0.00     0.029 A 
ATOM     70  C   UNL A   1      43.327  29.549  34.025  1.00  0.00     0.049 A 
ATOM     71  H   UNL A   1      41.654  30.633  33.334  1.00  0.00     0.167 HD
ATOM     72  C   UNL A   1      42.665  30.936  35.980  1.00  0.00     0.074 A 
ATOM     73  C   UNL A   1      42.817  31.377  37.352  1.00  0.00     0.031 C 
ATOM     74  C   UNL A   1      43.461  30.015  35.383  1.00  0.00     0.037 A 
BRANCH  61  75
ATOM     75  C   UNL A   1      41.862  28.668  29.560  1.00  0.00     0.064 A 
ATOM     76  C   UNL A   1      42.679  29.104  28.505  1.00  0.00     0.173 A 
ATOM     77  C   UNL A   1      41.187  27.449  29.409  1.00  0.00     0.173 A 
ATOM     78  F   UNL A   1      43.316  30.282  28.586  1.00  0.00    -0.203 F 
ATOM     79  C   UNL A   1      42.779  28.368  27.327  1.00  0.00     0.198 A 
ATOM     80  C   UNL A   1      41.316  26.700  28.243  1.00  0.00     0.198 A 
ATOM     81  F   UNL A   1      40.383  26.995  30.383  1.00  0.00    -0.203 F 
ATOM     82  F   UNL A   1      43.502  28.841  26.303  1.00  0.00    -0.200 F 
ATOM     83  C   UNL A   1      42.101  27.165  27.199  1.00  0.00     0.200 A 
ATOM     84  F   UNL A   1      40.661  25.536  28.122  1.00  0.00    -0.200 F 
ATOM     85  F   UNL A   1      42.189  26.463  26.062  1.00  0.00    -0.200 F 
ENDBRANCH  61  75
BRANCH  62  86
ATOM     86  C   UNL A   1      39.635  34.158  37.628  1.00  0.00     0.064 A 
ATOM     87  C   UNL A   1      40.065  35.477  37.831  1.00  0.00     0.173 A 
ATOM     88  C   UNL A   1      38.831  33.577  38.620  1.00  0.00     0.173 A 
ATOM     89  F   UNL A   1      40.861  36.066  36.928  1.00  0.00    -0.203 F 
ATOM     90  C   UNL A   1      39.708  36.184  38.979  1.00  0.00     0.198 A 
ATOM     91  C   UNL A   1      38.455  34.293  39.757  1.00  0.00     0.198 A 
ATOM     92  F   UNL A   1      38.400  32.315  38.481  1.00  0.00    -0.203 F 
ATOM     93  F   UNL A   1      40.158  37.432  39.162  1.00  0.00    -0.200 F 
ATOM     94  C   UNL A   1      38.896  35.594  39.936  1.00  0.00     0.200 A 
ATOM     95  F   UNL A   1      37.664  33.720  40.675  1.00  0.00    -0.200 F 
ATOM     96  F   UNL A   1      38.544  36.278  41.032  1.00  0.00    -0.200 F 
ENDBRANCH  62  86
BRANCH  74  97
ATOM     97  C   UNL A   1      44.599  29.449  36.180  1.00  0.00     0.064 A 
ATOM     98  C   UNL A   1      45.856  30.067  36.216  1.00  0.00     0.173 A 
ATOM     99  C   UNL A   1      44.393  28.325  36.997  1.00  0.00     0.173 A 
ATOM    100  F   UNL A   1      46.104  31.138  35.448  1.00  0.00    -0.203 F 
ATOM    101  C   UNL A   1      46.869  29.576  37.036  1.00  0.00     0.198 A 
ATOM    102  C   UNL A   1      45.398  27.855  37.835  1.00  0.00     0.198 A 
ATOM    103  F   UNL A   1      43.202  27.705  37.006  1.00  0.00    -0.203 F 
ATOM    104  F   UNL A   1      48.072  30.165  37.036  1.00  0.00    -0.200 F 
ATOM    105  C   UNL A   1      46.636  28.477  37.852  1.00  0.00     0.200 A 
ATOM    106  F   UNL A   1      45.164  26.806  38.636  1.00  0.00    -0.200 F 
ATOM    107  F   UNL A   1      47.606  28.020  38.656  1.00  0.00    -0.200 F 
ENDBRANCH  74  97
ENDBRANCH  48  49
ENDBRANCH  41  43
ENDBRANCH  40  41
ENDBRANCH  39  40
ENDBRANCH  38  39
ENDBRANCH  37  38
ENDBRANCH  36  37
ENDBRANCH  35  36
ENDBRANCH  34  35
ENDBRANCH   1  34
TORSDOF 25
ENDMDL
MODEL 3
REMARK VINA RESULT:      -9.9      5.642     10.338
REMARK SMILES O=C(C[C@H](NC(=O)[C@]12C[C@H]3C[C@H](C[C@H](C3)C1)C2)c1cccc([N+](=O)[O-])c1)OCCOCCOCCOCCOC(=O)c1ccc(-c2c3nc(c(-c4c(F)c(F)c(F)c(F)c4F)c4ccc([nH]4)c(-c4c(F)c(F)c(F)c(F)c4F)c4nc(c(-c5c(F)c(F)c(F)c(F)c5F)c5ccc2[nH]5)C=C4)C=C3)cc1
REMARK SMILES IDX 32 1 31 2 30 3 29 4 28 5 27 6 2 7 1 8 3 9 4 10 18 11 19 12
REMARK SMILES IDX 26 13 20 14 22 15 21 16 23 17 24 18 25 19 5 20 6 21 7 23
REMARK SMILES IDX 8 24 9 25 16 26 17 27 10 28 14 29 12 30 11 31 15 32 13 33
REMARK SMILES IDX 33 34 34 35 35 36 36 37 37 38 38 39 39 40 40 41 41 42 42 43
REMARK SMILES IDX 43 44 104 45 44 46 103 47 45 48 46 49 47 50 97 51 48 52
REMARK SMILES IDX 102 53 96 54 98 55 49 56 101 57 95 58 94 59 50 61 82 62
REMARK SMILES IDX 62 63 81 64 63 65 66 66 80 67 99 68 64 69 65 70 79 72 100 73
REMARK SMILES IDX 67 74 51 75 52 76 60 77 53 78 54 79 58 80 61 81 55 82 56 83
REMARK SMILES IDX 59 84 57 85 83 86 84 87 92 88 85 89 86 90 90 91 93 92 87 93
REMARK SMILES IDX 88 94 91 95 89 96 68 97 69 98 77 99 70 100 71 101 75 102
REMARK SMILES IDX 78 103 72 104 73 105 76 106 74 107
REMARK H PARENT 5 22 98 60 66 71
REMARK Flexibility Score: inf
ROOT
ATOM      1  C   UNL A   1      35.743  31.473  28.598  1.00  0.00     0.188 C 
ENDROOT
BRANCH   1   2
ATOM      2  C   UNL A   1      35.864  29.945  28.650  1.00  0.00     0.188 C 
BRANCH   2   3
ATOM      3  O   UNL A   1      36.698  29.255  29.565  1.00  0.00    -0.376 OA
BRANCH   3   4
ATOM      4  C   UNL A   1      38.114  29.208  29.455  1.00  0.00     0.202 C 
BRANCH   4   5
ATOM      5  C   UNL A   1      39.066  28.506  30.443  1.00  0.00     0.261 C 
BRANCH   5   6
ATOM      6  O   UNL A   1      39.709  27.289  30.061  1.00  0.00    -0.463 OA
BRANCH   6   7
ATOM      7  C   UNL A   1      40.011  27.055  28.753  1.00  0.00     0.308 C 
ATOM      8  O   UNL A   1      40.563  27.910  28.074  1.00  0.00    -0.252 OA
BRANCH   7   9
ATOM      9  C   UNL A   1      39.465  25.773  28.176  1.00  0.00     0.152 C 
BRANCH   9  10
ATOM     10  C   UNL A   1      40.452  25.029  27.313  1.00  0.00     0.123 C 
BRANCH  10  11
ATOM     11  C   UNL A   1      39.808  23.711  26.874  1.00  0.00    -0.018 A 
ATOM     12  C   UNL A   1      38.500  23.756  26.326  1.00  0.00     0.006 A 
ATOM     13  C   UNL A   1      40.470  22.481  26.898  1.00  0.00     0.091 A 
ATOM     14  C   UNL A   1      37.903  22.637  25.746  1.00  0.00     0.007 A 
ATOM     15  C   UNL A   1      39.847  21.347  26.346  1.00  0.00     0.269 A 
ATOM     16  C   UNL A   1      38.579  21.425  25.751  1.00  0.00     0.085 A 
BRANCH  15  17
ATOM     17  N   UNL A   1      40.538  20.056  26.374  1.00  0.00     0.062 N 
ATOM     18  O   UNL A   1      41.460  19.917  27.190  1.00  0.00    -0.258 OA
ATOM     19  O   UNL A   1      40.160  19.183  25.580  1.00  0.00    -0.258 OA
ENDBRANCH  15  17
ENDBRANCH  10  11
BRANCH  10  20
ATOM     20  N   UNL A   1      41.108  25.798  26.248  1.00  0.00    -0.348 N 
ATOM     21  C   UNL A   1      42.295  26.005  25.636  1.00  0.00     0.226 C 
ATOM     22  H   UNL A   1      40.435  26.376  25.822  1.00  0.00     0.164 HD
ATOM     23  O   UNL A   1      42.197  26.833  24.714  1.00  0.00    -0.274 OA
BRANCH  21  24
ATOM     24  C   UNL A   1      43.690  25.381  25.938  1.00  0.00     0.050 C 
ATOM     25  C   UNL A   1      44.841  26.154  25.257  1.00  0.00     0.020 C 
ATOM     26  C   UNL A   1      43.694  23.936  25.307  1.00  0.00     0.020 C 
ATOM     27  C   UNL A   1      43.991  25.145  27.439  1.00  0.00     0.020 C 
ATOM     28  C   UNL A   1      46.191  25.435  25.453  1.00  0.00    -0.010 C 
ATOM     29  C   UNL A   1      45.037  23.210  25.506  1.00  0.00    -0.010 C 
ATOM     30  C   UNL A   1      45.367  24.473  27.639  1.00  0.00    -0.010 C 
ATOM     31  C   UNL A   1      46.482  25.277  26.950  1.00  0.00     0.007 C 
ATOM     32  C   UNL A   1      46.141  24.034  24.830  1.00  0.00     0.007 C 
ATOM     33  C   UNL A   1      45.332  23.079  27.008  1.00  0.00     0.007 C 
ENDBRANCH  21  24
ENDBRANCH  10  20
ENDBRANCH   9  10
ENDBRANCH   7   9
ENDBRANCH   6   7
ENDBRANCH   5   6
ENDBRANCH   4   5
ENDBRANCH   3   4
ENDBRANCH   2   3
ENDBRANCH   1   2
BRANCH   1  34
ATOM     34  O   UNL A   1      34.452  32.043  28.570  1.00  0.00    -0.377 OA
BRANCH  34  35
ATOM     35  C   UNL A   1      34.382  33.390  28.985  1.00  0.00     0.188 C 
BRANCH  35  36
ATOM     36  C   UNL A   1      34.454  34.525  27.937  1.00  0.00     0.188 C 
BRANCH  36  37
ATOM     37  O   UNL A   1      34.524  35.842  28.475  1.00  0.00    -0.376 OA
BRANCH  37  38
ATOM     38  C   UNL A   1      33.272  36.446  28.787  1.00  0.00     0.202 C 
BRANCH  38  39
ATOM     39  C   UNL A   1      32.934  36.551  30.284  1.00  0.00     0.261 C 
BRANCH  39  40
ATOM     40  O   UNL A   1      32.513  35.329  30.907  1.00  0.00    -0.460 OA
BRANCH  40  41
ATOM     41  C   UNL A   1      32.606  35.234  32.250  1.00  0.00     0.338 C 
ATOM     42  O   UNL A   1      31.708  35.362  33.064  1.00  0.00    -0.246 OA
BRANCH  41  43
ATOM     43  C   UNL A   1      33.949  34.684  32.545  1.00  0.00     0.060 A 
ATOM     44  C   UNL A   1      34.089  33.295  32.699  1.00  0.00     0.016 A 
ATOM     45  C   UNL A   1      35.077  35.511  32.521  1.00  0.00     0.016 A 
ATOM     46  C   UNL A   1      35.364  32.728  32.780  1.00  0.00     0.010 A 
ATOM     47  C   UNL A   1      36.345  34.952  32.676  1.00  0.00     0.010 A 
ATOM     48  C   UNL A   1      36.491  33.562  32.821  1.00  0.00    -0.014 A 
BRANCH  48  49
ATOM     49  C   UNL A   1      37.766  33.041  33.368  1.00  0.00     0.031 A 
ATOM     50  C   UNL A   1      37.945  33.159  34.854  1.00  0.00     0.074 A 
ATOM     51  C   UNL A   1      38.754  32.568  32.589  1.00  0.00     0.049 A 
ATOM     52  N   UNL A   1      38.993  32.916  35.594  1.00  0.00    -0.248 NA
ATOM     53  C   UNL A   1      36.771  33.633  35.610  1.00  0.00     0.031 C 
ATOM     54  C   UNL A   1      38.687  32.388  31.142  1.00  0.00     0.029 A 
ATOM     55  N   UNL A   1      40.030  32.184  32.920  1.00  0.00    -0.354 N 
ATOM     56  C   UNL A   1      38.604  33.214  36.893  1.00  0.00     0.074 A 
ATOM     57  C   UNL A   1      37.232  33.662  36.845  1.00  0.00     0.031 C 
ATOM     58  C   UNL A   1      39.886  31.965  30.701  1.00  0.00     0.029 A 
ATOM     59  C   UNL A   1      40.812  31.882  31.832  1.00  0.00     0.049 A 
ATOM     60  H   UNL A   1      40.354  32.129  33.848  1.00  0.00     0.167 HD
ATOM     61  C   UNL A   1      39.330  33.138  38.030  1.00  0.00     0.037 A 
ATOM     62  C   UNL A   1      42.132  31.613  31.763  1.00  0.00     0.037 A 
ATOM     63  C   UNL A   1      40.710  32.752  38.066  1.00  0.00     0.049 A 
ATOM     64  C   UNL A   1      42.949  31.602  33.033  1.00  0.00     0.074 A 
ATOM     65  C   UNL A   1      41.545  32.639  39.159  1.00  0.00     0.029 A 
ATOM     66  N   UNL A   1      41.464  32.446  36.942  1.00  0.00    -0.354 N 
ATOM     67  N   UNL A   1      42.567  31.838  34.266  1.00  0.00    -0.248 NA
ATOM     68  C   UNL A   1      44.380  31.292  32.903  1.00  0.00     0.031 C 
ATOM     69  C   UNL A   1      42.823  32.319  38.691  1.00  0.00     0.029 A 
ATOM     70  C   UNL A   1      42.768  32.171  37.313  1.00  0.00     0.049 A 
ATOM     71  H   UNL A   1      41.122  32.430  36.018  1.00  0.00     0.167 HD
ATOM     72  C   UNL A   1      43.697  31.678  35.059  1.00  0.00     0.074 A 
ATOM     73  C   UNL A   1      44.782  31.324  34.167  1.00  0.00     0.031 C 
ATOM     74  C   UNL A   1      43.826  31.808  36.403  1.00  0.00     0.037 A 
BRANCH  61  75
ATOM     75  C   UNL A   1      38.643  33.554  39.295  1.00  0.00     0.064 A 
ATOM     76  C   UNL A   1      38.884  34.803  39.889  1.00  0.00     0.173 A 
ATOM     77  C   UNL A   1      37.781  32.667  39.955  1.00  0.00     0.173 A 
ATOM     78  F   UNL A   1      39.730  35.672  39.316  1.00  0.00    -0.203 F 
ATOM     79  C   UNL A   1      38.317  35.132  41.118  1.00  0.00     0.198 A 
ATOM     80  C   UNL A   1      37.190  33.012  41.167  1.00  0.00     0.198 A 
ATOM     81  F   UNL A   1      37.530  31.456  39.436  1.00  0.00    -0.203 F 
ATOM     82  F   UNL A   1      38.621  36.298  41.704  1.00  0.00    -0.200 F 
ATOM     83  C   UNL A   1      37.468  34.238  41.753  1.00  0.00     0.200 A 
ATOM     84  F   UNL A   1      36.368  32.148  41.779  1.00  0.00    -0.200 F 
ATOM     85  F   UNL A   1      36.931  34.550  42.941  1.00  0.00    -0.200 F 
ENDBRANCH  61  75
BRANCH  62  86
ATOM     86  C   UNL A   1      42.769  31.365  30.442  1.00  0.00     0.064 A 
ATOM     87  C   UNL A   1      42.866  30.071  29.914  1.00  0.00     0.173 A 
ATOM     88  C   UNL A   1      43.286  32.421  29.676  1.00  0.00     0.173 A 
ATOM     89  F   UNL A   1      42.414  29.025  30.620  1.00  0.00    -0.203 F 
ATOM     90  C   UNL A   1      43.458  29.841  28.672  1.00  0.00     0.198 A 
ATOM     91  C   UNL A   1      43.857  32.192  28.424  1.00  0.00     0.198 A 
ATOM     92  F   UNL A   1      43.228  33.678  30.139  1.00  0.00    -0.203 F 
ATOM     93  F   UNL A   1      43.566  28.590  28.205  1.00  0.00    -0.200 F 
ATOM     94  C   UNL A   1      43.946  30.903  27.925  1.00  0.00     0.200 A 
ATOM     95  F   UNL A   1      44.320  33.223  27.703  1.00  0.00    -0.200 F 
ATOM     96  F   UNL A   1      44.503  30.682  26.727  1.00  0.00    -0.200 F 
ENDBRANCH  62  86
BRANCH  74  97
ATOM     97  C   UNL A   1      45.168  31.522  37.009  1.00  0.00     0.064 A 
ATOM     98  C   UNL A   1      45.529  30.236  37.431  1.00  0.00     0.173 A 
ATOM     99  C   UNL A   1      46.138  32.535  37.075  1.00  0.00     0.173 A 
ATOM    100  F   UNL A   1      44.635  29.237  37.396  1.00  0.00    -0.203 F 
ATOM    101  C   UNL A   1      46.813  29.975  37.906  1.00  0.00     0.198 A 
ATOM    102  C   UNL A   1      47.427  32.264  37.522  1.00  0.00     0.198 A 
ATOM    103  F   UNL A   1      45.844  33.780  36.671  1.00  0.00    -0.203 F 
ATOM    104  F   UNL A   1      47.130  28.745  38.330  1.00  0.00    -0.200 F 
ATOM    105  C   UNL A   1      47.763  30.986  37.941  1.00  0.00     0.200 A 
ATOM    106  F   UNL A   1      48.348  33.238  37.537  1.00  0.00    -0.200 F 
ATOM    107  F   UNL A   1      49.003  30.727  38.377  1.00  0.00    -0.200 F 
ENDBRANCH  74  97
ENDBRANCH  48  49
ENDBRANCH  41  43
ENDBRANCH  40  41
ENDBRANCH  39  40
ENDBRANCH  38  39
ENDBRANCH  37  38
ENDBRANCH  36  37
ENDBRANCH  35  36
ENDBRANCH  34  35
ENDBRANCH   1  34
TORSDOF 25
ENDMDL
