MODEL 1
REMARK VINA RESULT:      -6.5      0.000      0.000
REMARK SMILES CC(C)(CC(=O)OCCOCCOCCOCCOC(=O)c1ccc(-c2c3nc(c(-c4c(F)c(F)c(F)c(F)c4F)c4ccc([nH]4)c(-c4c(F)c(F)c(F)c(F)c4F)c4nc(c(-c5c(F)c(F)c(F)c(F)c5F)c5ccc2[nH]5)C=C4)C=C3)cc1)CC(=O)N1CCN(c2nc3ccc(Cl)cc3s2)CC1
REMARK SMILES IDX 12 1 11 2 10 3 9 4 8 5 7 6 5 7 6 8 4 9 2 10 1 11 3 12 85 13
REMARK SMILES IDX 86 14 87 15 88 16 89 17 103 18 90 19 102 20 91 21 92 22
REMARK SMILES IDX 93 23 101 24 94 25 100 26 95 27 99 28 96 29 97 30 98 31
REMARK SMILES IDX 13 32 14 33 15 34 16 35 17 36 18 37 19 38 20 39 21 40 22 41
REMARK SMILES IDX 23 42 84 43 24 44 83 45 25 46 26 47 27 48 77 49 28 50 82 51
REMARK SMILES IDX 76 52 78 53 29 54 81 55 75 56 74 57 30 59 62 60 42 61 61 62
REMARK SMILES IDX 43 63 46 64 60 65 79 66 44 67 45 68 59 70 80 71 47 72 31 73
REMARK SMILES IDX 32 74 40 75 33 76 34 77 38 78 41 79 35 80 36 81 39 82 37 83
REMARK SMILES IDX 63 84 64 85 72 86 65 87 66 88 70 89 73 90 67 91 68 92 71 93
REMARK SMILES IDX 69 94 48 95 49 96 57 97 50 98 51 99 55 100 58 101 52 102
REMARK SMILES IDX 53 103 56 104 54 105
REMARK H PARENT 78 58 46 69
REMARK Flexibility Score: inf
ROOT
ATOM      1  C   UNL A   1      52.826  27.719  36.986  1.00  0.00     0.188 C 
ENDROOT
BRANCH   1   2
ATOM      2  C   UNL A   1      51.408  28.356  36.870  1.00  0.00     0.188 C 
BRANCH   2   3
ATOM      3  O   UNL A   1      50.713  28.720  38.074  1.00  0.00    -0.376 OA
BRANCH   3   4
ATOM      4  C   UNL A   1      50.416  27.701  39.016  1.00  0.00     0.202 C 
BRANCH   4   5
ATOM      5  C   UNL A   1      49.676  28.257  40.257  1.00  0.00     0.261 C 
BRANCH   5   6
ATOM      6  O   UNL A   1      49.234  29.633  40.113  1.00  0.00    -0.463 OA
BRANCH   6   7
ATOM      7  C   UNL A   1      47.928  29.880  40.393  1.00  0.00     0.306 C 
ATOM      8  O   UNL A   1      47.553  30.800  41.118  1.00  0.00    -0.252 OA
BRANCH   7   9
ATOM      9  C   UNL A   1      46.894  28.918  39.772  1.00  0.00     0.129 C 
BRANCH   9  10
ATOM     10  C   UNL A   1      46.181  29.207  38.425  1.00  0.00    -0.016 C 
ATOM     11  C   UNL A   1      45.408  27.944  37.975  1.00  0.00     0.012 C 
ATOM     12  C   UNL A   1      45.074  30.282  38.604  1.00  0.00     0.012 C 
BRANCH  10  13
ATOM     13  C   UNL A   1      47.153  29.878  37.406  1.00  0.00     0.107 C 
BRANCH  13  14
ATOM     14  C   UNL A   1      46.843  31.299  37.118  1.00  0.00     0.223 C 
ATOM     15  O   UNL A   1      46.963  32.029  38.082  1.00  0.00    -0.275 OA
ATOM     16  N   UNL A   1      46.578  31.716  35.836  1.00  0.00    -0.339 N 
ATOM     17  C   UNL A   1      47.063  33.028  35.358  1.00  0.00     0.141 C 
ATOM     18  C   UNL A   1      45.280  31.378  35.261  1.00  0.00     0.141 C 
ATOM     19  C   UNL A   1      47.078  33.154  33.814  1.00  0.00     0.140 C 
ATOM     20  C   UNL A   1      45.374  31.352  33.742  1.00  0.00     0.140 C 
ATOM     21  N   UNL A   1      45.826  32.658  33.240  1.00  0.00    -0.345 N 
BRANCH  21  22
ATOM     22  C   UNL A   1      44.864  33.480  32.750  1.00  0.00     0.186 A 
ATOM     23  N   UNL A   1      43.585  33.240  32.930  1.00  0.00    -0.220 NA
ATOM     24  S   UNL A   1      45.192  34.757  31.639  1.00  0.00    -0.097 S 
ATOM     25  C   UNL A   1      42.845  33.833  31.935  1.00  0.00     0.084 A 
ATOM     26  C   UNL A   1      43.562  34.663  31.076  1.00  0.00     0.058 A 
ATOM     27  C   UNL A   1      41.480  33.593  31.691  1.00  0.00     0.031 A 
ATOM     28  C   UNL A   1      42.966  35.244  29.944  1.00  0.00     0.042 A 
ATOM     29  C   UNL A   1      40.887  34.121  30.543  1.00  0.00     0.023 A 
ATOM     30  C   UNL A   1      41.629  34.925  29.682  1.00  0.00     0.042 A 
ATOM     31  Cl  UNL A   1      40.893  35.509  28.238  1.00  0.00    -0.084 Cl
ENDBRANCH  21  22
ENDBRANCH  13  14
ENDBRANCH  10  13
ENDBRANCH   9  10
ENDBRANCH   7   9
ENDBRANCH   6   7
ENDBRANCH   5   6
ENDBRANCH   4   5
ENDBRANCH   3   4
ENDBRANCH   2   3
ENDBRANCH   1   2
BRANCH   1  32
ATOM     32  O   UNL A   1      52.944  26.377  36.502  1.00  0.00    -0.377 OA
BRANCH  32  33
ATOM     33  C   UNL A   1      51.716  25.826  36.057  1.00  0.00     0.188 C 
BRANCH  33  34
ATOM     34  C   UNL A   1      51.792  24.952  34.782  1.00  0.00     0.188 C 
BRANCH  34  35
ATOM     35  O   UNL A   1      51.332  25.601  33.593  1.00  0.00    -0.376 OA
BRANCH  35  36
ATOM     36  C   UNL A   1      49.983  25.318  33.218  1.00  0.00     0.202 C 
BRANCH  36  37
ATOM     37  C   UNL A   1      49.395  24.002  33.767  1.00  0.00     0.261 C 
BRANCH  37  38
ATOM     38  O   UNL A   1      47.982  24.008  33.996  1.00  0.00    -0.460 OA
BRANCH  38  39
ATOM     39  C   UNL A   1      47.571  24.528  35.180  1.00  0.00     0.338 C 
ATOM     40  O   UNL A   1      48.079  24.383  36.257  1.00  0.00    -0.246 OA
BRANCH  39  41
ATOM     41  C   UNL A   1      46.510  25.518  34.874  1.00  0.00     0.060 A 
ATOM     42  C   UNL A   1      45.197  25.043  34.776  1.00  0.00     0.016 A 
ATOM     43  C   UNL A   1      46.790  26.878  34.715  1.00  0.00     0.016 A 
ATOM     44  C   UNL A   1      44.153  25.930  34.549  1.00  0.00     0.010 A 
ATOM     45  C   UNL A   1      45.751  27.761  34.407  1.00  0.00     0.010 A 
ATOM     46  C   UNL A   1      44.437  27.278  34.297  1.00  0.00    -0.014 A 
BRANCH  46  47
ATOM     47  C   UNL A   1      43.392  28.044  33.586  1.00  0.00     0.031 A 
ATOM     48  C   UNL A   1      43.201  27.720  32.131  1.00  0.00     0.074 A 
ATOM     49  C   UNL A   1      42.567  28.884  34.228  1.00  0.00     0.049 A 
ATOM     50  N   UNL A   1      42.266  28.105  31.304  1.00  0.00    -0.248 NA
ATOM     51  C   UNL A   1      44.195  26.808  31.534  1.00  0.00     0.031 C 
ATOM     52  C   UNL A   1      42.636  29.225  35.647  1.00  0.00     0.029 A 
ATOM     53  N   UNL A   1      41.489  29.590  33.760  1.00  0.00    -0.354 N 
ATOM     54  C   UNL A   1      42.547  27.465  30.104  1.00  0.00     0.074 A 
ATOM     55  C   UNL A   1      43.751  26.691  30.295  1.00  0.00     0.031 C 
ATOM     56  C   UNL A   1      41.642  30.085  35.934  1.00  0.00     0.029 A 
ATOM     57  C   UNL A   1      40.877  30.359  34.718  1.00  0.00     0.049 A 
ATOM     58  H   UNL A   1      41.184  29.550  32.825  1.00  0.00     0.167 HD
ATOM     59  C   UNL A   1      41.853  27.513  28.945  1.00  0.00     0.037 A 
ATOM     60  C   UNL A   1      39.821  31.187  34.607  1.00  0.00     0.037 A 
ATOM     61  C   UNL A   1      40.681  28.321  28.754  1.00  0.00     0.049 A 
ATOM     62  C   UNL A   1      39.113  31.289  33.278  1.00  0.00     0.074 A 
ATOM     63  C   UNL A   1      39.908  28.469  27.619  1.00  0.00     0.029 A 
ATOM     64  N   UNL A   1      40.126  29.137  29.731  1.00  0.00    -0.354 N 
ATOM     65  N   UNL A   1      39.359  30.659  32.153  1.00  0.00    -0.248 NA
ATOM     66  C   UNL A   1      37.967  32.205  33.211  1.00  0.00     0.031 C 
ATOM     67  C   UNL A   1      38.923  29.424  27.888  1.00  0.00     0.029 A 
ATOM     68  C   UNL A   1      39.035  29.815  29.215  1.00  0.00     0.049 A 
ATOM     69  H   UNL A   1      40.458  29.222  30.653  1.00  0.00     0.167 HD
ATOM     70  C   UNL A   1      38.384  31.078  31.256  1.00  0.00     0.074 A 
ATOM     71  C   UNL A   1      37.531  32.000  31.976  1.00  0.00     0.031 C 
ATOM     72  C   UNL A   1      38.205  30.731  29.955  1.00  0.00     0.037 A 
BRANCH  59  73
ATOM     73  C   UNL A   1      42.389  26.715  27.793  1.00  0.00     0.064 A 
ATOM     74  C   UNL A   1      43.351  27.237  26.914  1.00  0.00     0.173 A 
ATOM     75  C   UNL A   1      41.923  25.414  27.558  1.00  0.00     0.173 A 
ATOM     76  F   UNL A   1      43.808  28.488  27.076  1.00  0.00    -0.203 F 
ATOM     77  C   UNL A   1      43.806  26.494  25.827  1.00  0.00     0.198 A 
ATOM     78  C   UNL A   1      42.403  24.662  26.490  1.00  0.00     0.198 A 
ATOM     79  F   UNL A   1      40.995  24.873  28.362  1.00  0.00    -0.203 F 
ATOM     80  F   UNL A   1      44.682  27.032  24.967  1.00  0.00    -0.200 F 
ATOM     81  C   UNL A   1      43.338  25.204  25.622  1.00  0.00     0.200 A 
ATOM     82  F   UNL A   1      41.953  23.415  26.297  1.00  0.00    -0.200 F 
ATOM     83  F   UNL A   1      43.778  24.488  24.578  1.00  0.00    -0.200 F 
ENDBRANCH  59  73
BRANCH  60  84
ATOM     84  C   UNL A   1      39.372  31.984  35.781  1.00  0.00     0.064 A 
ATOM     85  C   UNL A   1      38.405  31.498  36.672  1.00  0.00     0.173 A 
ATOM     86  C   UNL A   1      39.888  33.268  36.019  1.00  0.00     0.173 A 
ATOM     87  F   UNL A   1      37.860  30.289  36.475  1.00  0.00    -0.203 F 
ATOM     88  C   UNL A   1      37.957  32.272  37.742  1.00  0.00     0.198 A 
ATOM     89  C   UNL A   1      39.462  34.028  37.106  1.00  0.00     0.198 A 
ATOM     90  F   UNL A   1      40.810  33.784  35.193  1.00  0.00    -0.203 F 
ATOM     91  F   UNL A   1      36.994  31.803  38.548  1.00  0.00    -0.200 F 
ATOM     92  C   UNL A   1      38.491  33.533  37.961  1.00  0.00     0.200 A 
ATOM     93  F   UNL A   1      39.988  35.242  37.318  1.00  0.00    -0.200 F 
ATOM     94  F   UNL A   1      38.060  34.276  38.991  1.00  0.00    -0.200 F 
ENDBRANCH  60  84
BRANCH  72  95
ATOM     95  C   UNL A   1      37.019  31.323  29.247  1.00  0.00     0.064 A 
ATOM     96  C   UNL A   1      36.989  32.667  28.847  1.00  0.00     0.173 A 
ATOM     97  C   UNL A   1      35.904  30.524  28.948  1.00  0.00     0.173 A 
ATOM     98  F   UNL A   1      38.026  33.475  29.115  1.00  0.00    -0.203 F 
ATOM     99  C   UNL A   1      35.867  33.201  28.219  1.00  0.00     0.198 A 
ATOM    100  C   UNL A   1      34.801  31.052  28.284  1.00  0.00     0.198 A 
ATOM    101  F   UNL A   1      35.887  29.228  29.293  1.00  0.00    -0.203 F 
ATOM    102  F   UNL A   1      35.832  34.505  27.910  1.00  0.00    -0.200 F 
ATOM    103  C   UNL A   1      34.777  32.393  27.933  1.00  0.00     0.200 A 
ATOM    104  F   UNL A   1      33.757  30.264  27.990  1.00  0.00    -0.200 F 
ATOM    105  F   UNL A   1      33.698  32.909  27.330  1.00  0.00    -0.200 F 
ENDBRANCH  72  95
ENDBRANCH  46  47
ENDBRANCH  39  41
ENDBRANCH  38  39
ENDBRANCH  37  38
ENDBRANCH  36  37
ENDBRANCH  35  36
ENDBRANCH  34  35
ENDBRANCH  33  34
ENDBRANCH  32  33
ENDBRANCH   1  32
TORSDOF 24
ENDMDL
MODEL 2
REMARK VINA RESULT:      -6.4      6.451     12.437
REMARK SMILES CC(C)(CC(=O)OCCOCCOCCOCCOC(=O)c1ccc(-c2c3nc(c(-c4c(F)c(F)c(F)c(F)c4F)c4ccc([nH]4)c(-c4c(F)c(F)c(F)c(F)c4F)c4nc(c(-c5c(F)c(F)c(F)c(F)c5F)c5ccc2[nH]5)C=C4)C=C3)cc1)CC(=O)N1CCN(c2nc3ccc(Cl)cc3s2)CC1
REMARK SMILES IDX 12 1 11 2 10 3 9 4 8 5 7 6 5 7 6 8 4 9 2 10 1 11 3 12 85 13
REMARK SMILES IDX 86 14 87 15 88 16 89 17 103 18 90 19 102 20 91 21 92 22
REMARK SMILES IDX 93 23 101 24 94 25 100 26 95 27 99 28 96 29 97 30 98 31
REMARK SMILES IDX 13 32 14 33 15 34 16 35 17 36 18 37 19 38 20 39 21 40 22 41
REMARK SMILES IDX 23 42 84 43 24 44 83 45 25 46 26 47 27 48 77 49 28 50 82 51
REMARK SMILES IDX 76 52 78 53 29 54 81 55 75 56 74 57 30 59 62 60 42 61 61 62
REMARK SMILES IDX 43 63 46 64 60 65 79 66 44 67 45 68 59 70 80 71 47 72 31 73
REMARK SMILES IDX 32 74 40 75 33 76 34 77 38 78 41 79 35 80 36 81 39 82 37 83
REMARK SMILES IDX 63 84 64 85 72 86 65 87 66 88 70 89 73 90 67 91 68 92 71 93
REMARK SMILES IDX 69 94 48 95 49 96 57 97 50 98 51 99 55 100 58 101 52 102
REMARK SMILES IDX 53 103 56 104 54 105
REMARK H PARENT 78 58 46 69
REMARK Flexibility Score: inf
ROOT
ATOM      1  C   UNL A   1      45.376  33.408  27.033  1.00  0.00     0.188 C 
ENDROOT
BRANCH   1   2
ATOM      2  C   UNL A   1      44.957  31.994  26.524  1.00  0.00     0.188 C 
BRANCH   2   3
ATOM      3  O   UNL A   1      44.019  31.230  27.300  1.00  0.00    -0.376 OA
BRANCH   3   4
ATOM      4  C   UNL A   1      43.945  29.829  27.081  1.00  0.00     0.202 C 
BRANCH   4   5
ATOM      5  C   UNL A   1      45.290  29.251  26.579  1.00  0.00     0.261 C 
BRANCH   5   6
ATOM      6  O   UNL A   1      45.552  27.894  27.024  1.00  0.00    -0.463 OA
BRANCH   6   7
ATOM      7  C   UNL A   1      45.047  26.896  26.253  1.00  0.00     0.306 C 
ATOM      8  O   UNL A   1      44.977  26.958  25.027  1.00  0.00    -0.252 OA
BRANCH   7   9
ATOM      9  C   UNL A   1      44.522  25.649  26.993  1.00  0.00     0.129 C 
BRANCH   9  10
ATOM     10  C   UNL A   1      45.461  24.605  27.652  1.00  0.00    -0.016 C 
ATOM     11  C   UNL A   1      46.801  24.563  26.877  1.00  0.00     0.012 C 
ATOM     12  C   UNL A   1      45.868  25.052  29.083  1.00  0.00     0.012 C 
BRANCH  10  13
ATOM     13  C   UNL A   1      44.716  23.259  27.908  1.00  0.00     0.107 C 
BRANCH  13  14
ATOM     14  C   UNL A   1      43.977  22.742  26.732  1.00  0.00     0.223 C 
ATOM     15  O   UNL A   1      44.678  22.562  25.757  1.00  0.00    -0.275 OA
ATOM     16  N   UNL A   1      42.651  22.394  26.831  1.00  0.00    -0.339 N 
ATOM     17  C   UNL A   1      42.127  21.219  26.103  1.00  0.00     0.141 C 
ATOM     18  C   UNL A   1      41.666  23.468  26.904  1.00  0.00     0.141 C 
ATOM     19  C   UNL A   1      40.772  20.707  26.653  1.00  0.00     0.140 C 
ATOM     20  C   UNL A   1      40.405  22.971  27.599  1.00  0.00     0.140 C 
ATOM     21  N   UNL A   1      39.848  21.821  26.874  1.00  0.00    -0.345 N 
BRANCH  21  22
ATOM     22  C   UNL A   1      38.794  22.076  26.057  1.00  0.00     0.186 A 
ATOM     23  N   UNL A   1      38.162  23.227  26.076  1.00  0.00    -0.220 NA
ATOM     24  S   UNL A   1      38.018  20.861  25.112  1.00  0.00    -0.097 S 
ATOM     25  C   UNL A   1      36.875  23.070  25.622  1.00  0.00     0.084 A 
ATOM     26  C   UNL A   1      36.575  21.811  25.106  1.00  0.00     0.058 A 
ATOM     27  C   UNL A   1      35.858  24.038  25.723  1.00  0.00     0.031 A 
ATOM     28  C   UNL A   1      35.272  21.466  24.712  1.00  0.00     0.042 A 
ATOM     29  C   UNL A   1      34.548  23.694  25.384  1.00  0.00     0.023 A 
ATOM     30  C   UNL A   1      34.266  22.421  24.898  1.00  0.00     0.042 A 
ATOM     31  Cl  UNL A   1      32.633  21.999  24.551  1.00  0.00    -0.084 Cl
ENDBRANCH  21  22
ENDBRANCH  13  14
ENDBRANCH  10  13
ENDBRANCH   9  10
ENDBRANCH   7   9
ENDBRANCH   6   7
ENDBRANCH   5   6
ENDBRANCH   4   5
ENDBRANCH   3   4
ENDBRANCH   2   3
ENDBRANCH   1   2
BRANCH   1  32
ATOM     32  O   UNL A   1      45.778  34.337  26.020  1.00  0.00    -0.377 OA
BRANCH  32  33
ATOM     33  C   UNL A   1      45.714  35.691  26.436  1.00  0.00     0.188 C 
BRANCH  33  34
ATOM     34  C   UNL A   1      46.840  36.155  27.390  1.00  0.00     0.188 C 
BRANCH  34  35
ATOM     35  O   UNL A   1      46.375  36.730  28.615  1.00  0.00    -0.376 OA
BRANCH  35  36
ATOM     36  C   UNL A   1      47.383  37.298  29.452  1.00  0.00     0.202 C 
BRANCH  36  37
ATOM     37  C   UNL A   1      46.946  37.646  30.890  1.00  0.00     0.261 C 
BRANCH  37  38
ATOM     38  O   UNL A   1      45.801  36.936  31.373  1.00  0.00    -0.460 OA
BRANCH  38  39
ATOM     39  C   UNL A   1      44.647  37.646  31.452  1.00  0.00     0.338 C 
ATOM     40  O   UNL A   1      44.076  38.214  30.563  1.00  0.00    -0.246 OA
BRANCH  39  41
ATOM     41  C   UNL A   1      44.075  37.396  32.798  1.00  0.00     0.060 A 
ATOM     42  C   UNL A   1      44.327  36.149  33.381  1.00  0.00     0.016 A 
ATOM     43  C   UNL A   1      43.335  38.366  33.480  1.00  0.00     0.016 A 
ATOM     44  C   UNL A   1      43.867  35.877  34.663  1.00  0.00     0.010 A 
ATOM     45  C   UNL A   1      42.803  38.065  34.737  1.00  0.00     0.010 A 
ATOM     46  C   UNL A   1      43.048  36.808  35.313  1.00  0.00    -0.014 A 
BRANCH  46  47
ATOM     47  C   UNL A   1      42.202  36.283  36.404  1.00  0.00     0.031 A 
ATOM     48  C   UNL A   1      41.058  35.398  35.996  1.00  0.00     0.074 A 
ATOM     49  C   UNL A   1      42.511  36.472  37.696  1.00  0.00     0.049 A 
ATOM     50  N   UNL A   1      40.258  34.671  36.730  1.00  0.00    -0.248 NA
ATOM     51  C   UNL A   1      40.801  35.298  34.546  1.00  0.00     0.031 C 
ATOM     52  C   UNL A   1      43.628  37.269  38.195  1.00  0.00     0.029 A 
ATOM     53  N   UNL A   1      41.911  35.980  38.827  1.00  0.00    -0.354 N 
ATOM     54  C   UNL A   1      39.426  34.015  35.833  1.00  0.00     0.074 A 
ATOM     55  C   UNL A   1      39.791  34.447  34.505  1.00  0.00     0.031 C 
ATOM     56  C   UNL A   1      43.630  37.218  39.539  1.00  0.00     0.029 A 
ATOM     57  C   UNL A   1      42.510  36.393  39.990  1.00  0.00     0.049 A 
ATOM     58  H   UNL A   1      41.125  35.388  38.806  1.00  0.00     0.167 HD
ATOM     59  C   UNL A   1      38.446  33.122  36.097  1.00  0.00     0.037 A 
ATOM     60  C   UNL A   1      42.176  36.127  41.268  1.00  0.00     0.037 A 
ATOM     61  C   UNL A   1      38.062  32.734  37.425  1.00  0.00     0.049 A 
ATOM     62  C   UNL A   1      41.022  35.193  41.539  1.00  0.00     0.074 A 
ATOM     63  C   UNL A   1      37.068  31.857  37.816  1.00  0.00     0.029 A 
ATOM     64  N   UNL A   1      38.650  33.222  38.584  1.00  0.00    -0.354 N 
ATOM     65  N   UNL A   1      40.256  34.548  40.690  1.00  0.00    -0.248 NA
ATOM     66  C   UNL A   1      40.700  34.936  42.948  1.00  0.00     0.031 C 
ATOM     67  C   UNL A   1      37.013  31.863  39.214  1.00  0.00     0.029 A 
ATOM     68  C   UNL A   1      38.021  32.686  39.694  1.00  0.00     0.049 A 
ATOM     69  H   UNL A   1      39.402  33.856  38.612  1.00  0.00     0.167 HD
ATOM     70  C   UNL A   1      39.384  33.788  41.459  1.00  0.00     0.074 A 
ATOM     71  C   UNL A   1      39.731  34.038  42.843  1.00  0.00     0.031 C 
ATOM     72  C   UNL A   1      38.387  32.956  41.062  1.00  0.00     0.037 A 
BRANCH  59  73
ATOM     73  C   UNL A   1      37.694  32.566  34.924  1.00  0.00     0.064 A 
ATOM     74  C   UNL A   1      38.100  31.389  34.274  1.00  0.00     0.173 A 
ATOM     75  C   UNL A   1      36.559  33.227  34.435  1.00  0.00     0.173 A 
ATOM     76  F   UNL A   1      39.197  30.735  34.682  1.00  0.00    -0.203 F 
ATOM     77  C   UNL A   1      37.410  30.911  33.162  1.00  0.00     0.198 A 
ATOM     78  C   UNL A   1      35.853  32.729  33.343  1.00  0.00     0.198 A 
ATOM     79  F   UNL A   1      36.135  34.361  35.013  1.00  0.00    -0.203 F 
ATOM     80  F   UNL A   1      37.848  29.818  32.521  1.00  0.00    -0.200 F 
ATOM     81  C   UNL A   1      36.283  31.577  32.703  1.00  0.00     0.200 A 
ATOM     82  F   UNL A   1      34.761  33.371  32.906  1.00  0.00    -0.200 F 
ATOM     83  F   UNL A   1      35.618  31.115  31.635  1.00  0.00    -0.200 F 
ENDBRANCH  59  73
BRANCH  60  84
ATOM     84  C   UNL A   1      42.937  36.752  42.383  1.00  0.00     0.064 A 
ATOM     85  C   UNL A   1      44.042  36.116  42.965  1.00  0.00     0.173 A 
ATOM     86  C   UNL A   1      42.553  37.997  42.908  1.00  0.00     0.173 A 
ATOM     87  F   UNL A   1      44.434  34.914  42.520  1.00  0.00    -0.203 F 
ATOM     88  C   UNL A   1      44.720  36.689  44.041  1.00  0.00     0.198 A 
ATOM     89  C   UNL A   1      43.250  38.583  43.962  1.00  0.00     0.198 A 
ATOM     90  F   UNL A   1      41.499  38.646  42.392  1.00  0.00    -0.203 F 
ATOM     91  F   UNL A   1      45.740  36.034  44.612  1.00  0.00    -0.200 F 
ATOM     92  C   UNL A   1      44.327  37.925  44.534  1.00  0.00     0.200 A 
ATOM     93  F   UNL A   1      42.872  39.781  44.428  1.00  0.00    -0.200 F 
ATOM     94  F   UNL A   1      44.980  38.475  45.567  1.00  0.00    -0.200 F 
ENDBRANCH  60  84
BRANCH  72  95
ATOM     95  C   UNL A   1      37.633  32.227  42.139  1.00  0.00     0.064 A 
ATOM     96  C   UNL A   1      36.412  32.701  42.640  1.00  0.00     0.173 A 
ATOM     97  C   UNL A   1      38.135  31.026  42.663  1.00  0.00     0.173 A 
ATOM     98  F   UNL A   1      35.892  33.849  42.178  1.00  0.00    -0.203 F 
ATOM     99  C   UNL A   1      35.747  32.026  43.660  1.00  0.00     0.198 A 
ATOM    100  C   UNL A   1      37.446  30.333  43.654  1.00  0.00     0.198 A 
ATOM    101  F   UNL A   1      39.291  30.519  42.209  1.00  0.00    -0.203 F 
ATOM    102  F   UNL A   1      34.618  32.535  44.171  1.00  0.00    -0.200 F 
ATOM    103  C   UNL A   1      36.261  30.840  44.162  1.00  0.00     0.200 A 
ATOM    104  F   UNL A   1      37.935  29.176  44.123  1.00  0.00    -0.200 F 
ATOM    105  F   UNL A   1      35.620  30.193  45.144  1.00  0.00    -0.200 F 
ENDBRANCH  72  95
ENDBRANCH  46  47
ENDBRANCH  39  41
ENDBRANCH  38  39
ENDBRANCH  37  38
ENDBRANCH  36  37
ENDBRANCH  35  36
ENDBRANCH  34  35
ENDBRANCH  33  34
ENDBRANCH  32  33
ENDBRANCH   1  32
TORSDOF 24
ENDMDL
MODEL 3
REMARK VINA RESULT:      -6.3      5.312     10.571
REMARK SMILES CC(C)(CC(=O)OCCOCCOCCOCCOC(=O)c1ccc(-c2c3nc(c(-c4c(F)c(F)c(F)c(F)c4F)c4ccc([nH]4)c(-c4c(F)c(F)c(F)c(F)c4F)c4nc(c(-c5c(F)c(F)c(F)c(F)c5F)c5ccc2[nH]5)C=C4)C=C3)cc1)CC(=O)N1CCN(c2nc3ccc(Cl)cc3s2)CC1
REMARK SMILES IDX 12 1 11 2 10 3 9 4 8 5 7 6 5 7 6 8 4 9 2 10 1 11 3 12 85 13
REMARK SMILES IDX 86 14 87 15 88 16 89 17 103 18 90 19 102 20 91 21 92 22
REMARK SMILES IDX 93 23 101 24 94 25 100 26 95 27 99 28 96 29 97 30 98 31
REMARK SMILES IDX 13 32 14 33 15 34 16 35 17 36 18 37 19 38 20 39 21 40 22 41
REMARK SMILES IDX 23 42 84 43 24 44 83 45 25 46 26 47 27 48 77 49 28 50 82 51
REMARK SMILES IDX 76 52 78 53 29 54 81 55 75 56 74 57 30 59 62 60 42 61 61 62
REMARK SMILES IDX 43 63 46 64 60 65 79 66 44 67 45 68 59 70 80 71 47 72 31 73
REMARK SMILES IDX 32 74 40 75 33 76 34 77 38 78 41 79 35 80 36 81 39 82 37 83
REMARK SMILES IDX 63 84 64 85 72 86 65 87 66 88 70 89 73 90 67 91 68 92 71 93
REMARK SMILES IDX 69 94 48 95 49 96 57 97 50 98 51 99 55 100 58 101 52 102
REMARK SMILES IDX 53 103 56 104 54 105
REMARK H PARENT 78 58 46 69
REMARK Flexibility Score: inf
ROOT
ATOM      1  C   UNL A   1      40.666  34.788  36.319  1.00  0.00     0.188 C 
ENDROOT
BRANCH   1   2
ATOM      2  C   UNL A   1      41.481  36.117  36.303  1.00  0.00     0.188 C 
BRANCH   2   3
ATOM      3  O   UNL A   1      42.196  36.476  35.110  1.00  0.00    -0.376 OA
BRANCH   3   4
ATOM      4  C   UNL A   1      42.321  35.507  34.080  1.00  0.00     0.202 C 
BRANCH   4   5
ATOM      5  C   UNL A   1      43.672  34.755  34.156  1.00  0.00     0.261 C 
BRANCH   5   6
ATOM      6  O   UNL A   1      43.777  33.635  33.238  1.00  0.00    -0.463 OA
BRANCH   6   7
ATOM      7  C   UNL A   1      43.471  32.410  33.741  1.00  0.00     0.306 C 
ATOM      8  O   UNL A   1      43.154  31.451  33.040  1.00  0.00    -0.252 OA
BRANCH   7   9
ATOM      9  C   UNL A   1      43.509  32.264  35.275  1.00  0.00     0.129 C 
BRANCH   9  10
ATOM     10  C   UNL A   1      43.574  30.887  35.987  1.00  0.00    -0.016 C 
ATOM     11  C   UNL A   1      45.053  30.534  36.281  1.00  0.00     0.012 C 
ATOM     12  C   UNL A   1      42.918  30.959  37.393  1.00  0.00     0.012 C 
BRANCH  10  13
ATOM     13  C   UNL A   1      42.697  29.829  35.249  1.00  0.00     0.107 C 
BRANCH  13  14
ATOM     14  C   UNL A   1      42.627  28.517  35.934  1.00  0.00     0.223 C 
ATOM     15  O   UNL A   1      41.938  28.525  36.934  1.00  0.00    -0.275 OA
ATOM     16  N   UNL A   1      43.199  27.399  35.374  1.00  0.00    -0.339 N 
ATOM     17  C   UNL A   1      42.537  26.082  35.485  1.00  0.00     0.141 C 
ATOM     18  C   UNL A   1      44.652  27.279  35.422  1.00  0.00     0.141 C 
ATOM     19  C   UNL A   1      43.052  25.046  34.455  1.00  0.00     0.140 C 
ATOM     20  C   UNL A   1      45.137  26.381  34.291  1.00  0.00     0.140 C 
ATOM     21  N   UNL A   1      44.515  25.054  34.398  1.00  0.00    -0.345 N 
BRANCH  21  22
ATOM     22  C   UNL A   1      45.278  24.073  34.944  1.00  0.00     0.186 A 
ATOM     23  N   UNL A   1      45.602  22.989  34.276  1.00  0.00    -0.220 NA
ATOM     24  S   UNL A   1      45.682  24.015  36.620  1.00  0.00    -0.097 S 
ATOM     25  C   UNL A   1      45.864  21.957  35.143  1.00  0.00     0.084 A 
ATOM     26  C   UNL A   1      45.891  22.305  36.492  1.00  0.00     0.058 A 
ATOM     27  C   UNL A   1      46.016  20.608  34.772  1.00  0.00     0.031 A 
ATOM     28  C   UNL A   1      46.032  21.338  37.501  1.00  0.00     0.042 A 
ATOM     29  C   UNL A   1      46.105  19.630  35.764  1.00  0.00     0.023 A 
ATOM     30  C   UNL A   1      46.101  19.997  37.106  1.00  0.00     0.042 A 
ATOM     31  Cl  UNL A   1      46.143  18.767  38.312  1.00  0.00    -0.084 Cl
ENDBRANCH  21  22
ENDBRANCH  13  14
ENDBRANCH  10  13
ENDBRANCH   9  10
ENDBRANCH   7   9
ENDBRANCH   6   7
ENDBRANCH   5   6
ENDBRANCH   4   5
ENDBRANCH   3   4
ENDBRANCH   2   3
ENDBRANCH   1   2
BRANCH   1  32
ATOM     32  O   UNL A   1      40.532  34.158  37.598  1.00  0.00    -0.377 OA
BRANCH  32  33
ATOM     33  C   UNL A   1      39.187  33.889  37.959  1.00  0.00     0.188 C 
BRANCH  33  34
ATOM     34  C   UNL A   1      38.335  33.166  36.888  1.00  0.00     0.188 C 
BRANCH  34  35
ATOM     35  O   UNL A   1      36.971  33.595  36.832  1.00  0.00    -0.376 OA
BRANCH  35  36
ATOM     36  C   UNL A   1      36.330  33.453  35.563  1.00  0.00     0.202 C 
BRANCH  36  37
ATOM     37  C   UNL A   1      37.243  33.030  34.394  1.00  0.00     0.261 C 
BRANCH  37  38
ATOM     38  O   UNL A   1      37.003  31.719  33.870  1.00  0.00    -0.460 OA
BRANCH  38  39
ATOM     39  C   UNL A   1      36.538  31.662  32.596  1.00  0.00     0.338 C 
ATOM     40  O   UNL A   1      35.568  32.207  32.147  1.00  0.00    -0.246 OA
BRANCH  39  41
ATOM     41  C   UNL A   1      37.584  30.995  31.782  1.00  0.00     0.060 A 
ATOM     42  C   UNL A   1      38.636  30.378  32.468  1.00  0.00     0.016 A 
ATOM     43  C   UNL A   1      37.521  30.954  30.387  1.00  0.00     0.016 A 
ATOM     44  C   UNL A   1      39.614  29.689  31.764  1.00  0.00     0.010 A 
ATOM     45  C   UNL A   1      38.547  30.330  29.672  1.00  0.00     0.010 A 
ATOM     46  C   UNL A   1      39.607  29.722  30.365  1.00  0.00    -0.014 A 
BRANCH  46  47
ATOM     47  C   UNL A   1      40.892  29.424  29.698  1.00  0.00     0.031 A 
ATOM     48  C   UNL A   1      41.043  28.042  29.128  1.00  0.00     0.074 A 
ATOM     49  C   UNL A   1      41.821  30.370  29.492  1.00  0.00     0.049 A 
ATOM     50  N   UNL A   1      41.978  27.553  28.358  1.00  0.00    -0.248 NA
ATOM     51  C   UNL A   1      39.969  27.085  29.454  1.00  0.00     0.031 C 
ATOM     52  C   UNL A   1      41.746  31.752  29.958  1.00  0.00     0.029 A 
ATOM     53  N   UNL A   1      43.009  30.304  28.811  1.00  0.00    -0.354 N 
ATOM     54  C   UNL A   1      41.590  26.246  28.090  1.00  0.00     0.074 A 
ATOM     55  C   UNL A   1      40.357  26.004  28.801  1.00  0.00     0.031 C 
ATOM     56  C   UNL A   1      42.849  32.406  29.553  1.00  0.00     0.029 A 
ATOM     57  C   UNL A   1      43.708  31.485  28.809  1.00  0.00     0.049 A 
ATOM     58  H   UNL A   1      43.330  29.487  28.365  1.00  0.00     0.167 HD
ATOM     59  C   UNL A   1      42.209  25.330  27.311  1.00  0.00     0.037 A 
ATOM     60  C   UNL A   1      44.907  31.772  28.266  1.00  0.00     0.037 A 
ATOM     61  C   UNL A   1      43.458  25.568  26.645  1.00  0.00     0.049 A 
ATOM     62  C   UNL A   1      45.619  30.705  27.471  1.00  0.00     0.074 A 
ATOM     63  C   UNL A   1      44.192  24.709  25.850  1.00  0.00     0.029 A 
ATOM     64  N   UNL A   1      44.170  26.758  26.719  1.00  0.00    -0.354 N 
ATOM     65  N   UNL A   1      45.237  29.480  27.192  1.00  0.00    -0.248 NA
ATOM     66  C   UNL A   1      46.922  31.068  26.900  1.00  0.00     0.031 C 
ATOM     67  C   UNL A   1      45.378  25.357  25.493  1.00  0.00     0.029 A 
ATOM     68  C   UNL A   1      45.351  26.647  26.005  1.00  0.00     0.049 A 
ATOM     69  H   UNL A   1      43.879  27.562  27.206  1.00  0.00     0.167 HD
ATOM     70  C   UNL A   1      46.234  28.939  26.391  1.00  0.00     0.074 A 
ATOM     71  C   UNL A   1      47.228  29.978  26.213  1.00  0.00     0.031 C 
ATOM     72  C   UNL A   1      46.324  27.698  25.847  1.00  0.00     0.037 A 
BRANCH  59  73
ATOM     73  C   UNL A   1      41.564  23.980  27.200  1.00  0.00     0.064 A 
ATOM     74  C   UNL A   1      42.138  22.834  27.773  1.00  0.00     0.173 A 
ATOM     75  C   UNL A   1      40.360  23.830  26.498  1.00  0.00     0.173 A 
ATOM     76  F   UNL A   1      43.305  22.918  28.429  1.00  0.00    -0.203 F 
ATOM     77  C   UNL A   1      41.542  21.584  27.624  1.00  0.00     0.198 A 
ATOM     78  C   UNL A   1      39.750  22.583  26.377  1.00  0.00     0.198 A 
ATOM     79  F   UNL A   1      39.776  24.891  25.921  1.00  0.00    -0.203 F 
ATOM     80  F   UNL A   1      42.137  20.494  28.129  1.00  0.00    -0.200 F 
ATOM     81  C   UNL A   1      40.346  21.461  26.933  1.00  0.00     0.200 A 
ATOM     82  F   UNL A   1      38.592  22.469  25.714  1.00  0.00    -0.200 F 
ATOM     83  F   UNL A   1      39.771  20.259  26.792  1.00  0.00    -0.200 F 
ENDBRANCH  59  73
BRANCH  60  84
ATOM     84  C   UNL A   1      45.509  33.119  28.456  1.00  0.00     0.064 A 
ATOM     85  C   UNL A   1      45.284  34.159  27.545  1.00  0.00     0.173 A 
ATOM     86  C   UNL A   1      46.348  33.384  29.551  1.00  0.00     0.173 A 
ATOM     87  F   UNL A   1      44.512  33.952  26.468  1.00  0.00    -0.203 F 
ATOM     88  C   UNL A   1      45.891  35.405  27.708  1.00  0.00     0.198 A 
ATOM     89  C   UNL A   1      46.928  34.638  29.729  1.00  0.00     0.198 A 
ATOM     90  F   UNL A   1      46.602  32.422  30.450  1.00  0.00    -0.203 F 
ATOM     91  F   UNL A   1      45.700  36.365  26.792  1.00  0.00    -0.200 F 
ATOM     92  C   UNL A   1      46.707  35.644  28.803  1.00  0.00     0.200 A 
ATOM     93  F   UNL A   1      47.708  34.867  30.794  1.00  0.00    -0.200 F 
ATOM     94  F   UNL A   1      47.288  36.842  28.959  1.00  0.00    -0.200 F 
ENDBRANCH  60  84
BRANCH  72  95
ATOM     95  C   UNL A   1      47.516  27.416  24.977  1.00  0.00     0.064 A 
ATOM     96  C   UNL A   1      48.684  26.832  25.487  1.00  0.00     0.173 A 
ATOM     97  C   UNL A   1      47.478  27.720  23.607  1.00  0.00     0.173 A 
ATOM     98  F   UNL A   1      48.775  26.528  26.791  1.00  0.00    -0.203 F 
ATOM     99  C   UNL A   1      49.789  26.608  24.668  1.00  0.00     0.198 A 
ATOM    100  C   UNL A   1      48.569  27.457  22.784  1.00  0.00     0.198 A 
ATOM    101  F   UNL A   1      46.380  28.265  23.064  1.00  0.00    -0.203 F 
ATOM    102  F   UNL A   1      50.919  26.114  25.192  1.00  0.00    -0.200 F 
ATOM    103  C   UNL A   1      49.728  26.915  23.317  1.00  0.00     0.200 A 
ATOM    104  F   UNL A   1      48.501  27.736  21.474  1.00  0.00    -0.200 F 
ATOM    105  F   UNL A   1      50.791  26.700  22.532  1.00  0.00    -0.200 F 
ENDBRANCH  72  95
ENDBRANCH  46  47
ENDBRANCH  39  41
ENDBRANCH  38  39
ENDBRANCH  37  38
ENDBRANCH  36  37
ENDBRANCH  35  36
ENDBRANCH  34  35
ENDBRANCH  33  34
ENDBRANCH  32  33
ENDBRANCH   1  32
TORSDOF 24
ENDMDL
