MODEL 1
REMARK VINA RESULT:     -11.0      0.000      0.000
REMARK SMILES Cn1c(C[NH+]2CCC3(CC2)NC(=O)C[C@@H]3C(=O)OCCOCCOCCOCCOC(=O)c2ccc(-c3c4nc(c(-c5c(F)c(F)c(F)c(F)c5F)c5ccc([nH]5)c(-c5c(F)c(F)c(F)c(F)c5F)c5nc(c(-c6c(F)c(F)c(F)c(F)c6F)c6ccc3[nH]6)C=C5)C=C4)cc2)nc2ccccc21
REMARK SMILES IDX 24 1 23 2 22 3 21 4 20 5 19 6 18 7 16 8 17 9 15 10 5 11 6 12
REMARK SMILES IDX 10 13 7 15 9 16 8 17 11 18 12 19 14 21 13 22 4 23 3 24 1 25
REMARK SMILES IDX 2 26 102 27 96 28 97 29 101 30 98 31 100 32 99 33 25 34
REMARK SMILES IDX 26 35 27 36 28 37 29 38 30 39 31 40 32 41 33 42 34 43 95 44
REMARK SMILES IDX 35 45 94 46 36 47 37 48 38 49 88 50 39 51 93 52 87 53 89 54
REMARK SMILES IDX 40 55 92 56 86 57 85 58 41 60 73 61 53 62 72 63 54 64 57 65
REMARK SMILES IDX 71 66 90 67 55 68 56 69 70 71 91 72 58 73 42 74 43 75 51 76
REMARK SMILES IDX 44 77 45 78 49 79 52 80 46 81 47 82 50 83 48 84 74 85 75 86
REMARK SMILES IDX 83 87 76 88 77 89 81 90 84 91 78 92 79 93 82 94 80 95 59 96
REMARK SMILES IDX 60 97 68 98 61 99 62 100 66 101 69 102 63 103 64 104 67 105
REMARK SMILES IDX 65 106
REMARK H PARENT 5 14 11 20 89 59 57 70
REMARK Flexibility Score: inf
ROOT
ATOM      1  O   UNL A   1      31.025  26.916  26.641  1.00  0.00    -0.377 OA
ENDROOT
BRANCH   1   2
ATOM      2  C   UNL A   1      31.408  25.566  26.837  1.00  0.00     0.188 C 
BRANCH   2   3
ATOM      3  C   UNL A   1      30.454  24.472  26.318  1.00  0.00     0.188 C 
BRANCH   3   4
ATOM      4  O   UNL A   1      30.739  23.110  26.588  1.00  0.00    -0.376 OA
BRANCH   4   5
ATOM      5  C   UNL A   1      31.094  22.281  25.505  1.00  0.00     0.202 C 
BRANCH   5   6
ATOM      6  C   UNL A   1      32.334  21.375  25.632  1.00  0.00     0.261 C 
BRANCH   6   7
ATOM      7  O   UNL A   1      33.370  21.388  24.618  1.00  0.00    -0.463 OA
BRANCH   7   8
ATOM      8  C   UNL A   1      34.452  20.583  24.828  1.00  0.00     0.311 C 
ATOM      9  O   UNL A   1      34.444  19.375  24.628  1.00  0.00    -0.252 OA
BRANCH   8  10
ATOM     10  C   UNL A   1      35.595  21.325  25.522  1.00  0.00     0.134 C 
ATOM     11  N   UNL A   1      33.964  24.846  24.407  1.00  0.00    -0.328 N 
ATOM     12  C   UNL A   1      34.541  23.951  23.415  1.00  0.00     0.265 C 
ATOM     13  C   UNL A   1      34.175  24.476  25.799  1.00  0.00     0.265 C 
ATOM     14  H   UNL A   1      32.971  24.653  24.277  1.00  0.00     0.348 HD
ATOM     15  C   UNL A   1      35.857  23.245  23.714  1.00  0.00     0.091 C 
ATOM     16  C   UNL A   1      35.535  23.880  26.126  1.00  0.00     0.091 C 
ATOM     17  C   UNL A   1      36.035  22.785  25.165  1.00  0.00     0.064 C 
ATOM     18  N   UNL A   1      37.483  22.693  25.390  1.00  0.00    -0.349 N 
ATOM     19  C   UNL A   1      37.990  21.430  25.373  1.00  0.00     0.221 C 
ATOM     20  H   UNL A   1      38.045  23.487  25.544  1.00  0.00     0.164 HD
ATOM     21  C   UNL A   1      36.860  20.472  25.238  1.00  0.00     0.117 C 
ATOM     22  O   UNL A   1      39.182  21.146  25.412  1.00  0.00    -0.275 OA
BRANCH  11  23
ATOM     23  C   UNL A   1      34.004  26.289  24.111  1.00  0.00     0.339 C 
BRANCH  23  24
ATOM     24  C   UNL A   1      32.802  26.750  23.361  1.00  0.00     0.165 A 
ATOM     25  C   UNL A   1      33.714  28.953  22.481  1.00  0.00     0.152 C 
ATOM     26  N   UNL A   1      32.673  27.996  22.779  1.00  0.00    -0.326 N 
ATOM     27  C   UNL A   1      31.330  28.299  22.786  1.00  0.00     0.068 A 
ATOM     28  N   UNL A   1      31.639  26.130  23.393  1.00  0.00    -0.227 NA
ATOM     29  C   UNL A   1      30.716  27.106  23.158  1.00  0.00     0.089 A 
ATOM     30  C   UNL A   1      30.619  29.485  22.586  1.00  0.00     0.028 A 
ATOM     31  C   UNL A   1      29.332  27.064  23.346  1.00  0.00     0.030 A 
ATOM     32  C   UNL A   1      29.242  29.438  22.833  1.00  0.00     0.002 A 
ATOM     33  C   UNL A   1      28.608  28.251  23.207  1.00  0.00     0.002 A 
ENDBRANCH  23  24
ENDBRANCH  11  23
ENDBRANCH   8  10
ENDBRANCH   7   8
ENDBRANCH   6   7
ENDBRANCH   5   6
ENDBRANCH   4   5
ENDBRANCH   3   4
ENDBRANCH   2   3
ENDBRANCH   1   2
BRANCH   1  34
ATOM     34  C   UNL A   1      32.002  27.863  27.060  1.00  0.00     0.188 C 
BRANCH  34  35
ATOM     35  C   UNL A   1      31.777  29.245  26.451  1.00  0.00     0.188 C 
BRANCH  35  36
ATOM     36  O   UNL A   1      32.944  30.030  26.225  1.00  0.00    -0.376 OA
BRANCH  36  37
ATOM     37  C   UNL A   1      33.252  30.984  27.251  1.00  0.00     0.202 C 
BRANCH  37  38
ATOM     38  C   UNL A   1      32.495  32.325  27.268  1.00  0.00     0.261 C 
BRANCH  38  39
ATOM     39  O   UNL A   1      33.387  33.458  27.196  1.00  0.00    -0.460 OA
BRANCH  39  40
ATOM     40  C   UNL A   1      33.402  34.239  28.308  1.00  0.00     0.338 C 
ATOM     41  O   UNL A   1      32.528  35.013  28.662  1.00  0.00    -0.246 OA
BRANCH  40  42
ATOM     42  C   UNL A   1      34.485  33.808  29.227  1.00  0.00     0.060 A 
ATOM     43  C   UNL A   1      35.790  34.187  28.872  1.00  0.00     0.016 A 
ATOM     44  C   UNL A   1      34.262  33.074  30.393  1.00  0.00     0.016 A 
ATOM     45  C   UNL A   1      36.875  33.821  29.655  1.00  0.00     0.010 A 
ATOM     46  C   UNL A   1      35.363  32.641  31.147  1.00  0.00     0.010 A 
ATOM     47  C   UNL A   1      36.672  32.979  30.751  1.00  0.00    -0.014 A 
BRANCH  47  48
ATOM     48  C   UNL A   1      37.851  32.223  31.231  1.00  0.00     0.031 A 
ATOM     49  C   UNL A   1      38.330  32.515  32.630  1.00  0.00     0.074 A 
ATOM     50  C   UNL A   1      38.389  31.221  30.518  1.00  0.00     0.049 A 
ATOM     51  N   UNL A   1      39.287  31.954  33.321  1.00  0.00    -0.248 NA
ATOM     52  C   UNL A   1      37.614  33.581  33.352  1.00  0.00     0.031 C 
ATOM     53  C   UNL A   1      37.946  30.791  29.194  1.00  0.00     0.029 A 
ATOM     54  N   UNL A   1      39.424  30.372  30.822  1.00  0.00    -0.354 N 
ATOM     55  C   UNL A   1      39.280  32.593  34.555  1.00  0.00     0.074 A 
ATOM     56  C   UNL A   1      38.250  33.604  34.511  1.00  0.00     0.031 C 
ATOM     57  C   UNL A   1      38.716  29.764  28.792  1.00  0.00     0.029 A 
ATOM     58  C   UNL A   1      39.719  29.483  29.818  1.00  0.00     0.049 A 
ATOM     59  H   UNL A   1      39.908  30.397  31.679  1.00  0.00     0.167 HD
ATOM     60  C   UNL A   1      40.063  32.355  35.632  1.00  0.00     0.037 A 
ATOM     61  C   UNL A   1      40.704  28.567  29.740  1.00  0.00     0.037 A 
ATOM     62  C   UNL A   1      41.099  31.359  35.660  1.00  0.00     0.049 A 
ATOM     63  C   UNL A   1      41.636  28.393  30.914  1.00  0.00     0.074 A 
ATOM     64  C   UNL A   1      41.963  31.039  36.692  1.00  0.00     0.029 A 
ATOM     65  N   UNL A   1      41.419  30.528  34.595  1.00  0.00    -0.354 N 
ATOM     66  N   UNL A   1      41.624  28.994  32.081  1.00  0.00    -0.248 NA
ATOM     67  C   UNL A   1      42.717  27.408  30.763  1.00  0.00     0.031 C 
ATOM     68  C   UNL A   1      42.848  30.063  36.228  1.00  0.00     0.029 A 
ATOM     69  C   UNL A   1      42.491  29.719  34.933  1.00  0.00     0.049 A 
ATOM     70  H   UNL A   1      40.953  30.516  33.728  1.00  0.00     0.167 HD
ATOM     71  C   UNL A   1      42.669  28.441  32.810  1.00  0.00     0.074 A 
ATOM     72  C   UNL A   1      43.285  27.444  31.960  1.00  0.00     0.031 C 
ATOM     73  C   UNL A   1      43.083  28.729  34.070  1.00  0.00     0.037 A 
BRANCH  60  74
ATOM     74  C   UNL A   1      39.861  33.223  36.840  1.00  0.00     0.064 A 
ATOM     75  C   UNL A   1      40.633  34.372  37.068  1.00  0.00     0.173 A 
ATOM     76  C   UNL A   1      38.872  32.901  37.783  1.00  0.00     0.173 A 
ATOM     77  F   UNL A   1      41.608  34.713  36.211  1.00  0.00    -0.203 F 
ATOM     78  C   UNL A   1      40.442  35.150  38.209  1.00  0.00     0.198 A 
ATOM     79  C   UNL A   1      38.662  33.699  38.903  1.00  0.00     0.198 A 
ATOM     80  F   UNL A   1      38.108  31.811  37.616  1.00  0.00    -0.203 F 
ATOM     81  F   UNL A   1      41.230  36.210  38.434  1.00  0.00    -0.200 F 
ATOM     82  C   UNL A   1      39.452  34.817  39.121  1.00  0.00     0.200 A 
ATOM     83  F   UNL A   1      37.697  33.381  39.778  1.00  0.00    -0.200 F 
ATOM     84  F   UNL A   1      39.266  35.569  40.214  1.00  0.00    -0.200 F 
ENDBRANCH  60  74
BRANCH  61  85
ATOM     85  C   UNL A   1      40.879  27.761  28.500  1.00  0.00     0.064 A 
ATOM     86  C   UNL A   1      41.725  28.184  27.466  1.00  0.00     0.173 A 
ATOM     87  C   UNL A   1      40.177  26.560  28.313  1.00  0.00     0.173 A 
ATOM     88  F   UNL A   1      42.399  29.338  27.580  1.00  0.00    -0.203 F 
ATOM     89  C   UNL A   1      41.847  27.449  26.286  1.00  0.00     0.198 A 
ATOM     90  C   UNL A   1      40.324  25.809  27.149  1.00  0.00     0.198 A 
ATOM     91  F   UNL A   1      39.348  26.111  29.268  1.00  0.00    -0.203 F 
ATOM     92  F   UNL A   1      42.623  27.903  25.293  1.00  0.00    -0.200 F 
ATOM     93  C   UNL A   1      41.151  26.260  26.132  1.00  0.00     0.200 A 
ATOM     94  F   UNL A   1      39.658  24.655  27.010  1.00  0.00    -0.200 F 
ATOM     95  F   UNL A   1      41.271  25.552  25.001  1.00  0.00    -0.200 F 
ENDBRANCH  61  85
BRANCH  73  96
ATOM     96  C   UNL A   1      44.230  27.928  34.620  1.00  0.00     0.064 A 
ATOM     97  C   UNL A   1      44.030  26.721  35.304  1.00  0.00     0.173 A 
ATOM     98  C   UNL A   1      45.552  28.356  34.418  1.00  0.00     0.173 A 
ATOM     99  F   UNL A   1      42.786  26.271  35.532  1.00  0.00    -0.203 F 
ATOM    100  C   UNL A   1      45.108  25.988  35.794  1.00  0.00     0.198 A 
ATOM    101  C   UNL A   1      46.629  27.602  34.875  1.00  0.00     0.198 A 
ATOM    102  F   UNL A   1      45.802  29.497  33.759  1.00  0.00    -0.203 F 
ATOM    103  F   UNL A   1      44.890  24.865  36.493  1.00  0.00    -0.200 F 
ATOM    104  C   UNL A   1      46.405  26.424  35.572  1.00  0.00     0.200 A 
ATOM    105  F   UNL A   1      47.882  28.015  34.642  1.00  0.00    -0.200 F 
ATOM    106  F   UNL A   1      47.442  25.712  36.037  1.00  0.00    -0.200 F 
ENDBRANCH  73  96
ENDBRANCH  47  48
ENDBRANCH  40  42
ENDBRANCH  39  40
ENDBRANCH  38  39
ENDBRANCH  37  38
ENDBRANCH  36  37
ENDBRANCH  35  36
ENDBRANCH  34  35
ENDBRANCH   1  34
TORSDOF 22
ENDMDL
MODEL 2
REMARK VINA RESULT:     -10.8      0.691      6.872
REMARK SMILES Cn1c(C[NH+]2CCC3(CC2)NC(=O)C[C@@H]3C(=O)OCCOCCOCCOCCOC(=O)c2ccc(-c3c4nc(c(-c5c(F)c(F)c(F)c(F)c5F)c5ccc([nH]5)c(-c5c(F)c(F)c(F)c(F)c5F)c5nc(c(-c6c(F)c(F)c(F)c(F)c6F)c6ccc3[nH]6)C=C5)C=C4)cc2)nc2ccccc21
REMARK SMILES IDX 24 1 23 2 22 3 21 4 20 5 19 6 18 7 16 8 17 9 15 10 5 11 6 12
REMARK SMILES IDX 10 13 7 15 9 16 8 17 11 18 12 19 14 21 13 22 4 23 3 24 1 25
REMARK SMILES IDX 2 26 102 27 96 28 97 29 101 30 98 31 100 32 99 33 25 34
REMARK SMILES IDX 26 35 27 36 28 37 29 38 30 39 31 40 32 41 33 42 34 43 95 44
REMARK SMILES IDX 35 45 94 46 36 47 37 48 38 49 88 50 39 51 93 52 87 53 89 54
REMARK SMILES IDX 40 55 92 56 86 57 85 58 41 60 73 61 53 62 72 63 54 64 57 65
REMARK SMILES IDX 71 66 90 67 55 68 56 69 70 71 91 72 58 73 42 74 43 75 51 76
REMARK SMILES IDX 44 77 45 78 49 79 52 80 46 81 47 82 50 83 48 84 74 85 75 86
REMARK SMILES IDX 83 87 76 88 77 89 81 90 84 91 78 92 79 93 82 94 80 95 59 96
REMARK SMILES IDX 60 97 68 98 61 99 62 100 66 101 69 102 63 103 64 104 67 105
REMARK SMILES IDX 65 106
REMARK H PARENT 5 14 11 20 89 59 57 70
REMARK Flexibility Score: inf
ROOT
ATOM      1  O   UNL A   1      31.108  26.719  26.793  1.00  0.00    -0.377 OA
ENDROOT
BRANCH   1   2
ATOM      2  C   UNL A   1      31.549  25.373  26.851  1.00  0.00     0.188 C 
BRANCH   2   3
ATOM      3  C   UNL A   1      30.574  24.282  26.364  1.00  0.00     0.188 C 
BRANCH   3   4
ATOM      4  O   UNL A   1      30.897  22.917  26.560  1.00  0.00    -0.376 OA
BRANCH   4   5
ATOM      5  C   UNL A   1      31.183  22.135  25.423  1.00  0.00     0.202 C 
BRANCH   5   6
ATOM      6  C   UNL A   1      32.369  21.152  25.470  1.00  0.00     0.261 C 
BRANCH   6   7
ATOM      7  O   UNL A   1      33.490  21.297  24.563  1.00  0.00    -0.463 OA
BRANCH   7   8
ATOM      8  C   UNL A   1      34.585  20.518  24.802  1.00  0.00     0.311 C 
ATOM      9  O   UNL A   1      34.604  19.307  24.625  1.00  0.00    -0.252 OA
BRANCH   8  10
ATOM     10  C   UNL A   1      35.704  21.296  25.496  1.00  0.00     0.134 C 
ATOM     11  N   UNL A   1      34.011  24.763  24.306  1.00  0.00    -0.328 N 
ATOM     12  C   UNL A   1      34.618  23.864  23.334  1.00  0.00     0.265 C 
ATOM     13  C   UNL A   1      34.214  24.419  25.706  1.00  0.00     0.265 C 
ATOM     14  H   UNL A   1      33.023  24.546  24.169  1.00  0.00     0.348 HD
ATOM     15  C   UNL A   1      35.945  23.192  23.659  1.00  0.00     0.091 C 
ATOM     16  C   UNL A   1      35.583  23.859  26.057  1.00  0.00     0.091 C 
ATOM     17  C   UNL A   1      36.117  22.760  25.119  1.00  0.00     0.064 C 
ATOM     18  N   UNL A   1      37.564  22.703  25.361  1.00  0.00    -0.349 N 
ATOM     19  C   UNL A   1      38.098  21.450  25.370  1.00  0.00     0.221 C 
ATOM     20  H   UNL A   1      38.107  23.510  25.508  1.00  0.00     0.164 HD
ATOM     21  C   UNL A   1      36.990  20.466  25.239  1.00  0.00     0.117 C 
ATOM     22  O   UNL A   1      39.296  21.193  25.427  1.00  0.00    -0.275 OA
BRANCH  11  23
ATOM     23  C   UNL A   1      34.023  26.201  23.986  1.00  0.00     0.339 C 
BRANCH  23  24
ATOM     24  C   UNL A   1      32.761  26.651  23.334  1.00  0.00     0.165 A 
ATOM     25  C   UNL A   1      33.502  28.972  22.612  1.00  0.00     0.152 C 
ATOM     26  N   UNL A   1      32.533  27.931  22.870  1.00  0.00    -0.326 N 
ATOM     27  C   UNL A   1      31.176  28.150  22.964  1.00  0.00     0.068 A 
ATOM     28  N   UNL A   1      31.637  25.961  23.364  1.00  0.00    -0.227 NA
ATOM     29  C   UNL A   1      30.650  26.895  23.256  1.00  0.00     0.089 A 
ATOM     30  C   UNL A   1      30.391  29.304  22.900  1.00  0.00     0.028 A 
ATOM     31  C   UNL A   1      29.282  26.753  23.501  1.00  0.00     0.030 A 
ATOM     32  C   UNL A   1      29.033  29.152  23.203  1.00  0.00     0.002 A 
ATOM     33  C   UNL A   1      28.486  27.902  23.500  1.00  0.00     0.002 A 
ENDBRANCH  23  24
ENDBRANCH  11  23
ENDBRANCH   8  10
ENDBRANCH   7   8
ENDBRANCH   6   7
ENDBRANCH   5   6
ENDBRANCH   4   5
ENDBRANCH   3   4
ENDBRANCH   2   3
ENDBRANCH   1   2
BRANCH   1  34
ATOM     34  C   UNL A   1      32.102  27.671  27.158  1.00  0.00     0.188 C 
BRANCH  34  35
ATOM     35  C   UNL A   1      31.788  29.072  26.639  1.00  0.00     0.188 C 
BRANCH  35  36
ATOM     36  O   UNL A   1      32.877  29.786  26.061  1.00  0.00    -0.376 OA
BRANCH  36  37
ATOM     37  C   UNL A   1      33.518  30.735  26.924  1.00  0.00     0.202 C 
BRANCH  37  38
ATOM     38  C   UNL A   1      32.769  32.032  27.287  1.00  0.00     0.261 C 
BRANCH  38  39
ATOM     39  O   UNL A   1      33.626  33.192  27.233  1.00  0.00    -0.460 OA
BRANCH  39  40
ATOM     40  C   UNL A   1      33.462  34.067  28.260  1.00  0.00     0.338 C 
ATOM     41  O   UNL A   1      32.524  34.831  28.419  1.00  0.00    -0.246 OA
BRANCH  40  42
ATOM     42  C   UNL A   1      34.417  33.764  29.354  1.00  0.00     0.060 A 
ATOM     43  C   UNL A   1      35.763  34.082  29.111  1.00  0.00     0.016 A 
ATOM     44  C   UNL A   1      34.041  33.201  30.575  1.00  0.00     0.016 A 
ATOM     45  C   UNL A   1      36.739  33.824  30.062  1.00  0.00     0.010 A 
ATOM     46  C   UNL A   1      35.034  32.872  31.509  1.00  0.00     0.010 A 
ATOM     47  C   UNL A   1      36.388  33.145  31.232  1.00  0.00    -0.014 A 
BRANCH  47  48
ATOM     48  C   UNL A   1      37.485  32.458  31.952  1.00  0.00     0.031 A 
ATOM     49  C   UNL A   1      38.169  31.323  31.235  1.00  0.00     0.074 A 
ATOM     50  C   UNL A   1      37.951  32.906  33.129  1.00  0.00     0.049 A 
ATOM     51  N   UNL A   1      39.197  30.601  31.600  1.00  0.00    -0.248 NA
ATOM     52  C   UNL A   1      37.625  30.967  29.913  1.00  0.00     0.031 C 
ATOM     53  C   UNL A   1      37.426  34.052  33.866  1.00  0.00     0.029 A 
ATOM     54  N   UNL A   1      38.990  32.452  33.901  1.00  0.00    -0.354 N 
ATOM     55  C   UNL A   1      39.421  29.716  30.553  1.00  0.00     0.074 A 
ATOM     56  C   UNL A   1      38.410  29.966  29.552  1.00  0.00     0.031 C 
ATOM     57  C   UNL A   1      38.138  34.203  34.997  1.00  0.00     0.029 A 
ATOM     58  C   UNL A   1      39.151  33.151  35.072  1.00  0.00     0.049 A 
ATOM     59  H   UNL A   1      39.566  31.697  33.642  1.00  0.00     0.167 HD
ATOM     60  C   UNL A   1      40.390  28.779  30.434  1.00  0.00     0.037 A 
ATOM     61  C   UNL A   1      40.008  32.942  36.091  1.00  0.00     0.037 A 
ATOM     62  C   UNL A   1      41.382  28.525  31.443  1.00  0.00     0.049 A 
ATOM     63  C   UNL A   1      41.011  31.819  35.984  1.00  0.00     0.074 A 
ATOM     64  C   UNL A   1      42.402  27.591  31.435  1.00  0.00     0.029 A 
ATOM     65  N   UNL A   1      41.465  29.204  32.650  1.00  0.00    -0.354 N 
ATOM     66  N   UNL A   1      41.224  30.987  34.991  1.00  0.00    -0.248 NA
ATOM     67  C   UNL A   1      41.897  31.608  37.138  1.00  0.00     0.031 C 
ATOM     68  C   UNL A   1      43.060  27.660  32.666  1.00  0.00     0.029 A 
ATOM     69  C   UNL A   1      42.500  28.686  33.412  1.00  0.00     0.049 A 
ATOM     70  H   UNL A   1      40.877  29.943  32.925  1.00  0.00     0.167 HD
ATOM     71  C   UNL A   1      42.284  30.180  35.385  1.00  0.00     0.074 A 
ATOM     72  C   UNL A   1      42.680  30.632  36.703  1.00  0.00     0.031 C 
ATOM     73  C   UNL A   1      42.878  29.158  34.720  1.00  0.00     0.037 A 
BRANCH  60  74
ATOM     74  C   UNL A   1      40.383  27.930  29.195  1.00  0.00     0.064 A 
ATOM     75  C   UNL A   1      39.629  26.750  29.107  1.00  0.00     0.173 A 
ATOM     76  C   UNL A   1      41.141  28.308  28.076  1.00  0.00     0.173 A 
ATOM     77  F   UNL A   1      38.904  26.329  30.155  1.00  0.00    -0.203 F 
ATOM     78  C   UNL A   1      39.656  25.966  27.954  1.00  0.00     0.198 A 
ATOM     79  C   UNL A   1      41.139  27.541  26.915  1.00  0.00     0.198 A 
ATOM     80  F   UNL A   1      41.884  29.425  28.108  1.00  0.00    -0.203 F 
ATOM     81  F   UNL A   1      38.973  24.814  27.914  1.00  0.00    -0.200 F 
ATOM     82  C   UNL A   1      40.405  26.366  26.858  1.00  0.00     0.200 A 
ATOM     83  F   UNL A   1      41.856  27.934  25.854  1.00  0.00    -0.200 F 
ATOM     84  F   UNL A   1      40.426  25.614  25.749  1.00  0.00    -0.200 F 
ENDBRANCH  60  74
BRANCH  61  85
ATOM     85  C   UNL A   1      39.942  33.793  37.310  1.00  0.00     0.064 A 
ATOM     86  C   UNL A   1      40.748  34.930  37.453  1.00  0.00     0.173 A 
ATOM     87  C   UNL A   1      39.087  33.467  38.374  1.00  0.00     0.173 A 
ATOM     88  F   UNL A   1      41.604  35.273  36.478  1.00  0.00    -0.203 F 
ATOM     89  C   UNL A   1      40.718  35.696  38.619  1.00  0.00     0.198 A 
ATOM     90  C   UNL A   1      39.032  34.250  39.526  1.00  0.00     0.198 A 
ATOM     91  F   UNL A   1      38.297  32.385  38.294  1.00  0.00    -0.203 F 
ATOM     92  F   UNL A   1      41.538  36.747  38.750  1.00  0.00    -0.200 F 
ATOM     93  C   UNL A   1      39.855  35.359  39.651  1.00  0.00     0.200 A 
ATOM     94  F   UNL A   1      38.188  33.926  40.514  1.00  0.00    -0.200 F 
ATOM     95  F   UNL A   1      39.823  36.095  40.769  1.00  0.00    -0.200 F 
ENDBRANCH  61  85
BRANCH  73  96
ATOM     96  C   UNL A   1      44.045  28.484  35.387  1.00  0.00     0.064 A 
ATOM     97  C   UNL A   1      43.877  27.386  36.242  1.00  0.00     0.173 A 
ATOM     98  C   UNL A   1      45.355  28.918  35.127  1.00  0.00     0.173 A 
ATOM     99  F   UNL A   1      42.646  26.937  36.531  1.00  0.00    -0.203 F 
ATOM    100  C   UNL A   1      44.973  26.769  36.839  1.00  0.00     0.198 A 
ATOM    101  C   UNL A   1      46.450  28.275  35.694  1.00  0.00     0.198 A 
ATOM    102  F   UNL A   1      45.573  29.956  34.306  1.00  0.00    -0.203 F 
ATOM    103  F   UNL A   1      44.785  25.756  37.697  1.00  0.00    -0.200 F 
ATOM    104  C   UNL A   1      46.258  27.207  36.558  1.00  0.00     0.200 A 
ATOM    105  F   UNL A   1      47.692  28.688  35.406  1.00  0.00    -0.200 F 
ATOM    106  F   UNL A   1      47.313  26.606  37.126  1.00  0.00    -0.200 F 
ENDBRANCH  73  96
ENDBRANCH  47  48
ENDBRANCH  40  42
ENDBRANCH  39  40
ENDBRANCH  38  39
ENDBRANCH  37  38
ENDBRANCH  36  37
ENDBRANCH  35  36
ENDBRANCH  34  35
ENDBRANCH   1  34
TORSDOF 22
ENDMDL
MODEL 3
REMARK VINA RESULT:     -10.7      2.089      3.165
REMARK SMILES Cn1c(C[NH+]2CCC3(CC2)NC(=O)C[C@@H]3C(=O)OCCOCCOCCOCCOC(=O)c2ccc(-c3c4nc(c(-c5c(F)c(F)c(F)c(F)c5F)c5ccc([nH]5)c(-c5c(F)c(F)c(F)c(F)c5F)c5nc(c(-c6c(F)c(F)c(F)c(F)c6F)c6ccc3[nH]6)C=C5)C=C4)cc2)nc2ccccc21
REMARK SMILES IDX 24 1 23 2 22 3 21 4 20 5 19 6 18 7 16 8 17 9 15 10 5 11 6 12
REMARK SMILES IDX 10 13 7 15 9 16 8 17 11 18 12 19 14 21 13 22 4 23 3 24 1 25
REMARK SMILES IDX 2 26 102 27 96 28 97 29 101 30 98 31 100 32 99 33 25 34
REMARK SMILES IDX 26 35 27 36 28 37 29 38 30 39 31 40 32 41 33 42 34 43 95 44
REMARK SMILES IDX 35 45 94 46 36 47 37 48 38 49 88 50 39 51 93 52 87 53 89 54
REMARK SMILES IDX 40 55 92 56 86 57 85 58 41 60 73 61 53 62 72 63 54 64 57 65
REMARK SMILES IDX 71 66 90 67 55 68 56 69 70 71 91 72 58 73 42 74 43 75 51 76
REMARK SMILES IDX 44 77 45 78 49 79 52 80 46 81 47 82 50 83 48 84 74 85 75 86
REMARK SMILES IDX 83 87 76 88 77 89 81 90 84 91 78 92 79 93 82 94 80 95 59 96
REMARK SMILES IDX 60 97 68 98 61 99 62 100 66 101 69 102 63 103 64 104 67 105
REMARK SMILES IDX 65 106
REMARK H PARENT 5 14 11 20 89 59 57 70
REMARK Flexibility Score: inf
ROOT
ATOM      1  O   UNL A   1      31.054  26.320  26.886  1.00  0.00    -0.377 OA
ENDROOT
BRANCH   1   2
ATOM      2  C   UNL A   1      31.548  24.998  26.757  1.00  0.00     0.188 C 
BRANCH   2   3
ATOM      3  C   UNL A   1      30.555  23.908  26.306  1.00  0.00     0.188 C 
BRANCH   3   4
ATOM      4  O   UNL A   1      30.915  22.543  26.424  1.00  0.00    -0.376 OA
BRANCH   4   5
ATOM      5  C   UNL A   1      31.495  21.912  25.304  1.00  0.00     0.202 C 
BRANCH   5   6
ATOM      6  C   UNL A   1      32.762  21.058  25.500  1.00  0.00     0.261 C 
BRANCH   6   7
ATOM      7  O   UNL A   1      33.834  21.083  24.525  1.00  0.00    -0.463 OA
BRANCH   7   8
ATOM      8  C   UNL A   1      34.951  20.354  24.812  1.00  0.00     0.311 C 
ATOM      9  O   UNL A   1      35.023  19.141  24.664  1.00  0.00    -0.252 OA
BRANCH   8  10
ATOM     10  C   UNL A   1      36.018  21.191  25.520  1.00  0.00     0.134 C 
ATOM     11  N   UNL A   1      34.232  24.560  24.193  1.00  0.00    -0.328 N 
ATOM     12  C   UNL A   1      34.902  23.663  23.263  1.00  0.00     0.265 C 
ATOM     13  C   UNL A   1      34.405  24.259  25.606  1.00  0.00     0.265 C 
ATOM     14  H   UNL A   1      33.258  24.302  24.032  1.00  0.00     0.348 HD
ATOM     15  C   UNL A   1      36.243  23.050  23.644  1.00  0.00     0.091 C 
ATOM     16  C   UNL A   1      35.782  23.760  26.013  1.00  0.00     0.091 C 
ATOM     17  C   UNL A   1      36.386  22.660  25.119  1.00  0.00     0.064 C 
ATOM     18  N   UNL A   1      37.826  22.665  25.406  1.00  0.00    -0.349 N 
ATOM     19  C   UNL A   1      38.407  21.434  25.462  1.00  0.00     0.221 C 
ATOM     20  H   UNL A   1      38.334  23.496  25.548  1.00  0.00     0.164 HD
ATOM     21  C   UNL A   1      37.342  20.405  25.322  1.00  0.00     0.117 C 
ATOM     22  O   UNL A   1      39.611  21.225  25.561  1.00  0.00    -0.275 OA
BRANCH  11  23
ATOM     23  C   UNL A   1      34.199  25.990  23.838  1.00  0.00     0.339 C 
BRANCH  23  24
ATOM     24  C   UNL A   1      32.910  26.392  23.210  1.00  0.00     0.165 A 
ATOM     25  C   UNL A   1      33.615  28.651  22.285  1.00  0.00     0.152 C 
ATOM     26  N   UNL A   1      32.660  27.634  22.662  1.00  0.00    -0.326 N 
ATOM     27  C   UNL A   1      31.308  27.863  22.798  1.00  0.00     0.068 A 
ATOM     28  N   UNL A   1      31.789  25.708  23.340  1.00  0.00    -0.227 NA
ATOM     29  C   UNL A   1      30.797  26.634  23.206  1.00  0.00     0.089 A 
ATOM     30  C   UNL A   1      30.519  29.010  22.683  1.00  0.00     0.028 A 
ATOM     31  C   UNL A   1      29.441  26.513  23.520  1.00  0.00     0.030 A 
ATOM     32  C   UNL A   1      29.176  28.883  23.055  1.00  0.00     0.002 A 
ATOM     33  C   UNL A   1      28.644  27.659  23.468  1.00  0.00     0.002 A 
ENDBRANCH  23  24
ENDBRANCH  11  23
ENDBRANCH   8  10
ENDBRANCH   7   8
ENDBRANCH   6   7
ENDBRANCH   5   6
ENDBRANCH   4   5
ENDBRANCH   3   4
ENDBRANCH   2   3
ENDBRANCH   1   2
BRANCH   1  34
ATOM     34  C   UNL A   1      32.047  27.328  26.732  1.00  0.00     0.188 C 
BRANCH  34  35
ATOM     35  C   UNL A   1      31.456  28.675  26.323  1.00  0.00     0.188 C 
BRANCH  35  36
ATOM     36  O   UNL A   1      32.359  29.605  25.733  1.00  0.00    -0.376 OA
BRANCH  36  37
ATOM     37  C   UNL A   1      32.625  30.782  26.509  1.00  0.00     0.202 C 
BRANCH  37  38
ATOM     38  C   UNL A   1      33.666  30.704  27.641  1.00  0.00     0.261 C 
BRANCH  38  39
ATOM     39  O   UNL A   1      34.144  32.008  28.036  1.00  0.00    -0.460 OA
BRANCH  39  40
ATOM     40  C   UNL A   1      34.746  32.047  29.254  1.00  0.00     0.338 C 
ATOM     41  O   UNL A   1      34.252  32.450  30.294  1.00  0.00    -0.246 OA
BRANCH  40  42
ATOM     42  C   UNL A   1      35.991  31.240  29.240  1.00  0.00     0.060 A 
ATOM     43  C   UNL A   1      36.100  30.245  30.225  1.00  0.00     0.016 A 
ATOM     44  C   UNL A   1      37.019  31.422  28.312  1.00  0.00     0.016 A 
ATOM     45  C   UNL A   1      37.231  29.447  30.308  1.00  0.00     0.010 A 
ATOM     46  C   UNL A   1      38.193  30.666  28.440  1.00  0.00     0.010 A 
ATOM     47  C   UNL A   1      38.314  29.709  29.466  1.00  0.00    -0.014 A 
BRANCH  47  48
ATOM     48  C   UNL A   1      39.634  29.205  29.910  1.00  0.00     0.031 A 
ATOM     49  C   UNL A   1      40.272  29.899  31.085  1.00  0.00     0.074 A 
ATOM     50  C   UNL A   1      40.180  28.093  29.391  1.00  0.00     0.049 A 
ATOM     51  N   UNL A   1      41.381  29.621  31.721  1.00  0.00    -0.248 NA
ATOM     52  C   UNL A   1      39.545  31.060  31.628  1.00  0.00     0.031 C 
ATOM     53  C   UNL A   1      39.604  27.290  28.316  1.00  0.00     0.029 A 
ATOM     54  N   UNL A   1      41.343  27.442  29.717  1.00  0.00    -0.354 N 
ATOM     55  C   UNL A   1      41.477  30.566  32.735  1.00  0.00     0.074 A 
ATOM     56  C   UNL A   1      40.336  31.443  32.616  1.00  0.00     0.031 C 
ATOM     57  C   UNL A   1      40.427  26.257  28.059  1.00  0.00     0.029 A 
ATOM     58  C   UNL A   1      41.595  26.342  28.934  1.00  0.00     0.049 A 
ATOM     59  H   UNL A   1      41.941  27.735  30.442  1.00  0.00     0.167 HD
ATOM     60  C   UNL A   1      42.431  30.688  33.685  1.00  0.00     0.037 A 
ATOM     61  C   UNL A   1      42.661  25.519  28.921  1.00  0.00     0.037 A 
ATOM     62  C   UNL A   1      43.574  29.821  33.785  1.00  0.00     0.049 A 
ATOM     63  C   UNL A   1      43.769  25.741  29.922  1.00  0.00     0.074 A 
ATOM     64  C   UNL A   1      44.610  29.860  34.699  1.00  0.00     0.029 A 
ATOM     65  N   UNL A   1      43.833  28.763  32.925  1.00  0.00    -0.354 N 
ATOM     66  N   UNL A   1      43.854  26.631  30.883  1.00  0.00    -0.248 NA
ATOM     67  C   UNL A   1      44.928  24.841  29.840  1.00  0.00     0.031 C 
ATOM     68  C   UNL A   1      45.531  28.868  34.351  1.00  0.00     0.029 A 
ATOM     69  C   UNL A   1      45.034  28.162  33.266  1.00  0.00     0.049 A 
ATOM     70  H   UNL A   1      43.251  28.482  32.184  1.00  0.00     0.167 HD
ATOM     71  C   UNL A   1      45.054  26.378  31.537  1.00  0.00     0.074 A 
ATOM     72  C   UNL A   1      45.656  25.241  30.872  1.00  0.00     0.031 C 
ATOM     73  C   UNL A   1      45.609  27.026  32.592  1.00  0.00     0.037 A 
BRANCH  60  74
ATOM     74  C   UNL A   1      42.303  31.831  34.652  1.00  0.00     0.064 A 
ATOM     75  C   UNL A   1      42.921  33.069  34.424  1.00  0.00     0.173 A 
ATOM     76  C   UNL A   1      41.543  31.683  35.822  1.00  0.00     0.173 A 
ATOM     77  F   UNL A   1      43.679  33.258  33.333  1.00  0.00    -0.203 F 
ATOM     78  C   UNL A   1      42.807  34.108  35.347  1.00  0.00     0.198 A 
ATOM     79  C   UNL A   1      41.403  32.733  36.724  1.00  0.00     0.198 A 
ATOM     80  F   UNL A   1      40.934  30.518  36.091  1.00  0.00    -0.203 F 
ATOM     81  F   UNL A   1      43.453  35.263  35.137  1.00  0.00    -0.200 F 
ATOM     82  C   UNL A   1      42.042  33.941  36.492  1.00  0.00     0.200 A 
ATOM     83  F   UNL A   1      40.656  32.572  37.825  1.00  0.00    -0.200 F 
ATOM     84  F   UNL A   1      41.929  34.942  37.376  1.00  0.00    -0.200 F 
ENDBRANCH  60  74
BRANCH  61  85
ATOM     85  C   UNL A   1      42.750  24.426  27.914  1.00  0.00     0.064 A 
ATOM     86  C   UNL A   1      42.444  23.099  28.245  1.00  0.00     0.173 A 
ATOM     87  C   UNL A   1      43.174  24.685  26.601  1.00  0.00     0.173 A 
ATOM     88  F   UNL A   1      42.060  22.791  29.493  1.00  0.00    -0.203 F 
ATOM     89  C   UNL A   1      42.577  22.072  27.311  1.00  0.00     0.198 A 
ATOM     90  C   UNL A   1      43.275  23.664  25.658  1.00  0.00     0.198 A 
ATOM     91  F   UNL A   1      43.486  25.936  26.230  1.00  0.00    -0.203 F 
ATOM     92  F   UNL A   1      42.328  20.805  27.669  1.00  0.00    -0.200 F 
ATOM     93  C   UNL A   1      42.985  22.357  26.016  1.00  0.00     0.200 A 
ATOM     94  F   UNL A   1      43.659  23.947  24.406  1.00  0.00    -0.200 F 
ATOM     95  F   UNL A   1      43.110  21.371  25.118  1.00  0.00    -0.200 F 
ENDBRANCH  61  85
BRANCH  73  96
ATOM     96  C   UNL A   1      46.913  26.496  33.120  1.00  0.00     0.064 A 
ATOM     97  C   UNL A   1      46.966  25.412  34.008  1.00  0.00     0.173 A 
ATOM     98  C   UNL A   1      48.128  27.053  32.692  1.00  0.00     0.173 A 
ATOM     99  F   UNL A   1      45.834  24.849  34.456  1.00  0.00    -0.203 F 
ATOM    100  C   UNL A   1      48.186  24.929  34.475  1.00  0.00     0.198 A 
ATOM    101  C   UNL A   1      49.346  26.543  33.130  1.00  0.00     0.198 A 
ATOM    102  F   UNL A   1      48.135  28.083  31.832  1.00  0.00    -0.203 F 
ATOM    103  F   UNL A   1      48.211  23.929  35.367  1.00  0.00    -0.200 F 
ATOM    104  C   UNL A   1      49.374  25.488  34.029  1.00  0.00     0.200 A 
ATOM    105  F   UNL A   1      50.493  27.072  32.683  1.00  0.00    -0.200 F 
ATOM    106  F   UNL A   1      50.547  25.015  34.472  1.00  0.00    -0.200 F 
ENDBRANCH  73  96
ENDBRANCH  47  48
ENDBRANCH  40  42
ENDBRANCH  39  40
ENDBRANCH  38  39
ENDBRANCH  37  38
ENDBRANCH  36  37
ENDBRANCH  35  36
ENDBRANCH  34  35
ENDBRANCH   1  34
TORSDOF 22
ENDMDL
