MODEL 1
REMARK VINA RESULT:     -10.9      0.000      0.000
REMARK SMILES C[C@H]1SCCC[C@]1(Nc1ccc(Cl)cc1)C(=O)OCCOCCOCCOCCOC(=O)c1ccc(-c2c3nc(c(-c4c(F)c(F)c(F)c(F)c4F)c4ccc([nH]4)c(-c4c(F)c(F)c(F)c(F)c4F)c4nc(c(-c5c(F)c(F)c(F)c(F)c5F)c5ccc2[nH]5)C=C4)C=C3)cc1
REMARK SMILES IDX 24 1 23 2 22 3 21 4 20 5 19 6 18 7 16 8 17 9 7 10 1 11 2 12
REMARK SMILES IDX 3 13 4 14 6 15 5 16 8 17 9 19 10 20 15 21 11 22 14 23 12 24
REMARK SMILES IDX 13 25 25 26 26 27 27 28 28 29 29 30 30 31 31 32 32 33 33 34
REMARK SMILES IDX 34 35 95 36 35 37 94 38 36 39 37 40 38 41 88 42 39 43 93 44
REMARK SMILES IDX 87 45 89 46 40 47 92 48 86 49 85 50 41 52 73 53 53 54 72 55
REMARK SMILES IDX 54 56 57 57 71 58 90 59 55 60 56 61 70 63 91 64 58 65 42 66
REMARK SMILES IDX 43 67 51 68 44 69 45 70 49 71 52 72 46 73 47 74 50 75 48 76
REMARK SMILES IDX 74 77 75 78 83 79 76 80 77 81 81 82 84 83 78 84 79 85 82 86
REMARK SMILES IDX 80 87 59 88 60 89 68 90 61 91 62 92 66 93 69 94 63 95 64 96
REMARK SMILES IDX 67 97 65 98
REMARK H PARENT 8 18 89 51 57 62
REMARK Flexibility Score: inf
ROOT
ATOM      1  O   UNL A   1      34.254  33.801  29.039  1.00  0.00    -0.377 OA
ENDROOT
BRANCH   1   2
ATOM      2  C   UNL A   1      34.335  32.972  27.898  1.00  0.00     0.188 C 
BRANCH   2   3
ATOM      3  C   UNL A   1      34.178  31.461  28.141  1.00  0.00     0.188 C 
BRANCH   3   4
ATOM      4  O   UNL A   1      33.814  30.558  27.103  1.00  0.00    -0.376 OA
BRANCH   4   5
ATOM      5  C   UNL A   1      34.142  29.182  27.155  1.00  0.00     0.202 C 
BRANCH   5   6
ATOM      6  C   UNL A   1      33.022  28.128  27.083  1.00  0.00     0.261 C 
BRANCH   6   7
ATOM      7  O   UNL A   1      33.090  27.139  26.041  1.00  0.00    -0.461 OA
BRANCH   7   8
ATOM      8  C   UNL A   1      32.271  26.072  26.223  1.00  0.00     0.333 C 
ATOM      9  O   UNL A   1      31.335  26.090  27.022  1.00  0.00    -0.249 OA
BRANCH   8  10
ATOM     10  C   UNL A   1      32.679  24.776  25.414  1.00  0.00     0.147 C 
ATOM     11  C   UNL A   1      31.928  22.881  27.143  1.00  0.00     0.022 C 
ATOM     12  C   UNL A   1      33.013  23.482  26.242  1.00  0.00     0.080 C 
ATOM     13  S   UNL A   1      33.642  22.111  25.161  1.00  0.00    -0.156 SA
ATOM     14  C   UNL A   1      35.128  22.951  24.561  1.00  0.00     0.070 C 
ATOM     15  C   UNL A   1      34.004  25.242  24.716  1.00  0.00     0.042 C 
ATOM     16  C   UNL A   1      34.757  24.238  23.851  1.00  0.00     0.014 C 
BRANCH  10  17
ATOM     17  N   UNL A   1      31.662  24.446  24.357  1.00  0.00    -0.369 N 
ATOM     18  H   UNL A   1      31.435  23.509  24.153  1.00  0.00     0.161 HD
BRANCH  17  19
ATOM     19  C   UNL A   1      31.048  25.495  23.672  1.00  0.00     0.035 A 
ATOM     20  C   UNL A   1      31.773  26.249  22.740  1.00  0.00     0.027 A 
ATOM     21  C   UNL A   1      29.786  25.954  24.064  1.00  0.00     0.027 A 
ATOM     22  C   UNL A   1      31.295  27.476  22.273  1.00  0.00     0.022 A 
ATOM     23  C   UNL A   1      29.294  27.174  23.590  1.00  0.00     0.022 A 
ATOM     24  C   UNL A   1      30.061  27.941  22.716  1.00  0.00     0.041 A 
ATOM     25  Cl  UNL A   1      29.508  29.493  22.223  1.00  0.00    -0.084 Cl
ENDBRANCH  17  19
ENDBRANCH  10  17
ENDBRANCH   8  10
ENDBRANCH   7   8
ENDBRANCH   6   7
ENDBRANCH   5   6
ENDBRANCH   4   5
ENDBRANCH   3   4
ENDBRANCH   2   3
ENDBRANCH   1   2
BRANCH   1  26
ATOM     26  C   UNL A   1      33.294  34.840  29.001  1.00  0.00     0.188 C 
BRANCH  26  27
ATOM     27  C   UNL A   1      33.181  35.728  30.251  1.00  0.00     0.188 C 
BRANCH  27  28
ATOM     28  O   UNL A   1      32.881  34.999  31.434  1.00  0.00    -0.376 OA
BRANCH  28  29
ATOM     29  C   UNL A   1      33.885  34.800  32.414  1.00  0.00     0.202 C 
BRANCH  29  30
ATOM     30  C   UNL A   1      34.033  33.393  33.018  1.00  0.00     0.261 C 
BRANCH  30  31
ATOM     31  O   UNL A   1      35.015  32.533  32.420  1.00  0.00    -0.460 OA
BRANCH  31  32
ATOM     32  C   UNL A   1      36.126  32.261  33.139  1.00  0.00     0.338 C 
ATOM     33  O   UNL A   1      36.306  32.475  34.319  1.00  0.00    -0.246 OA
BRANCH  32  34
ATOM     34  C   UNL A   1      37.028  31.445  32.293  1.00  0.00     0.060 A 
ATOM     35  C   UNL A   1      38.022  30.685  32.925  1.00  0.00     0.016 A 
ATOM     36  C   UNL A   1      36.904  31.426  30.902  1.00  0.00     0.016 A 
ATOM     37  C   UNL A   1      38.931  29.951  32.166  1.00  0.00     0.010 A 
ATOM     38  C   UNL A   1      37.835  30.714  30.138  1.00  0.00     0.010 A 
ATOM     39  C   UNL A   1      38.880  30.015  30.769  1.00  0.00    -0.014 A 
BRANCH  39  40
ATOM     40  C   UNL A   1      40.067  29.572  29.997  1.00  0.00     0.031 A 
ATOM     41  C   UNL A   1      41.191  30.555  29.810  1.00  0.00     0.074 A 
ATOM     42  C   UNL A   1      40.183  28.313  29.541  1.00  0.00     0.049 A 
ATOM     43  N   UNL A   1      42.336  30.408  29.193  1.00  0.00    -0.248 NA
ATOM     44  C   UNL A   1      40.997  31.888  30.404  1.00  0.00     0.031 C 
ATOM     45  C   UNL A   1      39.188  27.258  29.710  1.00  0.00     0.029 A 
ATOM     46  N   UNL A   1      41.202  27.713  28.845  1.00  0.00    -0.354 N 
ATOM     47  C   UNL A   1      42.992  31.626  29.324  1.00  0.00     0.074 A 
ATOM     48  C   UNL A   1      42.107  32.513  30.043  1.00  0.00     0.031 C 
ATOM     49  C   UNL A   1      39.644  26.136  29.124  1.00  0.00     0.029 A 
ATOM     50  C   UNL A   1      40.945  26.405  28.516  1.00  0.00     0.049 A 
ATOM     51  H   UNL A   1      42.036  28.175  28.603  1.00  0.00     0.167 HD
ATOM     52  C   UNL A   1      44.229  31.970  28.893  1.00  0.00     0.037 A 
ATOM     53  C   UNL A   1      41.675  25.535  27.789  1.00  0.00     0.037 A 
ATOM     54  C   UNL A   1      45.106  31.086  28.174  1.00  0.00     0.049 A 
ATOM     55  C   UNL A   1      43.015  25.971  27.246  1.00  0.00     0.074 A 
ATOM     56  C   UNL A   1      46.383  31.334  27.701  1.00  0.00     0.029 A 
ATOM     57  N   UNL A   1      44.791  29.784  27.814  1.00  0.00    -0.354 N 
ATOM     58  N   UNL A   1      43.640  27.114  27.393  1.00  0.00    -0.248 NA
ATOM     59  C   UNL A   1      43.753  24.987  26.441  1.00  0.00     0.031 C 
ATOM     60  C   UNL A   1      46.815  30.203  27.000  1.00  0.00     0.029 A 
ATOM     61  C   UNL A   1      45.836  29.225  27.097  1.00  0.00     0.049 A 
ATOM     62  H   UNL A   1      43.949  29.324  28.036  1.00  0.00     0.167 HD
ATOM     63  C   UNL A   1      44.854  26.978  26.729  1.00  0.00     0.074 A 
ATOM     64  C   UNL A   1      44.884  25.633  26.195  1.00  0.00     0.031 C 
ATOM     65  C   UNL A   1      45.852  27.882  26.574  1.00  0.00     0.037 A 
BRANCH  52  66
ATOM     66  C   UNL A   1      44.687  33.376  29.158  1.00  0.00     0.064 A 
ATOM     67  C   UNL A   1      45.351  33.730  30.342  1.00  0.00     0.173 A 
ATOM     68  C   UNL A   1      44.478  34.379  28.200  1.00  0.00     0.173 A 
ATOM     69  F   UNL A   1      45.560  32.813  31.300  1.00  0.00    -0.203 F 
ATOM     70  C   UNL A   1      45.761  35.041  30.569  1.00  0.00     0.198 A 
ATOM     71  C   UNL A   1      44.920  35.682  28.415  1.00  0.00     0.198 A 
ATOM     72  F   UNL A   1      43.848  34.096  27.050  1.00  0.00    -0.203 F 
ATOM     73  F   UNL A   1      46.344  35.367  31.732  1.00  0.00    -0.200 F 
ATOM     74  C   UNL A   1      45.553  36.014  29.603  1.00  0.00     0.200 A 
ATOM     75  F   UNL A   1      44.728  36.617  27.475  1.00  0.00    -0.200 F 
ATOM     76  F   UNL A   1      45.955  37.273  29.820  1.00  0.00    -0.200 F 
ENDBRANCH  52  66
BRANCH  53  77
ATOM     77  C   UNL A   1      41.154  24.169  27.514  1.00  0.00     0.064 A 
ATOM     78  C   UNL A   1      41.750  23.035  28.083  1.00  0.00     0.173 A 
ATOM     79  C   UNL A   1      40.069  23.968  26.648  1.00  0.00     0.173 A 
ATOM     80  F   UNL A   1      42.809  23.171  28.896  1.00  0.00    -0.203 F 
ATOM     81  C   UNL A   1      41.297  21.752  27.778  1.00  0.00     0.198 A 
ATOM     82  C   UNL A   1      39.596  22.687  26.369  1.00  0.00     0.198 A 
ATOM     83  F   UNL A   1      39.465  25.017  26.072  1.00  0.00    -0.203 F 
ATOM     84  F   UNL A   1      41.923  20.684  28.290  1.00  0.00    -0.200 F 
ATOM     85  C   UNL A   1      40.217  21.581  26.925  1.00  0.00     0.200 A 
ATOM     86  F   UNL A   1      38.544  22.527  25.555  1.00  0.00    -0.200 F 
ATOM     87  F   UNL A   1      39.782  20.347  26.633  1.00  0.00    -0.200 F 
ENDBRANCH  53  77
BRANCH  65  88
ATOM     88  C   UNL A   1      47.081  27.436  25.830  1.00  0.00     0.064 A 
ATOM     89  C   UNL A   1      47.224  27.632  24.448  1.00  0.00     0.173 A 
ATOM     90  C   UNL A   1      48.145  26.828  26.517  1.00  0.00     0.173 A 
ATOM     91  F   UNL A   1      46.233  28.199  23.741  1.00  0.00    -0.203 F 
ATOM     92  C   UNL A   1      48.366  27.203  23.776  1.00  0.00     0.198 A 
ATOM     93  C   UNL A   1      49.301  26.436  25.849  1.00  0.00     0.198 A 
ATOM     94  F   UNL A   1      48.068  26.626  27.841  1.00  0.00    -0.203 F 
ATOM     95  F   UNL A   1      48.451  27.346  22.446  1.00  0.00    -0.200 F 
ATOM     96  C   UNL A   1      49.406  26.613  24.477  1.00  0.00     0.200 A 
ATOM     97  F   UNL A   1      50.313  25.883  26.531  1.00  0.00    -0.200 F 
ATOM     98  F   UNL A   1      50.507  26.205  23.831  1.00  0.00    -0.200 F 
ENDBRANCH  65  88
ENDBRANCH  39  40
ENDBRANCH  32  34
ENDBRANCH  31  32
ENDBRANCH  30  31
ENDBRANCH  29  30
ENDBRANCH  28  29
ENDBRANCH  27  28
ENDBRANCH  26  27
ENDBRANCH   1  26
TORSDOF 22
ENDMDL
MODEL 2
REMARK VINA RESULT:     -10.7      1.469      2.820
REMARK SMILES C[C@H]1SCCC[C@]1(Nc1ccc(Cl)cc1)C(=O)OCCOCCOCCOCCOC(=O)c1ccc(-c2c3nc(c(-c4c(F)c(F)c(F)c(F)c4F)c4ccc([nH]4)c(-c4c(F)c(F)c(F)c(F)c4F)c4nc(c(-c5c(F)c(F)c(F)c(F)c5F)c5ccc2[nH]5)C=C4)C=C3)cc1
REMARK SMILES IDX 24 1 23 2 22 3 21 4 20 5 19 6 18 7 16 8 17 9 7 10 1 11 2 12
REMARK SMILES IDX 3 13 4 14 6 15 5 16 8 17 9 19 10 20 15 21 11 22 14 23 12 24
REMARK SMILES IDX 13 25 25 26 26 27 27 28 28 29 29 30 30 31 31 32 32 33 33 34
REMARK SMILES IDX 34 35 95 36 35 37 94 38 36 39 37 40 38 41 88 42 39 43 93 44
REMARK SMILES IDX 87 45 89 46 40 47 92 48 86 49 85 50 41 52 73 53 53 54 72 55
REMARK SMILES IDX 54 56 57 57 71 58 90 59 55 60 56 61 70 63 91 64 58 65 42 66
REMARK SMILES IDX 43 67 51 68 44 69 45 70 49 71 52 72 46 73 47 74 50 75 48 76
REMARK SMILES IDX 74 77 75 78 83 79 76 80 77 81 81 82 84 83 78 84 79 85 82 86
REMARK SMILES IDX 80 87 59 88 60 89 68 90 61 91 62 92 66 93 69 94 63 95 64 96
REMARK SMILES IDX 67 97 65 98
REMARK H PARENT 8 18 89 51 57 62
REMARK Flexibility Score: inf
ROOT
ATOM      1  O   UNL A   1      34.461  33.833  29.360  1.00  0.00    -0.377 OA
ENDROOT
BRANCH   1   2
ATOM      2  C   UNL A   1      34.686  33.061  28.198  1.00  0.00     0.188 C 
BRANCH   2   3
ATOM      3  C   UNL A   1      34.653  31.534  28.378  1.00  0.00     0.188 C 
BRANCH   3   4
ATOM      4  O   UNL A   1      34.930  30.636  27.310  1.00  0.00    -0.376 OA
BRANCH   4   5
ATOM      5  C   UNL A   1      34.777  29.235  27.446  1.00  0.00     0.202 C 
BRANCH   5   6
ATOM      6  C   UNL A   1      33.438  28.574  27.070  1.00  0.00     0.261 C 
BRANCH   6   7
ATOM      7  O   UNL A   1      33.476  27.374  26.277  1.00  0.00    -0.461 OA
BRANCH   7   8
ATOM      8  C   UNL A   1      32.280  26.745  26.150  1.00  0.00     0.333 C 
ATOM      9  O   UNL A   1      31.805  26.049  27.047  1.00  0.00    -0.249 OA
BRANCH   8  10
ATOM     10  C   UNL A   1      31.602  26.889  24.729  1.00  0.00     0.147 C 
ATOM     11  C   UNL A   1      32.855  29.070  23.824  1.00  0.00     0.022 C 
ATOM     12  C   UNL A   1      31.541  28.329  24.099  1.00  0.00     0.080 C 
ATOM     13  S   UNL A   1      30.563  28.355  22.524  1.00  0.00    -0.156 SA
ATOM     14  C   UNL A   1      28.977  27.840  23.226  1.00  0.00     0.070 C 
ATOM     15  C   UNL A   1      30.129  26.449  25.035  1.00  0.00     0.042 C 
ATOM     16  C   UNL A   1      29.112  26.489  23.901  1.00  0.00     0.014 C 
BRANCH  10  17
ATOM     17  N   UNL A   1      32.200  25.932  23.736  1.00  0.00    -0.369 N 
ATOM     18  H   UNL A   1      32.055  26.054  22.769  1.00  0.00     0.161 HD
BRANCH  17  19
ATOM     19  C   UNL A   1      32.965  24.868  24.214  1.00  0.00     0.035 A 
ATOM     20  C   UNL A   1      34.365  24.935  24.186  1.00  0.00     0.027 A 
ATOM     21  C   UNL A   1      32.363  23.641  24.510  1.00  0.00     0.027 A 
ATOM     22  C   UNL A   1      35.147  23.792  24.363  1.00  0.00     0.022 A 
ATOM     23  C   UNL A   1      33.141  22.494  24.703  1.00  0.00     0.022 A 
ATOM     24  C   UNL A   1      34.528  22.571  24.604  1.00  0.00     0.041 A 
ATOM     25  Cl  UNL A   1      35.478  21.142  24.727  1.00  0.00    -0.084 Cl
ENDBRANCH  17  19
ENDBRANCH  10  17
ENDBRANCH   8  10
ENDBRANCH   7   8
ENDBRANCH   6   7
ENDBRANCH   5   6
ENDBRANCH   4   5
ENDBRANCH   3   4
ENDBRANCH   2   3
ENDBRANCH   1   2
BRANCH   1  26
ATOM     26  C   UNL A   1      33.377  34.743  29.317  1.00  0.00     0.188 C 
BRANCH  26  27
ATOM     27  C   UNL A   1      33.198  35.668  30.531  1.00  0.00     0.188 C 
BRANCH  27  28
ATOM     28  O   UNL A   1      32.809  34.980  31.712  1.00  0.00    -0.376 OA
BRANCH  28  29
ATOM     29  C   UNL A   1      33.734  34.821  32.774  1.00  0.00     0.202 C 
BRANCH  29  30
ATOM     30  C   UNL A   1      34.102  33.389  33.200  1.00  0.00     0.261 C 
BRANCH  30  31
ATOM     31  O   UNL A   1      35.198  32.770  32.510  1.00  0.00    -0.460 OA
BRANCH  31  32
ATOM     32  C   UNL A   1      36.251  32.364  33.253  1.00  0.00     0.338 C 
ATOM     33  O   UNL A   1      36.386  32.468  34.453  1.00  0.00    -0.246 OA
BRANCH  32  34
ATOM     34  C   UNL A   1      37.140  31.559  32.381  1.00  0.00     0.060 A 
ATOM     35  C   UNL A   1      38.100  30.740  32.989  1.00  0.00     0.016 A 
ATOM     36  C   UNL A   1      37.034  31.608  30.989  1.00  0.00     0.016 A 
ATOM     37  C   UNL A   1      38.996  30.014  32.209  1.00  0.00     0.010 A 
ATOM     38  C   UNL A   1      37.953  30.903  30.205  1.00  0.00     0.010 A 
ATOM     39  C   UNL A   1      38.967  30.144  30.816  1.00  0.00    -0.014 A 
BRANCH  39  40
ATOM     40  C   UNL A   1      40.150  29.699  30.038  1.00  0.00     0.031 A 
ATOM     41  C   UNL A   1      41.283  30.673  29.863  1.00  0.00     0.074 A 
ATOM     42  C   UNL A   1      40.255  28.444  29.567  1.00  0.00     0.049 A 
ATOM     43  N   UNL A   1      42.428  30.523  29.246  1.00  0.00    -0.248 NA
ATOM     44  C   UNL A   1      41.101  32.001  30.474  1.00  0.00     0.031 C 
ATOM     45  C   UNL A   1      39.250  27.397  29.722  1.00  0.00     0.029 A 
ATOM     46  N   UNL A   1      41.268  27.843  28.864  1.00  0.00    -0.354 N 
ATOM     47  C   UNL A   1      43.095  31.733  29.391  1.00  0.00     0.074 A 
ATOM     48  C   UNL A   1      42.217  32.620  30.122  1.00  0.00     0.031 C 
ATOM     49  C   UNL A   1      39.695  26.277  29.123  1.00  0.00     0.029 A 
ATOM     50  C   UNL A   1      40.999  26.542  28.518  1.00  0.00     0.049 A 
ATOM     51  H   UNL A   1      42.106  28.301  28.628  1.00  0.00     0.167 HD
ATOM     52  C   UNL A   1      44.334  32.071  28.966  1.00  0.00     0.037 A 
ATOM     53  C   UNL A   1      41.722  25.674  27.781  1.00  0.00     0.037 A 
ATOM     54  C   UNL A   1      45.204  31.187  28.236  1.00  0.00     0.049 A 
ATOM     55  C   UNL A   1      43.065  26.105  27.245  1.00  0.00     0.074 A 
ATOM     56  C   UNL A   1      46.483  31.429  27.767  1.00  0.00     0.029 A 
ATOM     57  N   UNL A   1      44.877  29.893  27.860  1.00  0.00    -0.354 N 
ATOM     58  N   UNL A   1      43.701  27.240  27.406  1.00  0.00    -0.248 NA
ATOM     59  C   UNL A   1      43.795  25.124  26.427  1.00  0.00     0.031 C 
ATOM     60  C   UNL A   1      46.905  30.304  27.052  1.00  0.00     0.029 A 
ATOM     61  C   UNL A   1      45.917  29.334  27.136  1.00  0.00     0.049 A 
ATOM     62  H   UNL A   1      44.030  29.438  28.076  1.00  0.00     0.167 HD
ATOM     63  C   UNL A   1      44.914  27.100  26.740  1.00  0.00     0.074 A 
ATOM     64  C   UNL A   1      44.932  25.762  26.189  1.00  0.00     0.031 C 
ATOM     65  C   UNL A   1      45.921  27.997  26.597  1.00  0.00     0.037 A 
BRANCH  52  66
ATOM     66  C   UNL A   1      44.806  33.469  29.248  1.00  0.00     0.064 A 
ATOM     67  C   UNL A   1      45.533  33.788  30.405  1.00  0.00     0.173 A 
ATOM     68  C   UNL A   1      44.544  34.500  28.334  1.00  0.00     0.173 A 
ATOM     69  F   UNL A   1      45.793  32.844  31.321  1.00  0.00    -0.203 F 
ATOM     70  C   UNL A   1      45.953  35.093  30.649  1.00  0.00     0.198 A 
ATOM     71  C   UNL A   1      44.997  35.797  28.564  1.00  0.00     0.198 A 
ATOM     72  F   UNL A   1      43.854  34.251  27.211  1.00  0.00    -0.203 F 
ATOM     73  F   UNL A   1      46.598  35.385  31.788  1.00  0.00    -0.200 F 
ATOM     74  C   UNL A   1      45.693  36.094  29.726  1.00  0.00     0.200 A 
ATOM     75  F   UNL A   1      44.754  36.760  27.664  1.00  0.00    -0.200 F 
ATOM     76  F   UNL A   1      46.106  37.347  29.959  1.00  0.00    -0.200 F 
ENDBRANCH  52  66
BRANCH  53  77
ATOM     77  C   UNL A   1      41.188  24.317  27.489  1.00  0.00     0.064 A 
ATOM     78  C   UNL A   1      40.106  24.133  26.618  1.00  0.00     0.173 A 
ATOM     79  C   UNL A   1      41.729  23.177  28.103  1.00  0.00     0.173 A 
ATOM     80  F   UNL A   1      39.534  25.193  26.026  1.00  0.00    -0.203 F 
ATOM     81  C   UNL A   1      39.569  22.866  26.391  1.00  0.00     0.198 A 
ATOM     82  C   UNL A   1      41.214  21.907  27.849  1.00  0.00     0.198 A 
ATOM     83  F   UNL A   1      42.762  23.296  28.950  1.00  0.00    -0.203 F 
ATOM     84  F   UNL A   1      38.498  22.727  25.598  1.00  0.00    -0.200 F 
ATOM     85  C   UNL A   1      40.128  21.754  27.003  1.00  0.00     0.200 A 
ATOM     86  F   UNL A   1      41.765  20.835  28.434  1.00  0.00    -0.200 F 
ATOM     87  F   UNL A   1      39.612  20.537  26.783  1.00  0.00    -0.200 F 
ENDBRANCH  53  77
BRANCH  65  88
ATOM     88  C   UNL A   1      47.146  27.548  25.848  1.00  0.00     0.064 A 
ATOM     89  C   UNL A   1      48.233  26.945  26.500  1.00  0.00     0.173 A 
ATOM     90  C   UNL A   1      47.221  27.697  24.454  1.00  0.00     0.173 A 
ATOM     91  F   UNL A   1      48.219  26.788  27.833  1.00  0.00    -0.203 F 
ATOM     92  C   UNL A   1      49.363  26.545  25.791  1.00  0.00     0.198 A 
ATOM     93  C   UNL A   1      48.335  27.261  23.744  1.00  0.00     0.198 A 
ATOM     94  F   UNL A   1      46.206  28.256  23.778  1.00  0.00    -0.203 F 
ATOM     95  F   UNL A   1      50.413  26.030  26.444  1.00  0.00    -0.200 F 
ATOM     96  C   UNL A   1      49.410  26.696  24.413  1.00  0.00     0.200 A 
ATOM     97  F   UNL A   1      48.370  27.390  22.411  1.00  0.00    -0.200 F 
ATOM     98  F   UNL A   1      50.495  26.305  23.731  1.00  0.00    -0.200 F 
ENDBRANCH  65  88
ENDBRANCH  39  40
ENDBRANCH  32  34
ENDBRANCH  31  32
ENDBRANCH  30  31
ENDBRANCH  29  30
ENDBRANCH  28  29
ENDBRANCH  27  28
ENDBRANCH  26  27
ENDBRANCH   1  26
TORSDOF 22
ENDMDL
MODEL 3
REMARK VINA RESULT:     -10.6      4.224      6.764
REMARK SMILES C[C@H]1SCCC[C@]1(Nc1ccc(Cl)cc1)C(=O)OCCOCCOCCOCCOC(=O)c1ccc(-c2c3nc(c(-c4c(F)c(F)c(F)c(F)c4F)c4ccc([nH]4)c(-c4c(F)c(F)c(F)c(F)c4F)c4nc(c(-c5c(F)c(F)c(F)c(F)c5F)c5ccc2[nH]5)C=C4)C=C3)cc1
REMARK SMILES IDX 24 1 23 2 22 3 21 4 20 5 19 6 18 7 16 8 17 9 7 10 1 11 2 12
REMARK SMILES IDX 3 13 4 14 6 15 5 16 8 17 9 19 10 20 15 21 11 22 14 23 12 24
REMARK SMILES IDX 13 25 25 26 26 27 27 28 28 29 29 30 30 31 31 32 32 33 33 34
REMARK SMILES IDX 34 35 95 36 35 37 94 38 36 39 37 40 38 41 88 42 39 43 93 44
REMARK SMILES IDX 87 45 89 46 40 47 92 48 86 49 85 50 41 52 73 53 53 54 72 55
REMARK SMILES IDX 54 56 57 57 71 58 90 59 55 60 56 61 70 63 91 64 58 65 42 66
REMARK SMILES IDX 43 67 51 68 44 69 45 70 49 71 52 72 46 73 47 74 50 75 48 76
REMARK SMILES IDX 74 77 75 78 83 79 76 80 77 81 81 82 84 83 78 84 79 85 82 86
REMARK SMILES IDX 80 87 59 88 60 89 68 90 61 91 62 92 66 93 69 94 63 95 64 96
REMARK SMILES IDX 67 97 65 98
REMARK H PARENT 8 18 89 51 57 62
REMARK Flexibility Score: inf
ROOT
ATOM      1  O   UNL A   1      32.368  28.253  25.785  1.00  0.00    -0.377 OA
ENDROOT
BRANCH   1   2
ATOM      2  C   UNL A   1      31.397  27.696  26.646  1.00  0.00     0.188 C 
BRANCH   2   3
ATOM      3  C   UNL A   1      30.700  26.417  26.151  1.00  0.00     0.188 C 
BRANCH   3   4
ATOM      4  O   UNL A   1      30.865  25.162  26.799  1.00  0.00    -0.376 OA
BRANCH   4   5
ATOM      5  C   UNL A   1      30.023  24.057  26.525  1.00  0.00     0.202 C 
BRANCH   5   6
ATOM      6  C   UNL A   1      30.583  22.627  26.627  1.00  0.00     0.261 C 
BRANCH   6   7
ATOM      7  O   UNL A   1      32.011  22.457  26.586  1.00  0.00    -0.461 OA
BRANCH   7   8
ATOM      8  C   UNL A   1      32.456  21.675  25.569  1.00  0.00     0.333 C 
ATOM      9  O   UNL A   1      31.836  20.686  25.179  1.00  0.00    -0.249 OA
BRANCH   8  10
ATOM     10  C   UNL A   1      33.878  22.070  25.001  1.00  0.00     0.147 C 
ATOM     11  C   UNL A   1      35.009  19.654  24.833  1.00  0.00     0.022 C 
ATOM     12  C   UNL A   1      35.078  21.106  25.322  1.00  0.00     0.080 C 
ATOM     13  S   UNL A   1      36.698  21.798  24.742  1.00  0.00    -0.156 SA
ATOM     14  C   UNL A   1      36.704  23.279  25.781  1.00  0.00     0.070 C 
ATOM     15  C   UNL A   1      34.152  23.423  25.745  1.00  0.00     0.042 C 
ATOM     16  C   UNL A   1      35.480  24.128  25.498  1.00  0.00     0.014 C 
BRANCH  10  17
ATOM     17  N   UNL A   1      33.826  22.330  23.521  1.00  0.00    -0.369 N 
ATOM     18  H   UNL A   1      34.320  21.755  22.892  1.00  0.00     0.161 HD
BRANCH  17  19
ATOM     19  C   UNL A   1      33.064  23.403  23.060  1.00  0.00     0.035 A 
ATOM     20  C   UNL A   1      33.688  24.594  22.665  1.00  0.00     0.027 A 
ATOM     21  C   UNL A   1      31.672  23.394  23.197  1.00  0.00     0.027 A 
ATOM     22  C   UNL A   1      32.957  25.772  22.496  1.00  0.00     0.022 A 
ATOM     23  C   UNL A   1      30.931  24.567  23.015  1.00  0.00     0.022 A 
ATOM     24  C   UNL A   1      31.580  25.755  22.690  1.00  0.00     0.041 A 
ATOM     25  Cl  UNL A   1      30.685  27.220  22.579  1.00  0.00    -0.084 Cl
ENDBRANCH  17  19
ENDBRANCH  10  17
ENDBRANCH   8  10
ENDBRANCH   7   8
ENDBRANCH   6   7
ENDBRANCH   5   6
ENDBRANCH   4   5
ENDBRANCH   3   4
ENDBRANCH   2   3
ENDBRANCH   1   2
BRANCH   1  26
ATOM     26  C   UNL A   1      33.545  28.752  26.395  1.00  0.00     0.188 C 
BRANCH  26  27
ATOM     27  C   UNL A   1      33.646  30.276  26.566  1.00  0.00     0.188 C 
BRANCH  27  28
ATOM     28  O   UNL A   1      32.570  30.832  27.309  1.00  0.00    -0.376 OA
BRANCH  28  29
ATOM     29  C   UNL A   1      31.769  31.850  26.734  1.00  0.00     0.202 C 
BRANCH  29  30
ATOM     30  C   UNL A   1      32.040  33.304  27.158  1.00  0.00     0.261 C 
BRANCH  30  31
ATOM     31  O   UNL A   1      32.636  33.501  28.449  1.00  0.00    -0.460 OA
BRANCH  31  32
ATOM     32  C   UNL A   1      33.733  34.286  28.516  1.00  0.00     0.338 C 
ATOM     33  O   UNL A   1      33.767  35.498  28.551  1.00  0.00    -0.246 OA
BRANCH  32  34
ATOM     34  C   UNL A   1      34.904  33.412  28.763  1.00  0.00     0.060 A 
ATOM     35  C   UNL A   1      34.690  32.176  29.388  1.00  0.00     0.016 A 
ATOM     36  C   UNL A   1      36.194  33.800  28.391  1.00  0.00     0.016 A 
ATOM     37  C   UNL A   1      35.768  31.351  29.695  1.00  0.00     0.010 A 
ATOM     38  C   UNL A   1      37.280  32.985  28.727  1.00  0.00     0.010 A 
ATOM     39  C   UNL A   1      37.071  31.781  29.424  1.00  0.00    -0.014 A 
BRANCH  39  40
ATOM     40  C   UNL A   1      38.199  31.097  30.104  1.00  0.00     0.031 A 
ATOM     41  C   UNL A   1      38.455  31.431  31.549  1.00  0.00     0.074 A 
ATOM     42  C   UNL A   1      38.927  30.151  29.488  1.00  0.00     0.049 A 
ATOM     43  N   UNL A   1      39.361  30.961  32.369  1.00  0.00    -0.248 NA
ATOM     44  C   UNL A   1      37.560  32.432  32.155  1.00  0.00     0.031 C 
ATOM     45  C   UNL A   1      38.737  29.702  28.111  1.00  0.00     0.029 A 
ATOM     46  N   UNL A   1      39.973  29.394  29.951  1.00  0.00    -0.354 N 
ATOM     47  C   UNL A   1      39.147  31.610  33.578  1.00  0.00     0.074 A 
ATOM     48  C   UNL A   1      38.052  32.533  33.380  1.00  0.00     0.031 C 
ATOM     49  C   UNL A   1      39.646  28.749  27.838  1.00  0.00     0.029 A 
ATOM     50  C   UNL A   1      40.496  28.544  29.009  1.00  0.00     0.049 A 
ATOM     51  H   UNL A   1      40.316  29.454  30.872  1.00  0.00     0.167 HD
ATOM     52  C   UNL A   1      39.797  31.442  34.754  1.00  0.00     0.037 A 
ATOM     53  C   UNL A   1      41.554  27.712  29.085  1.00  0.00     0.037 A 
ATOM     54  C   UNL A   1      40.888  30.525  34.947  1.00  0.00     0.049 A 
ATOM     55  C   UNL A   1      42.316  27.606  30.383  1.00  0.00     0.074 A 
ATOM     56  C   UNL A   1      41.609  30.273  36.101  1.00  0.00     0.029 A 
ATOM     57  N   UNL A   1      41.424  29.718  33.955  1.00  0.00    -0.354 N 
ATOM     58  N   UNL A   1      42.094  28.203  31.529  1.00  0.00    -0.248 NA
ATOM     59  C   UNL A   1      43.475  26.700  30.397  1.00  0.00     0.031 C 
ATOM     60  C   UNL A   1      42.621  29.360  35.791  1.00  0.00     0.029 A 
ATOM     61  C   UNL A   1      42.488  28.989  34.461  1.00  0.00     0.049 A 
ATOM     62  H   UNL A   1      41.097  29.670  33.027  1.00  0.00     0.167 HD
ATOM     63  C   UNL A   1      43.062  27.724  32.406  1.00  0.00     0.074 A 
ATOM     64  C   UNL A   1      43.860  26.773  31.663  1.00  0.00     0.031 C 
ATOM     65  C   UNL A   1      43.271  28.043  33.708  1.00  0.00     0.037 A 
BRANCH  52  66
ATOM     66  C   UNL A   1      39.365  32.297  35.911  1.00  0.00     0.064 A 
ATOM     67  C   UNL A   1      38.406  31.862  36.839  1.00  0.00     0.173 A 
ATOM     68  C   UNL A   1      39.937  33.562  36.107  1.00  0.00     0.173 A 
ATOM     69  F   UNL A   1      37.813  30.668  36.688  1.00  0.00    -0.203 F 
ATOM     70  C   UNL A   1      38.016  32.674  37.900  1.00  0.00     0.198 A 
ATOM     71  C   UNL A   1      39.571  34.358  37.189  1.00  0.00     0.198 A 
ATOM     72  F   UNL A   1      40.859  34.028  35.250  1.00  0.00    -0.203 F 
ATOM     73  F   UNL A   1      37.058  32.260  38.742  1.00  0.00    -0.200 F 
ATOM     74  C   UNL A   1      38.604  33.917  38.080  1.00  0.00     0.200 A 
ATOM     75  F   UNL A   1      40.149  35.553  37.367  1.00  0.00    -0.200 F 
ATOM     76  F   UNL A   1      38.233  34.693  39.106  1.00  0.00    -0.200 F 
ENDBRANCH  52  66
BRANCH  53  77
ATOM     77  C   UNL A   1      41.971  26.923  27.894  1.00  0.00     0.064 A 
ATOM     78  C   UNL A   1      42.855  27.452  26.944  1.00  0.00     0.173 A 
ATOM     79  C   UNL A   1      41.466  25.634  27.665  1.00  0.00     0.173 A 
ATOM     80  F   UNL A   1      43.345  28.692  27.101  1.00  0.00    -0.203 F 
ATOM     81  C   UNL A   1      43.199  26.734  25.799  1.00  0.00     0.198 A 
ATOM     82  C   UNL A   1      41.837  24.903  26.538  1.00  0.00     0.198 A 
ATOM     83  F   UNL A   1      40.613  25.081  28.540  1.00  0.00    -0.203 F 
ATOM     84  F   UNL A   1      44.000  27.288  24.879  1.00  0.00    -0.200 F 
ATOM     85  C   UNL A   1      42.693  25.458  25.601  1.00  0.00     0.200 A 
ATOM     86  F   UNL A   1      41.355  23.666  26.357  1.00  0.00    -0.200 F 
ATOM     87  F   UNL A   1      43.024  24.768  24.500  1.00  0.00    -0.200 F 
ENDBRANCH  53  77
BRANCH  65  88
ATOM     88  C   UNL A   1      44.383  27.327  34.425  1.00  0.00     0.064 A 
ATOM     89  C   UNL A   1      45.683  27.852  34.489  1.00  0.00     0.173 A 
ATOM     90  C   UNL A   1      44.136  26.111  35.084  1.00  0.00     0.173 A 
ATOM     91  F   UNL A   1      45.976  29.006  33.868  1.00  0.00    -0.203 F 
ATOM     92  C   UNL A   1      46.701  27.169  35.151  1.00  0.00     0.198 A 
ATOM     93  C   UNL A   1      45.147  25.451  35.776  1.00  0.00     0.198 A 
ATOM     94  F   UNL A   1      42.909  25.569  35.066  1.00  0.00    -0.203 F 
ATOM     95  F   UNL A   1      47.948  27.660  35.144  1.00  0.00    -0.200 F 
ATOM     96  C   UNL A   1      46.430  25.974  35.800  1.00  0.00     0.200 A 
ATOM     97  F   UNL A   1      44.879  24.307  36.419  1.00  0.00    -0.200 F 
ATOM     98  F   UNL A   1      47.410  25.321  36.441  1.00  0.00    -0.200 F 
ENDBRANCH  65  88
ENDBRANCH  39  40
ENDBRANCH  32  34
ENDBRANCH  31  32
ENDBRANCH  30  31
ENDBRANCH  29  30
ENDBRANCH  28  29
ENDBRANCH  27  28
ENDBRANCH  26  27
ENDBRANCH   1  26
TORSDOF 22
ENDMDL
