MODEL 1
REMARK VINA RESULT:      -9.7      0.000      0.000
REMARK SMILES CN(CC(=O)OCCOCCOCCOCCOC(=O)c1ccc(-c2c3nc(c(-c4c(F)c(F)c(F)c(F)c4F)c4ccc([nH]4)c(-c4c(F)c(F)c(F)c(F)c4F)c4nc(c(-c5c(F)c(F)c(F)c(F)c5F)c5ccc2[nH]5)C=C4)C=C3)cc1)c1ncc(-c2nnnn2-c2ccccc2)c(-c2ccc(Cl)cc2)n1
REMARK SMILES IDX 11 1 10 2 9 3 8 4 7 5 6 6 4 7 5 8 3 9 2 10 1 11 84 12 85 13
REMARK SMILES IDX 107 14 86 15 99 16 87 17 100 18 101 19 106 20 102 21 105 22
REMARK SMILES IDX 103 23 104 24 88 25 89 26 92 27 90 28 91 29 93 30 94 31
REMARK SMILES IDX 98 32 95 33 97 34 96 35 12 36 13 37 14 38 15 39 16 40 17 41
REMARK SMILES IDX 18 42 19 43 20 44 21 45 22 46 83 47 23 48 82 49 24 50 25 51
REMARK SMILES IDX 26 52 76 53 27 54 81 55 75 56 77 57 28 58 80 59 74 60 73 61
REMARK SMILES IDX 29 63 61 64 41 65 60 66 42 67 45 68 59 69 78 70 43 71 44 72
REMARK SMILES IDX 58 74 79 75 46 76 30 77 31 78 39 79 32 80 33 81 37 82 40 83
REMARK SMILES IDX 34 84 35 85 38 86 36 87 62 88 63 89 71 90 64 91 65 92 69 93
REMARK SMILES IDX 72 94 66 95 67 96 70 97 68 98 47 99 48 100 56 101 49 102
REMARK SMILES IDX 50 103 54 104 57 105 51 106 52 107 55 108 53 109
REMARK H PARENT 77 62 45 73
REMARK Flexibility Score: inf
ROOT
ATOM      1  C   UNL A   1      39.615  24.609  27.638  1.00  0.00     0.188 C 
ENDROOT
BRANCH   1   2
ATOM      2  C   UNL A   1      40.650  25.690  27.936  1.00  0.00     0.188 C 
BRANCH   2   3
ATOM      3  O   UNL A   1      40.635  26.335  29.192  1.00  0.00    -0.376 OA
BRANCH   3   4
ATOM      4  C   UNL A   1      40.266  27.702  29.236  1.00  0.00     0.202 C 
BRANCH   4   5
ATOM      5  C   UNL A   1      39.155  28.253  28.300  1.00  0.00     0.261 C 
BRANCH   5   6
ATOM      6  O   UNL A   1      38.272  29.296  28.815  1.00  0.00    -0.462 OA
BRANCH   6   7
ATOM      7  C   UNL A   1      37.247  29.717  28.027  1.00  0.00     0.325 C 
ATOM      8  O   UNL A   1      37.435  30.120  26.878  1.00  0.00    -0.250 OA
BRANCH   7   9
ATOM      9  C   UNL A   1      35.790  29.587  28.576  1.00  0.00     0.241 C 
BRANCH   9  10
ATOM     10  N   UNL A   1      34.606  30.064  27.810  1.00  0.00    -0.333 N 
ATOM     11  C   UNL A   1      34.279  31.474  27.856  1.00  0.00     0.147 C 
BRANCH  10  12
ATOM     12  C   UNL A   1      34.070  29.337  26.742  1.00  0.00     0.226 A 
ATOM     13  N   UNL A   1      33.340  29.973  25.817  1.00  0.00    -0.221 NA
ATOM     14  N   UNL A   1      34.341  28.023  26.587  1.00  0.00    -0.212 NA
ATOM     15  C   UNL A   1      33.092  29.330  24.636  1.00  0.00     0.129 A 
ATOM     16  C   UNL A   1      33.964  27.381  25.427  1.00  0.00     0.087 A 
ATOM     17  C   UNL A   1      33.503  28.049  24.304  1.00  0.00     0.066 A 
BRANCH  16  18
ATOM     18  C   UNL A   1      33.670  25.939  25.577  1.00  0.00     0.001 A 
ATOM     19  C   UNL A   1      34.722  25.023  25.375  1.00  0.00     0.012 A 
ATOM     20  C   UNL A   1      32.465  25.443  26.090  1.00  0.00     0.012 A 
ATOM     21  C   UNL A   1      34.598  23.682  25.743  1.00  0.00     0.021 A 
ATOM     22  C   UNL A   1      32.344  24.106  26.483  1.00  0.00     0.021 A 
ATOM     23  C   UNL A   1      33.416  23.234  26.319  1.00  0.00     0.041 A 
ATOM     24  Cl  UNL A   1      33.278  21.602  26.844  1.00  0.00    -0.084 Cl
ENDBRANCH  16  18
BRANCH  17  25
ATOM     25  C   UNL A   1      33.063  27.436  23.033  1.00  0.00     0.190 A 
ATOM     26  N   UNL A   1      33.933  26.793  22.267  1.00  0.00    -0.108 NA
ATOM     27  N   UNL A   1      31.773  27.118  22.538  1.00  0.00    -0.193 N 
ATOM     28  N   UNL A   1      33.226  26.008  21.412  1.00  0.00    -0.023 NA
ATOM     29  N   UNL A   1      31.932  26.121  21.628  1.00  0.00    -0.040 NA
BRANCH  27  30
ATOM     30  C   UNL A   1      30.436  27.572  22.770  1.00  0.00     0.069 A 
ATOM     31  C   UNL A   1      30.078  28.863  22.318  1.00  0.00     0.028 A 
ATOM     32  C   UNL A   1      29.455  26.796  23.392  1.00  0.00     0.028 A 
ATOM     33  C   UNL A   1      28.772  29.344  22.466  1.00  0.00     0.002 A 
ATOM     34  C   UNL A   1      28.166  27.314  23.603  1.00  0.00     0.002 A 
ATOM     35  C   UNL A   1      27.819  28.577  23.127  1.00  0.00     0.000 A 
ENDBRANCH  27  30
ENDBRANCH  17  25
ENDBRANCH  10  12
ENDBRANCH   9  10
ENDBRANCH   7   9
ENDBRANCH   6   7
ENDBRANCH   5   6
ENDBRANCH   4   5
ENDBRANCH   3   4
ENDBRANCH   2   3
ENDBRANCH   1   2
BRANCH   1  36
ATOM     36  O   UNL A   1      39.950  23.516  26.814  1.00  0.00    -0.377 OA
BRANCH  36  37
ATOM     37  C   UNL A   1      40.137  22.229  27.358  1.00  0.00     0.188 C 
BRANCH  37  38
ATOM     38  C   UNL A   1      40.714  21.115  26.483  1.00  0.00     0.188 C 
BRANCH  38  39
ATOM     39  O   UNL A   1      42.038  20.711  26.781  1.00  0.00    -0.376 OA
BRANCH  39  40
ATOM     40  C   UNL A   1      43.009  20.685  25.750  1.00  0.00     0.202 C 
BRANCH  40  41
ATOM     41  C   UNL A   1      44.288  21.517  25.911  1.00  0.00     0.261 C 
BRANCH  41  42
ATOM     42  O   UNL A   1      44.271  22.917  25.698  1.00  0.00    -0.460 OA
BRANCH  42  43
ATOM     43  C   UNL A   1      44.148  23.721  26.755  1.00  0.00     0.338 C 
ATOM     44  O   UNL A   1      43.569  23.525  27.813  1.00  0.00    -0.246 OA
BRANCH  43  45
ATOM     45  C   UNL A   1      45.049  24.838  26.524  1.00  0.00     0.060 A 
ATOM     46  C   UNL A   1      45.720  25.318  27.648  1.00  0.00     0.016 A 
ATOM     47  C   UNL A   1      45.256  25.365  25.243  1.00  0.00     0.016 A 
ATOM     48  C   UNL A   1      46.564  26.395  27.506  1.00  0.00     0.010 A 
ATOM     49  C   UNL A   1      46.091  26.459  25.103  1.00  0.00     0.010 A 
ATOM     50  C   UNL A   1      46.715  26.980  26.243  1.00  0.00    -0.014 A 
BRANCH  50  51
ATOM     51  C   UNL A   1      47.505  28.205  26.155  1.00  0.00     0.031 A 
ATOM     52  C   UNL A   1      46.832  29.505  26.437  1.00  0.00     0.074 A 
ATOM     53  C   UNL A   1      48.813  28.080  25.895  1.00  0.00     0.049 A 
ATOM     54  N   UNL A   1      47.346  30.702  26.485  1.00  0.00    -0.248 NA
ATOM     55  C   UNL A   1      45.384  29.454  26.705  1.00  0.00     0.031 C 
ATOM     56  C   UNL A   1      49.499  26.810  25.640  1.00  0.00     0.029 A 
ATOM     57  N   UNL A   1      49.794  29.021  25.808  1.00  0.00    -0.354 N 
ATOM     58  C   UNL A   1      46.291  31.546  26.795  1.00  0.00     0.074 A 
ATOM     59  C   UNL A   1      45.098  30.735  26.890  1.00  0.00     0.031 C 
ATOM     60  C   UNL A   1      50.799  27.056  25.424  1.00  0.00     0.029 A 
ATOM     61  C   UNL A   1      51.020  28.495  25.495  1.00  0.00     0.049 A 
ATOM     62  H   UNL A   1      49.638  29.982  25.955  1.00  0.00     0.167 HD
ATOM     63  C   UNL A   1      46.340  32.884  26.986  1.00  0.00     0.037 A 
ATOM     64  C   UNL A   1      52.182  29.132  25.278  1.00  0.00     0.037 A 
ATOM     65  C   UNL A   1      47.557  33.641  26.853  1.00  0.00     0.049 A 
ATOM     66  C   UNL A   1      52.191  30.626  25.443  1.00  0.00     0.074 A 
ATOM     67  C   UNL A   1      47.757  34.997  27.018  1.00  0.00     0.029 A 
ATOM     68  N   UNL A   1      48.787  33.091  26.503  1.00  0.00    -0.354 N 
ATOM     69  N   UNL A   1      51.203  31.426  25.772  1.00  0.00    -0.248 NA
ATOM     70  C   UNL A   1      53.470  31.304  25.220  1.00  0.00     0.031 C 
ATOM     71  C   UNL A   1      49.093  35.276  26.707  1.00  0.00     0.029 A 
ATOM     72  C   UNL A   1      49.745  34.086  26.416  1.00  0.00     0.049 A 
ATOM     73  H   UNL A   1      48.951  32.134  26.341  1.00  0.00     0.167 HD
ATOM     74  C   UNL A   1      51.742  32.702  25.819  1.00  0.00     0.074 A 
ATOM     75  C   UNL A   1      53.153  32.559  25.504  1.00  0.00     0.031 C 
ATOM     76  C   UNL A   1      51.138  33.886  26.093  1.00  0.00     0.037 A 
BRANCH  63  77
ATOM     77  C   UNL A   1      45.056  33.592  27.307  1.00  0.00     0.064 A 
ATOM     78  C   UNL A   1      44.353  34.334  26.345  1.00  0.00     0.173 A 
ATOM     79  C   UNL A   1      44.514  33.524  28.599  1.00  0.00     0.173 A 
ATOM     80  F   UNL A   1      44.836  34.453  25.099  1.00  0.00    -0.203 F 
ATOM     81  C   UNL A   1      43.173  35.000  26.670  1.00  0.00     0.198 A 
ATOM     82  C   UNL A   1      43.317  34.165  28.914  1.00  0.00     0.198 A 
ATOM     83  F   UNL A   1      45.145  32.837  29.564  1.00  0.00    -0.203 F 
ATOM     84  F   UNL A   1      42.550  35.747  25.746  1.00  0.00    -0.200 F 
ATOM     85  C   UNL A   1      42.652  34.908  27.951  1.00  0.00     0.200 A 
ATOM     86  F   UNL A   1      42.812  34.069  30.152  1.00  0.00    -0.200 F 
ATOM     87  F   UNL A   1      41.515  35.547  28.262  1.00  0.00    -0.200 F 
ENDBRANCH  63  77
BRANCH  64  88
ATOM     88  C   UNL A   1      53.389  28.358  24.896  1.00  0.00     0.064 A 
ATOM     89  C   UNL A   1      54.232  27.801  25.865  1.00  0.00     0.173 A 
ATOM     90  C   UNL A   1      53.705  28.129  23.548  1.00  0.00     0.173 A 
ATOM     91  F   UNL A   1      53.975  27.993  27.167  1.00  0.00    -0.203 F 
ATOM     92  C   UNL A   1      55.357  27.064  25.501  1.00  0.00     0.198 A 
ATOM     93  C   UNL A   1      54.813  27.365  23.185  1.00  0.00     0.198 A 
ATOM     94  F   UNL A   1      52.922  28.626  22.578  1.00  0.00    -0.203 F 
ATOM     95  F   UNL A   1      56.168  26.574  26.449  1.00  0.00    -0.200 F 
ATOM     96  C   UNL A   1      55.643  26.841  24.163  1.00  0.00     0.200 A 
ATOM     97  F   UNL A   1      55.069  27.133  21.891  1.00  0.00    -0.200 F 
ATOM     98  F   UNL A   1      56.719  26.123  23.815  1.00  0.00    -0.200 F 
ENDBRANCH  64  88
BRANCH  76  99
ATOM     99  C   UNL A   1      52.017  35.101  26.085  1.00  0.00     0.064 A 
ATOM    100  C   UNL A   1      52.722  35.507  27.226  1.00  0.00     0.173 A 
ATOM    101  C   UNL A   1      52.175  35.848  24.908  1.00  0.00     0.173 A 
ATOM    102  F   UNL A   1      52.589  34.832  28.378  1.00  0.00    -0.203 F 
ATOM    103  C   UNL A   1      53.528  36.639  27.199  1.00  0.00     0.198 A 
ATOM    104  C   UNL A   1      53.013  36.957  24.875  1.00  0.00     0.198 A 
ATOM    105  F   UNL A   1      51.527  35.494  23.788  1.00  0.00    -0.203 F 
ATOM    106  F   UNL A   1      54.144  37.047  28.317  1.00  0.00    -0.200 F 
ATOM    107  C   UNL A   1      53.680  37.358  26.022  1.00  0.00     0.200 A 
ATOM    108  F   UNL A   1      53.174  37.638  23.732  1.00  0.00    -0.200 F 
ATOM    109  F   UNL A   1      54.464  38.444  25.996  1.00  0.00    -0.200 F 
ENDBRANCH  76  99
ENDBRANCH  50  51
ENDBRANCH  43  45
ENDBRANCH  42  43
ENDBRANCH  41  42
ENDBRANCH  40  41
ENDBRANCH  39  40
ENDBRANCH  38  39
ENDBRANCH  37  38
ENDBRANCH  36  37
ENDBRANCH   1  36
TORSDOF 25
ENDMDL
MODEL 2
REMARK VINA RESULT:      -9.5      7.979     12.849
REMARK SMILES CN(CC(=O)OCCOCCOCCOCCOC(=O)c1ccc(-c2c3nc(c(-c4c(F)c(F)c(F)c(F)c4F)c4ccc([nH]4)c(-c4c(F)c(F)c(F)c(F)c4F)c4nc(c(-c5c(F)c(F)c(F)c(F)c5F)c5ccc2[nH]5)C=C4)C=C3)cc1)c1ncc(-c2nnnn2-c2ccccc2)c(-c2ccc(Cl)cc2)n1
REMARK SMILES IDX 11 1 10 2 9 3 8 4 7 5 6 6 4 7 5 8 3 9 2 10 1 11 84 12 85 13
REMARK SMILES IDX 107 14 86 15 99 16 87 17 100 18 101 19 106 20 102 21 105 22
REMARK SMILES IDX 103 23 104 24 88 25 89 26 92 27 90 28 91 29 93 30 94 31
REMARK SMILES IDX 98 32 95 33 97 34 96 35 12 36 13 37 14 38 15 39 16 40 17 41
REMARK SMILES IDX 18 42 19 43 20 44 21 45 22 46 83 47 23 48 82 49 24 50 25 51
REMARK SMILES IDX 26 52 76 53 27 54 81 55 75 56 77 57 28 58 80 59 74 60 73 61
REMARK SMILES IDX 29 63 61 64 41 65 60 66 42 67 45 68 59 69 78 70 43 71 44 72
REMARK SMILES IDX 58 74 79 75 46 76 30 77 31 78 39 79 32 80 33 81 37 82 40 83
REMARK SMILES IDX 34 84 35 85 38 86 36 87 62 88 63 89 71 90 64 91 65 92 69 93
REMARK SMILES IDX 72 94 66 95 67 96 70 97 68 98 47 99 48 100 56 101 49 102
REMARK SMILES IDX 50 103 54 104 57 105 51 106 52 107 55 108 53 109
REMARK H PARENT 77 62 45 73
REMARK Flexibility Score: inf
ROOT
ATOM      1  C   UNL A   1      31.648  28.604  24.393  1.00  0.00     0.188 C 
ENDROOT
BRANCH   1   2
ATOM      2  C   UNL A   1      32.481  27.678  23.511  1.00  0.00     0.188 C 
BRANCH   2   3
ATOM      3  O   UNL A   1      32.278  26.283  23.586  1.00  0.00    -0.376 OA
BRANCH   3   4
ATOM      4  C   UNL A   1      33.227  25.508  24.294  1.00  0.00     0.202 C 
BRANCH   4   5
ATOM      5  C   UNL A   1      32.988  23.993  24.544  1.00  0.00     0.261 C 
BRANCH   5   6
ATOM      6  O   UNL A   1      34.151  23.122  24.685  1.00  0.00    -0.462 OA
BRANCH   6   7
ATOM      7  C   UNL A   1      35.200  23.310  23.841  1.00  0.00     0.325 C 
ATOM      8  O   UNL A   1      35.057  23.312  22.618  1.00  0.00    -0.250 OA
BRANCH   7   9
ATOM      9  C   UNL A   1      36.599  23.627  24.459  1.00  0.00     0.241 C 
BRANCH   9  10
ATOM     10  N   UNL A   1      37.277  22.705  25.411  1.00  0.00    -0.333 N 
ATOM     11  C   UNL A   1      37.162  21.279  25.186  1.00  0.00     0.147 C 
BRANCH  10  12
ATOM     12  C   UNL A   1      38.338  23.122  26.221  1.00  0.00     0.226 A 
ATOM     13  N   UNL A   1      39.249  22.226  26.622  1.00  0.00    -0.221 NA
ATOM     14  N   UNL A   1      38.500  24.423  26.543  1.00  0.00    -0.212 NA
ATOM     15  C   UNL A   1      40.426  22.690  27.139  1.00  0.00     0.129 A 
ATOM     16  C   UNL A   1      39.655  24.831  27.175  1.00  0.00     0.087 A 
ATOM     17  C   UNL A   1      40.768  24.020  27.322  1.00  0.00     0.066 A 
BRANCH  16  18
ATOM     18  C   UNL A   1      39.503  26.009  28.057  1.00  0.00     0.001 A 
ATOM     19  C   UNL A   1      39.365  27.276  27.453  1.00  0.00     0.012 A 
ATOM     20  C   UNL A   1      39.298  25.922  29.439  1.00  0.00     0.012 A 
ATOM     21  C   UNL A   1      38.964  28.392  28.191  1.00  0.00     0.021 A 
ATOM     22  C   UNL A   1      38.873  27.031  30.177  1.00  0.00     0.021 A 
ATOM     23  C   UNL A   1      38.695  28.259  29.547  1.00  0.00     0.041 A 
ATOM     24  Cl  UNL A   1      38.131  29.609  30.450  1.00  0.00    -0.084 Cl
ENDBRANCH  16  18
BRANCH  17  25
ATOM     25  C   UNL A   1      42.033  24.374  27.999  1.00  0.00     0.190 A 
ATOM     26  N   UNL A   1      42.701  23.458  28.685  1.00  0.00    -0.108 NA
ATOM     27  N   UNL A   1      42.904  25.483  27.848  1.00  0.00    -0.193 N 
ATOM     28  N   UNL A   1      43.971  23.912  28.850  1.00  0.00    -0.023 NA
ATOM     29  N   UNL A   1      44.133  25.082  28.269  1.00  0.00    -0.040 NA
BRANCH  27  30
ATOM     30  C   UNL A   1      42.792  26.829  27.377  1.00  0.00     0.069 A 
ATOM     31  C   UNL A   1      42.529  27.038  26.004  1.00  0.00     0.028 A 
ATOM     32  C   UNL A   1      42.898  27.948  28.205  1.00  0.00     0.028 A 
ATOM     33  C   UNL A   1      42.354  28.329  25.490  1.00  0.00     0.002 A 
ATOM     34  C   UNL A   1      42.794  29.243  27.669  1.00  0.00     0.002 A 
ATOM     35  C   UNL A   1      42.506  29.434  26.319  1.00  0.00     0.000 A 
ENDBRANCH  27  30
ENDBRANCH  17  25
ENDBRANCH  10  12
ENDBRANCH   9  10
ENDBRANCH   7   9
ENDBRANCH   6   7
ENDBRANCH   5   6
ENDBRANCH   4   5
ENDBRANCH   3   4
ENDBRANCH   2   3
ENDBRANCH   1   2
BRANCH   1  36
ATOM     36  O   UNL A   1      32.108  28.961  25.677  1.00  0.00    -0.377 OA
BRANCH  36  37
ATOM     37  C   UNL A   1      33.039  30.006  25.847  1.00  0.00     0.188 C 
BRANCH  37  38
ATOM     38  C   UNL A   1      33.972  29.998  27.060  1.00  0.00     0.188 C 
BRANCH  38  39
ATOM     39  O   UNL A   1      33.795  31.051  27.989  1.00  0.00    -0.376 OA
BRANCH  39  40
ATOM     40  C   UNL A   1      34.668  32.166  27.957  1.00  0.00     0.202 C 
BRANCH  40  41
ATOM     41  C   UNL A   1      34.840  33.013  29.224  1.00  0.00     0.261 C 
BRANCH  41  42
ATOM     42  O   UNL A   1      35.848  32.703  30.169  1.00  0.00    -0.460 OA
BRANCH  42  43
ATOM     43  C   UNL A   1      35.525  32.684  31.463  1.00  0.00     0.338 C 
ATOM     44  O   UNL A   1      34.422  32.729  31.985  1.00  0.00    -0.246 OA
BRANCH  43  45
ATOM     45  C   UNL A   1      36.745  32.360  32.183  1.00  0.00     0.060 A 
ATOM     46  C   UNL A   1      36.598  31.495  33.267  1.00  0.00     0.016 A 
ATOM     47  C   UNL A   1      37.992  32.856  31.781  1.00  0.00     0.016 A 
ATOM     48  C   UNL A   1      37.708  31.171  34.011  1.00  0.00     0.010 A 
ATOM     49  C   UNL A   1      39.106  32.545  32.541  1.00  0.00     0.010 A 
ATOM     50  C   UNL A   1      38.946  31.727  33.666  1.00  0.00    -0.014 A 
BRANCH  50  51
ATOM     51  C   UNL A   1      40.073  31.476  34.560  1.00  0.00     0.031 A 
ATOM     52  C   UNL A   1      40.354  32.463  35.642  1.00  0.00     0.074 A 
ATOM     53  C   UNL A   1      40.748  30.331  34.398  1.00  0.00     0.049 A 
ATOM     54  N   UNL A   1      41.251  32.413  36.586  1.00  0.00    -0.248 NA
ATOM     55  C   UNL A   1      39.509  33.670  35.670  1.00  0.00     0.031 C 
ATOM     56  C   UNL A   1      40.473  29.336  33.359  1.00  0.00     0.029 A 
ATOM     57  N   UNL A   1      41.791  29.809  35.102  1.00  0.00    -0.354 N 
ATOM     58  C   UNL A   1      41.078  33.574  37.325  1.00  0.00     0.074 A 
ATOM     59  C   UNL A   1      40.013  34.329  36.702  1.00  0.00     0.031 C 
ATOM     60  C   UNL A   1      41.332  28.316  33.495  1.00  0.00     0.029 A 
ATOM     61  C   UNL A   1      42.229  28.609  34.607  1.00  0.00     0.049 A 
ATOM     62  H   UNL A   1      42.189  30.249  35.888  1.00  0.00     0.167 HD
ATOM     63  C   UNL A   1      41.757  33.952  38.431  1.00  0.00     0.037 A 
ATOM     64  C   UNL A   1      43.260  27.851  35.016  1.00  0.00     0.037 A 
ATOM     65  C   UNL A   1      42.826  33.165  38.989  1.00  0.00     0.049 A 
ATOM     66  C   UNL A   1      44.032  28.327  36.215  1.00  0.00     0.074 A 
ATOM     67  C   UNL A   1      43.600  33.422  40.103  1.00  0.00     0.029 A 
ATOM     68  N   UNL A   1      43.277  31.963  38.451  1.00  0.00    -0.354 N 
ATOM     69  N   UNL A   1      43.849  29.407  36.940  1.00  0.00    -0.248 NA
ATOM     70  C   UNL A   1      45.143  27.483  36.659  1.00  0.00     0.031 C 
ATOM     71  C   UNL A   1      44.560  32.408  40.202  1.00  0.00     0.029 A 
ATOM     72  C   UNL A   1      44.341  31.481  39.193  1.00  0.00     0.049 A 
ATOM     73  H   UNL A   1      42.895  31.521  37.659  1.00  0.00     0.167 HD
ATOM     74  C   UNL A   1      44.805  29.363  37.943  1.00  0.00     0.074 A 
ATOM     75  C   UNL A   1      45.551  28.134  37.739  1.00  0.00     0.031 C 
ATOM     76  C   UNL A   1      45.052  30.250  38.940  1.00  0.00     0.037 A 
BRANCH  63  77
ATOM     77  C   UNL A   1      41.395  35.266  39.059  1.00  0.00     0.064 A 
ATOM     78  C   UNL A   1      40.326  35.391  39.961  1.00  0.00     0.173 A 
ATOM     79  C   UNL A   1      42.132  36.421  38.759  1.00  0.00     0.173 A 
ATOM     80  F   UNL A   1      39.572  34.325  40.266  1.00  0.00    -0.203 F 
ATOM     81  C   UNL A   1      39.995  36.626  40.517  1.00  0.00     0.198 A 
ATOM     82  C   UNL A   1      41.819  37.647  39.341  1.00  0.00     0.198 A 
ATOM     83  F   UNL A   1      43.160  36.365  37.898  1.00  0.00    -0.203 F 
ATOM     84  F   UNL A   1      38.936  36.729  41.333  1.00  0.00    -0.200 F 
ATOM     85  C   UNL A   1      40.746  37.751  40.213  1.00  0.00     0.200 A 
ATOM     86  F   UNL A   1      42.551  38.733  39.050  1.00  0.00    -0.200 F 
ATOM     87  F   UNL A   1      40.428  38.937  40.751  1.00  0.00    -0.200 F 
ENDBRANCH  63  77
BRANCH  64  88
ATOM     88  C   UNL A   1      43.591  26.600  34.292  1.00  0.00     0.064 A 
ATOM     89  C   UNL A   1      43.116  25.359  34.732  1.00  0.00     0.173 A 
ATOM     90  C   UNL A   1      44.363  26.624  33.120  1.00  0.00     0.173 A 
ATOM     91  F   UNL A   1      42.377  25.281  35.848  1.00  0.00    -0.203 F 
ATOM     92  C   UNL A   1      43.419  24.187  34.041  1.00  0.00     0.198 A 
ATOM     93  C   UNL A   1      44.638  25.456  32.412  1.00  0.00     0.198 A 
ATOM     94  F   UNL A   1      44.830  27.789  32.645  1.00  0.00    -0.203 F 
ATOM     95  F   UNL A   1      42.983  23.008  34.506  1.00  0.00    -0.200 F 
ATOM     96  C   UNL A   1      44.173  24.237  32.879  1.00  0.00     0.200 A 
ATOM     97  F   UNL A   1      45.347  25.514  31.277  1.00  0.00    -0.200 F 
ATOM     98  F   UNL A   1      44.454  23.110  32.210  1.00  0.00    -0.200 F 
ENDBRANCH  64  88
BRANCH  76  99
ATOM     99  C   UNL A   1      46.158  29.894  39.888  1.00  0.00     0.064 A 
ATOM    100  C   UNL A   1      47.475  30.325  39.678  1.00  0.00     0.173 A 
ATOM    101  C   UNL A   1      45.884  29.137  41.037  1.00  0.00     0.173 A 
ATOM    102  F   UNL A   1      47.787  31.037  38.584  1.00  0.00    -0.203 F 
ATOM    103  C   UNL A   1      48.487  29.981  40.566  1.00  0.00     0.198 A 
ATOM    104  C   UNL A   1      46.892  28.828  41.944  1.00  0.00     0.198 A 
ATOM    105  F   UNL A   1      44.637  28.710  41.287  1.00  0.00    -0.203 F 
ATOM    106  F   UNL A   1      49.750  30.348  40.314  1.00  0.00    -0.200 F 
ATOM    107  C   UNL A   1      48.193  29.241  41.702  1.00  0.00     0.200 A 
ATOM    108  F   UNL A   1      46.603  28.131  43.051  1.00  0.00    -0.200 F 
ATOM    109  F   UNL A   1      49.169  28.917  42.562  1.00  0.00    -0.200 F 
ENDBRANCH  76  99
ENDBRANCH  50  51
ENDBRANCH  43  45
ENDBRANCH  42  43
ENDBRANCH  41  42
ENDBRANCH  40  41
ENDBRANCH  39  40
ENDBRANCH  38  39
ENDBRANCH  37  38
ENDBRANCH  36  37
ENDBRANCH   1  36
TORSDOF 25
ENDMDL
MODEL 3
REMARK VINA RESULT:      -8.9      7.960     14.128
REMARK SMILES CN(CC(=O)OCCOCCOCCOCCOC(=O)c1ccc(-c2c3nc(c(-c4c(F)c(F)c(F)c(F)c4F)c4ccc([nH]4)c(-c4c(F)c(F)c(F)c(F)c4F)c4nc(c(-c5c(F)c(F)c(F)c(F)c5F)c5ccc2[nH]5)C=C4)C=C3)cc1)c1ncc(-c2nnnn2-c2ccccc2)c(-c2ccc(Cl)cc2)n1
REMARK SMILES IDX 11 1 10 2 9 3 8 4 7 5 6 6 4 7 5 8 3 9 2 10 1 11 84 12 85 13
REMARK SMILES IDX 107 14 86 15 99 16 87 17 100 18 101 19 106 20 102 21 105 22
REMARK SMILES IDX 103 23 104 24 88 25 89 26 92 27 90 28 91 29 93 30 94 31
REMARK SMILES IDX 98 32 95 33 97 34 96 35 12 36 13 37 14 38 15 39 16 40 17 41
REMARK SMILES IDX 18 42 19 43 20 44 21 45 22 46 83 47 23 48 82 49 24 50 25 51
REMARK SMILES IDX 26 52 76 53 27 54 81 55 75 56 77 57 28 58 80 59 74 60 73 61
REMARK SMILES IDX 29 63 61 64 41 65 60 66 42 67 45 68 59 69 78 70 43 71 44 72
REMARK SMILES IDX 58 74 79 75 46 76 30 77 31 78 39 79 32 80 33 81 37 82 40 83
REMARK SMILES IDX 34 84 35 85 38 86 36 87 62 88 63 89 71 90 64 91 65 92 69 93
REMARK SMILES IDX 72 94 66 95 67 96 70 97 68 98 47 99 48 100 56 101 49 102
REMARK SMILES IDX 50 103 54 104 57 105 51 106 52 107 55 108 53 109
REMARK H PARENT 77 62 45 73
REMARK Flexibility Score: inf
ROOT
ATOM      1  C   UNL A   1      31.648  28.393  24.509  1.00  0.00     0.188 C 
ENDROOT
BRANCH   1   2
ATOM      2  C   UNL A   1      32.560  27.514  23.658  1.00  0.00     0.188 C 
BRANCH   2   3
ATOM      3  O   UNL A   1      32.466  26.109  23.768  1.00  0.00    -0.376 OA
BRANCH   3   4
ATOM      4  C   UNL A   1      33.162  25.474  24.826  1.00  0.00     0.202 C 
BRANCH   4   5
ATOM      5  C   UNL A   1      33.112  23.931  24.995  1.00  0.00     0.261 C 
BRANCH   5   6
ATOM      6  O   UNL A   1      34.364  23.220  25.234  1.00  0.00    -0.462 OA
BRANCH   6   7
ATOM      7  C   UNL A   1      35.307  23.232  24.255  1.00  0.00     0.325 C 
ATOM      8  O   UNL A   1      35.010  23.105  23.066  1.00  0.00    -0.250 OA
BRANCH   7   9
ATOM      9  C   UNL A   1      36.790  23.513  24.659  1.00  0.00     0.241 C 
BRANCH   9  10
ATOM     10  N   UNL A   1      37.647  22.483  25.307  1.00  0.00    -0.333 N 
ATOM     11  C   UNL A   1      37.718  21.169  24.703  1.00  0.00     0.147 C 
BRANCH  10  12
ATOM     12  C   UNL A   1      38.688  22.823  26.177  1.00  0.00     0.226 A 
ATOM     13  N   UNL A   1      39.310  21.858  26.866  1.00  0.00    -0.221 NA
ATOM     14  N   UNL A   1      39.125  24.097  26.277  1.00  0.00    -0.212 NA
ATOM     15  C   UNL A   1      40.505  22.156  27.459  1.00  0.00     0.129 A 
ATOM     16  C   UNL A   1      40.273  24.371  26.990  1.00  0.00     0.087 A 
ATOM     17  C   UNL A   1      41.137  23.389  27.446  1.00  0.00     0.066 A 
BRANCH  16  18
ATOM     18  C   UNL A   1      40.319  25.713  27.609  1.00  0.00     0.001 A 
ATOM     19  C   UNL A   1      40.524  26.826  26.768  1.00  0.00     0.012 A 
ATOM     20  C   UNL A   1      39.985  25.962  28.946  1.00  0.00     0.012 A 
ATOM     21  C   UNL A   1      40.327  28.130  27.227  1.00  0.00     0.021 A 
ATOM     22  C   UNL A   1      39.762  27.265  29.404  1.00  0.00     0.021 A 
ATOM     23  C   UNL A   1      39.923  28.343  28.539  1.00  0.00     0.041 A 
ATOM     24  Cl  UNL A   1      39.606  29.939  29.094  1.00  0.00    -0.084 Cl
ENDBRANCH  16  18
BRANCH  17  25
ATOM     25  C   UNL A   1      42.372  23.597  28.229  1.00  0.00     0.190 A 
ATOM     26  N   UNL A   1      42.745  22.706  29.137  1.00  0.00    -0.108 NA
ATOM     27  N   UNL A   1      43.481  24.459  28.027  1.00  0.00    -0.193 N 
ATOM     28  N   UNL A   1      44.061  22.915  29.403  1.00  0.00    -0.023 NA
ATOM     29  N   UNL A   1      44.539  23.901  28.673  1.00  0.00    -0.040 NA
BRANCH  27  30
ATOM     30  C   UNL A   1      43.722  25.689  27.338  1.00  0.00     0.069 A 
ATOM     31  C   UNL A   1      43.827  26.875  28.102  1.00  0.00     0.028 A 
ATOM     32  C   UNL A   1      43.889  25.779  25.955  1.00  0.00     0.028 A 
ATOM     33  C   UNL A   1      44.115  28.103  27.494  1.00  0.00     0.002 A 
ATOM     34  C   UNL A   1      44.106  27.026  25.344  1.00  0.00     0.002 A 
ATOM     35  C   UNL A   1      44.236  28.183  26.111  1.00  0.00     0.000 A 
ENDBRANCH  27  30
ENDBRANCH  17  25
ENDBRANCH  10  12
ENDBRANCH   9  10
ENDBRANCH   7   9
ENDBRANCH   6   7
ENDBRANCH   5   6
ENDBRANCH   4   5
ENDBRANCH   3   4
ENDBRANCH   2   3
ENDBRANCH   1   2
BRANCH   1  36
ATOM     36  O   UNL A   1      32.094  28.881  25.753  1.00  0.00    -0.377 OA
BRANCH  36  37
ATOM     37  C   UNL A   1      33.081  29.885  25.825  1.00  0.00     0.188 C 
BRANCH  37  38
ATOM     38  C   UNL A   1      34.105  29.859  26.961  1.00  0.00     0.188 C 
BRANCH  38  39
ATOM     39  O   UNL A   1      33.818  30.682  28.077  1.00  0.00    -0.376 OA
BRANCH  39  40
ATOM     40  C   UNL A   1      34.347  31.995  28.132  1.00  0.00     0.202 C 
BRANCH  40  41
ATOM     41  C   UNL A   1      34.460  32.695  29.492  1.00  0.00     0.261 C 
BRANCH  41  42
ATOM     42  O   UNL A   1      35.457  32.311  30.421  1.00  0.00    -0.460 OA
BRANCH  42  43
ATOM     43  C   UNL A   1      36.708  32.158  29.987  1.00  0.00     0.338 C 
ATOM     44  O   UNL A   1      37.160  32.304  28.861  1.00  0.00    -0.246 OA
BRANCH  43  45
ATOM     45  C   UNL A   1      37.535  31.998  31.171  1.00  0.00     0.060 A 
ATOM     46  C   UNL A   1      38.766  32.652  31.145  1.00  0.00     0.016 A 
ATOM     47  C   UNL A   1      37.097  31.265  32.282  1.00  0.00     0.016 A 
ATOM     48  C   UNL A   1      39.611  32.517  32.222  1.00  0.00     0.010 A 
ATOM     49  C   UNL A   1      37.954  31.114  33.357  1.00  0.00     0.010 A 
ATOM     50  C   UNL A   1      39.215  31.719  33.303  1.00  0.00    -0.014 A 
BRANCH  50  51
ATOM     51  C   UNL A   1      40.192  31.483  34.363  1.00  0.00     0.031 A 
ATOM     52  C   UNL A   1      41.026  30.249  34.296  1.00  0.00     0.074 A 
ATOM     53  C   UNL A   1      40.331  32.430  35.299  1.00  0.00     0.049 A 
ATOM     54  N   UNL A   1      41.994  29.870  35.081  1.00  0.00    -0.248 NA
ATOM     55  C   UNL A   1      40.735  29.314  33.194  1.00  0.00     0.031 C 
ATOM     56  C   UNL A   1      39.540  33.662  35.368  1.00  0.00     0.029 A 
ATOM     57  N   UNL A   1      41.182  32.512  36.358  1.00  0.00    -0.354 N 
ATOM     58  C   UNL A   1      42.435  28.659  34.569  1.00  0.00     0.074 A 
ATOM     59  C   UNL A   1      41.607  28.344  33.425  1.00  0.00     0.031 C 
ATOM     60  C   UNL A   1      39.948  34.381  36.423  1.00  0.00     0.029 A 
ATOM     61  C   UNL A   1      41.000  33.642  37.111  1.00  0.00     0.049 A 
ATOM     62  H   UNL A   1      41.862  31.829  36.562  1.00  0.00     0.167 HD
ATOM     63  C   UNL A   1      43.451  27.894  35.028  1.00  0.00     0.037 A 
ATOM     64  C   UNL A   1      41.619  34.012  38.244  1.00  0.00     0.037 A 
ATOM     65  C   UNL A   1      44.224  28.250  36.189  1.00  0.00     0.049 A 
ATOM     66  C   UNL A   1      42.707  33.112  38.761  1.00  0.00     0.074 A 
ATOM     67  C   UNL A   1      45.281  27.575  36.767  1.00  0.00     0.029 A 
ATOM     68  N   UNL A   1      44.001  29.388  36.959  1.00  0.00    -0.354 N 
ATOM     69  N   UNL A   1      43.152  31.983  38.259  1.00  0.00    -0.248 NA
ATOM     70  C   UNL A   1      43.384  33.537  39.987  1.00  0.00     0.031 C 
ATOM     71  C   UNL A   1      45.655  28.272  37.922  1.00  0.00     0.029 A 
ATOM     72  C   UNL A   1      44.881  29.418  38.027  1.00  0.00     0.049 A 
ATOM     73  H   UNL A   1      43.317  30.071  36.772  1.00  0.00     0.167 HD
ATOM     74  C   UNL A   1      44.179  31.571  39.094  1.00  0.00     0.074 A 
ATOM     75  C   UNL A   1      44.300  32.589  40.122  1.00  0.00     0.031 C 
ATOM     76  C   UNL A   1      44.953  30.458  39.027  1.00  0.00     0.037 A 
BRANCH  63  77
ATOM     77  C   UNL A   1      43.740  26.609  34.308  1.00  0.00     0.064 A 
ATOM     78  C   UNL A   1      44.579  26.557  33.184  1.00  0.00     0.173 A 
ATOM     79  C   UNL A   1      43.172  25.406  34.752  1.00  0.00     0.173 A 
ATOM     80  F   UNL A   1      45.131  27.680  32.700  1.00  0.00    -0.203 F 
ATOM     81  C   UNL A   1      44.818  25.355  32.518  1.00  0.00     0.198 A 
ATOM     82  C   UNL A   1      43.437  24.201  34.105  1.00  0.00     0.198 A 
ATOM     83  F   UNL A   1      42.355  25.394  35.817  1.00  0.00    -0.203 F 
ATOM     84  F   UNL A   1      45.579  25.341  31.415  1.00  0.00    -0.200 F 
ATOM     85  C   UNL A   1      44.254  24.178  32.984  1.00  0.00     0.200 A 
ATOM     86  F   UNL A   1      42.896  23.063  34.561  1.00  0.00    -0.200 F 
ATOM     87  F   UNL A   1      44.486  23.022  32.346  1.00  0.00    -0.200 F 
ENDBRANCH  63  77
BRANCH  64  88
ATOM     88  C   UNL A   1      41.221  35.266  38.929  1.00  0.00     0.064 A 
ATOM     89  C   UNL A   1      41.953  36.448  38.763  1.00  0.00     0.173 A 
ATOM     90  C   UNL A   1      40.076  35.318  39.738  1.00  0.00     0.173 A 
ATOM     91  F   UNL A   1      43.057  36.451  38.002  1.00  0.00    -0.203 F 
ATOM     92  C   UNL A   1      41.568  37.628  39.397  1.00  0.00     0.198 A 
ATOM     93  C   UNL A   1      39.674  36.505  40.346  1.00  0.00     0.198 A 
ATOM     94  F   UNL A   1      39.329  34.218  39.918  1.00  0.00    -0.203 F 
ATOM     95  F   UNL A   1      42.309  38.735  39.251  1.00  0.00    -0.200 F 
ATOM     96  C   UNL A   1      40.426  37.657  40.183  1.00  0.00     0.200 A 
ATOM     97  F   UNL A   1      38.556  36.532  41.084  1.00  0.00    -0.200 F 
ATOM     98  F   UNL A   1      40.051  38.795  40.783  1.00  0.00    -0.200 F 
ENDBRANCH  64  88
BRANCH  76  99
ATOM     99  C   UNL A   1      46.006  30.314  40.085  1.00  0.00     0.064 A 
ATOM    100  C   UNL A   1      47.273  30.897  39.946  1.00  0.00     0.173 A 
ATOM    101  C   UNL A   1      45.728  29.606  41.264  1.00  0.00     0.173 A 
ATOM    102  F   UNL A   1      47.590  31.569  38.829  1.00  0.00    -0.203 F 
ATOM    103  C   UNL A   1      48.238  30.747  40.936  1.00  0.00     0.198 A 
ATOM    104  C   UNL A   1      46.681  29.492  42.268  1.00  0.00     0.198 A 
ATOM    105  F   UNL A   1      44.526  29.038  41.446  1.00  0.00    -0.203 F 
ATOM    106  F   UNL A   1      49.463  31.258  40.757  1.00  0.00    -0.200 F 
ATOM    107  C   UNL A   1      47.938  30.053  42.100  1.00  0.00     0.200 A 
ATOM    108  F   UNL A   1      46.384  28.839  43.400  1.00  0.00    -0.200 F 
ATOM    109  F   UNL A   1      48.867  29.917  43.056  1.00  0.00    -0.200 F 
ENDBRANCH  76  99
ENDBRANCH  50  51
ENDBRANCH  43  45
ENDBRANCH  42  43
ENDBRANCH  41  42
ENDBRANCH  40  41
ENDBRANCH  39  40
ENDBRANCH  38  39
ENDBRANCH  37  38
ENDBRANCH  36  37
ENDBRANCH   1  36
TORSDOF 25
ENDMDL
