MODEL 1
REMARK VINA RESULT:      -9.9      0.000      0.000
REMARK SMILES C=CCOC(=O)N[C@@H](Cc1ccccc1)C(=O)OCCOCCOCCOCCOC(=O)c1ccc(-c2c3nc(c(-c4c(F)c(F)c(F)c(F)c4F)c4ccc([nH]4)c(-c4c(F)c(F)c(F)c(F)c4F)c4nc(c(-c5c(F)c(F)c(F)c(F)c5F)c5ccc2[nH]5)C=C4)C=C3)cc1
REMARK SMILES IDX 23 1 22 2 21 3 20 4 19 5 18 6 16 7 17 8 8 9 7 10 5 11 6 12
REMARK SMILES IDX 4 14 3 15 2 16 1 17 9 18 10 19 11 20 15 21 12 22 14 23 13 24
REMARK SMILES IDX 24 25 25 26 26 27 27 28 28 29 29 30 30 31 31 32 32 33 33 34
REMARK SMILES IDX 34 35 95 36 35 37 94 38 36 39 37 40 38 41 88 42 39 43 93 44
REMARK SMILES IDX 87 45 89 46 40 47 92 48 86 49 85 50 41 52 73 53 53 54 72 55
REMARK SMILES IDX 54 56 57 57 71 58 90 59 55 60 56 61 70 63 91 64 58 65 42 66
REMARK SMILES IDX 43 67 51 68 44 69 45 70 49 71 52 72 46 73 47 74 50 75 48 76
REMARK SMILES IDX 74 77 75 78 83 79 76 80 77 81 81 82 84 83 78 84 79 85 82 86
REMARK SMILES IDX 80 87 59 88 60 89 68 90 61 91 62 92 66 93 69 94 63 95 64 96
REMARK SMILES IDX 67 97 65 98
REMARK H PARENT 7 13 89 51 57 62
REMARK Flexibility Score: inf
ROOT
ATOM      1  C   UNL A   1      31.131  27.110  25.870  1.00  0.00     0.188 C 
ENDROOT
BRANCH   1   2
ATOM      2  C   UNL A   1      30.556  25.682  25.828  1.00  0.00     0.188 C 
BRANCH   2   3
ATOM      3  O   UNL A   1      30.907  24.719  26.814  1.00  0.00    -0.376 OA
BRANCH   3   4
ATOM      4  C   UNL A   1      30.462  23.376  26.706  1.00  0.00     0.202 C 
BRANCH   4   5
ATOM      5  C   UNL A   1      31.257  22.348  25.886  1.00  0.00     0.261 C 
BRANCH   5   6
ATOM      6  O   UNL A   1      32.684  22.383  26.054  1.00  0.00    -0.462 OA
BRANCH   6   7
ATOM      7  C   UNL A   1      33.308  21.189  26.214  1.00  0.00     0.329 C 
ATOM      8  O   UNL A   1      33.416  20.606  27.289  1.00  0.00    -0.250 OA
BRANCH   7   9
ATOM      9  C   UNL A   1      34.009  20.689  24.933  1.00  0.00     0.199 C 
BRANCH   9  10
ATOM     10  N   UNL A   1      35.290  19.974  25.034  1.00  0.00    -0.308 N 
ATOM     11  C   UNL A   1      36.549  20.495  25.081  1.00  0.00     0.408 C 
ATOM     12  O   UNL A   1      37.534  19.788  24.888  1.00  0.00    -0.225 OA
ATOM     13  H   UNL A   1      35.230  18.992  25.074  1.00  0.00     0.168 HD
BRANCH  11  14
ATOM     14  O   UNL A   1      36.581  21.811  25.399  1.00  0.00    -0.445 OA
BRANCH  14  15
ATOM     15  C   UNL A   1      37.355  22.653  24.527  1.00  0.00     0.262 C 
BRANCH  15  16
ATOM     16  C   UNL A   1      36.674  22.906  23.210  1.00  0.00     0.006 C 
ATOM     17  C   UNL A   1      35.392  23.282  23.097  1.00  0.00     0.007 C 
ENDBRANCH  15  16
ENDBRANCH  14  15
ENDBRANCH  11  14
ENDBRANCH   9  10
BRANCH   9  18
ATOM     18  C   UNL A   1      32.990  19.789  24.201  1.00  0.00     0.072 C 
BRANCH  18  19
ATOM     19  C   UNL A   1      33.181  18.313  24.511  1.00  0.00    -0.045 A 
ATOM     20  C   UNL A   1      32.529  17.724  25.604  1.00  0.00     0.004 A 
ATOM     21  C   UNL A   1      33.934  17.498  23.653  1.00  0.00     0.004 A 
ATOM     22  C   UNL A   1      32.602  16.348  25.817  1.00  0.00     0.000 A 
ATOM     23  C   UNL A   1      34.012  16.121  23.872  1.00  0.00     0.000 A 
ATOM     24  C   UNL A   1      33.342  15.546  24.951  1.00  0.00     0.000 A 
ENDBRANCH  18  19
ENDBRANCH   9  18
ENDBRANCH   7   9
ENDBRANCH   6   7
ENDBRANCH   5   6
ENDBRANCH   4   5
ENDBRANCH   3   4
ENDBRANCH   2   3
ENDBRANCH   1   2
BRANCH   1  25
ATOM     25  O   UNL A   1      31.682  27.512  27.110  1.00  0.00    -0.377 OA
BRANCH  25  26
ATOM     26  C   UNL A   1      31.681  28.906  27.371  1.00  0.00     0.188 C 
BRANCH  26  27
ATOM     27  C   UNL A   1      32.399  29.809  26.350  1.00  0.00     0.188 C 
BRANCH  27  28
ATOM     28  O   UNL A   1      33.746  30.115  26.688  1.00  0.00    -0.376 OA
BRANCH  28  29
ATOM     29  C   UNL A   1      34.020  31.226  27.530  1.00  0.00     0.202 C 
BRANCH  29  30
ATOM     30  C   UNL A   1      32.984  32.361  27.612  1.00  0.00     0.261 C 
BRANCH  30  31
ATOM     31  O   UNL A   1      33.483  33.700  27.458  1.00  0.00    -0.460 OA
BRANCH  31  32
ATOM     32  C   UNL A   1      33.395  34.525  28.519  1.00  0.00     0.338 C 
ATOM     33  O   UNL A   1      32.521  35.339  28.750  1.00  0.00    -0.246 OA
BRANCH  32  34
ATOM     34  C   UNL A   1      34.443  34.140  29.488  1.00  0.00     0.060 A 
ATOM     35  C   UNL A   1      35.784  34.320  29.124  1.00  0.00     0.016 A 
ATOM     36  C   UNL A   1      34.117  33.591  30.732  1.00  0.00     0.016 A 
ATOM     37  C   UNL A   1      36.800  33.895  29.974  1.00  0.00     0.010 A 
ATOM     38  C   UNL A   1      35.139  33.147  31.577  1.00  0.00     0.010 A 
ATOM     39  C   UNL A   1      36.482  33.254  31.179  1.00  0.00    -0.014 A 
BRANCH  39  40
ATOM     40  C   UNL A   1      37.555  32.522  31.898  1.00  0.00     0.031 A 
ATOM     41  C   UNL A   1      38.229  31.372  31.201  1.00  0.00     0.074 A 
ATOM     42  C   UNL A   1      37.978  32.924  33.109  1.00  0.00     0.049 A 
ATOM     43  N   UNL A   1      39.227  30.623  31.601  1.00  0.00    -0.248 NA
ATOM     44  C   UNL A   1      37.711  31.019  29.870  1.00  0.00     0.031 C 
ATOM     45  C   UNL A   1      37.429  34.045  33.865  1.00  0.00     0.029 A 
ATOM     46  N   UNL A   1      38.979  32.433  33.908  1.00  0.00    -0.354 N 
ATOM     47  C   UNL A   1      39.453  29.716  30.573  1.00  0.00     0.074 A 
ATOM     48  C   UNL A   1      38.463  29.977  29.550  1.00  0.00     0.031 C 
ATOM     49  C   UNL A   1      38.103  34.160  35.023  1.00  0.00     0.029 A 
ATOM     50  C   UNL A   1      39.112  33.105  35.097  1.00  0.00     0.049 A 
ATOM     51  H   UNL A   1      39.548  31.671  33.653  1.00  0.00     0.167 HD
ATOM     52  C   UNL A   1      40.408  28.760  30.483  1.00  0.00     0.037 A 
ATOM     53  C   UNL A   1      39.949  32.883  36.129  1.00  0.00     0.037 A 
ATOM     54  C   UNL A   1      41.387  28.498  31.506  1.00  0.00     0.049 A 
ATOM     55  C   UNL A   1      40.963  31.770  36.031  1.00  0.00     0.074 A 
ATOM     56  C   UNL A   1      42.403  27.557  31.508  1.00  0.00     0.029 A 
ATOM     57  N   UNL A   1      41.464  29.172  32.716  1.00  0.00    -0.354 N 
ATOM     58  N   UNL A   1      41.190  30.936  35.044  1.00  0.00    -0.248 NA
ATOM     59  C   UNL A   1      41.846  31.580  37.189  1.00  0.00     0.031 C 
ATOM     60  C   UNL A   1      43.054  27.621  32.745  1.00  0.00     0.029 A 
ATOM     61  C   UNL A   1      42.495  28.652  33.484  1.00  0.00     0.049 A 
ATOM     62  H   UNL A   1      40.874  29.912  32.989  1.00  0.00     0.167 HD
ATOM     63  C   UNL A   1      42.264  30.150  35.446  1.00  0.00     0.074 A 
ATOM     64  C   UNL A   1      42.654  30.622  36.758  1.00  0.00     0.031 C 
ATOM     65  C   UNL A   1      42.874  29.131  34.789  1.00  0.00     0.037 A 
BRANCH  52  66
ATOM     66  C   UNL A   1      40.419  27.905  29.247  1.00  0.00     0.064 A 
ATOM     67  C   UNL A   1      39.640  26.744  29.139  1.00  0.00     0.173 A 
ATOM     68  C   UNL A   1      41.206  28.269  28.142  1.00  0.00     0.173 A 
ATOM     69  F   UNL A   1      38.882  26.340  30.171  1.00  0.00    -0.203 F 
ATOM     70  C   UNL A   1      39.668  25.965  27.985  1.00  0.00     0.198 A 
ATOM     71  C   UNL A   1      41.204  27.507  26.976  1.00  0.00     0.198 A 
ATOM     72  F   UNL A   1      41.970  29.371  28.189  1.00  0.00    -0.203 F 
ATOM     73  F   UNL A   1      38.955  24.831  27.925  1.00  0.00    -0.200 F 
ATOM     74  C   UNL A   1      40.442  26.352  26.902  1.00  0.00     0.200 A 
ATOM     75  F   UNL A   1      41.943  27.891  25.927  1.00  0.00    -0.200 F 
ATOM     76  F   UNL A   1      40.461  25.606  25.787  1.00  0.00    -0.200 F 
ENDBRANCH  52  66
BRANCH  53  77
ATOM     77  C   UNL A   1      39.871  33.731  37.349  1.00  0.00     0.064 A 
ATOM     78  C   UNL A   1      40.689  34.859  37.506  1.00  0.00     0.173 A 
ATOM     79  C   UNL A   1      38.994  33.414  38.397  1.00  0.00     0.173 A 
ATOM     80  F   UNL A   1      41.562  35.192  36.544  1.00  0.00    -0.203 F 
ATOM     81  C   UNL A   1      40.653  35.619  38.674  1.00  0.00     0.198 A 
ATOM     82  C   UNL A   1      38.934  34.194  39.550  1.00  0.00     0.198 A 
ATOM     83  F   UNL A   1      38.189  32.345  38.300  1.00  0.00    -0.203 F 
ATOM     84  F   UNL A   1      41.488  36.657  38.821  1.00  0.00    -0.200 F 
ATOM     85  C   UNL A   1      39.771  35.290  39.692  1.00  0.00     0.200 A 
ATOM     86  F   UNL A   1      38.069  33.881  40.524  1.00  0.00    -0.200 F 
ATOM     87  F   UNL A   1      39.735  36.022  40.814  1.00  0.00    -0.200 F 
ENDBRANCH  53  77
BRANCH  65  88
ATOM     88  C   UNL A   1      44.061  28.495  35.460  1.00  0.00     0.064 A 
ATOM     89  C   UNL A   1      43.940  27.347  36.259  1.00  0.00     0.173 A 
ATOM     90  C   UNL A   1      45.344  29.044  35.299  1.00  0.00     0.173 A 
ATOM     91  F   UNL A   1      42.737  26.784  36.454  1.00  0.00    -0.203 F 
ATOM     92  C   UNL A   1      45.044  26.808  36.914  1.00  0.00     0.198 A 
ATOM     93  C   UNL A   1      46.453  28.478  35.922  1.00  0.00     0.198 A 
ATOM     94  F   UNL A   1      45.523  30.133  34.535  1.00  0.00    -0.203 F 
ATOM     95  F   UNL A   1      44.888  25.761  37.735  1.00  0.00    -0.200 F 
ATOM     96  C   UNL A   1      46.300  27.372  36.742  1.00  0.00     0.200 A 
ATOM     97  F   UNL A   1      47.667  29.011  35.738  1.00  0.00    -0.200 F 
ATOM     98  F   UNL A   1      47.361  26.854  37.377  1.00  0.00    -0.200 F 
ENDBRANCH  65  88
ENDBRANCH  39  40
ENDBRANCH  32  34
ENDBRANCH  31  32
ENDBRANCH  30  31
ENDBRANCH  29  30
ENDBRANCH  28  29
ENDBRANCH  27  28
ENDBRANCH  26  27
ENDBRANCH  25  26
ENDBRANCH   1  25
TORSDOF 26
ENDMDL
MODEL 2
REMARK VINA RESULT:      -9.8      2.034      3.147
REMARK SMILES C=CCOC(=O)N[C@@H](Cc1ccccc1)C(=O)OCCOCCOCCOCCOC(=O)c1ccc(-c2c3nc(c(-c4c(F)c(F)c(F)c(F)c4F)c4ccc([nH]4)c(-c4c(F)c(F)c(F)c(F)c4F)c4nc(c(-c5c(F)c(F)c(F)c(F)c5F)c5ccc2[nH]5)C=C4)C=C3)cc1
REMARK SMILES IDX 23 1 22 2 21 3 20 4 19 5 18 6 16 7 17 8 8 9 7 10 5 11 6 12
REMARK SMILES IDX 4 14 3 15 2 16 1 17 9 18 10 19 11 20 15 21 12 22 14 23 13 24
REMARK SMILES IDX 24 25 25 26 26 27 27 28 28 29 29 30 30 31 31 32 32 33 33 34
REMARK SMILES IDX 34 35 95 36 35 37 94 38 36 39 37 40 38 41 88 42 39 43 93 44
REMARK SMILES IDX 87 45 89 46 40 47 92 48 86 49 85 50 41 52 73 53 53 54 72 55
REMARK SMILES IDX 54 56 57 57 71 58 90 59 55 60 56 61 70 63 91 64 58 65 42 66
REMARK SMILES IDX 43 67 51 68 44 69 45 70 49 71 52 72 46 73 47 74 50 75 48 76
REMARK SMILES IDX 74 77 75 78 83 79 76 80 77 81 81 82 84 83 78 84 79 85 82 86
REMARK SMILES IDX 80 87 59 88 60 89 68 90 61 91 62 92 66 93 69 94 63 95 64 96
REMARK SMILES IDX 67 97 65 98
REMARK H PARENT 7 13 89 51 57 62
REMARK Flexibility Score: inf
ROOT
ATOM      1  C   UNL A   1      31.455  26.596  25.942  1.00  0.00     0.188 C 
ENDROOT
BRANCH   1   2
ATOM      2  C   UNL A   1      30.736  25.344  26.478  1.00  0.00     0.188 C 
BRANCH   2   3
ATOM      3  O   UNL A   1      31.432  24.371  27.248  1.00  0.00    -0.376 OA
BRANCH   3   4
ATOM      4  C   UNL A   1      31.356  22.994  26.915  1.00  0.00     0.202 C 
BRANCH   4   5
ATOM      5  C   UNL A   1      30.733  22.540  25.585  1.00  0.00     0.261 C 
BRANCH   5   6
ATOM      6  O   UNL A   1      31.644  22.400  24.483  1.00  0.00    -0.462 OA
BRANCH   6   7
ATOM      7  C   UNL A   1      31.578  23.347  23.513  1.00  0.00     0.329 C 
ATOM      8  O   UNL A   1      30.544  23.915  23.174  1.00  0.00    -0.250 OA
BRANCH   7   9
ATOM      9  C   UNL A   1      32.911  23.546  22.762  1.00  0.00     0.199 C 
BRANCH   9  10
ATOM     10  N   UNL A   1      32.899  24.006  21.364  1.00  0.00    -0.308 N 
ATOM     11  C   UNL A   1      33.061  25.273  20.889  1.00  0.00     0.408 C 
ATOM     12  O   UNL A   1      32.757  25.559  19.734  1.00  0.00    -0.225 OA
ATOM     13  H   UNL A   1      32.754  23.307  20.686  1.00  0.00     0.168 HD
BRANCH  11  14
ATOM     14  O   UNL A   1      33.619  26.122  21.784  1.00  0.00    -0.445 OA
BRANCH  14  15
ATOM     15  C   UNL A   1      33.198  27.495  21.700  1.00  0.00     0.262 C 
BRANCH  15  16
ATOM     16  C   UNL A   1      34.023  28.409  22.563  1.00  0.00     0.006 C 
ATOM     17  C   UNL A   1      34.017  28.370  23.904  1.00  0.00     0.007 C 
ENDBRANCH  15  16
ENDBRANCH  14  15
ENDBRANCH  11  14
ENDBRANCH   9  10
BRANCH   9  18
ATOM     18  C   UNL A   1      33.745  24.534  23.605  1.00  0.00     0.072 C 
BRANCH  18  19
ATOM     19  C   UNL A   1      34.993  23.896  24.194  1.00  0.00    -0.045 A 
ATOM     20  C   UNL A   1      35.342  24.115  25.534  1.00  0.00     0.004 A 
ATOM     21  C   UNL A   1      35.761  23.002  23.432  1.00  0.00     0.004 A 
ATOM     22  C   UNL A   1      36.414  23.434  26.109  1.00  0.00     0.000 A 
ATOM     23  C   UNL A   1      36.838  22.326  24.008  1.00  0.00     0.000 A 
ATOM     24  C   UNL A   1      37.161  22.538  25.347  1.00  0.00     0.000 A 
ENDBRANCH  18  19
ENDBRANCH   9  18
ENDBRANCH   7   9
ENDBRANCH   6   7
ENDBRANCH   5   6
ENDBRANCH   4   5
ENDBRANCH   3   4
ENDBRANCH   2   3
ENDBRANCH   1   2
BRANCH   1  25
ATOM     25  O   UNL A   1      32.300  27.259  26.863  1.00  0.00    -0.377 OA
BRANCH  25  26
ATOM     26  C   UNL A   1      31.783  28.447  27.442  1.00  0.00     0.188 C 
BRANCH  26  27
ATOM     27  C   UNL A   1      32.204  29.780  26.795  1.00  0.00     0.188 C 
BRANCH  27  28
ATOM     28  O   UNL A   1      33.578  30.104  26.969  1.00  0.00    -0.376 OA
BRANCH  28  29
ATOM     29  C   UNL A   1      33.934  31.321  27.609  1.00  0.00     0.202 C 
BRANCH  29  30
ATOM     30  C   UNL A   1      32.913  32.473  27.622  1.00  0.00     0.261 C 
BRANCH  30  31
ATOM     31  O   UNL A   1      33.438  33.800  27.457  1.00  0.00    -0.460 OA
BRANCH  31  32
ATOM     32  C   UNL A   1      33.382  34.630  28.517  1.00  0.00     0.338 C 
ATOM     33  O   UNL A   1      32.519  35.451  28.765  1.00  0.00    -0.246 OA
BRANCH  32  34
ATOM     34  C   UNL A   1      34.449  34.240  29.463  1.00  0.00     0.060 A 
ATOM     35  C   UNL A   1      35.781  34.336  29.039  1.00  0.00     0.016 A 
ATOM     36  C   UNL A   1      34.148  33.768  30.744  1.00  0.00     0.016 A 
ATOM     37  C   UNL A   1      36.810  33.902  29.870  1.00  0.00     0.010 A 
ATOM     38  C   UNL A   1      35.181  33.314  31.570  1.00  0.00     0.010 A 
ATOM     39  C   UNL A   1      36.511  33.336  31.116  1.00  0.00    -0.014 A 
BRANCH  39  40
ATOM     40  C   UNL A   1      37.576  32.587  31.828  1.00  0.00     0.031 A 
ATOM     41  C   UNL A   1      38.240  31.437  31.122  1.00  0.00     0.074 A 
ATOM     42  C   UNL A   1      38.003  32.974  33.043  1.00  0.00     0.049 A 
ATOM     43  N   UNL A   1      39.229  30.675  31.515  1.00  0.00    -0.248 NA
ATOM     44  C   UNL A   1      37.718  31.101  29.787  1.00  0.00     0.031 C 
ATOM     45  C   UNL A   1      37.465  34.094  33.809  1.00  0.00     0.029 A 
ATOM     46  N   UNL A   1      38.999  32.466  33.837  1.00  0.00    -0.354 N 
ATOM     47  C   UNL A   1      39.447  29.775  30.479  1.00  0.00     0.074 A 
ATOM     48  C   UNL A   1      38.460  30.055  29.458  1.00  0.00     0.031 C 
ATOM     49  C   UNL A   1      38.140  34.191  34.968  1.00  0.00     0.029 A 
ATOM     50  C   UNL A   1      39.138  33.126  35.033  1.00  0.00     0.049 A 
ATOM     51  H   UNL A   1      39.561  31.701  33.576  1.00  0.00     0.167 HD
ATOM     52  C   UNL A   1      40.392  28.810  30.380  1.00  0.00     0.037 A 
ATOM     53  C   UNL A   1      39.973  32.887  36.063  1.00  0.00     0.037 A 
ATOM     54  C   UNL A   1      41.369  28.529  31.401  1.00  0.00     0.049 A 
ATOM     55  C   UNL A   1      40.976  31.765  35.956  1.00  0.00     0.074 A 
ATOM     56  C   UNL A   1      42.375  27.579  31.395  1.00  0.00     0.029 A 
ATOM     57  N   UNL A   1      41.452  29.191  32.617  1.00  0.00    -0.354 N 
ATOM     58  N   UNL A   1      41.195  30.937  34.961  1.00  0.00    -0.248 NA
ATOM     59  C   UNL A   1      41.857  31.555  37.112  1.00  0.00     0.031 C 
ATOM     60  C   UNL A   1      43.027  27.625  32.633  1.00  0.00     0.029 A 
ATOM     61  C   UNL A   1      42.477  28.654  33.381  1.00  0.00     0.049 A 
ATOM     62  H   UNL A   1      40.870  29.935  32.897  1.00  0.00     0.167 HD
ATOM     63  C   UNL A   1      42.261  30.137  35.356  1.00  0.00     0.074 A 
ATOM     64  C   UNL A   1      42.655  30.593  36.672  1.00  0.00     0.031 C 
ATOM     65  C   UNL A   1      42.861  29.118  34.690  1.00  0.00     0.037 A 
BRANCH  52  66
ATOM     66  C   UNL A   1      40.396  27.966  29.136  1.00  0.00     0.064 A 
ATOM     67  C   UNL A   1      41.147  28.316  28.004  1.00  0.00     0.173 A 
ATOM     68  C   UNL A   1      39.655  26.775  29.087  1.00  0.00     0.173 A 
ATOM     69  F   UNL A   1      41.860  29.453  27.991  1.00  0.00    -0.203 F 
ATOM     70  C   UNL A   1      41.134  27.521  26.860  1.00  0.00     0.198 A 
ATOM     71  C   UNL A   1      39.673  25.964  27.955  1.00  0.00     0.198 A 
ATOM     72  F   UNL A   1      38.920  26.391  30.141  1.00  0.00    -0.203 F 
ATOM     73  F   UNL A   1      41.817  27.902  25.772  1.00  0.00    -0.200 F 
ATOM     74  C   UNL A   1      40.405  26.342  26.840  1.00  0.00     0.200 A 
ATOM     75  F   UNL A   1      38.978  24.818  27.943  1.00  0.00    -0.200 F 
ATOM     76  F   UNL A   1      40.401  25.572  25.742  1.00  0.00    -0.200 F 
ENDBRANCH  52  66
BRANCH  53  77
ATOM     77  C   UNL A   1      39.903  33.724  37.290  1.00  0.00     0.064 A 
ATOM     78  C   UNL A   1      38.986  33.444  38.314  1.00  0.00     0.173 A 
ATOM     79  C   UNL A   1      40.734  34.844  37.452  1.00  0.00     0.173 A 
ATOM     80  F   UNL A   1      38.153  32.399  38.198  1.00  0.00    -0.203 F 
ATOM     81  C   UNL A   1      38.886  34.263  39.436  1.00  0.00     0.198 A 
ATOM     82  C   UNL A   1      40.656  35.643  38.591  1.00  0.00     0.198 A 
ATOM     83  F   UNL A   1      41.628  35.159  36.503  1.00  0.00    -0.203 F 
ATOM     84  F   UNL A   1      37.961  34.004  40.371  1.00  0.00    -0.200 F 
ATOM     85  C   UNL A   1      39.725  35.358  39.577  1.00  0.00     0.200 A 
ATOM     86  F   UNL A   1      41.479  36.690  38.728  1.00  0.00    -0.200 F 
ATOM     87  F   UNL A   1      39.628  36.145  40.658  1.00  0.00    -0.200 F 
ENDBRANCH  53  77
BRANCH  65  88
ATOM     88  C   UNL A   1      44.041  28.464  35.355  1.00  0.00     0.064 A 
ATOM     89  C   UNL A   1      43.893  27.400  36.259  1.00  0.00     0.173 A 
ATOM     90  C   UNL A   1      45.345  28.910  35.082  1.00  0.00     0.173 A 
ATOM     91  F   UNL A   1      42.671  26.939  36.564  1.00  0.00    -0.203 F 
ATOM     92  C   UNL A   1      44.997  26.848  36.905  1.00  0.00     0.198 A 
ATOM     93  C   UNL A   1      46.450  28.326  35.697  1.00  0.00     0.198 A 
ATOM     94  F   UNL A   1      45.549  29.913  34.215  1.00  0.00    -0.203 F 
ATOM     95  F   UNL A   1      44.822  25.888  37.823  1.00  0.00    -0.200 F 
ATOM     96  C   UNL A   1      46.274  27.308  36.620  1.00  0.00     0.200 A 
ATOM     97  F   UNL A   1      47.683  28.759  35.405  1.00  0.00    -0.200 F 
ATOM     98  F   UNL A   1      47.334  26.778  37.246  1.00  0.00    -0.200 F 
ENDBRANCH  65  88
ENDBRANCH  39  40
ENDBRANCH  32  34
ENDBRANCH  31  32
ENDBRANCH  30  31
ENDBRANCH  29  30
ENDBRANCH  28  29
ENDBRANCH  27  28
ENDBRANCH  26  27
ENDBRANCH  25  26
ENDBRANCH   1  25
TORSDOF 26
ENDMDL
MODEL 3
REMARK VINA RESULT:      -9.8      2.434      8.226
REMARK SMILES C=CCOC(=O)N[C@@H](Cc1ccccc1)C(=O)OCCOCCOCCOCCOC(=O)c1ccc(-c2c3nc(c(-c4c(F)c(F)c(F)c(F)c4F)c4ccc([nH]4)c(-c4c(F)c(F)c(F)c(F)c4F)c4nc(c(-c5c(F)c(F)c(F)c(F)c5F)c5ccc2[nH]5)C=C4)C=C3)cc1
REMARK SMILES IDX 23 1 22 2 21 3 20 4 19 5 18 6 16 7 17 8 8 9 7 10 5 11 6 12
REMARK SMILES IDX 4 14 3 15 2 16 1 17 9 18 10 19 11 20 15 21 12 22 14 23 13 24
REMARK SMILES IDX 24 25 25 26 26 27 27 28 28 29 29 30 30 31 31 32 32 33 33 34
REMARK SMILES IDX 34 35 95 36 35 37 94 38 36 39 37 40 38 41 88 42 39 43 93 44
REMARK SMILES IDX 87 45 89 46 40 47 92 48 86 49 85 50 41 52 73 53 53 54 72 55
REMARK SMILES IDX 54 56 57 57 71 58 90 59 55 60 56 61 70 63 91 64 58 65 42 66
REMARK SMILES IDX 43 67 51 68 44 69 45 70 49 71 52 72 46 73 47 74 50 75 48 76
REMARK SMILES IDX 74 77 75 78 83 79 76 80 77 81 81 82 84 83 78 84 79 85 82 86
REMARK SMILES IDX 80 87 59 88 60 89 68 90 61 91 62 92 66 93 69 94 63 95 64 96
REMARK SMILES IDX 67 97 65 98
REMARK H PARENT 7 13 89 51 57 62
REMARK Flexibility Score: inf
ROOT
ATOM      1  C   UNL A   1      30.977  25.183  26.481  1.00  0.00     0.188 C 
ENDROOT
BRANCH   1   2
ATOM      2  C   UNL A   1      31.557  23.757  26.538  1.00  0.00     0.188 C 
BRANCH   2   3
ATOM      3  O   UNL A   1      31.978  23.087  25.356  1.00  0.00    -0.376 OA
BRANCH   3   4
ATOM      4  C   UNL A   1      31.105  22.962  24.244  1.00  0.00     0.202 C 
BRANCH   4   5
ATOM      5  C   UNL A   1      31.025  24.066  23.178  1.00  0.00     0.261 C 
BRANCH   5   6
ATOM      6  O   UNL A   1      32.123  24.122  22.251  1.00  0.00    -0.462 OA
BRANCH   6   7
ATOM      7  C   UNL A   1      32.733  25.324  22.102  1.00  0.00     0.329 C 
ATOM      8  O   UNL A   1      33.397  25.643  21.119  1.00  0.00    -0.250 OA
BRANCH   7   9
ATOM      9  C   UNL A   1      32.640  26.218  23.356  1.00  0.00     0.199 C 
BRANCH   9  10
ATOM     10  N   UNL A   1      33.675  26.124  24.397  1.00  0.00    -0.308 N 
ATOM     11  C   UNL A   1      34.534  25.095  24.645  1.00  0.00     0.408 C 
ATOM     12  O   UNL A   1      35.153  25.029  25.704  1.00  0.00    -0.225 OA
ATOM     13  H   UNL A   1      33.757  26.905  24.991  1.00  0.00     0.168 HD
BRANCH  11  14
ATOM     14  O   UNL A   1      34.654  24.225  23.614  1.00  0.00    -0.445 OA
BRANCH  14  15
ATOM     15  C   UNL A   1      34.940  22.861  23.967  1.00  0.00     0.262 C 
BRANCH  15  16
ATOM     16  C   UNL A   1      36.383  22.495  23.751  1.00  0.00     0.006 C 
ATOM     17  C   UNL A   1      37.392  22.988  24.485  1.00  0.00     0.007 C 
ENDBRANCH  15  16
ENDBRANCH  14  15
ENDBRANCH  11  14
ENDBRANCH   9  10
BRANCH   9  18
ATOM     18  C   UNL A   1      32.569  27.675  22.851  1.00  0.00     0.072 C 
BRANCH  18  19
ATOM     19  C   UNL A   1      31.143  28.183  22.720  1.00  0.00    -0.045 A 
ATOM     20  C   UNL A   1      30.083  27.500  23.335  1.00  0.00     0.004 A 
ATOM     21  C   UNL A   1      30.877  29.394  22.064  1.00  0.00     0.004 A 
ATOM     22  C   UNL A   1      28.794  28.031  23.321  1.00  0.00     0.000 A 
ATOM     23  C   UNL A   1      29.584  29.920  22.046  1.00  0.00     0.000 A 
ATOM     24  C   UNL A   1      28.544  29.241  22.678  1.00  0.00     0.000 A 
ENDBRANCH  18  19
ENDBRANCH   9  18
ENDBRANCH   7   9
ENDBRANCH   6   7
ENDBRANCH   5   6
ENDBRANCH   4   5
ENDBRANCH   3   4
ENDBRANCH   2   3
ENDBRANCH   1   2
BRANCH   1  25
ATOM     25  O   UNL A   1      31.859  26.219  26.870  1.00  0.00    -0.377 OA
BRANCH  25  26
ATOM     26  C   UNL A   1      31.269  27.490  27.091  1.00  0.00     0.188 C 
BRANCH  26  27
ATOM     27  C   UNL A   1      31.979  28.707  26.467  1.00  0.00     0.188 C 
BRANCH  27  28
ATOM     28  O   UNL A   1      31.674  29.945  27.096  1.00  0.00    -0.376 OA
BRANCH  28  29
ATOM     29  C   UNL A   1      32.042  31.161  26.462  1.00  0.00     0.202 C 
BRANCH  29  30
ATOM     30  C   UNL A   1      31.789  32.486  27.205  1.00  0.00     0.261 C 
BRANCH  30  31
ATOM     31  O   UNL A   1      32.857  33.446  27.190  1.00  0.00    -0.460 OA
BRANCH  31  32
ATOM     32  C   UNL A   1      33.345  33.857  28.377  1.00  0.00     0.338 C 
ATOM     33  O   UNL A   1      32.796  34.576  29.191  1.00  0.00    -0.246 OA
BRANCH  32  34
ATOM     34  C   UNL A   1      34.598  33.117  28.639  1.00  0.00     0.060 A 
ATOM     35  C   UNL A   1      34.507  31.803  29.117  1.00  0.00     0.016 A 
ATOM     36  C   UNL A   1      35.848  33.709  28.434  1.00  0.00     0.016 A 
ATOM     37  C   UNL A   1      35.661  31.102  29.452  1.00  0.00     0.010 A 
ATOM     38  C   UNL A   1      37.006  33.010  28.790  1.00  0.00     0.010 A 
ATOM     39  C   UNL A   1      36.913  31.722  29.345  1.00  0.00    -0.014 A 
BRANCH  39  40
ATOM     40  C   UNL A   1      38.078  31.089  30.012  1.00  0.00     0.031 A 
ATOM     41  C   UNL A   1      38.352  31.428  31.452  1.00  0.00     0.074 A 
ATOM     42  C   UNL A   1      38.824  30.169  29.378  1.00  0.00     0.049 A 
ATOM     43  N   UNL A   1      39.270  30.960  32.259  1.00  0.00    -0.248 NA
ATOM     44  C   UNL A   1      37.468  32.431  32.067  1.00  0.00     0.031 C 
ATOM     45  C   UNL A   1      38.633  29.731  27.999  1.00  0.00     0.029 A 
ATOM     46  N   UNL A   1      39.892  29.431  29.824  1.00  0.00    -0.354 N 
ATOM     47  C   UNL A   1      39.073  31.609  33.471  1.00  0.00     0.074 A 
ATOM     48  C   UNL A   1      37.977  32.535  33.285  1.00  0.00     0.031 C 
ATOM     49  C   UNL A   1      39.553  28.794  27.708  1.00  0.00     0.029 A 
ATOM     50  C   UNL A   1      40.412  28.588  28.873  1.00  0.00     0.049 A 
ATOM     51  H   UNL A   1      40.251  29.498  30.738  1.00  0.00     0.167 HD
ATOM     52  C   UNL A   1      39.735  31.439  34.641  1.00  0.00     0.037 A 
ATOM     53  C   UNL A   1      41.468  27.754  28.938  1.00  0.00     0.037 A 
ATOM     54  C   UNL A   1      40.830  30.520  34.821  1.00  0.00     0.049 A 
ATOM     55  C   UNL A   1      42.230  27.629  30.234  1.00  0.00     0.074 A 
ATOM     56  C   UNL A   1      41.564  30.267  35.968  1.00  0.00     0.029 A 
ATOM     57  N   UNL A   1      41.357  29.714  33.823  1.00  0.00    -0.354 N 
ATOM     58  N   UNL A   1      42.019  28.224  31.385  1.00  0.00    -0.248 NA
ATOM     59  C   UNL A   1      43.371  26.704  30.241  1.00  0.00     0.031 C 
ATOM     60  C   UNL A   1      42.573  29.352  35.647  1.00  0.00     0.029 A 
ATOM     61  C   UNL A   1      42.423  28.979  34.321  1.00  0.00     0.049 A 
ATOM     62  H   UNL A   1      41.023  29.669  32.898  1.00  0.00     0.167 HD
ATOM     63  C   UNL A   1      42.974  27.716  32.258  1.00  0.00     0.074 A 
ATOM     64  C   UNL A   1      43.750  26.751  31.509  1.00  0.00     0.031 C 
ATOM     65  C   UNL A   1      43.188  28.020  33.564  1.00  0.00     0.037 A 
BRANCH  52  66
ATOM     66  C   UNL A   1      39.313  32.286  35.808  1.00  0.00     0.064 A 
ATOM     67  C   UNL A   1      38.374  31.840  36.749  1.00  0.00     0.173 A 
ATOM     68  C   UNL A   1      39.878  33.558  36.000  1.00  0.00     0.173 A 
ATOM     69  F   UNL A   1      37.791  30.640  36.604  1.00  0.00    -0.203 F 
ATOM     70  C   UNL A   1      37.995  32.643  37.822  1.00  0.00     0.198 A 
ATOM     71  C   UNL A   1      39.523  34.343  37.094  1.00  0.00     0.198 A 
ATOM     72  F   UNL A   1      40.782  34.035  35.132  1.00  0.00    -0.203 F 
ATOM     73  F   UNL A   1      37.057  32.216  38.679  1.00  0.00    -0.200 F 
ATOM     74  C   UNL A   1      38.576  33.889  37.999  1.00  0.00     0.200 A 
ATOM     75  F   UNL A   1      40.097  35.541  37.269  1.00  0.00    -0.200 F 
ATOM     76  F   UNL A   1      38.218  34.658  39.037  1.00  0.00    -0.200 F 
ENDBRANCH  52  66
BRANCH  53  77
ATOM     77  C   UNL A   1      41.871  26.966  27.743  1.00  0.00     0.064 A 
ATOM     78  C   UNL A   1      41.385  25.669  27.526  1.00  0.00     0.173 A 
ATOM     79  C   UNL A   1      42.777  27.485  26.805  1.00  0.00     0.173 A 
ATOM     80  F   UNL A   1      40.536  25.117  28.406  1.00  0.00    -0.203 F 
ATOM     81  C   UNL A   1      41.808  24.913  26.435  1.00  0.00     0.198 A 
ATOM     82  C   UNL A   1      43.173  26.741  25.695  1.00  0.00     0.198 A 
ATOM     83  F   UNL A   1      43.274  28.721  26.963  1.00  0.00    -0.203 F 
ATOM     84  F   UNL A   1      41.371  23.654  26.286  1.00  0.00    -0.200 F 
ATOM     85  C   UNL A   1      42.697  25.451  25.517  1.00  0.00     0.200 A 
ATOM     86  F   UNL A   1      44.019  27.272  24.803  1.00  0.00    -0.200 F 
ATOM     87  F   UNL A   1      43.102  24.724  24.467  1.00  0.00    -0.200 F 
ENDBRANCH  53  77
BRANCH  65  88
ATOM     88  C   UNL A   1      44.273  27.260  34.277  1.00  0.00     0.064 A 
ATOM     89  C   UNL A   1      45.582  27.756  34.388  1.00  0.00     0.173 A 
ATOM     90  C   UNL A   1      43.998  26.012  34.859  1.00  0.00     0.173 A 
ATOM     91  F   UNL A   1      45.903  28.939  33.844  1.00  0.00    -0.203 F 
ATOM     92  C   UNL A   1      46.583  27.009  35.004  1.00  0.00     0.198 A 
ATOM     93  C   UNL A   1      44.992  25.287  35.512  1.00  0.00     0.198 A 
ATOM     94  F   UNL A   1      42.762  25.493  34.797  1.00  0.00    -0.203 F 
ATOM     95  F   UNL A   1      47.841  27.469  35.027  1.00  0.00    -0.200 F 
ATOM     96  C   UNL A   1      46.287  25.777  35.568  1.00  0.00     0.200 A 
ATOM     97  F   UNL A   1      44.698  24.107  36.073  1.00  0.00    -0.200 F 
ATOM     98  F   UNL A   1      47.253  25.059  36.157  1.00  0.00    -0.200 F 
ENDBRANCH  65  88
ENDBRANCH  39  40
ENDBRANCH  32  34
ENDBRANCH  31  32
ENDBRANCH  30  31
ENDBRANCH  29  30
ENDBRANCH  28  29
ENDBRANCH  27  28
ENDBRANCH  26  27
ENDBRANCH  25  26
ENDBRANCH   1  25
TORSDOF 26
ENDMDL
