MODEL 1
REMARK VINA RESULT:      -9.5      0.000      0.000
REMARK SMILES CCCC(=O)/C(=C/NC(N)=O)C(=O)OCCOCCOCCOCCOC(=O)c1ccc(-c2c3nc(c(-c4c(F)c(F)c(F)c(F)c4F)c4ccc([nH]4)c(-c4c(F)c(F)c(F)c(F)c4F)c4nc(c(-c5c(F)c(F)c(F)c(F)c5F)c5ccc2[nH]5)C=C4)C=C3)cc1
REMARK SMILES IDX 19 1 18 2 17 3 16 4 15 5 14 6 12 7 13 8 6 9 7 10 4 11 5 12
REMARK SMILES IDX 3 13 2 14 1 15 8 16 9 17 10 19 11 20 20 23 21 24 22 25 23 26
REMARK SMILES IDX 24 27 25 28 26 29 27 30 28 31 29 32 30 33 91 34 31 35 90 36
REMARK SMILES IDX 32 37 33 38 34 39 84 40 35 41 89 42 83 43 85 44 36 45 88 46
REMARK SMILES IDX 82 47 81 48 37 50 69 51 49 52 68 53 50 54 53 55 67 56 86 57
REMARK SMILES IDX 51 58 52 59 66 61 87 62 54 63 38 64 39 65 47 66 40 67 41 68
REMARK SMILES IDX 45 69 48 70 42 71 43 72 46 73 44 74 70 75 71 76 79 77 72 78
REMARK SMILES IDX 73 79 77 80 80 81 74 82 75 83 78 84 76 85 55 86 56 87 64 88
REMARK SMILES IDX 57 89 58 90 62 91 65 92 59 93 60 94 63 95 61 96
REMARK H PARENT 8 18 10 21 10 22 85 49 53 60
REMARK Flexibility Score: inf
ROOT
ATOM      1  C   UNL A   1      34.651  22.930  24.564  1.00  0.00     0.188 C 
ENDROOT
BRANCH   1   2
ATOM      2  C   UNL A   1      34.114  23.133  23.138  1.00  0.00     0.188 C 
BRANCH   2   3
ATOM      3  O   UNL A   1      34.316  24.464  22.652  1.00  0.00    -0.376 OA
BRANCH   3   4
ATOM      4  C   UNL A   1      33.369  25.430  23.099  1.00  0.00     0.202 C 
BRANCH   4   5
ATOM      5  C   UNL A   1      33.414  26.772  22.359  1.00  0.00     0.261 C 
BRANCH   5   6
ATOM      6  O   UNL A   1      32.558  27.795  22.898  1.00  0.00    -0.460 OA
BRANCH   6   7
ATOM      7  C   UNL A   1      31.239  27.743  22.591  1.00  0.00     0.343 C 
ATOM      8  O   UNL A   1      30.688  26.824  22.008  1.00  0.00    -0.246 OA
BRANCH   7   9
ATOM      9  C   UNL A   1      30.553  28.963  23.102  1.00  0.00     0.119 C 
ATOM     10  C   UNL A   1      30.747  29.412  24.354  1.00  0.00     0.106 C 
BRANCH   9  11
ATOM     11  C   UNL A   1      29.527  29.620  22.226  1.00  0.00     0.171 C 
ATOM     12  O   UNL A   1      29.899  30.270  21.244  1.00  0.00    -0.294 OA
BRANCH  11  13
ATOM     13  C   UNL A   1      28.035  29.406  22.442  1.00  0.00     0.081 C 
BRANCH  13  14
ATOM     14  C   UNL A   1      27.438  30.307  23.528  1.00  0.00     0.005 C 
ATOM     15  C   UNL A   1      27.653  31.797  23.301  1.00  0.00     0.004 C 
ENDBRANCH  13  14
ENDBRANCH  11  13
ENDBRANCH   9  11
BRANCH  10  16
ATOM     16  N   UNL A   1      31.422  28.751  25.356  1.00  0.00    -0.314 N 
ATOM     17  C   UNL A   1      32.071  29.408  26.369  1.00  0.00     0.316 C 
ATOM     18  H   UNL A   1      31.438  27.767  25.344  1.00  0.00     0.171 HD
ATOM     19  N   UNL A   1      32.466  28.589  27.372  1.00  0.00    -0.351 N 
ATOM     20  O   UNL A   1      32.273  30.614  26.417  1.00  0.00    -0.249 OA
ATOM     21  H   UNL A   1      32.294  27.621  27.314  1.00  0.00     0.161 HD
ATOM     22  H   UNL A   1      32.926  28.962  28.159  1.00  0.00     0.161 HD
ENDBRANCH  10  16
ENDBRANCH   7   9
ENDBRANCH   6   7
ENDBRANCH   5   6
ENDBRANCH   4   5
ENDBRANCH   3   4
ENDBRANCH   2   3
ENDBRANCH   1   2
BRANCH   1  23
ATOM     23  O   UNL A   1      35.684  23.848  24.898  1.00  0.00    -0.377 OA
BRANCH  23  24
ATOM     24  C   UNL A   1      36.991  23.308  25.095  1.00  0.00     0.188 C 
BRANCH  24  25
ATOM     25  C   UNL A   1      37.334  21.879  24.622  1.00  0.00     0.188 C 
BRANCH  25  26
ATOM     26  O   UNL A   1      38.263  21.205  25.469  1.00  0.00    -0.376 OA
BRANCH  26  27
ATOM     27  C   UNL A   1      38.465  19.819  25.222  1.00  0.00     0.202 C 
BRANCH  27  28
ATOM     28  C   UNL A   1      39.794  19.288  25.774  1.00  0.00     0.261 C 
BRANCH  28  29
ATOM     29  O   UNL A   1      40.257  19.952  26.962  1.00  0.00    -0.460 OA
BRANCH  29  30
ATOM     30  C   UNL A   1      41.568  20.265  27.023  1.00  0.00     0.338 C 
ATOM     31  O   UNL A   1      42.517  19.551  26.755  1.00  0.00    -0.246 OA
BRANCH  30  32
ATOM     32  C   UNL A   1      41.671  21.710  27.300  1.00  0.00     0.060 A 
ATOM     33  C   UNL A   1      41.145  22.614  26.368  1.00  0.00     0.016 A 
ATOM     34  C   UNL A   1      42.285  22.167  28.468  1.00  0.00     0.016 A 
ATOM     35  C   UNL A   1      41.267  23.986  26.588  1.00  0.00     0.010 A 
ATOM     36  C   UNL A   1      42.422  23.540  28.678  1.00  0.00     0.010 A 
ATOM     37  C   UNL A   1      41.941  24.453  27.724  1.00  0.00    -0.014 A 
BRANCH  37  38
ATOM     38  C   UNL A   1      42.307  25.883  27.836  1.00  0.00     0.031 A 
ATOM     39  C   UNL A   1      43.621  26.331  27.262  1.00  0.00     0.074 A 
ATOM     40  C   UNL A   1      41.497  26.764  28.447  1.00  0.00     0.049 A 
ATOM     41  N   UNL A   1      44.183  27.512  27.288  1.00  0.00    -0.248 NA
ATOM     42  C   UNL A   1      44.412  25.302  26.566  1.00  0.00     0.031 C 
ATOM     43  C   UNL A   1      40.189  26.456  29.017  1.00  0.00     0.029 A 
ATOM     44  N   UNL A   1      41.670  28.103  28.698  1.00  0.00    -0.354 N 
ATOM     45  C   UNL A   1      45.387  27.369  26.614  1.00  0.00     0.074 A 
ATOM     46  C   UNL A   1      45.493  25.982  26.216  1.00  0.00     0.031 C 
ATOM     47  C   UNL A   1      39.682  27.572  29.569  1.00  0.00     0.029 A 
ATOM     48  C   UNL A   1      40.643  28.663  29.415  1.00  0.00     0.049 A 
ATOM     49  H   UNL A   1      42.456  28.611  28.393  1.00  0.00     0.167 HD
ATOM     50  C   UNL A   1      46.319  28.313  26.344  1.00  0.00     0.037 A 
ATOM     51  C   UNL A   1      40.511  29.911  29.907  1.00  0.00     0.037 A 
ATOM     52  C   UNL A   1      46.219  29.689  26.749  1.00  0.00     0.049 A 
ATOM     53  C   UNL A   1      41.598  30.925  29.659  1.00  0.00     0.074 A 
ATOM     54  C   UNL A   1      47.100  30.728  26.504  1.00  0.00     0.029 A 
ATOM     55  N   UNL A   1      45.177  30.215  27.498  1.00  0.00    -0.354 N 
ATOM     56  N   UNL A   1      42.716  30.795  28.986  1.00  0.00    -0.248 NA
ATOM     57  C   UNL A   1      41.403  32.262  30.238  1.00  0.00     0.031 C 
ATOM     58  C   UNL A   1      46.614  31.871  27.146  1.00  0.00     0.029 A 
ATOM     59  C   UNL A   1      45.407  31.557  27.749  1.00  0.00     0.049 A 
ATOM     60  H   UNL A   1      44.391  29.709  27.806  1.00  0.00     0.167 HD
ATOM     61  C   UNL A   1      43.343  32.033  29.039  1.00  0.00     0.074 A 
ATOM     62  C   UNL A   1      42.475  32.907  29.800  1.00  0.00     0.031 C 
ATOM     63  C   UNL A   1      44.530  32.413  28.506  1.00  0.00     0.037 A 
BRANCH  50  64
ATOM     64  C   UNL A   1      47.541  27.879  25.593  1.00  0.00     0.064 A 
ATOM     65  C   UNL A   1      47.543  27.773  24.194  1.00  0.00     0.173 A 
ATOM     66  C   UNL A   1      48.730  27.587  26.277  1.00  0.00     0.173 A 
ATOM     67  F   UNL A   1      46.426  28.024  23.495  1.00  0.00    -0.203 F 
ATOM     68  C   UNL A   1      48.687  27.368  23.509  1.00  0.00     0.198 A 
ATOM     69  C   UNL A   1      49.878  27.207  25.588  1.00  0.00     0.198 A 
ATOM     70  F   UNL A   1      48.778  27.672  27.615  1.00  0.00    -0.203 F 
ATOM     71  F   UNL A   1      48.654  27.232  22.176  1.00  0.00    -0.200 F 
ATOM     72  C   UNL A   1      49.854  27.093  24.205  1.00  0.00     0.200 A 
ATOM     73  F   UNL A   1      51.008  26.949  26.262  1.00  0.00    -0.200 F 
ATOM     74  F   UNL A   1      50.955  26.708  23.546  1.00  0.00    -0.200 F 
ENDBRANCH  50  64
BRANCH  51  75
ATOM     75  C   UNL A   1      39.307  30.273  30.700  1.00  0.00     0.064 A 
ATOM     76  C   UNL A   1      39.266  30.070  32.086  1.00  0.00     0.173 A 
ATOM     77  C   UNL A   1      38.166  30.808  30.084  1.00  0.00     0.173 A 
ATOM     78  F   UNL A   1      40.323  29.537  32.715  1.00  0.00    -0.203 F 
ATOM     79  C   UNL A   1      38.123  30.371  32.824  1.00  0.00     0.198 A 
ATOM     80  C   UNL A   1      37.033  31.133  30.827  1.00  0.00     0.198 A 
ATOM     81  F   UNL A   1      38.154  31.022  28.760  1.00  0.00    -0.203 F 
ATOM     82  F   UNL A   1      38.094  30.126  34.141  1.00  0.00    -0.200 F 
ATOM     83  C   UNL A   1      37.009  30.907  32.195  1.00  0.00     0.200 A 
ATOM     84  F   UNL A   1      35.965  31.664  30.216  1.00  0.00    -0.200 F 
ATOM     85  F   UNL A   1      35.911  31.200  32.904  1.00  0.00    -0.200 F 
ENDBRANCH  51  75
BRANCH  63  86
ATOM     86  C   UNL A   1      44.949  33.842  28.701  1.00  0.00     0.064 A 
ATOM     87  C   UNL A   1      45.780  34.226  29.762  1.00  0.00     0.173 A 
ATOM     88  C   UNL A   1      44.552  34.829  27.785  1.00  0.00     0.173 A 
ATOM     89  F   UNL A   1      46.175  33.322  30.671  1.00  0.00    -0.203 F 
ATOM     90  C   UNL A   1      46.181  35.551  29.913  1.00  0.00     0.198 A 
ATOM     91  C   UNL A   1      44.977  36.147  27.924  1.00  0.00     0.198 A 
ATOM     92  F   UNL A   1      43.762  34.512  26.748  1.00  0.00    -0.203 F 
ATOM     93  F   UNL A   1      46.941  35.904  30.959  1.00  0.00    -0.200 F 
ATOM     94  C   UNL A   1      45.786  36.508  28.990  1.00  0.00     0.200 A 
ATOM     95  F   UNL A   1      44.605  37.068  27.023  1.00  0.00    -0.200 F 
ATOM     96  F   UNL A   1      46.180  37.781  29.133  1.00  0.00    -0.200 F 
ENDBRANCH  63  86
ENDBRANCH  37  38
ENDBRANCH  30  32
ENDBRANCH  29  30
ENDBRANCH  28  29
ENDBRANCH  27  28
ENDBRANCH  26  27
ENDBRANCH  25  26
ENDBRANCH  24  25
ENDBRANCH  23  24
ENDBRANCH   1  23
TORSDOF 24
ENDMDL
MODEL 2
REMARK VINA RESULT:      -9.4      5.440     11.515
REMARK SMILES CCCC(=O)/C(=C/NC(N)=O)C(=O)OCCOCCOCCOCCOC(=O)c1ccc(-c2c3nc(c(-c4c(F)c(F)c(F)c(F)c4F)c4ccc([nH]4)c(-c4c(F)c(F)c(F)c(F)c4F)c4nc(c(-c5c(F)c(F)c(F)c(F)c5F)c5ccc2[nH]5)C=C4)C=C3)cc1
REMARK SMILES IDX 19 1 18 2 17 3 16 4 15 5 14 6 12 7 13 8 6 9 7 10 4 11 5 12
REMARK SMILES IDX 3 13 2 14 1 15 8 16 9 17 10 19 11 20 20 23 21 24 22 25 23 26
REMARK SMILES IDX 24 27 25 28 26 29 27 30 28 31 29 32 30 33 91 34 31 35 90 36
REMARK SMILES IDX 32 37 33 38 34 39 84 40 35 41 89 42 83 43 85 44 36 45 88 46
REMARK SMILES IDX 82 47 81 48 37 50 69 51 49 52 68 53 50 54 53 55 67 56 86 57
REMARK SMILES IDX 51 58 52 59 66 61 87 62 54 63 38 64 39 65 47 66 40 67 41 68
REMARK SMILES IDX 45 69 48 70 42 71 43 72 46 73 44 74 70 75 71 76 79 77 72 78
REMARK SMILES IDX 73 79 77 80 80 81 74 82 75 83 78 84 76 85 55 86 56 87 64 88
REMARK SMILES IDX 57 89 58 90 62 91 65 92 59 93 60 94 63 95 61 96
REMARK H PARENT 8 18 10 21 10 22 85 49 53 60
REMARK Flexibility Score: inf
ROOT
ATOM      1  C   UNL A   1      33.932  30.089  26.938  1.00  0.00     0.188 C 
ENDROOT
BRANCH   1   2
ATOM      2  C   UNL A   1      34.243  28.686  26.393  1.00  0.00     0.188 C 
BRANCH   2   3
ATOM      3  O   UNL A   1      33.327  27.692  26.862  1.00  0.00    -0.376 OA
BRANCH   3   4
ATOM      4  C   UNL A   1      32.239  27.400  25.990  1.00  0.00     0.202 C 
BRANCH   4   5
ATOM      5  C   UNL A   1      32.635  26.781  24.644  1.00  0.00     0.261 C 
BRANCH   5   6
ATOM      6  O   UNL A   1      33.274  25.496  24.728  1.00  0.00    -0.460 OA
BRANCH   6   7
ATOM      7  C   UNL A   1      33.101  24.634  23.696  1.00  0.00     0.343 C 
ATOM      8  O   UNL A   1      33.140  24.934  22.515  1.00  0.00    -0.246 OA
BRANCH   7   9
ATOM      9  C   UNL A   1      32.889  23.255  24.220  1.00  0.00     0.119 C 
ATOM     10  C   UNL A   1      31.720  22.875  24.762  1.00  0.00     0.106 C 
BRANCH   9  11
ATOM     11  C   UNL A   1      34.063  22.321  24.251  1.00  0.00     0.171 C 
ATOM     12  O   UNL A   1      33.864  21.105  24.336  1.00  0.00    -0.294 OA
BRANCH  11  13
ATOM     13  C   UNL A   1      35.489  22.819  24.056  1.00  0.00     0.081 C 
BRANCH  13  14
ATOM     14  C   UNL A   1      36.379  22.624  25.288  1.00  0.00     0.005 C 
ATOM     15  C   UNL A   1      37.259  23.819  25.627  1.00  0.00     0.004 C 
ENDBRANCH  13  14
ENDBRANCH  11  13
ENDBRANCH   9  11
BRANCH  10  16
ATOM     16  N   UNL A   1      30.662  23.702  25.068  1.00  0.00    -0.314 N 
ATOM     17  C   UNL A   1      30.351  24.059  26.354  1.00  0.00     0.316 C 
ATOM     18  H   UNL A   1      30.108  24.052  24.333  1.00  0.00     0.171 HD
ATOM     19  N   UNL A   1      29.436  25.055  26.427  1.00  0.00    -0.351 N 
ATOM     20  O   UNL A   1      30.842  23.573  27.364  1.00  0.00    -0.249 OA
ATOM     21  H   UNL A   1      29.053  25.433  25.604  1.00  0.00     0.161 HD
ATOM     22  H   UNL A   1      29.155  25.401  27.306  1.00  0.00     0.161 HD
ENDBRANCH  10  16
ENDBRANCH   7   9
ENDBRANCH   6   7
ENDBRANCH   5   6
ENDBRANCH   4   5
ENDBRANCH   3   4
ENDBRANCH   2   3
ENDBRANCH   1   2
BRANCH   1  23
ATOM     23  O   UNL A   1      34.890  30.533  27.891  1.00  0.00    -0.377 OA
BRANCH  23  24
ATOM     24  C   UNL A   1      35.095  31.942  27.994  1.00  0.00     0.188 C 
BRANCH  24  25
ATOM     25  C   UNL A   1      33.936  32.881  28.390  1.00  0.00     0.188 C 
BRANCH  25  26
ATOM     26  O   UNL A   1      34.014  34.170  27.783  1.00  0.00    -0.376 OA
BRANCH  26  27
ATOM     27  C   UNL A   1      34.240  35.273  28.652  1.00  0.00     0.202 C 
BRANCH  27  28
ATOM     28  C   UNL A   1      32.965  35.786  29.333  1.00  0.00     0.261 C 
BRANCH  28  29
ATOM     29  O   UNL A   1      32.556  35.031  30.487  1.00  0.00    -0.460 OA
BRANCH  29  30
ATOM     30  C   UNL A   1      32.779  35.585  31.697  1.00  0.00     0.338 C 
ATOM     31  O   UNL A   1      32.078  36.387  32.287  1.00  0.00    -0.246 OA
BRANCH  30  32
ATOM     32  C   UNL A   1      33.947  34.909  32.291  1.00  0.00     0.060 A 
ATOM     33  C   UNL A   1      35.196  35.539  32.227  1.00  0.00     0.016 A 
ATOM     34  C   UNL A   1      33.809  33.661  32.903  1.00  0.00     0.016 A 
ATOM     35  C   UNL A   1      36.322  34.900  32.745  1.00  0.00     0.010 A 
ATOM     36  C   UNL A   1      34.939  33.015  33.405  1.00  0.00     0.010 A 
ATOM     37  C   UNL A   1      36.204  33.619  33.300  1.00  0.00    -0.014 A 
BRANCH  37  38
ATOM     38  C   UNL A   1      37.417  32.828  33.609  1.00  0.00     0.031 A 
ATOM     39  C   UNL A   1      38.156  33.123  34.883  1.00  0.00     0.074 A 
ATOM     40  C   UNL A   1      37.860  31.876  32.771  1.00  0.00     0.049 A 
ATOM     41  N   UNL A   1      39.268  32.607  35.338  1.00  0.00    -0.248 NA
ATOM     42  C   UNL A   1      37.562  34.146  35.759  1.00  0.00     0.031 C 
ATOM     43  C   UNL A   1      37.213  31.481  31.522  1.00  0.00     0.029 A 
ATOM     44  N   UNL A   1      38.974  31.077  32.844  1.00  0.00    -0.354 N 
ATOM     45  C   UNL A   1      39.504  33.239  36.552  1.00  0.00     0.074 A 
ATOM     46  C   UNL A   1      38.439  34.197  36.750  1.00  0.00     0.031 C 
ATOM     47  C   UNL A   1      37.953  30.523  30.935  1.00  0.00     0.029 A 
ATOM     48  C   UNL A   1      39.136  30.261  31.753  1.00  0.00     0.049 A 
ATOM     49  H   UNL A   1      39.596  31.089  33.606  1.00  0.00     0.167 HD
ATOM     50  C   UNL A   1      40.515  33.031  37.427  1.00  0.00     0.037 A 
ATOM     51  C   UNL A   1      40.141  29.416  31.445  1.00  0.00     0.037 A 
ATOM     52  C   UNL A   1      41.580  32.085  37.227  1.00  0.00     0.049 A 
ATOM     53  C   UNL A   1      41.295  29.258  32.402  1.00  0.00     0.074 A 
ATOM     54  C   UNL A   1      42.639  31.785  38.065  1.00  0.00     0.029 A 
ATOM     55  N   UNL A   1      41.727  31.295  36.096  1.00  0.00    -0.354 N 
ATOM     56  N   UNL A   1      41.492  29.828  33.566  1.00  0.00    -0.248 NA
ATOM     57  C   UNL A   1      42.368  28.336  32.000  1.00  0.00     0.031 C 
ATOM     58  C   UNL A   1      43.452  30.847  37.421  1.00  0.00     0.029 A 
ATOM     59  C   UNL A   1      42.875  30.528  36.203  1.00  0.00     0.049 A 
ATOM     60  H   UNL A   1      41.107  31.282  35.331  1.00  0.00     0.167 HD
ATOM     61  C   UNL A   1      42.692  29.318  34.046  1.00  0.00     0.074 A 
ATOM     62  C   UNL A   1      43.174  28.382  33.052  1.00  0.00     0.031 C 
ATOM     63  C   UNL A   1      43.337  29.598  35.205  1.00  0.00     0.037 A 
BRANCH  50  64
ATOM     64  C   UNL A   1      40.528  33.862  38.674  1.00  0.00     0.064 A 
ATOM     65  C   UNL A   1      39.788  33.496  39.808  1.00  0.00     0.173 A 
ATOM     66  C   UNL A   1      41.306  35.027  38.744  1.00  0.00     0.173 A 
ATOM     67  F   UNL A   1      39.013  32.400  39.785  1.00  0.00    -0.203 F 
ATOM     68  C   UNL A   1      39.809  34.279  40.960  1.00  0.00     0.198 A 
ATOM     69  C   UNL A   1      41.345  35.793  39.905  1.00  0.00     0.198 A 
ATOM     70  F   UNL A   1      42.031  35.420  37.686  1.00  0.00    -0.203 F 
ATOM     71  F   UNL A   1      39.061  33.934  42.017  1.00  0.00    -0.200 F 
ATOM     72  C   UNL A   1      40.593  35.422  41.010  1.00  0.00     0.200 A 
ATOM     73  F   UNL A   1      42.109  36.894  39.954  1.00  0.00    -0.200 F 
ATOM     74  F   UNL A   1      40.617  36.172  42.120  1.00  0.00    -0.200 F 
ENDBRANCH  50  64
BRANCH  51  75
ATOM     75  C   UNL A   1      40.111  28.661  30.166  1.00  0.00     0.064 A 
ATOM     76  C   UNL A   1      40.703  29.179  29.007  1.00  0.00     0.173 A 
ATOM     77  C   UNL A   1      39.469  27.418  30.072  1.00  0.00     0.173 A 
ATOM     78  F   UNL A   1      41.306  30.376  29.042  1.00  0.00    -0.203 F 
ATOM     79  C   UNL A   1      40.640  28.491  27.797  1.00  0.00     0.198 A 
ATOM     80  C   UNL A   1      39.429  26.718  28.868  1.00  0.00     0.198 A 
ATOM     81  F   UNL A   1      38.886  26.878  31.153  1.00  0.00    -0.203 F 
ATOM     82  F   UNL A   1      41.177  29.029  26.694  1.00  0.00    -0.200 F 
ATOM     83  C   UNL A   1      40.008  27.258  27.729  1.00  0.00     0.200 A 
ATOM     84  F   UNL A   1      38.829  25.521  28.811  1.00  0.00    -0.200 F 
ATOM     85  F   UNL A   1      39.950  26.594  26.567  1.00  0.00    -0.200 F 
ENDBRANCH  51  75
BRANCH  63  86
ATOM     86  C   UNL A   1      44.619  28.866  35.476  1.00  0.00     0.064 A 
ATOM     87  C   UNL A   1      45.858  29.377  35.068  1.00  0.00     0.173 A 
ATOM     88  C   UNL A   1      44.609  27.661  36.196  1.00  0.00     0.173 A 
ATOM     89  F   UNL A   1      45.919  30.519  34.366  1.00  0.00    -0.203 F 
ATOM     90  C   UNL A   1      47.041  28.698  35.352  1.00  0.00     0.198 A 
ATOM     91  C   UNL A   1      45.795  26.999  36.501  1.00  0.00     0.198 A 
ATOM     92  F   UNL A   1      43.449  27.132  36.614  1.00  0.00    -0.203 F 
ATOM     93  F   UNL A   1      48.212  29.184  34.916  1.00  0.00    -0.200 F 
ATOM     94  C   UNL A   1      47.009  27.515  36.074  1.00  0.00     0.200 A 
ATOM     95  F   UNL A   1      45.763  25.862  37.210  1.00  0.00    -0.200 F 
ATOM     96  F   UNL A   1      48.148  26.867  36.352  1.00  0.00    -0.200 F 
ENDBRANCH  63  86
ENDBRANCH  37  38
ENDBRANCH  30  32
ENDBRANCH  29  30
ENDBRANCH  28  29
ENDBRANCH  27  28
ENDBRANCH  26  27
ENDBRANCH  25  26
ENDBRANCH  24  25
ENDBRANCH  23  24
ENDBRANCH   1  23
TORSDOF 24
ENDMDL
MODEL 3
REMARK VINA RESULT:      -9.4      2.075      7.592
REMARK SMILES CCCC(=O)/C(=C/NC(N)=O)C(=O)OCCOCCOCCOCCOC(=O)c1ccc(-c2c3nc(c(-c4c(F)c(F)c(F)c(F)c4F)c4ccc([nH]4)c(-c4c(F)c(F)c(F)c(F)c4F)c4nc(c(-c5c(F)c(F)c(F)c(F)c5F)c5ccc2[nH]5)C=C4)C=C3)cc1
REMARK SMILES IDX 19 1 18 2 17 3 16 4 15 5 14 6 12 7 13 8 6 9 7 10 4 11 5 12
REMARK SMILES IDX 3 13 2 14 1 15 8 16 9 17 10 19 11 20 20 23 21 24 22 25 23 26
REMARK SMILES IDX 24 27 25 28 26 29 27 30 28 31 29 32 30 33 91 34 31 35 90 36
REMARK SMILES IDX 32 37 33 38 34 39 84 40 35 41 89 42 83 43 85 44 36 45 88 46
REMARK SMILES IDX 82 47 81 48 37 50 69 51 49 52 68 53 50 54 53 55 67 56 86 57
REMARK SMILES IDX 51 58 52 59 66 61 87 62 54 63 38 64 39 65 47 66 40 67 41 68
REMARK SMILES IDX 45 69 48 70 42 71 43 72 46 73 44 74 70 75 71 76 79 77 72 78
REMARK SMILES IDX 73 79 77 80 80 81 74 82 75 83 78 84 76 85 55 86 56 87 64 88
REMARK SMILES IDX 57 89 58 90 62 91 65 92 59 93 60 94 63 95 61 96
REMARK H PARENT 8 18 10 21 10 22 85 49 53 60
REMARK Flexibility Score: inf
ROOT
ATOM      1  C   UNL A   1      32.575  20.494  24.831  1.00  0.00     0.188 C 
ENDROOT
BRANCH   1   2
ATOM      2  C   UNL A   1      32.240  21.543  23.757  1.00  0.00     0.188 C 
BRANCH   2   3
ATOM      3  O   UNL A   1      33.266  22.528  23.604  1.00  0.00    -0.376 OA
BRANCH   3   4
ATOM      4  C   UNL A   1      33.663  23.191  24.800  1.00  0.00     0.202 C 
BRANCH   4   5
ATOM      5  C   UNL A   1      33.795  24.715  24.684  1.00  0.00     0.261 C 
BRANCH   5   6
ATOM      6  O   UNL A   1      33.060  25.310  23.600  1.00  0.00    -0.460 OA
BRANCH   6   7
ATOM      7  C   UNL A   1      31.709  25.353  23.700  1.00  0.00     0.343 C 
ATOM      8  O   UNL A   1      30.932  24.719  23.006  1.00  0.00    -0.246 OA
BRANCH   7   9
ATOM      9  C   UNL A   1      31.313  26.267  24.808  1.00  0.00     0.119 C 
ATOM     10  C   UNL A   1      30.561  25.845  25.840  1.00  0.00     0.106 C 
BRANCH   9  11
ATOM     11  C   UNL A   1      31.664  27.721  24.689  1.00  0.00     0.171 C 
ATOM     12  O   UNL A   1      32.576  28.180  25.382  1.00  0.00    -0.294 OA
BRANCH  11  13
ATOM     13  C   UNL A   1      31.010  28.619  23.647  1.00  0.00     0.081 C 
BRANCH  13  14
ATOM     14  C   UNL A   1      29.881  27.933  22.870  1.00  0.00     0.005 C 
ATOM     15  C   UNL A   1      28.503  28.541  23.089  1.00  0.00     0.004 C 
ENDBRANCH  13  14
ENDBRANCH  11  13
ENDBRANCH   9  11
BRANCH  10  16
ATOM     16  N   UNL A   1      29.923  24.628  25.932  1.00  0.00    -0.314 N 
ATOM     17  C   UNL A   1      30.358  23.626  26.760  1.00  0.00     0.316 C 
ATOM     18  H   UNL A   1      29.122  24.472  25.381  1.00  0.00     0.171 HD
ATOM     19  N   UNL A   1      29.471  22.610  26.884  1.00  0.00    -0.351 N 
ATOM     20  O   UNL A   1      31.420  23.619  27.367  1.00  0.00    -0.249 OA
ATOM     21  H   UNL A   1      28.622  22.635  26.387  1.00  0.00     0.161 HD
ATOM     22  H   UNL A   1      29.677  21.847  27.471  1.00  0.00     0.161 HD
ENDBRANCH  10  16
ENDBRANCH   7   9
ENDBRANCH   6   7
ENDBRANCH   5   6
ENDBRANCH   4   5
ENDBRANCH   3   4
ENDBRANCH   2   3
ENDBRANCH   1   2
BRANCH   1  23
ATOM     23  O   UNL A   1      32.872  19.218  24.278  1.00  0.00    -0.377 OA
BRANCH  23  24
ATOM     24  C   UNL A   1      34.171  18.687  24.539  1.00  0.00     0.188 C 
BRANCH  24  25
ATOM     25  C   UNL A   1      35.349  19.620  24.892  1.00  0.00     0.188 C 
BRANCH  25  26
ATOM     26  O   UNL A   1      36.624  18.985  24.807  1.00  0.00    -0.376 OA
BRANCH  26  27
ATOM     27  C   UNL A   1      37.765  19.834  24.856  1.00  0.00     0.202 C 
BRANCH  27  28
ATOM     28  C   UNL A   1      38.992  19.170  25.494  1.00  0.00     0.261 C 
BRANCH  28  29
ATOM     29  O   UNL A   1      39.881  20.077  26.168  1.00  0.00    -0.460 OA
BRANCH  29  30
ATOM     30  C   UNL A   1      41.198  19.786  26.141  1.00  0.00     0.338 C 
ATOM     31  O   UNL A   1      41.720  18.736  25.812  1.00  0.00    -0.246 OA
BRANCH  30  32
ATOM     32  C   UNL A   1      41.938  21.033  26.405  1.00  0.00     0.060 A 
ATOM     33  C   UNL A   1      42.214  21.386  27.732  1.00  0.00     0.016 A 
ATOM     34  C   UNL A   1      42.352  21.850  25.350  1.00  0.00     0.016 A 
ATOM     35  C   UNL A   1      42.877  22.582  28.009  1.00  0.00     0.010 A 
ATOM     36  C   UNL A   1      42.999  23.054  25.629  1.00  0.00     0.010 A 
ATOM     37  C   UNL A   1      43.235  23.439  26.960  1.00  0.00    -0.014 A 
BRANCH  37  38
ATOM     38  C   UNL A   1      43.694  24.816  27.249  1.00  0.00     0.031 A 
ATOM     39  C   UNL A   1      42.697  25.802  27.789  1.00  0.00     0.074 A 
ATOM     40  C   UNL A   1      44.966  25.189  27.025  1.00  0.00     0.049 A 
ATOM     41  N   UNL A   1      42.847  27.072  28.063  1.00  0.00    -0.248 NA
ATOM     42  C   UNL A   1      41.345  25.283  28.051  1.00  0.00     0.031 C 
ATOM     43  C   UNL A   1      46.028  24.317  26.531  1.00  0.00     0.029 A 
ATOM     44  N   UNL A   1      45.572  26.411  27.175  1.00  0.00    -0.354 N 
ATOM     45  C   UNL A   1      41.612  27.502  28.530  1.00  0.00     0.074 A 
ATOM     46  C   UNL A   1      40.716  26.369  28.474  1.00  0.00     0.031 C 
ATOM     47  C   UNL A   1      47.155  25.038  26.400  1.00  0.00     0.029 A 
ATOM     48  C   UNL A   1      46.884  26.425  26.776  1.00  0.00     0.049 A 
ATOM     49  H   UNL A   1      45.109  27.202  27.534  1.00  0.00     0.167 HD
ATOM     50  C   UNL A   1      41.261  28.732  28.972  1.00  0.00     0.037 A 
ATOM     51  C   UNL A   1      47.757  27.451  26.702  1.00  0.00     0.037 A 
ATOM     52  C   UNL A   1      42.149  29.862  29.018  1.00  0.00     0.049 A 
ATOM     53  C   UNL A   1      47.319  28.828  27.130  1.00  0.00     0.074 A 
ATOM     54  C   UNL A   1      41.895  31.144  29.471  1.00  0.00     0.029 A 
ATOM     55  N   UNL A   1      43.466  29.846  28.579  1.00  0.00    -0.354 N 
ATOM     56  N   UNL A   1      46.162  29.220  27.609  1.00  0.00    -0.248 NA
ATOM     57  C   UNL A   1      48.310  29.907  27.009  1.00  0.00     0.031 C 
ATOM     58  C   UNL A   1      43.042  31.916  29.263  1.00  0.00     0.029 A 
ATOM     59  C   UNL A   1      44.026  31.103  28.725  1.00  0.00     0.049 A 
ATOM     60  H   UNL A   1      43.930  29.057  28.218  1.00  0.00     0.167 HD
ATOM     61  C   UNL A   1      46.294  30.578  27.867  1.00  0.00     0.074 A 
ATOM     62  C   UNL A   1      47.648  30.942  27.505  1.00  0.00     0.031 C 
ATOM     63  C   UNL A   1      45.377  31.446  28.362  1.00  0.00     0.037 A 
BRANCH  50  64
ATOM     64  C   UNL A   1      39.844  28.923  29.422  1.00  0.00     0.064 A 
ATOM     65  C   UNL A   1      39.450  28.653  30.741  1.00  0.00     0.173 A 
ATOM     66  C   UNL A   1      38.874  29.402  28.530  1.00  0.00     0.173 A 
ATOM     67  F   UNL A   1      40.337  28.176  31.627  1.00  0.00    -0.203 F 
ATOM     68  C   UNL A   1      38.129  28.835  31.144  1.00  0.00     0.198 A 
ATOM     69  C   UNL A   1      37.560  29.606  28.943  1.00  0.00     0.198 A 
ATOM     70  F   UNL A   1      39.200  29.673  27.257  1.00  0.00    -0.203 F 
ATOM     71  F   UNL A   1      37.765  28.530  32.398  1.00  0.00    -0.200 F 
ATOM     72  C   UNL A   1      37.188  29.318  30.248  1.00  0.00     0.200 A 
ATOM     73  F   UNL A   1      36.653  30.080  28.077  1.00  0.00    -0.200 F 
ATOM     74  F   UNL A   1      35.919  29.497  30.637  1.00  0.00    -0.200 F 
ENDBRANCH  50  64
BRANCH  51  75
ATOM     75  C   UNL A   1      49.132  27.220  26.190  1.00  0.00     0.064 A 
ATOM     76  C   UNL A   1      50.201  26.986  27.067  1.00  0.00     0.173 A 
ATOM     77  C   UNL A   1      49.410  27.252  24.816  1.00  0.00     0.173 A 
ATOM     78  F   UNL A   1      49.988  26.972  28.391  1.00  0.00    -0.203 F 
ATOM     79  C   UNL A   1      51.498  26.811  26.590  1.00  0.00     0.198 A 
ATOM     80  C   UNL A   1      50.704  27.051  24.338  1.00  0.00     0.198 A 
ATOM     81  F   UNL A   1      48.423  27.472  23.935  1.00  0.00    -0.203 F 
ATOM     82  F   UNL A   1      52.508  26.632  27.452  1.00  0.00    -0.200 F 
ATOM     83  C   UNL A   1      51.748  26.838  25.226  1.00  0.00     0.200 A 
ATOM     84  F   UNL A   1      50.937  27.063  23.019  1.00  0.00    -0.200 F 
ATOM     85  F   UNL A   1      52.994  26.666  24.766  1.00  0.00    -0.200 F 
ENDBRANCH  51  75
BRANCH  63  86
ATOM     86  C   UNL A   1      45.813  32.868  28.566  1.00  0.00     0.064 A 
ATOM     87  C   UNL A   1      46.472  33.274  29.734  1.00  0.00     0.173 A 
ATOM     88  C   UNL A   1      45.610  33.825  27.559  1.00  0.00     0.173 A 
ATOM     89  F   UNL A   1      46.678  32.401  30.732  1.00  0.00    -0.203 F 
ATOM     90  C   UNL A   1      46.894  34.591  29.897  1.00  0.00     0.198 A 
ATOM     91  C   UNL A   1      46.058  35.134  27.714  1.00  0.00     0.198 A 
ATOM     92  F   UNL A   1      44.989  33.485  26.419  1.00  0.00    -0.203 F 
ATOM     93  F   UNL A   1      47.485  34.968  31.040  1.00  0.00    -0.200 F 
ATOM     94  C   UNL A   1      46.694  35.517  28.884  1.00  0.00     0.200 A 
ATOM     95  F   UNL A   1      45.874  36.024  26.728  1.00  0.00    -0.200 F 
ATOM     96  F   UNL A   1      47.107  36.783  29.039  1.00  0.00    -0.200 F 
ENDBRANCH  63  86
ENDBRANCH  37  38
ENDBRANCH  30  32
ENDBRANCH  29  30
ENDBRANCH  28  29
ENDBRANCH  27  28
ENDBRANCH  26  27
ENDBRANCH  25  26
ENDBRANCH  24  25
ENDBRANCH  23  24
ENDBRANCH   1  23
TORSDOF 24
ENDMDL
