MODEL 1
REMARK VINA RESULT:     -11.1      0.000      0.000
REMARK SMILES C[C@H]1Cc2ccc(C3CC3)cc2[C@H](C(=O)OCCOCCOCCOCCOC(=O)c2ccc(-c3c4nc(c(-c5c(F)c(F)c(F)c(F)c5F)c5ccc([nH]5)c(-c5c(F)c(F)c(F)c(F)c5F)c5nc(c(-c6c(F)c(F)c(F)c(F)c6F)c6ccc3[nH]6)C=C5)C=C4)cc2)[NH2+]1
REMARK SMILES IDX 23 1 22 2 21 3 20 4 19 5 18 6 17 7 16 8 14 9 15 10 13 11
REMARK SMILES IDX 1 12 2 13 3 14 94 15 4 16 5 19 12 20 6 21 11 22 7 23 8 24
REMARK SMILES IDX 9 25 10 26 24 27 25 28 26 29 27 30 28 31 29 32 30 33 31 34
REMARK SMILES IDX 32 35 93 36 33 37 92 38 34 39 35 40 36 41 86 42 37 43 91 44
REMARK SMILES IDX 85 45 87 46 38 47 90 48 84 49 83 50 39 52 71 53 51 54 70 55
REMARK SMILES IDX 52 56 55 57 69 58 88 59 53 60 54 61 68 63 89 64 56 65 40 66
REMARK SMILES IDX 41 67 49 68 42 69 43 70 47 71 50 72 44 73 45 74 48 75 46 76
REMARK SMILES IDX 72 77 73 78 81 79 74 80 75 81 79 82 82 83 76 84 77 85 80 86
REMARK SMILES IDX 78 87 57 88 58 89 66 90 59 91 60 92 64 93 67 94 61 95 62 96
REMARK SMILES IDX 65 97 63 98
REMARK H PARENT 94 17 94 18 87 51 55 62
REMARK Flexibility Score: inf
ROOT
ATOM      1  C   UNL A   1      42.957  18.658  25.743  1.00  0.00     0.188 C 
ENDROOT
BRANCH   1   2
ATOM      2  O   UNL A   1      42.455  19.323  26.883  1.00  0.00    -0.377 OA
BRANCH   2   3
ATOM      3  C   UNL A   1      41.164  19.922  26.803  1.00  0.00     0.188 C 
BRANCH   3   4
ATOM      4  C   UNL A   1      40.786  21.167  27.641  1.00  0.00     0.188 C 
BRANCH   4   5
ATOM      5  O   UNL A   1      39.846  22.042  27.030  1.00  0.00    -0.376 OA
BRANCH   5   6
ATOM      6  C   UNL A   1      39.242  21.578  25.832  1.00  0.00     0.202 C 
BRANCH   6   7
ATOM      7  C   UNL A   1      37.895  22.235  25.505  1.00  0.00     0.261 C 
BRANCH   7   8
ATOM      8  O   UNL A   1      37.070  21.545  24.547  1.00  0.00    -0.459 OA
BRANCH   8   9
ATOM      9  C   UNL A   1      35.815  22.031  24.341  1.00  0.00     0.369 C 
ATOM     10  O   UNL A   1      35.474  22.613  23.317  1.00  0.00    -0.245 OA
BRANCH   9  11
ATOM     11  C   UNL A   1      34.903  21.769  25.574  1.00  0.00     0.325 C 
ATOM     12  C   UNL A   1      33.056  18.515  24.981  1.00  0.00     0.075 C 
ATOM     13  C   UNL A   1      33.393  19.996  24.778  1.00  0.00     0.184 C 
ATOM     14  C   UNL A   1      32.140  20.865  24.994  1.00  0.00     0.100 C 
ATOM     15  N   UNL A   1      34.484  20.349  25.702  1.00  0.00    -0.328 N 
ATOM     16  C   UNL A   1      32.472  22.332  25.087  1.00  0.00    -0.032 A 
ATOM     17  H   UNL A   1      35.288  19.752  25.502  1.00  0.00     0.347 HD
ATOM     18  H   UNL A   1      34.142  20.213  26.653  1.00  0.00     0.347 HD
ATOM     19  C   UNL A   1      31.534  23.313  24.765  1.00  0.00     0.005 A 
ATOM     20  C   UNL A   1      33.743  22.737  25.509  1.00  0.00     0.025 A 
ATOM     21  C   UNL A   1      31.879  24.671  24.830  1.00  0.00     0.004 A 
ATOM     22  C   UNL A   1      34.042  24.102  25.646  1.00  0.00     0.014 A 
ATOM     23  C   UNL A   1      33.143  25.101  25.270  1.00  0.00    -0.044 A 
BRANCH  23  24
ATOM     24  C   UNL A   1      33.525  26.567  25.259  1.00  0.00     0.019 C 
ATOM     25  C   UNL A   1      32.513  27.690  25.208  1.00  0.00     0.009 C 
ATOM     26  C   UNL A   1      33.224  27.393  26.493  1.00  0.00     0.009 C 
ENDBRANCH  23  24
ENDBRANCH   9  11
ENDBRANCH   8   9
ENDBRANCH   7   8
ENDBRANCH   6   7
ENDBRANCH   5   6
ENDBRANCH   4   5
ENDBRANCH   3   4
ENDBRANCH   2   3
ENDBRANCH   1   2
BRANCH   1  27
ATOM     27  C   UNL A   1      44.313  19.142  25.203  1.00  0.00     0.188 C 
BRANCH  27  28
ATOM     28  O   UNL A   1      44.218  20.165  24.216  1.00  0.00    -0.376 OA
BRANCH  28  29
ATOM     29  C   UNL A   1      44.681  21.455  24.591  1.00  0.00     0.202 C 
BRANCH  29  30
ATOM     30  C   UNL A   1      43.869  22.122  25.706  1.00  0.00     0.261 C 
BRANCH  30  31
ATOM     31  O   UNL A   1      43.189  23.328  25.332  1.00  0.00    -0.460 OA
BRANCH  31  32
ATOM     32  C   UNL A   1      43.894  24.482  25.365  1.00  0.00     0.338 C 
ATOM     33  O   UNL A   1      44.779  24.833  24.620  1.00  0.00    -0.246 OA
BRANCH  32  34
ATOM     34  C   UNL A   1      43.239  25.347  26.371  1.00  0.00     0.060 A 
ATOM     35  C   UNL A   1      42.237  24.836  27.201  1.00  0.00     0.016 A 
ATOM     36  C   UNL A   1      43.585  26.703  26.422  1.00  0.00     0.016 A 
ATOM     37  C   UNL A   1      41.592  25.682  28.102  1.00  0.00     0.010 A 
ATOM     38  C   UNL A   1      42.914  27.557  27.298  1.00  0.00     0.010 A 
ATOM     39  C   UNL A   1      41.935  27.042  28.162  1.00  0.00    -0.014 A 
BRANCH  39  40
ATOM     40  C   UNL A   1      41.456  27.862  29.296  1.00  0.00     0.031 A 
ATOM     41  C   UNL A   1      40.262  28.754  29.201  1.00  0.00     0.074 A 
ATOM     42  C   UNL A   1      42.159  27.774  30.438  1.00  0.00     0.049 A 
ATOM     43  N   UNL A   1      39.688  29.451  30.151  1.00  0.00    -0.248 NA
ATOM     44  C   UNL A   1      39.635  28.895  27.881  1.00  0.00     0.031 C 
ATOM     45  C   UNL A   1      43.359  26.953  30.614  1.00  0.00     0.029 A 
ATOM     46  N   UNL A   1      41.976  28.371  31.656  1.00  0.00    -0.354 N 
ATOM     47  C   UNL A   1      38.617  30.098  29.552  1.00  0.00     0.074 A 
ATOM     48  C   UNL A   1      38.648  29.745  28.146  1.00  0.00     0.031 C 
ATOM     49  C   UNL A   1      43.799  27.089  31.872  1.00  0.00     0.029 A 
ATOM     50  C   UNL A   1      42.920  28.011  32.582  1.00  0.00     0.049 A 
ATOM     51  H   UNL A   1      41.241  28.997  31.847  1.00  0.00     0.167 HD
ATOM     52  C   UNL A   1      37.692  30.897  30.139  1.00  0.00     0.037 A 
ATOM     53  C   UNL A   1      43.058  28.373  33.870  1.00  0.00     0.037 A 
ATOM     54  C   UNL A   1      37.693  31.251  31.539  1.00  0.00     0.049 A 
ATOM     55  C   UNL A   1      42.038  29.282  34.484  1.00  0.00     0.074 A 
ATOM     56  C   UNL A   1      36.764  32.001  32.240  1.00  0.00     0.029 A 
ATOM     57  N   UNL A   1      38.682  30.898  32.447  1.00  0.00    -0.354 N 
ATOM     58  N   UNL A   1      40.971  29.811  33.937  1.00  0.00    -0.248 NA
ATOM     59  C   UNL A   1      42.231  29.635  35.896  1.00  0.00     0.031 C 
ATOM     60  C   UNL A   1      37.220  32.150  33.554  1.00  0.00     0.029 A 
ATOM     61  C   UNL A   1      38.406  31.448  33.691  1.00  0.00     0.049 A 
ATOM     62  H   UNL A   1      39.465  30.338  32.238  1.00  0.00     0.167 HD
ATOM     63  C   UNL A   1      40.355  30.549  34.937  1.00  0.00     0.074 A 
ATOM     64  C   UNL A   1      41.161  30.383  36.131  1.00  0.00     0.031 C 
ATOM     65  C   UNL A   1      39.226  31.294  34.868  1.00  0.00     0.037 A 
BRANCH  52  66
ATOM     66  C   UNL A   1      36.589  31.446  29.279  1.00  0.00     0.064 A 
ATOM     67  C   UNL A   1      35.523  30.639  28.855  1.00  0.00     0.173 A 
ATOM     68  C   UNL A   1      36.549  32.809  28.949  1.00  0.00     0.173 A 
ATOM     69  F   UNL A   1      35.511  29.329  29.144  1.00  0.00    -0.203 F 
ATOM     70  C   UNL A   1      34.468  31.172  28.118  1.00  0.00     0.198 A 
ATOM     71  C   UNL A   1      35.480  33.345  28.233  1.00  0.00     0.198 A 
ATOM     72  F   UNL A   1      37.536  33.630  29.340  1.00  0.00    -0.203 F 
ATOM     73  F   UNL A   1      33.475  30.375  27.699  1.00  0.00    -0.200 F 
ATOM     74  C   UNL A   1      34.443  32.525  27.815  1.00  0.00     0.200 A 
ATOM     75  F   UNL A   1      35.450  34.656  27.956  1.00  0.00    -0.200 F 
ATOM     76  F   UNL A   1      33.419  33.039  27.120  1.00  0.00    -0.200 F 
ENDBRANCH  52  66
BRANCH  53  77
ATOM     77  C   UNL A   1      44.185  27.812  34.652  1.00  0.00     0.064 A 
ATOM     78  C   UNL A   1      45.437  28.440  34.652  1.00  0.00     0.173 A 
ATOM     79  C   UNL A   1      44.008  26.696  35.482  1.00  0.00     0.173 A 
ATOM     80  F   UNL A   1      45.651  29.506  33.868  1.00  0.00    -0.203 F 
ATOM     81  C   UNL A   1      46.472  27.972  35.457  1.00  0.00     0.198 A 
ATOM     82  C   UNL A   1      45.037  26.243  36.304  1.00  0.00     0.198 A 
ATOM     83  F   UNL A   1      42.821  26.072  35.527  1.00  0.00    -0.203 F 
ATOM     84  F   UNL A   1      47.665  28.581  35.430  1.00  0.00    -0.200 F 
ATOM     85  C   UNL A   1      46.269  26.881  36.289  1.00  0.00     0.200 A 
ATOM     86  F   UNL A   1      44.830  25.202  37.122  1.00  0.00    -0.200 F 
ATOM     87  F   UNL A   1      47.258  26.447  37.081  1.00  0.00    -0.200 F 
ENDBRANCH  53  77
BRANCH  65  88
ATOM     88  C   UNL A   1      38.795  32.002  36.119  1.00  0.00     0.064 A 
ATOM     89  C   UNL A   1      38.053  31.344  37.110  1.00  0.00     0.173 A 
ATOM     90  C   UNL A   1      39.173  33.332  36.354  1.00  0.00     0.173 A 
ATOM     91  F   UNL A   1      37.651  30.078  36.925  1.00  0.00    -0.203 F 
ATOM     92  C   UNL A   1      37.692  31.997  38.286  1.00  0.00     0.198 A 
ATOM     93  C   UNL A   1      38.835  33.974  37.543  1.00  0.00     0.198 A 
ATOM     94  F   UNL A   1      39.887  34.005  35.439  1.00  0.00    -0.203 F 
ATOM     95  F   UNL A   1      36.951  31.362  39.203  1.00  0.00    -0.200 F 
ATOM     96  C   UNL A   1      38.092  33.307  38.505  1.00  0.00     0.200 A 
ATOM     97  F   UNL A   1      39.233  35.235  37.758  1.00  0.00    -0.200 F 
ATOM     98  F   UNL A   1      37.756  33.931  39.643  1.00  0.00    -0.200 F 
ENDBRANCH  65  88
ENDBRANCH  39  40
ENDBRANCH  32  34
ENDBRANCH  31  32
ENDBRANCH  30  31
ENDBRANCH  29  30
ENDBRANCH  28  29
ENDBRANCH  27  28
ENDBRANCH   1  27
TORSDOF 21
ENDMDL
MODEL 2
REMARK VINA RESULT:     -10.9      1.182      2.917
REMARK SMILES C[C@H]1Cc2ccc(C3CC3)cc2[C@H](C(=O)OCCOCCOCCOCCOC(=O)c2ccc(-c3c4nc(c(-c5c(F)c(F)c(F)c(F)c5F)c5ccc([nH]5)c(-c5c(F)c(F)c(F)c(F)c5F)c5nc(c(-c6c(F)c(F)c(F)c(F)c6F)c6ccc3[nH]6)C=C5)C=C4)cc2)[NH2+]1
REMARK SMILES IDX 23 1 22 2 21 3 20 4 19 5 18 6 17 7 16 8 14 9 15 10 13 11
REMARK SMILES IDX 1 12 2 13 3 14 94 15 4 16 5 19 12 20 6 21 11 22 7 23 8 24
REMARK SMILES IDX 9 25 10 26 24 27 25 28 26 29 27 30 28 31 29 32 30 33 31 34
REMARK SMILES IDX 32 35 93 36 33 37 92 38 34 39 35 40 36 41 86 42 37 43 91 44
REMARK SMILES IDX 85 45 87 46 38 47 90 48 84 49 83 50 39 52 71 53 51 54 70 55
REMARK SMILES IDX 52 56 55 57 69 58 88 59 53 60 54 61 68 63 89 64 56 65 40 66
REMARK SMILES IDX 41 67 49 68 42 69 43 70 47 71 50 72 44 73 45 74 48 75 46 76
REMARK SMILES IDX 72 77 73 78 81 79 74 80 75 81 79 82 82 83 76 84 77 85 80 86
REMARK SMILES IDX 78 87 57 88 58 89 66 90 59 91 60 92 64 93 67 94 61 95 62 96
REMARK SMILES IDX 65 97 63 98
REMARK H PARENT 94 17 94 18 87 51 55 62
REMARK Flexibility Score: inf
ROOT
ATOM      1  C   UNL A   1      40.429  21.638  26.667  1.00  0.00     0.188 C 
ENDROOT
BRANCH   1   2
ATOM      2  O   UNL A   1      39.444  22.137  25.787  1.00  0.00    -0.377 OA
BRANCH   2   3
ATOM      3  C   UNL A   1      38.192  21.460  25.717  1.00  0.00     0.188 C 
BRANCH   3   4
ATOM      4  C   UNL A   1      37.277  21.558  24.473  1.00  0.00     0.188 C 
BRANCH   4   5
ATOM      5  O   UNL A   1      36.955  22.882  24.065  1.00  0.00    -0.376 OA
BRANCH   5   6
ATOM      6  C   UNL A   1      35.645  23.333  24.372  1.00  0.00     0.202 C 
BRANCH   6   7
ATOM      7  C   UNL A   1      34.803  23.719  23.149  1.00  0.00     0.261 C 
BRANCH   7   8
ATOM      8  O   UNL A   1      33.878  24.806  23.335  1.00  0.00    -0.459 OA
BRANCH   8   9
ATOM      9  C   UNL A   1      32.877  24.935  22.421  1.00  0.00     0.369 C 
ATOM     10  O   UNL A   1      33.061  24.935  21.209  1.00  0.00    -0.245 OA
BRANCH   9  11
ATOM     11  C   UNL A   1      31.497  25.103  23.121  1.00  0.00     0.325 C 
ATOM     12  C   UNL A   1      31.373  28.581  24.619  1.00  0.00     0.075 C 
ATOM     13  C   UNL A   1      31.817  27.120  24.495  1.00  0.00     0.184 C 
ATOM     14  C   UNL A   1      31.531  26.360  25.805  1.00  0.00     0.100 C 
ATOM     15  N   UNL A   1      31.122  26.524  23.342  1.00  0.00    -0.328 N 
ATOM     16  C   UNL A   1      31.683  24.869  25.645  1.00  0.00    -0.032 A 
ATOM     17  H   UNL A   1      31.360  27.059  22.505  1.00  0.00     0.347 HD
ATOM     18  H   UNL A   1      30.121  26.553  23.534  1.00  0.00     0.347 HD
ATOM     19  C   UNL A   1      31.988  24.048  26.731  1.00  0.00     0.005 A 
ATOM     20  C   UNL A   1      31.514  24.279  24.388  1.00  0.00     0.025 A 
ATOM     21  C   UNL A   1      32.155  22.668  26.548  1.00  0.00     0.004 A 
ATOM     22  C   UNL A   1      31.604  22.886  24.243  1.00  0.00     0.014 A 
ATOM     23  C   UNL A   1      31.969  22.051  25.299  1.00  0.00    -0.044 A 
BRANCH  23  24
ATOM     24  C   UNL A   1      32.232  20.571  25.104  1.00  0.00     0.019 C 
ATOM     25  C   UNL A   1      32.516  19.948  23.754  1.00  0.00     0.009 C 
ATOM     26  C   UNL A   1      33.636  20.139  24.731  1.00  0.00     0.009 C 
ENDBRANCH  23  24
ENDBRANCH   9  11
ENDBRANCH   8   9
ENDBRANCH   7   8
ENDBRANCH   6   7
ENDBRANCH   5   6
ENDBRANCH   4   5
ENDBRANCH   3   4
ENDBRANCH   2   3
ENDBRANCH   1   2
BRANCH   1  27
ATOM     27  C   UNL A   1      41.055  20.281  26.304  1.00  0.00     0.188 C 
BRANCH  27  28
ATOM     28  O   UNL A   1      42.321  20.377  25.656  1.00  0.00    -0.376 OA
BRANCH  28  29
ATOM     29  C   UNL A   1      43.174  21.431  26.080  1.00  0.00     0.202 C 
BRANCH  29  30
ATOM     30  C   UNL A   1      43.531  22.440  24.983  1.00  0.00     0.261 C 
BRANCH  30  31
ATOM     31  O   UNL A   1      42.906  23.725  25.105  1.00  0.00    -0.460 OA
BRANCH  31  32
ATOM     32  C   UNL A   1      43.709  24.798  25.290  1.00  0.00     0.338 C 
ATOM     33  O   UNL A   1      44.675  25.124  24.640  1.00  0.00    -0.246 OA
BRANCH  32  34
ATOM     34  C   UNL A   1      43.063  25.633  26.327  1.00  0.00     0.060 A 
ATOM     35  C   UNL A   1      42.075  25.095  27.156  1.00  0.00     0.016 A 
ATOM     36  C   UNL A   1      43.403  26.989  26.408  1.00  0.00     0.016 A 
ATOM     37  C   UNL A   1      41.437  25.914  28.087  1.00  0.00     0.010 A 
ATOM     38  C   UNL A   1      42.739  27.816  27.315  1.00  0.00     0.010 A 
ATOM     39  C   UNL A   1      41.774  27.274  28.178  1.00  0.00    -0.014 A 
BRANCH  39  40
ATOM     40  C   UNL A   1      41.305  28.061  29.339  1.00  0.00     0.031 A 
ATOM     41  C   UNL A   1      40.129  28.978  29.273  1.00  0.00     0.074 A 
ATOM     42  C   UNL A   1      42.003  27.920  30.479  1.00  0.00     0.049 A 
ATOM     43  N   UNL A   1      39.564  29.652  30.245  1.00  0.00    -0.248 NA
ATOM     44  C   UNL A   1      39.509  29.179  27.957  1.00  0.00     0.031 C 
ATOM     45  C   UNL A   1      43.187  27.070  30.630  1.00  0.00     0.029 A 
ATOM     46  N   UNL A   1      41.826  28.476  31.717  1.00  0.00    -0.354 N 
ATOM     47  C   UNL A   1      38.508  30.339  29.667  1.00  0.00     0.074 A 
ATOM     48  C   UNL A   1      38.538  30.036  28.249  1.00  0.00     0.031 C 
ATOM     49  C   UNL A   1      43.624  27.152  31.893  1.00  0.00     0.029 A 
ATOM     50  C   UNL A   1      42.760  28.065  32.633  1.00  0.00     0.049 A 
ATOM     51  H   UNL A   1      41.102  29.108  31.929  1.00  0.00     0.167 HD
ATOM     52  C   UNL A   1      37.596  31.134  30.278  1.00  0.00     0.037 A 
ATOM     53  C   UNL A   1      42.900  28.378  33.934  1.00  0.00     0.037 A 
ATOM     54  C   UNL A   1      37.598  31.437  31.691  1.00  0.00     0.049 A 
ATOM     55  C   UNL A   1      41.894  29.283  34.577  1.00  0.00     0.074 A 
ATOM     56  C   UNL A   1      36.680  32.179  32.415  1.00  0.00     0.029 A 
ATOM     57  N   UNL A   1      38.577  31.033  32.589  1.00  0.00    -0.354 N 
ATOM     58  N   UNL A   1      40.839  29.851  34.046  1.00  0.00    -0.248 NA
ATOM     59  C   UNL A   1      42.088  29.581  36.001  1.00  0.00     0.031 C 
ATOM     60  C   UNL A   1      37.133  32.272  33.736  1.00  0.00     0.029 A 
ATOM     61  C   UNL A   1      38.306  31.543  33.850  1.00  0.00     0.049 A 
ATOM     62  H   UNL A   1      39.350  30.467  32.363  1.00  0.00     0.167 HD
ATOM     63  C   UNL A   1      40.234  30.564  35.069  1.00  0.00     0.074 A 
ATOM     64  C   UNL A   1      41.031  30.340  36.260  1.00  0.00     0.031 C 
ATOM     65  C   UNL A   1      39.119  31.332  35.023  1.00  0.00     0.037 A 
BRANCH  52  66
ATOM     66  C   UNL A   1      36.507  31.734  29.435  1.00  0.00     0.064 A 
ATOM     67  C   UNL A   1      35.440  30.957  28.958  1.00  0.00     0.173 A 
ATOM     68  C   UNL A   1      36.479  33.112  29.176  1.00  0.00     0.173 A 
ATOM     69  F   UNL A   1      35.417  29.633  29.179  1.00  0.00    -0.203 F 
ATOM     70  C   UNL A   1      34.398  31.534  28.238  1.00  0.00     0.198 A 
ATOM     71  C   UNL A   1      35.422  33.691  28.477  1.00  0.00     0.198 A 
ATOM     72  F   UNL A   1      37.466  33.906  29.621  1.00  0.00    -0.203 F 
ATOM     73  F   UNL A   1      33.405  30.767  27.766  1.00  0.00    -0.200 F 
ATOM     74  C   UNL A   1      34.385  32.901  28.005  1.00  0.00     0.200 A 
ATOM     75  F   UNL A   1      35.403  35.015  28.267  1.00  0.00    -0.200 F 
ATOM     76  F   UNL A   1      33.372  33.457  27.325  1.00  0.00    -0.200 F 
ENDBRANCH  52  66
BRANCH  53  77
ATOM     77  C   UNL A   1      44.013  27.768  34.699  1.00  0.00     0.064 A 
ATOM     78  C   UNL A   1      45.234  28.439  34.838  1.00  0.00     0.173 A 
ATOM     79  C   UNL A   1      43.847  26.553  35.378  1.00  0.00     0.173 A 
ATOM     80  F   UNL A   1      45.437  29.600  34.201  1.00  0.00    -0.203 F 
ATOM     81  C   UNL A   1      46.251  27.915  35.632  1.00  0.00     0.198 A 
ATOM     82  C   UNL A   1      44.856  26.041  36.190  1.00  0.00     0.198 A 
ATOM     83  F   UNL A   1      42.688  25.884  35.286  1.00  0.00    -0.203 F 
ATOM     84  F   UNL A   1      47.416  28.567  35.741  1.00  0.00    -0.200 F 
ATOM     85  C   UNL A   1      46.058  26.723  36.316  1.00  0.00     0.200 A 
ATOM     86  F   UNL A   1      44.658  24.901  36.865  1.00  0.00    -0.200 F 
ATOM     87  F   UNL A   1      47.028  26.233  37.099  1.00  0.00    -0.200 F 
ENDBRANCH  53  77
BRANCH  65  88
ATOM     88  C   UNL A   1      38.696  32.003  36.298  1.00  0.00     0.064 A 
ATOM     89  C   UNL A   1      39.081  33.318  36.592  1.00  0.00     0.173 A 
ATOM     90  C   UNL A   1      37.852  31.345  37.206  1.00  0.00     0.173 A 
ATOM     91  F   UNL A   1      39.901  33.983  35.765  1.00  0.00    -0.203 F 
ATOM     92  C   UNL A   1      38.650  33.946  37.758  1.00  0.00     0.198 A 
ATOM     93  C   UNL A   1      37.400  31.986  38.357  1.00  0.00     0.198 A 
ATOM     94  F   UNL A   1      37.451  30.087  36.968  1.00  0.00    -0.203 F 
ATOM     95  F   UNL A   1      39.061  35.190  38.038  1.00  0.00    -0.200 F 
ATOM     96  C   UNL A   1      37.802  33.283  38.633  1.00  0.00     0.200 A 
ATOM     97  F   UNL A   1      36.571  31.348  39.195  1.00  0.00    -0.200 F 
ATOM     98  F   UNL A   1      37.377  33.894  39.748  1.00  0.00    -0.200 F 
ENDBRANCH  65  88
ENDBRANCH  39  40
ENDBRANCH  32  34
ENDBRANCH  31  32
ENDBRANCH  30  31
ENDBRANCH  29  30
ENDBRANCH  28  29
ENDBRANCH  27  28
ENDBRANCH   1  27
TORSDOF 21
ENDMDL
MODEL 3
REMARK VINA RESULT:     -10.7      3.303      9.046
REMARK SMILES C[C@H]1Cc2ccc(C3CC3)cc2[C@H](C(=O)OCCOCCOCCOCCOC(=O)c2ccc(-c3c4nc(c(-c5c(F)c(F)c(F)c(F)c5F)c5ccc([nH]5)c(-c5c(F)c(F)c(F)c(F)c5F)c5nc(c(-c6c(F)c(F)c(F)c(F)c6F)c6ccc3[nH]6)C=C5)C=C4)cc2)[NH2+]1
REMARK SMILES IDX 23 1 22 2 21 3 20 4 19 5 18 6 17 7 16 8 14 9 15 10 13 11
REMARK SMILES IDX 1 12 2 13 3 14 94 15 4 16 5 19 12 20 6 21 11 22 7 23 8 24
REMARK SMILES IDX 9 25 10 26 24 27 25 28 26 29 27 30 28 31 29 32 30 33 31 34
REMARK SMILES IDX 32 35 93 36 33 37 92 38 34 39 35 40 36 41 86 42 37 43 91 44
REMARK SMILES IDX 85 45 87 46 38 47 90 48 84 49 83 50 39 52 71 53 51 54 70 55
REMARK SMILES IDX 52 56 55 57 69 58 88 59 53 60 54 61 68 63 89 64 56 65 40 66
REMARK SMILES IDX 41 67 49 68 42 69 43 70 47 71 50 72 44 73 45 74 48 75 46 76
REMARK SMILES IDX 72 77 73 78 81 79 74 80 75 81 79 82 82 83 76 84 77 85 80 86
REMARK SMILES IDX 78 87 57 88 58 89 66 90 59 91 60 92 64 93 67 94 61 95 62 96
REMARK SMILES IDX 65 97 63 98
REMARK H PARENT 94 17 94 18 87 51 55 62
REMARK Flexibility Score: inf
ROOT
ATOM      1  C   UNL A   1      31.089  29.867  24.764  1.00  0.00     0.188 C 
ENDROOT
BRANCH   1   2
ATOM      2  O   UNL A   1      30.638  28.637  24.236  1.00  0.00    -0.377 OA
BRANCH   2   3
ATOM      3  C   UNL A   1      30.935  28.335  22.874  1.00  0.00     0.188 C 
BRANCH   3   4
ATOM      4  C   UNL A   1      31.163  26.884  22.389  1.00  0.00     0.188 C 
BRANCH   4   5
ATOM      5  O   UNL A   1      32.526  26.487  22.297  1.00  0.00    -0.376 OA
BRANCH   5   6
ATOM      6  C   UNL A   1      33.400  27.005  23.289  1.00  0.00     0.202 C 
BRANCH   6   7
ATOM      7  C   UNL A   1      34.014  25.943  24.211  1.00  0.00     0.261 C 
BRANCH   7   8
ATOM      8  O   UNL A   1      33.646  24.578  23.937  1.00  0.00    -0.459 OA
BRANCH   8   9
ATOM      9  C   UNL A   1      34.646  23.655  23.921  1.00  0.00     0.369 C 
ATOM     10  O   UNL A   1      35.202  23.275  22.897  1.00  0.00    -0.245 OA
BRANCH   9  11
ATOM     11  C   UNL A   1      34.961  23.145  25.358  1.00  0.00     0.325 C 
ATOM     12  C   UNL A   1      38.529  24.119  26.180  1.00  0.00     0.075 C 
ATOM     13  C   UNL A   1      37.411  23.331  25.486  1.00  0.00     0.184 C 
ATOM     14  C   UNL A   1      37.586  21.821  25.735  1.00  0.00     0.100 C 
ATOM     15  N   UNL A   1      36.119  23.834  25.983  1.00  0.00    -0.328 N 
ATOM     16  C   UNL A   1      36.371  21.030  25.322  1.00  0.00    -0.032 A 
ATOM     17  H   UNL A   1      36.056  24.831  25.778  1.00  0.00     0.347 HD
ATOM     18  H   UNL A   1      36.081  23.653  26.986  1.00  0.00     0.347 HD
ATOM     19  C   UNL A   1      36.466  19.686  24.964  1.00  0.00     0.005 A 
ATOM     20  C   UNL A   1      35.113  21.642  25.295  1.00  0.00     0.025 A 
ATOM     21  C   UNL A   1      35.324  18.982  24.552  1.00  0.00     0.004 A 
ATOM     22  C   UNL A   1      33.971  20.897  24.960  1.00  0.00     0.014 A 
ATOM     23  C   UNL A   1      34.048  19.569  24.538  1.00  0.00    -0.044 A 
BRANCH  23  24
ATOM     24  C   UNL A   1      32.840  18.819  24.015  1.00  0.00     0.019 C 
ATOM     25  C   UNL A   1      32.938  17.627  23.088  1.00  0.00     0.009 C 
ATOM     26  C   UNL A   1      32.593  17.415  24.531  1.00  0.00     0.009 C 
ENDBRANCH  23  24
ENDBRANCH   9  11
ENDBRANCH   8   9
ENDBRANCH   7   8
ENDBRANCH   6   7
ENDBRANCH   5   6
ENDBRANCH   4   5
ENDBRANCH   3   4
ENDBRANCH   2   3
ENDBRANCH   1   2
BRANCH   1  27
ATOM     27  C   UNL A   1      32.404  29.834  25.560  1.00  0.00     0.188 C 
BRANCH  27  28
ATOM     28  O   UNL A   1      32.393  30.633  26.740  1.00  0.00    -0.376 OA
BRANCH  28  29
ATOM     29  C   UNL A   1      31.515  31.751  26.742  1.00  0.00     0.202 C 
BRANCH  29  30
ATOM     30  C   UNL A   1      32.213  33.107  26.900  1.00  0.00     0.261 C 
BRANCH  30  31
ATOM     31  O   UNL A   1      33.042  33.238  28.062  1.00  0.00    -0.460 OA
BRANCH  31  32
ATOM     32  C   UNL A   1      34.155  33.998  27.957  1.00  0.00     0.338 C 
ATOM     33  O   UNL A   1      34.232  35.163  27.642  1.00  0.00    -0.246 OA
BRANCH  32  34
ATOM     34  C   UNL A   1      35.269  33.192  28.504  1.00  0.00     0.060 A 
ATOM     35  C   UNL A   1      36.569  33.704  28.529  1.00  0.00     0.016 A 
ATOM     36  C   UNL A   1      35.010  31.880  28.922  1.00  0.00     0.016 A 
ATOM     37  C   UNL A   1      37.614  32.906  28.994  1.00  0.00     0.010 A 
ATOM     38  C   UNL A   1      36.061  31.070  29.352  1.00  0.00     0.010 A 
ATOM     39  C   UNL A   1      37.362  31.591  29.418  1.00  0.00    -0.014 A 
BRANCH  39  40
ATOM     40  C   UNL A   1      38.408  30.857  30.162  1.00  0.00     0.031 A 
ATOM     41  C   UNL A   1      39.277  29.821  29.528  1.00  0.00     0.074 A 
ATOM     42  C   UNL A   1      38.542  31.162  31.464  1.00  0.00     0.049 A 
ATOM     43  N   UNL A   1      40.289  29.174  30.051  1.00  0.00    -0.248 NA
ATOM     44  C   UNL A   1      38.973  29.451  28.140  1.00  0.00     0.031 C 
ATOM     45  C   UNL A   1      37.716  32.138  32.179  1.00  0.00     0.029 A 
ATOM     46  N   UNL A   1      39.408  30.693  32.414  1.00  0.00    -0.354 N 
ATOM     47  C   UNL A   1      40.762  28.336  29.053  1.00  0.00     0.074 A 
ATOM     48  C   UNL A   1      39.896  28.524  27.904  1.00  0.00     0.031 C 
ATOM     49  C   UNL A   1      38.124  32.205  33.453  1.00  0.00     0.029 A 
ATOM     50  C   UNL A   1      39.228  31.271  33.645  1.00  0.00     0.049 A 
ATOM     51  H   UNL A   1      40.092  30.009  32.233  1.00  0.00     0.167 HD
ATOM     52  C   UNL A   1      41.831  27.504  29.098  1.00  0.00     0.037 A 
ATOM     53  C   UNL A   1      39.888  31.081  34.801  1.00  0.00     0.037 A 
ATOM     54  C   UNL A   1      42.668  27.319  30.261  1.00  0.00     0.049 A 
ATOM     55  C   UNL A   1      41.047  30.133  34.831  1.00  0.00     0.074 A 
ATOM     56  C   UNL A   1      43.811  26.548  30.386  1.00  0.00     0.029 A 
ATOM     57  N   UNL A   1      42.440  27.893  31.504  1.00  0.00    -0.354 N 
ATOM     58  N   UNL A   1      41.550  29.418  33.855  1.00  0.00    -0.248 NA
ATOM     59  C   UNL A   1      41.738  29.973  36.116  1.00  0.00     0.031 C 
ATOM     60  C   UNL A   1      44.240  26.610  31.717  1.00  0.00     0.029 A 
ATOM     61  C   UNL A   1      43.398  27.462  32.411  1.00  0.00     0.049 A 
ATOM     62  H   UNL A   1      41.706  28.516  31.711  1.00  0.00     0.167 HD
ATOM     63  C   UNL A   1      42.625  28.732  34.399  1.00  0.00     0.074 A 
ATOM     64  C   UNL A   1      42.712  29.133  35.790  1.00  0.00     0.031 C 
ATOM     65  C   UNL A   1      43.462  27.851  33.799  1.00  0.00     0.037 A 
BRANCH  52  66
ATOM     66  C   UNL A   1      42.173  26.729  27.858  1.00  0.00     0.064 A 
ATOM     67  C   UNL A   1      42.988  27.276  26.856  1.00  0.00     0.173 A 
ATOM     68  C   UNL A   1      41.758  25.396  27.710  1.00  0.00     0.173 A 
ATOM     69  F   UNL A   1      43.413  28.545  26.949  1.00  0.00    -0.203 F 
ATOM     70  C   UNL A   1      43.359  26.525  25.743  1.00  0.00     0.198 A 
ATOM     71  C   UNL A   1      42.152  24.640  26.608  1.00  0.00     0.198 A 
ATOM     72  F   UNL A   1      40.989  24.818  28.645  1.00  0.00    -0.203 F 
ATOM     73  F   UNL A   1      44.114  27.078  24.784  1.00  0.00    -0.200 F 
ATOM     74  C   UNL A   1      42.948  25.206  25.624  1.00  0.00     0.200 A 
ATOM     75  F   UNL A   1      41.768  23.360  26.503  1.00  0.00    -0.200 F 
ATOM     76  F   UNL A   1      43.320  24.480  24.560  1.00  0.00    -0.200 F 
ENDBRANCH  52  66
BRANCH  53  77
ATOM     77  C   UNL A   1      39.480  31.863  35.992  1.00  0.00     0.064 A 
ATOM     78  C   UNL A   1      40.070  33.102  36.269  1.00  0.00     0.173 A 
ATOM     79  C   UNL A   1      38.432  31.432  36.819  1.00  0.00     0.173 A 
ATOM     80  F   UNL A   1      41.078  33.549  35.507  1.00  0.00    -0.203 F 
ATOM     81  C   UNL A   1      39.627  33.884  37.333  1.00  0.00     0.198 A 
ATOM     82  C   UNL A   1      37.975  32.225  37.868  1.00  0.00     0.198 A 
ATOM     83  F   UNL A   1      37.827  30.259  36.582  1.00  0.00    -0.203 F 
ATOM     84  F   UNL A   1      40.215  35.060  37.586  1.00  0.00    -0.200 F 
ATOM     85  C   UNL A   1      38.573  33.450  38.124  1.00  0.00     0.200 A 
ATOM     86  F   UNL A   1      36.943  31.813  38.618  1.00  0.00    -0.200 F 
ATOM     87  F   UNL A   1      38.131  34.215  39.131  1.00  0.00    -0.200 F 
ENDBRANCH  53  77
BRANCH  65  88
ATOM     88  C   UNL A   1      44.543  27.247  34.646  1.00  0.00     0.064 A 
ATOM     89  C   UNL A   1      45.763  27.906  34.850  1.00  0.00     0.173 A 
ATOM     90  C   UNL A   1      44.336  26.025  35.304  1.00  0.00     0.173 A 
ATOM     91  F   UNL A   1      46.016  29.067  34.230  1.00  0.00    -0.203 F 
ATOM     92  C   UNL A   1      46.745  27.356  35.671  1.00  0.00     0.198 A 
ATOM     93  C   UNL A   1      45.309  25.491  36.146  1.00  0.00     0.198 A 
ATOM     94  F   UNL A   1      43.185  25.357  35.144  1.00  0.00    -0.203 F 
ATOM     95  F   UNL A   1      47.919  27.984  35.823  1.00  0.00    -0.200 F 
ATOM     96  C   UNL A   1      46.512  26.155  36.326  1.00  0.00     0.200 A 
ATOM     97  F   UNL A   1      45.077  24.337  36.788  1.00  0.00    -0.200 F 
ATOM     98  F   UNL A   1      47.453  25.634  37.126  1.00  0.00    -0.200 F 
ENDBRANCH  65  88
ENDBRANCH  39  40
ENDBRANCH  32  34
ENDBRANCH  31  32
ENDBRANCH  30  31
ENDBRANCH  29  30
ENDBRANCH  28  29
ENDBRANCH  27  28
ENDBRANCH   1  27
TORSDOF 21
ENDMDL
