MODEL 1
REMARK VINA RESULT:      -9.6      0.000      0.000
REMARK SMILES Cc1c(C#N)c2ccccc2n1CC(=O)N1CC[C@H](O)C[C@@H]1C(=O)OCCOCCOCCOCCOC(=O)c1ccc(-c2c3nc(c(-c4c(F)c(F)c(F)c(F)c4F)c4ccc([nH]4)c(-c4c(F)c(F)c(F)c(F)c4F)c4nc(c(-c5c(F)c(F)c(F)c(F)c5F)c5ccc2[nH]5)C=C4)C=C3)cc1
REMARK SMILES IDX 30 1 29 2 28 3 27 4 26 5 25 6 23 7 24 8 22 9 16 10 17 11
REMARK SMILES IDX 18 12 21 13 19 14 14 15 15 16 13 17 12 18 1 19 2 20 3 21
REMARK SMILES IDX 6 22 11 23 7 24 10 25 8 26 9 27 4 28 5 29 20 30 31 32 32 33
REMARK SMILES IDX 33 34 34 35 35 36 36 37 37 38 38 39 39 40 40 41 41 42 102 43
REMARK SMILES IDX 42 44 101 45 43 46 44 47 45 48 95 49 46 50 100 51 94 52
REMARK SMILES IDX 96 53 47 54 99 55 93 56 92 57 48 59 80 60 60 61 79 62 61 63
REMARK SMILES IDX 64 64 78 65 97 66 62 67 63 68 77 70 98 71 65 72 49 73 50 74
REMARK SMILES IDX 58 75 51 76 52 77 56 78 59 79 53 80 54 81 57 82 55 83 81 84
REMARK SMILES IDX 82 85 90 86 83 87 84 88 88 89 91 90 85 91 86 92 89 93 87 94
REMARK SMILES IDX 66 95 67 96 75 97 68 98 69 99 73 100 76 101 70 102 71 103
REMARK SMILES IDX 74 104 72 105
REMARK H PARENT 20 31 96 58 64 69
REMARK Flexibility Score: inf
ROOT
ATOM      1  C   UNL A   1      39.211  27.095  28.620  1.00  0.00     0.188 C 
ENDROOT
BRANCH   1   2
ATOM      2  C   UNL A   1      39.563  25.990  27.620  1.00  0.00     0.188 C 
BRANCH   2   3
ATOM      3  O   UNL A   1      38.717  24.864  27.491  1.00  0.00    -0.376 OA
BRANCH   3   4
ATOM      4  C   UNL A   1      38.425  24.114  26.319  1.00  0.00     0.202 C 
BRANCH   4   5
ATOM      5  C   UNL A   1      37.139  23.390  25.854  1.00  0.00     0.261 C 
BRANCH   5   6
ATOM      6  O   UNL A   1      36.097  24.202  25.359  1.00  0.00    -0.462 OA
BRANCH   6   7
ATOM      7  C   UNL A   1      34.897  23.624  25.535  1.00  0.00     0.329 C 
ATOM      8  O   UNL A   1      34.754  22.481  25.957  1.00  0.00    -0.250 OA
BRANCH   7   9
ATOM      9  C   UNL A   1      33.763  24.599  25.186  1.00  0.00     0.197 C 
ATOM     10  N   UNL A   1      32.478  23.913  25.386  1.00  0.00    -0.327 N 
ATOM     11  C   UNL A   1      32.274  22.774  24.491  1.00  0.00     0.123 C 
ATOM     12  C   UNL A   1      32.667  23.060  23.030  1.00  0.00     0.053 C 
ATOM     13  C   UNL A   1      33.878  25.157  23.789  1.00  0.00     0.069 C 
ATOM     14  C   UNL A   1      33.835  24.021  22.785  1.00  0.00     0.118 C 
BRANCH  10  15
ATOM     15  C   UNL A   1      31.701  24.325  26.459  1.00  0.00     0.243 C 
ATOM     16  O   UNL A   1      31.769  23.702  27.531  1.00  0.00    -0.273 OA
BRANCH  15  17
ATOM     17  C   UNL A   1      30.583  25.352  26.354  1.00  0.00     0.222 C 
BRANCH  17  18
ATOM     18  N   UNL A   1      30.799  26.528  25.536  1.00  0.00    -0.334 N 
ATOM     19  C   UNL A   1      29.715  25.598  23.440  1.00  0.00     0.066 C 
ATOM     20  C   UNL A   1      30.389  26.676  24.225  1.00  0.00     0.034 A 
ATOM     21  C   UNL A   1      30.584  28.010  23.903  1.00  0.00     0.080 A 
ATOM     22  C   UNL A   1      31.241  28.648  24.994  1.00  0.00     0.018 A 
ATOM     23  C   UNL A   1      31.418  27.682  25.988  1.00  0.00     0.050 A 
ATOM     24  C   UNL A   1      31.681  29.966  25.245  1.00  0.00     0.012 A 
ATOM     25  C   UNL A   1      32.066  27.976  27.201  1.00  0.00     0.027 A 
ATOM     26  C   UNL A   1      32.314  30.268  26.455  1.00  0.00     0.001 A 
ATOM     27  C   UNL A   1      32.515  29.281  27.413  1.00  0.00     0.002 A 
BRANCH  21  28
ATOM     28  C   UNL A   1      30.124  28.642  22.701  1.00  0.00     0.102 C 
ATOM     29  N   UNL A   1      29.726  29.117  21.727  1.00  0.00    -0.192 NA
ENDBRANCH  21  28
ENDBRANCH  17  18
ENDBRANCH  15  17
ENDBRANCH  10  15
BRANCH  14  30
ATOM     30  O   UNL A   1      35.097  23.364  22.767  1.00  0.00    -0.393 OA
ATOM     31  H   UNL A   1      34.966  22.415  22.616  1.00  0.00     0.210 HD
ENDBRANCH  14  30
ENDBRANCH   7   9
ENDBRANCH   6   7
ENDBRANCH   5   6
ENDBRANCH   4   5
ENDBRANCH   3   4
ENDBRANCH   2   3
ENDBRANCH   1   2
BRANCH   1  32
ATOM     32  O   UNL A   1      39.795  28.318  28.270  1.00  0.00    -0.377 OA
BRANCH  32  33
ATOM     33  C   UNL A   1      38.909  29.360  27.910  1.00  0.00     0.188 C 
BRANCH  33  34
ATOM     34  C   UNL A   1      38.026  30.124  28.935  1.00  0.00     0.188 C 
BRANCH  34  35
ATOM     35  O   UNL A   1      37.969  31.519  28.753  1.00  0.00    -0.376 OA
BRANCH  35  36
ATOM     36  C   UNL A   1      36.870  32.065  28.045  1.00  0.00     0.202 C 
BRANCH  36  37
ATOM     37  C   UNL A   1      35.472  31.394  28.054  1.00  0.00     0.261 C 
BRANCH  37  38
ATOM     38  O   UNL A   1      34.609  31.692  29.173  1.00  0.00    -0.460 OA
BRANCH  38  39
ATOM     39  C   UNL A   1      34.525  32.939  29.697  1.00  0.00     0.338 C 
ATOM     40  O   UNL A   1      33.628  33.737  29.502  1.00  0.00    -0.246 OA
BRANCH  39  41
ATOM     41  C   UNL A   1      35.486  32.996  30.855  1.00  0.00     0.060 A 
ATOM     42  C   UNL A   1      36.439  34.010  31.025  1.00  0.00     0.016 A 
ATOM     43  C   UNL A   1      35.636  31.796  31.568  1.00  0.00     0.016 A 
ATOM     44  C   UNL A   1      37.605  33.742  31.769  1.00  0.00     0.010 A 
ATOM     45  C   UNL A   1      36.817  31.516  32.267  1.00  0.00     0.010 A 
ATOM     46  C   UNL A   1      37.840  32.462  32.327  1.00  0.00    -0.014 A 
BRANCH  46  47
ATOM     47  C   UNL A   1      39.000  32.262  33.232  1.00  0.00     0.031 A 
ATOM     48  C   UNL A   1      38.824  33.084  34.460  1.00  0.00     0.074 A 
ATOM     49  C   UNL A   1      40.020  31.365  33.164  1.00  0.00     0.049 A 
ATOM     50  N   UNL A   1      39.573  34.045  34.887  1.00  0.00    -0.248 NA
ATOM     51  C   UNL A   1      37.551  32.936  35.190  1.00  0.00     0.031 C 
ATOM     52  C   UNL A   1      40.220  30.301  32.187  1.00  0.00     0.029 A 
ATOM     53  N   UNL A   1      41.097  31.174  34.007  1.00  0.00    -0.354 N 
ATOM     54  C   UNL A   1      38.955  34.503  36.047  1.00  0.00     0.074 A 
ATOM     55  C   UNL A   1      37.639  33.927  36.075  1.00  0.00     0.031 C 
ATOM     56  C   UNL A   1      41.239  29.494  32.558  1.00  0.00     0.029 A 
ATOM     57  C   UNL A   1      41.796  29.974  33.803  1.00  0.00     0.049 A 
ATOM     58  H   UNL A   1      41.353  31.827  34.698  1.00  0.00     0.167 HD
ATOM     59  C   UNL A   1      39.671  35.114  37.027  1.00  0.00     0.037 A 
ATOM     60  C   UNL A   1      42.705  29.365  34.624  1.00  0.00     0.037 A 
ATOM     61  C   UNL A   1      40.907  35.641  36.519  1.00  0.00     0.049 A 
ATOM     62  C   UNL A   1      43.251  30.409  35.527  1.00  0.00     0.074 A 
ATOM     63  C   UNL A   1      41.226  36.572  35.548  1.00  0.00     0.029 A 
ATOM     64  N   UNL A   1      42.060  34.931  36.743  1.00  0.00    -0.354 N 
ATOM     65  N   UNL A   1      43.998  31.391  35.101  1.00  0.00    -0.248 NA
ATOM     66  C   UNL A   1      42.510  30.655  36.755  1.00  0.00     0.031 C 
ATOM     67  C   UNL A   1      42.368  36.036  34.888  1.00  0.00     0.029 A 
ATOM     68  C   UNL A   1      42.735  34.866  35.551  1.00  0.00     0.049 A 
ATOM     69  H   UNL A   1      42.347  34.540  37.600  1.00  0.00     0.167 HD
ATOM     70  C   UNL A   1      43.471  32.510  35.724  1.00  0.00     0.074 A 
ATOM     71  C   UNL A   1      42.561  31.989  36.745  1.00  0.00     0.031 C 
ATOM     72  C   UNL A   1      43.571  33.753  35.173  1.00  0.00     0.037 A 
BRANCH  59  73
ATOM     73  C   UNL A   1      39.415  34.886  38.494  1.00  0.00     0.064 A 
ATOM     74  C   UNL A   1      39.261  35.998  39.342  1.00  0.00     0.173 A 
ATOM     75  C   UNL A   1      39.608  33.646  39.144  1.00  0.00     0.173 A 
ATOM     76  F   UNL A   1      39.105  37.229  38.832  1.00  0.00    -0.203 F 
ATOM     77  C   UNL A   1      39.360  35.883  40.731  1.00  0.00     0.198 A 
ATOM     78  C   UNL A   1      39.649  33.526  40.529  1.00  0.00     0.198 A 
ATOM     79  F   UNL A   1      39.880  32.520  38.474  1.00  0.00    -0.203 F 
ATOM     80  F   UNL A   1      39.334  36.985  41.492  1.00  0.00    -0.200 F 
ATOM     81  C   UNL A   1      39.557  34.648  41.322  1.00  0.00     0.200 A 
ATOM     82  F   UNL A   1      39.866  32.323  41.080  1.00  0.00    -0.200 F 
ATOM     83  F   UNL A   1      39.710  34.544  42.648  1.00  0.00    -0.200 F 
ENDBRANCH  59  73
BRANCH  60  84
ATOM     84  C   UNL A   1      42.837  27.900  34.919  1.00  0.00     0.064 A 
ATOM     85  C   UNL A   1      41.871  27.181  35.654  1.00  0.00     0.173 A 
ATOM     86  C   UNL A   1      43.798  27.108  34.254  1.00  0.00     0.173 A 
ATOM     87  F   UNL A   1      40.880  27.829  36.284  1.00  0.00    -0.203 F 
ATOM     88  C   UNL A   1      41.867  25.774  35.705  1.00  0.00     0.198 A 
ATOM     89  C   UNL A   1      43.797  25.712  34.311  1.00  0.00     0.198 A 
ATOM     90  F   UNL A   1      44.714  27.665  33.453  1.00  0.00    -0.203 F 
ATOM     91  F   UNL A   1      40.900  25.127  36.374  1.00  0.00    -0.200 F 
ATOM     92  C   UNL A   1      42.825  25.043  35.025  1.00  0.00     0.200 A 
ATOM     93  F   UNL A   1      44.713  25.022  33.617  1.00  0.00    -0.200 F 
ATOM     94  F   UNL A   1      42.790  23.703  35.023  1.00  0.00    -0.200 F 
ENDBRANCH  60  84
BRANCH  72  95
ATOM     95  C   UNL A   1      44.427  33.950  33.953  1.00  0.00     0.064 A 
ATOM     96  C   UNL A   1      45.821  34.139  33.988  1.00  0.00     0.173 A 
ATOM     97  C   UNL A   1      43.843  33.711  32.700  1.00  0.00     0.173 A 
ATOM     98  F   UNL A   1      46.470  34.283  35.151  1.00  0.00    -0.203 F 
ATOM     99  C   UNL A   1      46.585  34.104  32.820  1.00  0.00     0.198 A 
ATOM    100  C   UNL A   1      44.613  33.628  31.544  1.00  0.00     0.198 A 
ATOM    101  F   UNL A   1      42.523  33.482  32.609  1.00  0.00    -0.203 F 
ATOM    102  F   UNL A   1      47.911  34.302  32.881  1.00  0.00    -0.200 F 
ATOM    103  C   UNL A   1      45.983  33.829  31.602  1.00  0.00     0.200 A 
ATOM    104  F   UNL A   1      44.030  33.315  30.379  1.00  0.00    -0.200 F 
ATOM    105  F   UNL A   1      46.721  33.737  30.487  1.00  0.00    -0.200 F 
ENDBRANCH  72  95
ENDBRANCH  46  47
ENDBRANCH  39  41
ENDBRANCH  38  39
ENDBRANCH  37  38
ENDBRANCH  36  37
ENDBRANCH  35  36
ENDBRANCH  34  35
ENDBRANCH  33  34
ENDBRANCH  32  33
ENDBRANCH   1  32
TORSDOF 25
ENDMDL
MODEL 2
REMARK VINA RESULT:      -9.4      3.633      8.883
REMARK SMILES Cc1c(C#N)c2ccccc2n1CC(=O)N1CC[C@H](O)C[C@@H]1C(=O)OCCOCCOCCOCCOC(=O)c1ccc(-c2c3nc(c(-c4c(F)c(F)c(F)c(F)c4F)c4ccc([nH]4)c(-c4c(F)c(F)c(F)c(F)c4F)c4nc(c(-c5c(F)c(F)c(F)c(F)c5F)c5ccc2[nH]5)C=C4)C=C3)cc1
REMARK SMILES IDX 30 1 29 2 28 3 27 4 26 5 25 6 23 7 24 8 22 9 16 10 17 11
REMARK SMILES IDX 18 12 21 13 19 14 14 15 15 16 13 17 12 18 1 19 2 20 3 21
REMARK SMILES IDX 6 22 11 23 7 24 10 25 8 26 9 27 4 28 5 29 20 30 31 32 32 33
REMARK SMILES IDX 33 34 34 35 35 36 36 37 37 38 38 39 39 40 40 41 41 42 102 43
REMARK SMILES IDX 42 44 101 45 43 46 44 47 45 48 95 49 46 50 100 51 94 52
REMARK SMILES IDX 96 53 47 54 99 55 93 56 92 57 48 59 80 60 60 61 79 62 61 63
REMARK SMILES IDX 64 64 78 65 97 66 62 67 63 68 77 70 98 71 65 72 49 73 50 74
REMARK SMILES IDX 58 75 51 76 52 77 56 78 59 79 53 80 54 81 57 82 55 83 81 84
REMARK SMILES IDX 82 85 90 86 83 87 84 88 88 89 91 90 85 91 86 92 89 93 87 94
REMARK SMILES IDX 66 95 67 96 75 97 68 98 69 99 73 100 76 101 70 102 71 103
REMARK SMILES IDX 74 104 72 105
REMARK H PARENT 20 31 96 58 64 69
REMARK Flexibility Score: inf
ROOT
ATOM      1  C   UNL A   1      39.363  23.734  26.769  1.00  0.00     0.188 C 
ENDROOT
BRANCH   1   2
ATOM      2  C   UNL A   1      38.105  23.155  26.116  1.00  0.00     0.188 C 
BRANCH   2   3
ATOM      3  O   UNL A   1      37.080  24.023  25.673  1.00  0.00    -0.376 OA
BRANCH   3   4
ATOM      4  C   UNL A   1      35.682  23.774  25.615  1.00  0.00     0.202 C 
BRANCH   4   5
ATOM      5  C   UNL A   1      34.478  24.714  25.369  1.00  0.00     0.261 C 
BRANCH   5   6
ATOM      6  O   UNL A   1      34.585  26.027  25.873  1.00  0.00    -0.462 OA
BRANCH   6   7
ATOM      7  C   UNL A   1      33.664  26.841  25.330  1.00  0.00     0.329 C 
ATOM      8  O   UNL A   1      33.731  27.260  24.178  1.00  0.00    -0.250 OA
BRANCH   7   9
ATOM      9  C   UNL A   1      32.523  27.117  26.319  1.00  0.00     0.197 C 
ATOM     10  N   UNL A   1      31.277  27.296  25.559  1.00  0.00    -0.327 N 
ATOM     11  C   UNL A   1      31.291  28.462  24.675  1.00  0.00     0.123 C 
ATOM     12  C   UNL A   1      31.868  29.728  25.335  1.00  0.00     0.053 C 
ATOM     13  C   UNL A   1      32.798  28.299  27.215  1.00  0.00     0.069 C 
ATOM     14  C   UNL A   1      32.984  29.543  26.369  1.00  0.00     0.118 C 
BRANCH  10  15
ATOM     15  C   UNL A   1      30.325  26.293  25.659  1.00  0.00     0.243 C 
ATOM     16  O   UNL A   1      29.889  25.979  26.778  1.00  0.00    -0.273 OA
BRANCH  15  17
ATOM     17  C   UNL A   1      29.938  25.372  24.510  1.00  0.00     0.222 C 
BRANCH  17  18
ATOM     18  N   UNL A   1      30.918  24.422  24.024  1.00  0.00    -0.334 N 
ATOM     19  C   UNL A   1      30.576  22.718  25.870  1.00  0.00     0.066 C 
ATOM     20  C   UNL A   1      31.204  23.201  24.604  1.00  0.00     0.034 A 
ATOM     21  C   UNL A   1      32.014  22.524  23.707  1.00  0.00     0.080 A 
ATOM     22  C   UNL A   1      32.327  23.398  22.628  1.00  0.00     0.018 A 
ATOM     23  C   UNL A   1      31.674  24.608  22.878  1.00  0.00     0.050 A 
ATOM     24  C   UNL A   1      33.085  23.271  21.443  1.00  0.00     0.012 A 
ATOM     25  C   UNL A   1      31.794  25.709  22.012  1.00  0.00     0.027 A 
ATOM     26  C   UNL A   1      33.199  24.359  20.572  1.00  0.00     0.001 A 
ATOM     27  C   UNL A   1      32.572  25.565  20.861  1.00  0.00     0.002 A 
BRANCH  21  28
ATOM     28  C   UNL A   1      32.399  21.146  23.824  1.00  0.00     0.102 C 
ATOM     29  N   UNL A   1      32.666  20.027  23.908  1.00  0.00    -0.192 NA
ENDBRANCH  21  28
ENDBRANCH  17  18
ENDBRANCH  15  17
ENDBRANCH  10  15
BRANCH  14  30
ATOM     30  O   UNL A   1      34.281  29.520  25.783  1.00  0.00    -0.393 OA
ATOM     31  H   UNL A   1      34.342  28.781  25.158  1.00  0.00     0.210 HD
ENDBRANCH  14  30
ENDBRANCH   7   9
ENDBRANCH   6   7
ENDBRANCH   5   6
ENDBRANCH   4   5
ENDBRANCH   3   4
ENDBRANCH   2   3
ENDBRANCH   1   2
BRANCH   1  32
ATOM     32  O   UNL A   1      40.117  22.746  27.413  1.00  0.00    -0.377 OA
BRANCH  32  33
ATOM     33  C   UNL A   1      40.106  21.460  26.824  1.00  0.00     0.188 C 
BRANCH  33  34
ATOM     34  C   UNL A   1      41.327  20.849  26.083  1.00  0.00     0.188 C 
BRANCH  34  35
ATOM     35  O   UNL A   1      42.558  20.971  26.756  1.00  0.00    -0.376 OA
BRANCH  35  36
ATOM     36  C   UNL A   1      43.742  21.079  25.986  1.00  0.00     0.202 C 
BRANCH  36  37
ATOM     37  C   UNL A   1      44.812  22.164  26.271  1.00  0.00     0.261 C 
BRANCH  37  38
ATOM     38  O   UNL A   1      44.838  23.306  25.387  1.00  0.00    -0.460 OA
BRANCH  38  39
ATOM     39  C   UNL A   1      43.698  23.895  24.950  1.00  0.00     0.338 C 
ATOM     40  O   UNL A   1      42.774  23.338  24.389  1.00  0.00    -0.246 OA
BRANCH  39  41
ATOM     41  C   UNL A   1      43.600  25.231  25.640  1.00  0.00     0.060 A 
ATOM     42  C   UNL A   1      44.418  25.613  26.712  1.00  0.00     0.016 A 
ATOM     43  C   UNL A   1      42.412  25.941  25.405  1.00  0.00     0.016 A 
ATOM     44  C   UNL A   1      43.952  26.581  27.624  1.00  0.00     0.010 A 
ATOM     45  C   UNL A   1      41.930  26.868  26.338  1.00  0.00     0.010 A 
ATOM     46  C   UNL A   1      42.666  27.156  27.487  1.00  0.00    -0.014 A 
BRANCH  46  47
ATOM     47  C   UNL A   1      42.271  28.281  28.372  1.00  0.00     0.031 A 
ATOM     48  C   UNL A   1      43.263  29.384  28.250  1.00  0.00     0.074 A 
ATOM     49  C   UNL A   1      41.126  28.483  29.077  1.00  0.00     0.049 A 
ATOM     50  N   UNL A   1      44.026  29.873  29.170  1.00  0.00    -0.248 NA
ATOM     51  C   UNL A   1      43.571  29.863  26.890  1.00  0.00     0.031 C 
ATOM     52  C   UNL A   1      39.930  27.648  29.108  1.00  0.00     0.029 A 
ATOM     53  N   UNL A   1      40.756  29.531  29.896  1.00  0.00    -0.354 N 
ATOM     54  C   UNL A   1      44.785  30.852  28.536  1.00  0.00     0.074 A 
ATOM     55  C   UNL A   1      44.605  30.668  27.122  1.00  0.00     0.031 C 
ATOM     56  C   UNL A   1      38.928  28.271  29.768  1.00  0.00     0.029 A 
ATOM     57  C   UNL A   1      39.393  29.560  30.232  1.00  0.00     0.049 A 
ATOM     58  H   UNL A   1      41.396  30.205  30.218  1.00  0.00     0.167 HD
ATOM     59  C   UNL A   1      45.296  31.901  29.231  1.00  0.00     0.037 A 
ATOM     60  C   UNL A   1      38.669  30.586  30.772  1.00  0.00     0.037 A 
ATOM     61  C   UNL A   1      45.389  31.603  30.633  1.00  0.00     0.049 A 
ATOM     62  C   UNL A   1      39.629  31.494  31.448  1.00  0.00     0.074 A 
ATOM     63  C   UNL A   1      46.059  30.643  31.368  1.00  0.00     0.029 A 
ATOM     64  N   UNL A   1      44.422  32.101  31.470  1.00  0.00    -0.354 N 
ATOM     65  N   UNL A   1      40.300  31.146  32.512  1.00  0.00    -0.248 NA
ATOM     66  C   UNL A   1      40.229  32.533  30.624  1.00  0.00     0.031 C 
ATOM     67  C   UNL A   1      45.146  30.260  32.391  1.00  0.00     0.029 A 
ATOM     68  C   UNL A   1      44.017  31.071  32.281  1.00  0.00     0.049 A 
ATOM     69  H   UNL A   1      44.082  33.025  31.485  1.00  0.00     0.167 HD
ATOM     70  C   UNL A   1      41.592  31.567  32.247  1.00  0.00     0.074 A 
ATOM     71  C   UNL A   1      41.483  32.429  31.069  1.00  0.00     0.031 C 
ATOM     72  C   UNL A   1      42.676  30.950  32.799  1.00  0.00     0.037 A 
BRANCH  59  73
ATOM     73  C   UNL A   1      45.342  33.304  28.684  1.00  0.00     0.064 A 
ATOM     74  C   UNL A   1      44.147  33.910  28.254  1.00  0.00     0.173 A 
ATOM     75  C   UNL A   1      46.532  33.960  28.294  1.00  0.00     0.173 A 
ATOM     76  F   UNL A   1      42.960  33.354  28.540  1.00  0.00    -0.203 F 
ATOM     77  C   UNL A   1      44.149  35.045  27.440  1.00  0.00     0.198 A 
ATOM     78  C   UNL A   1      46.529  35.123  27.531  1.00  0.00     0.198 A 
ATOM     79  F   UNL A   1      47.744  33.446  28.531  1.00  0.00    -0.203 F 
ATOM     80  F   UNL A   1      42.993  35.513  26.951  1.00  0.00    -0.200 F 
ATOM     81  C   UNL A   1      45.339  35.649  27.077  1.00  0.00     0.200 A 
ATOM     82  F   UNL A   1      47.695  35.676  27.170  1.00  0.00    -0.200 F 
ATOM     83  F   UNL A   1      45.345  36.702  26.251  1.00  0.00    -0.200 F 
ENDBRANCH  59  73
BRANCH  60  84
ATOM     84  C   UNL A   1      37.276  31.014  30.414  1.00  0.00     0.064 A 
ATOM     85  C   UNL A   1      36.350  31.472  31.374  1.00  0.00     0.173 A 
ATOM     86  C   UNL A   1      36.904  31.231  29.070  1.00  0.00     0.173 A 
ATOM     87  F   UNL A   1      36.622  31.363  32.683  1.00  0.00    -0.203 F 
ATOM     88  C   UNL A   1      35.149  32.109  31.009  1.00  0.00     0.198 A 
ATOM     89  C   UNL A   1      35.709  31.858  28.707  1.00  0.00     0.198 A 
ATOM     90  F   UNL A   1      37.735  30.922  28.066  1.00  0.00    -0.203 F 
ATOM     91  F   UNL A   1      34.318  32.576  31.954  1.00  0.00    -0.200 F 
ATOM     92  C   UNL A   1      34.836  32.310  29.676  1.00  0.00     0.200 A 
ATOM     93  F   UNL A   1      35.442  32.073  27.411  1.00  0.00    -0.200 F 
ATOM     94  F   UNL A   1      33.723  32.968  29.324  1.00  0.00    -0.200 F 
ENDBRANCH  60  84
BRANCH  72  95
ATOM     95  C   UNL A   1      42.466  29.907  33.862  1.00  0.00     0.064 A 
ATOM     96  C   UNL A   1      42.227  28.547  33.596  1.00  0.00     0.173 A 
ATOM     97  C   UNL A   1      42.744  30.263  35.190  1.00  0.00     0.173 A 
ATOM     98  F   UNL A   1      42.043  28.108  32.344  1.00  0.00    -0.203 F 
ATOM     99  C   UNL A   1      42.251  27.596  34.619  1.00  0.00     0.198 A 
ATOM    100  C   UNL A   1      42.816  29.307  36.199  1.00  0.00     0.198 A 
ATOM    101  F   UNL A   1      43.022  31.541  35.497  1.00  0.00    -0.203 F 
ATOM    102  F   UNL A   1      42.004  26.307  34.339  1.00  0.00    -0.200 F 
ATOM    103  C   UNL A   1      42.565  27.974  35.914  1.00  0.00     0.200 A 
ATOM    104  F   UNL A   1      43.166  29.674  37.438  1.00  0.00    -0.200 F 
ATOM    105  F   UNL A   1      42.646  27.056  36.888  1.00  0.00    -0.200 F 
ENDBRANCH  72  95
ENDBRANCH  46  47
ENDBRANCH  39  41
ENDBRANCH  38  39
ENDBRANCH  37  38
ENDBRANCH  36  37
ENDBRANCH  35  36
ENDBRANCH  34  35
ENDBRANCH  33  34
ENDBRANCH  32  33
ENDBRANCH   1  32
TORSDOF 25
ENDMDL
MODEL 3
REMARK VINA RESULT:      -9.2      4.032      6.145
REMARK SMILES Cc1c(C#N)c2ccccc2n1CC(=O)N1CC[C@H](O)C[C@@H]1C(=O)OCCOCCOCCOCCOC(=O)c1ccc(-c2c3nc(c(-c4c(F)c(F)c(F)c(F)c4F)c4ccc([nH]4)c(-c4c(F)c(F)c(F)c(F)c4F)c4nc(c(-c5c(F)c(F)c(F)c(F)c5F)c5ccc2[nH]5)C=C4)C=C3)cc1
REMARK SMILES IDX 30 1 29 2 28 3 27 4 26 5 25 6 23 7 24 8 22 9 16 10 17 11
REMARK SMILES IDX 18 12 21 13 19 14 14 15 15 16 13 17 12 18 1 19 2 20 3 21
REMARK SMILES IDX 6 22 11 23 7 24 10 25 8 26 9 27 4 28 5 29 20 30 31 32 32 33
REMARK SMILES IDX 33 34 34 35 35 36 36 37 37 38 38 39 39 40 40 41 41 42 102 43
REMARK SMILES IDX 42 44 101 45 43 46 44 47 45 48 95 49 46 50 100 51 94 52
REMARK SMILES IDX 96 53 47 54 99 55 93 56 92 57 48 59 80 60 60 61 79 62 61 63
REMARK SMILES IDX 64 64 78 65 97 66 62 67 63 68 77 70 98 71 65 72 49 73 50 74
REMARK SMILES IDX 58 75 51 76 52 77 56 78 59 79 53 80 54 81 57 82 55 83 81 84
REMARK SMILES IDX 82 85 90 86 83 87 84 88 88 89 91 90 85 91 86 92 89 93 87 94
REMARK SMILES IDX 66 95 67 96 75 97 68 98 69 99 73 100 76 101 70 102 71 103
REMARK SMILES IDX 74 104 72 105
REMARK H PARENT 20 31 96 58 64 69
REMARK Flexibility Score: inf
ROOT
ATOM      1  C   UNL A   1      39.321  26.292  28.335  1.00  0.00     0.188 C 
ENDROOT
BRANCH   1   2
ATOM      2  C   UNL A   1      39.978  25.088  27.653  1.00  0.00     0.188 C 
BRANCH   2   3
ATOM      3  O   UNL A   1      39.184  23.991  27.247  1.00  0.00    -0.376 OA
BRANCH   3   4
ATOM      4  C   UNL A   1      38.294  23.912  26.141  1.00  0.00     0.202 C 
BRANCH   4   5
ATOM      5  C   UNL A   1      36.856  23.356  26.014  1.00  0.00     0.261 C 
BRANCH   5   6
ATOM      6  O   UNL A   1      35.850  24.276  25.649  1.00  0.00    -0.462 OA
BRANCH   6   7
ATOM      7  C   UNL A   1      34.639  23.695  25.619  1.00  0.00     0.329 C 
ATOM      8  O   UNL A   1      34.456  22.505  25.856  1.00  0.00    -0.250 OA
BRANCH   7   9
ATOM      9  C   UNL A   1      33.544  24.725  25.304  1.00  0.00     0.197 C 
ATOM     10  N   UNL A   1      32.240  24.049  25.345  1.00  0.00    -0.327 N 
ATOM     11  C   UNL A   1      32.081  23.016  24.321  1.00  0.00     0.123 C 
ATOM     12  C   UNL A   1      32.575  23.448  22.928  1.00  0.00     0.053 C 
ATOM     13  C   UNL A   1      33.762  25.426  23.985  1.00  0.00     0.069 C 
ATOM     14  C   UNL A   1      33.769  24.405  22.865  1.00  0.00     0.118 C 
BRANCH  10  15
ATOM     15  C   UNL A   1      31.399  24.360  26.403  1.00  0.00     0.243 C 
ATOM     16  O   UNL A   1      31.294  23.563  27.349  1.00  0.00    -0.273 OA
BRANCH  15  17
ATOM     17  C   UNL A   1      30.402  25.511  26.386  1.00  0.00     0.222 C 
BRANCH  17  18
ATOM     18  N   UNL A   1      30.694  26.667  25.564  1.00  0.00    -0.334 N 
ATOM     19  C   UNL A   1      29.485  25.834  23.495  1.00  0.00     0.066 C 
ATOM     20  C   UNL A   1      30.266  26.851  24.263  1.00  0.00     0.034 A 
ATOM     21  C   UNL A   1      30.562  28.165  23.937  1.00  0.00     0.080 A 
ATOM     22  C   UNL A   1      31.296  28.745  25.011  1.00  0.00     0.018 A 
ATOM     23  C   UNL A   1      31.417  27.765  26.000  1.00  0.00     0.050 A 
ATOM     24  C   UNL A   1      31.849  30.021  25.252  1.00  0.00     0.012 A 
ATOM     25  C   UNL A   1      32.117  28.001  27.197  1.00  0.00     0.027 A 
ATOM     26  C   UNL A   1      32.535  30.266  26.446  1.00  0.00     0.001 A 
ATOM     27  C   UNL A   1      32.677  29.264  27.398  1.00  0.00     0.002 A 
BRANCH  21  28
ATOM     28  C   UNL A   1      30.126  28.836  22.746  1.00  0.00     0.102 C 
ATOM     29  N   UNL A   1      29.817  29.376  21.774  1.00  0.00    -0.192 NA
ENDBRANCH  21  28
ENDBRANCH  17  18
ENDBRANCH  15  17
ENDBRANCH  10  15
BRANCH  14  30
ATOM     30  O   UNL A   1      35.020  23.727  22.859  1.00  0.00    -0.393 OA
ATOM     31  H   UNL A   1      35.274  23.524  21.944  1.00  0.00     0.210 HD
ENDBRANCH  14  30
ENDBRANCH   7   9
ENDBRANCH   6   7
ENDBRANCH   5   6
ENDBRANCH   4   5
ENDBRANCH   3   4
ENDBRANCH   2   3
ENDBRANCH   1   2
BRANCH   1  32
ATOM     32  O   UNL A   1      39.750  27.502  27.779  1.00  0.00    -0.377 OA
BRANCH  32  33
ATOM     33  C   UNL A   1      38.897  28.617  27.960  1.00  0.00     0.188 C 
BRANCH  33  34
ATOM     34  C   UNL A   1      39.020  29.602  29.154  1.00  0.00     0.188 C 
BRANCH  34  35
ATOM     35  O   UNL A   1      38.393  30.850  28.968  1.00  0.00    -0.376 OA
BRANCH  35  36
ATOM     36  C   UNL A   1      37.070  31.019  29.445  1.00  0.00     0.202 C 
BRANCH  36  37
ATOM     37  C   UNL A   1      36.243  29.838  30.014  1.00  0.00     0.261 C 
BRANCH  37  38
ATOM     38  O   UNL A   1      36.171  29.720  31.451  1.00  0.00    -0.460 OA
BRANCH  38  39
ATOM     39  C   UNL A   1      36.731  30.643  32.272  1.00  0.00     0.338 C 
ATOM     40  O   UNL A   1      36.144  31.539  32.848  1.00  0.00    -0.246 OA
BRANCH  39  41
ATOM     41  C   UNL A   1      38.088  30.118  32.662  1.00  0.00     0.060 A 
ATOM     42  C   UNL A   1      39.242  30.912  32.719  1.00  0.00     0.016 A 
ATOM     43  C   UNL A   1      38.226  28.722  32.616  1.00  0.00     0.016 A 
ATOM     44  C   UNL A   1      40.504  30.307  32.558  1.00  0.00     0.010 A 
ATOM     45  C   UNL A   1      39.477  28.127  32.410  1.00  0.00     0.010 A 
ATOM     46  C   UNL A   1      40.624  28.916  32.319  1.00  0.00    -0.014 A 
BRANCH  46  47
ATOM     47  C   UNL A   1      41.970  28.290  32.310  1.00  0.00     0.031 A 
ATOM     48  C   UNL A   1      42.353  27.910  33.697  1.00  0.00     0.074 A 
ATOM     49  C   UNL A   1      42.746  27.895  31.266  1.00  0.00     0.049 A 
ATOM     50  N   UNL A   1      43.349  28.344  34.394  1.00  0.00    -0.248 NA
ATOM     51  C   UNL A   1      41.393  27.088  34.457  1.00  0.00     0.031 C 
ATOM     52  C   UNL A   1      42.429  27.935  29.843  1.00  0.00     0.029 A 
ATOM     53  N   UNL A   1      43.997  27.309  31.256  1.00  0.00    -0.354 N 
ATOM     54  C   UNL A   1      43.240  27.706  35.627  1.00  0.00     0.074 A 
ATOM     55  C   UNL A   1      41.933  27.110  35.674  1.00  0.00     0.031 C 
ATOM     56  C   UNL A   1      43.366  27.277  29.124  1.00  0.00     0.029 A 
ATOM     57  C   UNL A   1      44.379  26.765  30.019  1.00  0.00     0.049 A 
ATOM     58  H   UNL A   1      44.573  27.273  32.053  1.00  0.00     0.167 HD
ATOM     59  C   UNL A   1      44.333  27.498  36.407  1.00  0.00     0.037 A 
ATOM     60  C   UNL A   1      45.397  25.892  29.750  1.00  0.00     0.037 A 
ATOM     61  C   UNL A   1      45.396  28.403  36.067  1.00  0.00     0.049 A 
ATOM     62  C   UNL A   1      46.378  26.003  30.858  1.00  0.00     0.074 A 
ATOM     63  C   UNL A   1      45.520  29.779  36.063  1.00  0.00     0.029 A 
ATOM     64  N   UNL A   1      46.424  27.936  35.286  1.00  0.00    -0.354 N 
ATOM     65  N   UNL A   1      47.090  27.077  31.067  1.00  0.00    -0.248 NA
ATOM     66  C   UNL A   1      46.142  25.156  32.018  1.00  0.00     0.031 C 
ATOM     67  C   UNL A   1      46.270  30.076  34.889  1.00  0.00     0.029 A 
ATOM     68  C   UNL A   1      46.640  28.867  34.301  1.00  0.00     0.049 A 
ATOM     69  H   UNL A   1      46.913  27.091  35.409  1.00  0.00     0.167 HD
ATOM     70  C   UNL A   1      46.994  27.285  32.432  1.00  0.00     0.074 A 
ATOM     71  C   UNL A   1      46.405  26.057  32.968  1.00  0.00     0.031 C 
ATOM     72  C   UNL A   1      47.107  28.529  32.979  1.00  0.00     0.037 A 
BRANCH  59  73
ATOM     73  C   UNL A   1      44.550  26.234  37.195  1.00  0.00     0.064 A 
ATOM     74  C   UNL A   1      44.929  26.327  38.547  1.00  0.00     0.173 A 
ATOM     75  C   UNL A   1      44.688  24.954  36.611  1.00  0.00     0.173 A 
ATOM     76  F   UNL A   1      44.870  27.501  39.192  1.00  0.00    -0.203 F 
ATOM     77  C   UNL A   1      45.468  25.238  39.236  1.00  0.00     0.198 A 
ATOM     78  C   UNL A   1      45.172  23.857  37.317  1.00  0.00     0.198 A 
ATOM     79  F   UNL A   1      44.474  24.734  35.308  1.00  0.00    -0.203 F 
ATOM     80  F   UNL A   1      45.933  25.406  40.482  1.00  0.00    -0.200 F 
ATOM     81  C   UNL A   1      45.592  24.006  38.620  1.00  0.00     0.200 A 
ATOM     82  F   UNL A   1      45.306  22.679  36.692  1.00  0.00    -0.200 F 
ATOM     83  F   UNL A   1      46.161  22.978  39.261  1.00  0.00    -0.200 F 
ENDBRANCH  59  73
BRANCH  60  84
ATOM     84  C   UNL A   1      45.377  24.723  28.809  1.00  0.00     0.064 A 
ATOM     85  C   UNL A   1      44.319  23.792  28.774  1.00  0.00     0.173 A 
ATOM     86  C   UNL A   1      46.285  24.641  27.732  1.00  0.00     0.173 A 
ATOM     87  F   UNL A   1      43.368  23.811  29.721  1.00  0.00    -0.203 F 
ATOM     88  C   UNL A   1      44.178  22.859  27.729  1.00  0.00     0.198 A 
ATOM     89  C   UNL A   1      46.149  23.710  26.698  1.00  0.00     0.198 A 
ATOM     90  F   UNL A   1      47.283  25.525  27.602  1.00  0.00    -0.203 F 
ATOM     91  F   UNL A   1      43.128  22.024  27.706  1.00  0.00    -0.200 F 
ATOM     92  C   UNL A   1      45.090  22.827  26.688  1.00  0.00     0.200 A 
ATOM     93  F   UNL A   1      47.024  23.720  25.682  1.00  0.00    -0.200 F 
ATOM     94  F   UNL A   1      44.928  21.981  25.661  1.00  0.00    -0.200 F 
ENDBRANCH  60  84
BRANCH  72  95
ATOM     95  C   UNL A   1      47.524  29.681  32.107  1.00  0.00     0.064 A 
ATOM     96  C   UNL A   1      48.862  30.009  31.821  1.00  0.00     0.173 A 
ATOM     97  C   UNL A   1      46.530  30.328  31.360  1.00  0.00     0.173 A 
ATOM     98  F   UNL A   1      49.875  29.373  32.424  1.00  0.00    -0.203 F 
ATOM     99  C   UNL A   1      49.181  30.952  30.841  1.00  0.00     0.198 A 
ATOM    100  C   UNL A   1      46.852  31.231  30.351  1.00  0.00     0.198 A 
ATOM    101  F   UNL A   1      45.237  30.024  31.559  1.00  0.00    -0.203 F 
ATOM    102  F   UNL A   1      50.465  31.257  30.600  1.00  0.00    -0.200 F 
ATOM    103  C   UNL A   1      48.177  31.547  30.094  1.00  0.00     0.200 A 
ATOM    104  F   UNL A   1      45.878  31.764  29.602  1.00  0.00    -0.200 F 
ATOM    105  F   UNL A   1      48.481  32.409  29.114  1.00  0.00    -0.200 F 
ENDBRANCH  72  95
ENDBRANCH  46  47
ENDBRANCH  39  41
ENDBRANCH  38  39
ENDBRANCH  37  38
ENDBRANCH  36  37
ENDBRANCH  35  36
ENDBRANCH  34  35
ENDBRANCH  33  34
ENDBRANCH  32  33
ENDBRANCH   1  32
TORSDOF 25
ENDMDL
