MODEL 1
REMARK VINA RESULT:      -9.4      0.000      0.000
REMARK SMILES CC(C)C[C@@H](C)NS(=O)(=O)c1ccsc1C(=O)OCCOCCOCCOCCOC(=O)c1ccc(-c2c3nc(c(-c4c(F)c(F)c(F)c(F)c4F)c4ccc([nH]4)c(-c4c(F)c(F)c(F)c(F)c4F)c4nc(c(-c5c(F)c(F)c(F)c(F)c5F)c5ccc2[nH]5)C=C4)C=C3)cc1
REMARK SMILES IDX 22 1 21 2 20 3 19 4 18 5 16 6 17 7 15 8 11 9 12 10 13 11
REMARK SMILES IDX 14 12 8 13 9 14 10 15 7 16 5 18 6 19 4 20 2 21 1 22 3 23
REMARK SMILES IDX 23 24 24 25 25 26 26 27 27 28 28 29 29 30 30 31 31 32 32 33
REMARK SMILES IDX 33 34 34 35 95 36 35 37 94 38 36 39 37 40 38 41 88 42 39 43
REMARK SMILES IDX 93 44 87 45 89 46 40 47 92 48 86 49 85 50 41 52 73 53 53 54
REMARK SMILES IDX 72 55 54 56 57 57 71 58 90 59 55 60 56 61 70 63 91 64 58 65
REMARK SMILES IDX 42 66 43 67 51 68 44 69 45 70 49 71 52 72 46 73 47 74 50 75
REMARK SMILES IDX 48 76 74 77 75 78 83 79 76 80 77 81 81 82 84 83 78 84 79 85
REMARK SMILES IDX 82 86 80 87 59 88 60 89 68 90 61 91 62 92 66 93 69 94 63 95
REMARK SMILES IDX 64 96 67 97 65 98
REMARK H PARENT 7 17 89 51 57 62
REMARK Flexibility Score: inf
ROOT
ATOM      1  C   UNL A   1      33.279  27.998  23.330  1.00  0.00     0.188 C 
ENDROOT
BRANCH   1   2
ATOM      2  O   UNL A   1      32.032  27.477  22.875  1.00  0.00    -0.376 OA
BRANCH   2   3
ATOM      3  C   UNL A   1      32.054  26.093  22.522  1.00  0.00     0.202 C 
BRANCH   3   4
ATOM      4  C   UNL A   1      33.465  25.494  22.398  1.00  0.00     0.261 C 
BRANCH   4   5
ATOM      5  O   UNL A   1      33.865  24.653  23.496  1.00  0.00    -0.459 OA
BRANCH   5   6
ATOM      6  C   UNL A   1      33.791  23.309  23.289  1.00  0.00     0.349 C 
ATOM      7  O   UNL A   1      33.191  22.782  22.361  1.00  0.00    -0.245 OA
BRANCH   6   8
ATOM      8  C   UNL A   1      34.682  22.653  24.214  1.00  0.00     0.132 A 
ATOM      9  C   UNL A   1      34.434  22.073  25.442  1.00  0.00     0.107 A 
ATOM     10  C   UNL A   1      35.634  21.606  26.070  1.00  0.00     0.034 A 
ATOM     11  C   UNL A   1      36.742  21.790  25.275  1.00  0.00     0.067 A 
ATOM     12  S   UNL A   1      36.339  22.513  23.782  1.00  0.00    -0.136 S 
BRANCH   9  13
ATOM     13  S   UNL A   1      32.862  21.791  26.099  1.00  0.00     0.242 S 
ATOM     14  O   UNL A   1      32.011  22.772  25.464  1.00  0.00    -0.207 OA
ATOM     15  O   UNL A   1      33.078  21.803  27.527  1.00  0.00    -0.207 OA
BRANCH  13  16
ATOM     16  N   UNL A   1      32.267  20.277  25.732  1.00  0.00    -0.208 NA
ATOM     17  H   UNL A   1      32.231  19.765  26.613  1.00  0.00     0.141 HD
BRANCH  16  18
ATOM     18  C   UNL A   1      32.932  19.383  24.761  1.00  0.00     0.067 C 
ATOM     19  C   UNL A   1      32.518  19.686  23.327  1.00  0.00     0.025 C 
BRANCH  18  20
ATOM     20  C   UNL A   1      32.528  17.960  25.203  1.00  0.00     0.022 C 
BRANCH  20  21
ATOM     21  C   UNL A   1      33.270  16.761  24.598  1.00  0.00    -0.016 C 
ATOM     22  C   UNL A   1      34.777  16.962  24.492  1.00  0.00     0.007 C 
ATOM     23  C   UNL A   1      32.915  15.497  25.402  1.00  0.00     0.007 C 
ENDBRANCH  20  21
ENDBRANCH  18  20
ENDBRANCH  16  18
ENDBRANCH  13  16
ENDBRANCH   9  13
ENDBRANCH   6   8
ENDBRANCH   5   6
ENDBRANCH   4   5
ENDBRANCH   3   4
ENDBRANCH   2   3
ENDBRANCH   1   2
BRANCH   1  24
ATOM     24  C   UNL A   1      33.133  29.249  24.213  1.00  0.00     0.188 C 
BRANCH  24  25
ATOM     25  O   UNL A   1      31.829  29.453  24.759  1.00  0.00    -0.377 OA
BRANCH  25  26
ATOM     26  C   UNL A   1      31.682  28.906  26.070  1.00  0.00     0.188 C 
BRANCH  26  27
ATOM     27  C   UNL A   1      32.275  29.720  27.228  1.00  0.00     0.188 C 
BRANCH  27  28
ATOM     28  O   UNL A   1      32.697  31.035  26.902  1.00  0.00    -0.376 OA
BRANCH  28  29
ATOM     29  C   UNL A   1      31.643  32.003  26.850  1.00  0.00     0.202 C 
BRANCH  29  30
ATOM     30  C   UNL A   1      32.148  33.455  26.857  1.00  0.00     0.261 C 
BRANCH  30  31
ATOM     31  O   UNL A   1      32.246  33.977  28.203  1.00  0.00    -0.460 OA
BRANCH  31  32
ATOM     32  C   UNL A   1      33.318  34.760  28.487  1.00  0.00     0.338 C 
ATOM     33  O   UNL A   1      33.363  35.977  28.436  1.00  0.00    -0.246 OA
BRANCH  32  34
ATOM     34  C   UNL A   1      34.432  33.935  29.032  1.00  0.00     0.060 A 
ATOM     35  C   UNL A   1      34.102  32.757  29.713  1.00  0.00     0.016 A 
ATOM     36  C   UNL A   1      35.781  34.279  28.870  1.00  0.00     0.016 A 
ATOM     37  C   UNL A   1      35.107  31.933  30.232  1.00  0.00     0.010 A 
ATOM     38  C   UNL A   1      36.791  33.449  29.388  1.00  0.00     0.010 A 
ATOM     39  C   UNL A   1      36.460  32.280  30.095  1.00  0.00    -0.014 A 
BRANCH  39  40
ATOM     40  C   UNL A   1      37.467  31.556  30.921  1.00  0.00     0.031 A 
ATOM     41  C   UNL A   1      38.301  30.512  30.233  1.00  0.00     0.074 A 
ATOM     42  C   UNL A   1      37.716  31.846  32.212  1.00  0.00     0.049 A 
ATOM     43  N   UNL A   1      39.371  29.889  30.655  1.00  0.00    -0.248 NA
ATOM     44  C   UNL A   1      37.866  30.124  28.881  1.00  0.00     0.031 C 
ATOM     45  C   UNL A   1      36.977  32.801  33.024  1.00  0.00     0.029 A 
ATOM     46  N   UNL A   1      38.684  31.367  33.067  1.00  0.00    -0.354 N 
ATOM     47  C   UNL A   1      39.762  29.073  29.604  1.00  0.00     0.074 A 
ATOM     48  C   UNL A   1      38.782  29.228  28.552  1.00  0.00     0.031 C 
ATOM     49  C   UNL A   1      37.532  32.872  34.247  1.00  0.00     0.029 A 
ATOM     50  C   UNL A   1      38.662  31.949  34.314  1.00  0.00     0.049 A 
ATOM     51  H   UNL A   1      39.331  30.671  32.810  1.00  0.00     0.167 HD
ATOM     52  C   UNL A   1      40.853  28.279  29.509  1.00  0.00     0.037 A 
ATOM     53  C   UNL A   1      39.468  31.764  35.380  1.00  0.00     0.037 A 
ATOM     54  C   UNL A   1      41.802  28.066  30.564  1.00  0.00     0.049 A 
ATOM     55  C   UNL A   1      40.632  30.808  35.277  1.00  0.00     0.074 A 
ATOM     56  C   UNL A   1      42.927  27.260  30.564  1.00  0.00     0.029 A 
ATOM     57  N   UNL A   1      41.722  28.644  31.821  1.00  0.00    -0.354 N 
ATOM     58  N   UNL A   1      41.048  30.114  34.247  1.00  0.00    -0.248 NA
ATOM     59  C   UNL A   1      41.446  30.622  36.490  1.00  0.00     0.031 C 
ATOM     60  C   UNL A   1      43.501  27.314  31.838  1.00  0.00     0.029 A 
ATOM     61  C   UNL A   1      42.764  28.193  32.614  1.00  0.00     0.049 A 
ATOM     62  H   UNL A   1      41.028  29.281  32.107  1.00  0.00     0.167 HD
ATOM     63  C   UNL A   1      42.189  29.443  34.672  1.00  0.00     0.074 A 
ATOM     64  C   UNL A   1      42.407  29.821  36.052  1.00  0.00     0.031 C 
ATOM     65  C   UNL A   1      42.986  28.594  33.980  1.00  0.00     0.037 A 
BRANCH  52  66
ATOM     66  C   UNL A   1      41.052  27.572  28.205  1.00  0.00     0.064 A 
ATOM     67  C   UNL A   1      40.529  26.287  27.989  1.00  0.00     0.173 A 
ATOM     68  C   UNL A   1      41.786  28.170  27.173  1.00  0.00     0.173 A 
ATOM     69  F   UNL A   1      39.841  25.666  28.960  1.00  0.00    -0.203 F 
ATOM     70  C   UNL A   1      40.759  25.615  26.793  1.00  0.00     0.198 A 
ATOM     71  C   UNL A   1      41.993  27.504  25.968  1.00  0.00     0.198 A 
ATOM     72  F   UNL A   1      42.312  29.392  27.337  1.00  0.00    -0.203 F 
ATOM     73  F   UNL A   1      40.298  24.368  26.628  1.00  0.00    -0.200 F 
ATOM     74  C   UNL A   1      41.486  26.225  25.783  1.00  0.00     0.200 A 
ATOM     75  F   UNL A   1      42.695  28.094  24.991  1.00  0.00    -0.200 F 
ATOM     76  F   UNL A   1      41.714  25.575  24.633  1.00  0.00    -0.200 F 
ENDBRANCH  52  66
BRANCH  53  77
ATOM     77  C   UNL A   1      39.229  32.505  36.650  1.00  0.00     0.064 A 
ATOM     78  C   UNL A   1      39.999  33.628  36.989  1.00  0.00     0.173 A 
ATOM     79  C   UNL A   1      38.279  32.064  37.581  1.00  0.00     0.173 A 
ATOM     80  F   UNL A   1      40.943  34.073  36.145  1.00  0.00    -0.203 F 
ATOM     81  C   UNL A   1      39.849  34.261  38.222  1.00  0.00     0.198 A 
ATOM     82  C   UNL A   1      38.111  32.713  38.803  1.00  0.00     0.198 A 
ATOM     83  F   UNL A   1      37.520  30.992  37.310  1.00  0.00    -0.203 F 
ATOM     84  F   UNL A   1      40.641  35.293  38.545  1.00  0.00    -0.200 F 
ATOM     85  C   UNL A   1      38.904  33.804  39.127  1.00  0.00     0.200 A 
ATOM     86  F   UNL A   1      37.192  32.272  39.674  1.00  0.00    -0.200 F 
ATOM     87  F   UNL A   1      38.768  34.404  40.318  1.00  0.00    -0.200 F 
ENDBRANCH  53  77
BRANCH  65  88
ATOM     88  C   UNL A   1      44.199  28.050  34.678  1.00  0.00     0.064 A 
ATOM     89  C   UNL A   1      44.177  26.822  35.356  1.00  0.00     0.173 A 
ATOM     90  C   UNL A   1      45.416  28.748  34.624  1.00  0.00     0.173 A 
ATOM     91  F   UNL A   1      43.037  26.122  35.447  1.00  0.00    -0.203 F 
ATOM     92  C   UNL A   1      45.322  26.327  35.977  1.00  0.00     0.198 A 
ATOM     93  C   UNL A   1      46.565  28.235  35.220  1.00  0.00     0.198 A 
ATOM     94  F   UNL A   1      45.495  29.923  33.982  1.00  0.00    -0.203 F 
ATOM     95  F   UNL A   1      45.266  25.174  36.658  1.00  0.00    -0.200 F 
ATOM     96  C   UNL A   1      46.515  27.028  35.902  1.00  0.00     0.200 A 
ATOM     97  F   UNL A   1      47.721  28.908  35.133  1.00  0.00    -0.200 F 
ATOM     98  F   UNL A   1      47.617  26.546  36.492  1.00  0.00    -0.200 F 
ENDBRANCH  65  88
ENDBRANCH  39  40
ENDBRANCH  32  34
ENDBRANCH  31  32
ENDBRANCH  30  31
ENDBRANCH  29  30
ENDBRANCH  28  29
ENDBRANCH  27  28
ENDBRANCH  26  27
ENDBRANCH  25  26
ENDBRANCH  24  25
ENDBRANCH   1  24
TORSDOF 25
ENDMDL
MODEL 2
REMARK VINA RESULT:      -9.4      1.754      2.637
REMARK SMILES CC(C)C[C@@H](C)NS(=O)(=O)c1ccsc1C(=O)OCCOCCOCCOCCOC(=O)c1ccc(-c2c3nc(c(-c4c(F)c(F)c(F)c(F)c4F)c4ccc([nH]4)c(-c4c(F)c(F)c(F)c(F)c4F)c4nc(c(-c5c(F)c(F)c(F)c(F)c5F)c5ccc2[nH]5)C=C4)C=C3)cc1
REMARK SMILES IDX 22 1 21 2 20 3 19 4 18 5 16 6 17 7 15 8 11 9 12 10 13 11
REMARK SMILES IDX 14 12 8 13 9 14 10 15 7 16 5 18 6 19 4 20 2 21 1 22 3 23
REMARK SMILES IDX 23 24 24 25 25 26 26 27 27 28 28 29 29 30 30 31 31 32 32 33
REMARK SMILES IDX 33 34 34 35 95 36 35 37 94 38 36 39 37 40 38 41 88 42 39 43
REMARK SMILES IDX 93 44 87 45 89 46 40 47 92 48 86 49 85 50 41 52 73 53 53 54
REMARK SMILES IDX 72 55 54 56 57 57 71 58 90 59 55 60 56 61 70 63 91 64 58 65
REMARK SMILES IDX 42 66 43 67 51 68 44 69 45 70 49 71 52 72 46 73 47 74 50 75
REMARK SMILES IDX 48 76 74 77 75 78 83 79 76 80 77 81 81 82 84 83 78 84 79 85
REMARK SMILES IDX 82 86 80 87 59 88 60 89 68 90 61 91 62 92 66 93 69 94 63 95
REMARK SMILES IDX 64 96 67 97 65 98
REMARK H PARENT 7 17 89 51 57 62
REMARK Flexibility Score: inf
ROOT
ATOM      1  C   UNL A   1      33.213  28.544  22.710  1.00  0.00     0.188 C 
ENDROOT
BRANCH   1   2
ATOM      2  O   UNL A   1      31.825  28.769  22.477  1.00  0.00    -0.376 OA
BRANCH   2   3
ATOM      3  C   UNL A   1      31.009  27.598  22.541  1.00  0.00     0.202 C 
BRANCH   3   4
ATOM      4  C   UNL A   1      31.623  26.363  21.861  1.00  0.00     0.261 C 
BRANCH   4   5
ATOM      5  O   UNL A   1      31.364  25.113  22.527  1.00  0.00    -0.459 OA
BRANCH   5   6
ATOM      6  C   UNL A   1      32.317  24.681  23.398  1.00  0.00     0.349 C 
ATOM      7  O   UNL A   1      33.511  24.934  23.301  1.00  0.00    -0.245 OA
BRANCH   6   8
ATOM      8  C   UNL A   1      31.662  24.059  24.523  1.00  0.00     0.132 A 
ATOM      9  C   UNL A   1      31.679  22.750  24.960  1.00  0.00     0.107 A 
ATOM     10  C   UNL A   1      30.811  22.546  26.082  1.00  0.00     0.034 A 
ATOM     11  C   UNL A   1      30.214  23.715  26.497  1.00  0.00     0.067 A 
ATOM     12  S   UNL A   1      30.700  25.047  25.547  1.00  0.00    -0.136 S 
BRANCH   9  13
ATOM     13  S   UNL A   1      32.724  21.519  24.349  1.00  0.00     0.242 S 
ATOM     14  O   UNL A   1      32.331  21.347  22.969  1.00  0.00    -0.207 OA
ATOM     15  O   UNL A   1      32.587  20.445  25.304  1.00  0.00    -0.207 OA
BRANCH  13  16
ATOM     16  N   UNL A   1      34.332  21.961  24.375  1.00  0.00    -0.208 NA
ATOM     17  H   UNL A   1      34.770  21.488  23.584  1.00  0.00     0.141 HD
BRANCH  16  18
ATOM     18  C   UNL A   1      35.201  21.703  25.542  1.00  0.00     0.067 C 
ATOM     19  C   UNL A   1      34.592  22.225  26.837  1.00  0.00     0.025 C 
BRANCH  18  20
ATOM     20  C   UNL A   1      36.535  22.398  25.196  1.00  0.00     0.022 C 
BRANCH  20  21
ATOM     21  C   UNL A   1      37.779  21.533  24.959  1.00  0.00    -0.016 C 
ATOM     22  C   UNL A   1      38.910  21.803  25.944  1.00  0.00     0.007 C 
ATOM     23  C   UNL A   1      37.363  20.051  24.956  1.00  0.00     0.007 C 
ENDBRANCH  20  21
ENDBRANCH  18  20
ENDBRANCH  16  18
ENDBRANCH  13  16
ENDBRANCH   9  13
ENDBRANCH   6   8
ENDBRANCH   5   6
ENDBRANCH   4   5
ENDBRANCH   3   4
ENDBRANCH   2   3
ENDBRANCH   1   2
BRANCH   1  24
ATOM     24  C   UNL A   1      33.655  28.880  24.145  1.00  0.00     0.188 C 
BRANCH  24  25
ATOM     25  O   UNL A   1      32.994  28.136  25.169  1.00  0.00    -0.377 OA
BRANCH  25  26
ATOM     26  C   UNL A   1      33.813  27.923  26.320  1.00  0.00     0.188 C 
BRANCH  26  27
ATOM     27  C   UNL A   1      34.287  29.174  27.072  1.00  0.00     0.188 C 
BRANCH  27  28
ATOM     28  O   UNL A   1      33.579  30.370  26.780  1.00  0.00    -0.376 OA
BRANCH  28  29
ATOM     29  C   UNL A   1      33.867  31.461  27.663  1.00  0.00     0.202 C 
BRANCH  29  30
ATOM     30  C   UNL A   1      32.772  32.541  27.674  1.00  0.00     0.261 C 
BRANCH  30  31
ATOM     31  O   UNL A   1      33.330  33.864  27.494  1.00  0.00    -0.460 OA
BRANCH  31  32
ATOM     32  C   UNL A   1      33.395  34.662  28.590  1.00  0.00     0.338 C 
ATOM     33  O   UNL A   1      32.659  35.598  28.852  1.00  0.00    -0.246 OA
BRANCH  32  34
ATOM     34  C   UNL A   1      34.419  34.151  29.543  1.00  0.00     0.060 A 
ATOM     35  C   UNL A   1      35.763  34.208  29.153  1.00  0.00     0.016 A 
ATOM     36  C   UNL A   1      34.093  33.643  30.808  1.00  0.00     0.016 A 
ATOM     37  C   UNL A   1      36.771  33.759  30.014  1.00  0.00     0.010 A 
ATOM     38  C   UNL A   1      35.106  33.195  31.674  1.00  0.00     0.010 A 
ATOM     39  C   UNL A   1      36.452  33.227  31.273  1.00  0.00    -0.014 A 
BRANCH  39  40
ATOM     40  C   UNL A   1      37.506  32.480  32.016  1.00  0.00     0.031 A 
ATOM     41  C   UNL A   1      38.145  31.312  31.318  1.00  0.00     0.074 A 
ATOM     42  C   UNL A   1      37.963  32.847  33.229  1.00  0.00     0.049 A 
ATOM     43  N   UNL A   1      39.210  30.628  31.644  1.00  0.00    -0.248 NA
ATOM     44  C   UNL A   1      37.488  30.860  30.081  1.00  0.00     0.031 C 
ATOM     45  C   UNL A   1      37.429  33.928  34.044  1.00  0.00     0.029 A 
ATOM     46  N   UNL A   1      39.003  32.350  33.982  1.00  0.00    -0.354 N 
ATOM     47  C   UNL A   1      39.378  29.697  30.630  1.00  0.00     0.074 A 
ATOM     48  C   UNL A   1      38.271  29.859  29.713  1.00  0.00     0.031 C 
ATOM     49  C   UNL A   1      38.160  34.044  35.167  1.00  0.00     0.029 A 
ATOM     50  C   UNL A   1      39.210  33.028  35.161  1.00  0.00     0.049 A 
ATOM     51  H   UNL A   1      39.547  31.579  33.703  1.00  0.00     0.167 HD
ATOM     52  C   UNL A   1      40.375  28.800  30.458  1.00  0.00     0.037 A 
ATOM     53  C   UNL A   1      40.144  32.854  36.119  1.00  0.00     0.037 A 
ATOM     54  C   UNL A   1      41.447  28.585  31.388  1.00  0.00     0.049 A 
ATOM     55  C   UNL A   1      41.199  31.790  35.945  1.00  0.00     0.074 A 
ATOM     56  C   UNL A   1      42.491  27.680  31.307  1.00  0.00     0.029 A 
ATOM     57  N   UNL A   1      41.598  29.265  32.585  1.00  0.00    -0.354 N 
ATOM     58  N   UNL A   1      41.404  30.980  34.936  1.00  0.00    -0.248 NA
ATOM     59  C   UNL A   1      42.163  31.625  37.046  1.00  0.00     0.031 C 
ATOM     60  C   UNL A   1      43.247  27.781  32.479  1.00  0.00     0.029 A 
ATOM     61  C   UNL A   1      42.703  28.784  33.265  1.00  0.00     0.049 A 
ATOM     62  H   UNL A   1      41.007  29.985  32.905  1.00  0.00     0.167 HD
ATOM     63  C   UNL A   1      42.537  30.242  35.259  1.00  0.00     0.074 A 
ATOM     64  C   UNL A   1      42.983  30.707  36.556  1.00  0.00     0.031 C 
ATOM     65  C   UNL A   1      43.153  29.269  34.545  1.00  0.00     0.037 A 
BRANCH  52  66
ATOM     66  C   UNL A   1      40.325  27.976  29.209  1.00  0.00     0.064 A 
ATOM     67  C   UNL A   1      39.579  26.789  29.153  1.00  0.00     0.173 A 
ATOM     68  C   UNL A   1      41.042  28.362  28.070  1.00  0.00     0.173 A 
ATOM     69  F   UNL A   1      38.898  26.368  30.231  1.00  0.00    -0.203 F 
ATOM     70  C   UNL A   1      39.575  26.002  28.006  1.00  0.00     0.198 A 
ATOM     71  C   UNL A   1      41.015  27.585  26.915  1.00  0.00     0.198 A 
ATOM     72  F   UNL A   1      41.776  29.485  28.080  1.00  0.00    -0.203 F 
ATOM     73  F   UNL A   1      38.901  24.844  27.992  1.00  0.00    -0.200 F 
ATOM     74  C   UNL A   1      40.290  26.403  26.888  1.00  0.00     0.200 A 
ATOM     75  F   UNL A   1      41.705  27.972  25.834  1.00  0.00    -0.200 F 
ATOM     76  F   UNL A   1      40.292  25.640  25.785  1.00  0.00    -0.200 F 
ENDBRANCH  52  66
BRANCH  53  77
ATOM     77  C   UNL A   1      40.153  33.713  37.336  1.00  0.00     0.064 A 
ATOM     78  C   UNL A   1      39.337  33.416  38.439  1.00  0.00     0.173 A 
ATOM     79  C   UNL A   1      40.920  34.885  37.393  1.00  0.00     0.173 A 
ATOM     80  F   UNL A   1      38.560  32.322  38.421  1.00  0.00    -0.203 F 
ATOM     81  C   UNL A   1      39.264  34.273  39.535  1.00  0.00     0.198 A 
ATOM     82  C   UNL A   1      40.867  35.727  38.502  1.00  0.00     0.198 A 
ATOM     83  F   UNL A   1      41.714  35.219  36.365  1.00  0.00    -0.203 F 
ATOM     84  F   UNL A   1      38.429  33.996  40.546  1.00  0.00    -0.200 F 
ATOM     85  C   UNL A   1      40.031  35.427  39.567  1.00  0.00     0.200 A 
ATOM     86  F   UNL A   1      41.615  36.840  38.532  1.00  0.00    -0.200 F 
ATOM     87  F   UNL A   1      39.953  36.258  40.616  1.00  0.00    -0.200 F 
ENDBRANCH  53  77
BRANCH  65  88
ATOM     88  C   UNL A   1      44.407  28.672  35.116  1.00  0.00     0.064 A 
ATOM     89  C   UNL A   1      44.380  27.539  35.942  1.00  0.00     0.173 A 
ATOM     90  C   UNL A   1      45.660  29.216  34.790  1.00  0.00     0.173 A 
ATOM     91  F   UNL A   1      43.208  26.988  36.293  1.00  0.00    -0.203 F 
ATOM     92  C   UNL A   1      45.558  26.989  36.442  1.00  0.00     0.198 A 
ATOM     93  C   UNL A   1      46.837  28.646  35.267  1.00  0.00     0.198 A 
ATOM     94  F   UNL A   1      45.743  30.295  33.997  1.00  0.00    -0.203 F 
ATOM     95  F   UNL A   1      45.505  25.933  37.266  1.00  0.00    -0.200 F 
ATOM     96  C   UNL A   1      46.785  27.536  36.098  1.00  0.00     0.200 A 
ATOM     97  F   UNL A   1      48.022  29.168  34.921  1.00  0.00    -0.200 F 
ATOM     98  F   UNL A   1      47.917  27.001  36.573  1.00  0.00    -0.200 F 
ENDBRANCH  65  88
ENDBRANCH  39  40
ENDBRANCH  32  34
ENDBRANCH  31  32
ENDBRANCH  30  31
ENDBRANCH  29  30
ENDBRANCH  28  29
ENDBRANCH  27  28
ENDBRANCH  26  27
ENDBRANCH  25  26
ENDBRANCH  24  25
ENDBRANCH   1  24
TORSDOF 25
ENDMDL
MODEL 3
REMARK VINA RESULT:      -8.6      5.621     10.935
REMARK SMILES CC(C)C[C@@H](C)NS(=O)(=O)c1ccsc1C(=O)OCCOCCOCCOCCOC(=O)c1ccc(-c2c3nc(c(-c4c(F)c(F)c(F)c(F)c4F)c4ccc([nH]4)c(-c4c(F)c(F)c(F)c(F)c4F)c4nc(c(-c5c(F)c(F)c(F)c(F)c5F)c5ccc2[nH]5)C=C4)C=C3)cc1
REMARK SMILES IDX 22 1 21 2 20 3 19 4 18 5 16 6 17 7 15 8 11 9 12 10 13 11
REMARK SMILES IDX 14 12 8 13 9 14 10 15 7 16 5 18 6 19 4 20 2 21 1 22 3 23
REMARK SMILES IDX 23 24 24 25 25 26 26 27 27 28 28 29 29 30 30 31 31 32 32 33
REMARK SMILES IDX 33 34 34 35 95 36 35 37 94 38 36 39 37 40 38 41 88 42 39 43
REMARK SMILES IDX 93 44 87 45 89 46 40 47 92 48 86 49 85 50 41 52 73 53 53 54
REMARK SMILES IDX 72 55 54 56 57 57 71 58 90 59 55 60 56 61 70 63 91 64 58 65
REMARK SMILES IDX 42 66 43 67 51 68 44 69 45 70 49 71 52 72 46 73 47 74 50 75
REMARK SMILES IDX 48 76 74 77 75 78 83 79 76 80 77 81 81 82 84 83 78 84 79 85
REMARK SMILES IDX 82 86 80 87 59 88 60 89 68 90 61 91 62 92 66 93 69 94 63 95
REMARK SMILES IDX 64 96 67 97 65 98
REMARK H PARENT 7 17 89 51 57 62
REMARK Flexibility Score: inf
ROOT
ATOM      1  C   UNL A   1      41.714  25.535  27.161  1.00  0.00     0.188 C 
ENDROOT
BRANCH   1   2
ATOM      2  O   UNL A   1      40.413  26.107  27.056  1.00  0.00    -0.376 OA
BRANCH   2   3
ATOM      3  C   UNL A   1      40.371  27.530  27.190  1.00  0.00     0.202 C 
BRANCH   3   4
ATOM      4  C   UNL A   1      41.045  28.064  28.465  1.00  0.00     0.261 C 
BRANCH   4   5
ATOM      5  O   UNL A   1      40.162  28.731  29.384  1.00  0.00    -0.459 OA
BRANCH   5   6
ATOM      6  C   UNL A   1      39.020  28.071  29.717  1.00  0.00     0.349 C 
ATOM      7  O   UNL A   1      38.960  26.874  29.974  1.00  0.00    -0.245 OA
BRANCH   6   8
ATOM      8  C   UNL A   1      37.966  29.039  29.900  1.00  0.00     0.132 A 
ATOM      9  C   UNL A   1      37.430  29.576  31.053  1.00  0.00     0.107 A 
ATOM     10  C   UNL A   1      36.329  30.451  30.778  1.00  0.00     0.034 A 
ATOM     11  C   UNL A   1      36.105  30.597  29.429  1.00  0.00     0.067 A 
ATOM     12  S   UNL A   1      37.216  29.694  28.500  1.00  0.00    -0.136 S 
BRANCH   9  13
ATOM     13  S   UNL A   1      38.084  29.360  32.637  1.00  0.00     0.242 S 
ATOM     14  O   UNL A   1      39.473  29.741  32.522  1.00  0.00    -0.207 OA
ATOM     15  O   UNL A   1      37.705  28.011  32.985  1.00  0.00    -0.207 OA
BRANCH  13  16
ATOM     16  N   UNL A   1      37.370  30.350  33.774  1.00  0.00    -0.208 NA
ATOM     17  H   UNL A   1      36.572  30.784  33.312  1.00  0.00     0.141 HD
BRANCH  16  18
ATOM     18  C   UNL A   1      38.107  31.444  34.439  1.00  0.00     0.067 C 
ATOM     19  C   UNL A   1      38.612  31.040  35.819  1.00  0.00     0.025 C 
BRANCH  18  20
ATOM     20  C   UNL A   1      37.099  32.612  34.500  1.00  0.00     0.022 C 
BRANCH  20  21
ATOM     21  C   UNL A   1      36.490  33.130  33.190  1.00  0.00    -0.016 C 
ATOM     22  C   UNL A   1      34.987  32.909  33.084  1.00  0.00     0.007 C 
ATOM     23  C   UNL A   1      36.865  34.613  33.018  1.00  0.00     0.007 C 
ENDBRANCH  20  21
ENDBRANCH  18  20
ENDBRANCH  16  18
ENDBRANCH  13  16
ENDBRANCH   9  13
ENDBRANCH   6   8
ENDBRANCH   5   6
ENDBRANCH   4   5
ENDBRANCH   3   4
ENDBRANCH   2   3
ENDBRANCH   1   2
BRANCH   1  24
ATOM     24  C   UNL A   1      42.024  24.514  26.052  1.00  0.00     0.188 C 
BRANCH  24  25
ATOM     25  O   UNL A   1      42.068  23.153  26.481  1.00  0.00    -0.377 OA
BRANCH  25  26
ATOM     26  C   UNL A   1      42.526  22.263  25.462  1.00  0.00     0.188 C 
BRANCH  26  27
ATOM     27  C   UNL A   1      43.708  21.352  25.821  1.00  0.00     0.188 C 
BRANCH  27  28
ATOM     28  O   UNL A   1      44.863  22.011  26.318  1.00  0.00    -0.376 OA
BRANCH  28  29
ATOM     29  C   UNL A   1      45.777  22.452  25.308  1.00  0.00     0.202 C 
BRANCH  29  30
ATOM     30  C   UNL A   1      45.636  23.946  24.969  1.00  0.00     0.261 C 
BRANCH  30  31
ATOM     31  O   UNL A   1      46.717  24.723  25.536  1.00  0.00    -0.460 OA
BRANCH  31  32
ATOM     32  C   UNL A   1      46.945  25.949  24.999  1.00  0.00     0.338 C 
ATOM     33  O   UNL A   1      47.496  26.187  23.938  1.00  0.00    -0.246 OA
BRANCH  32  34
ATOM     34  C   UNL A   1      46.287  27.004  25.820  1.00  0.00     0.060 A 
ATOM     35  C   UNL A   1      47.091  27.754  26.688  1.00  0.00     0.016 A 
ATOM     36  C   UNL A   1      44.917  27.286  25.739  1.00  0.00     0.016 A 
ATOM     37  C   UNL A   1      46.532  28.770  27.472  1.00  0.00     0.010 A 
ATOM     38  C   UNL A   1      44.356  28.310  26.523  1.00  0.00     0.010 A 
ATOM     39  C   UNL A   1      45.157  29.044  27.414  1.00  0.00    -0.014 A 
BRANCH  39  40
ATOM     40  C   UNL A   1      44.559  29.902  28.476  1.00  0.00     0.031 A 
ATOM     41  C   UNL A   1      44.228  29.246  29.787  1.00  0.00     0.074 A 
ATOM     42  C   UNL A   1      44.381  31.230  28.346  1.00  0.00     0.049 A 
ATOM     43  N   UNL A   1      43.898  29.788  30.930  1.00  0.00    -0.248 NA
ATOM     44  C   UNL A   1      44.282  27.775  29.807  1.00  0.00     0.031 C 
ATOM     45  C   UNL A   1      44.619  32.003  27.136  1.00  0.00     0.029 A 
ATOM     46  N   UNL A   1      43.967  32.172  29.262  1.00  0.00    -0.354 N 
ATOM     47  C   UNL A   1      43.751  28.729  31.814  1.00  0.00     0.074 A 
ATOM     48  C   UNL A   1      43.963  27.511  31.063  1.00  0.00     0.031 C 
ATOM     49  C   UNL A   1      44.386  33.304  27.384  1.00  0.00     0.029 A 
ATOM     50  C   UNL A   1      43.962  33.458  28.773  1.00  0.00     0.049 A 
ATOM     51  H   UNL A   1      43.698  31.946  30.181  1.00  0.00     0.167 HD
ATOM     52  C   UNL A   1      43.487  28.762  33.140  1.00  0.00     0.037 A 
ATOM     53  C   UNL A   1      43.660  34.625  29.380  1.00  0.00     0.037 A 
ATOM     54  C   UNL A   1      43.215  29.956  33.888  1.00  0.00     0.049 A 
ATOM     55  C   UNL A   1      43.286  34.628  30.843  1.00  0.00     0.074 A 
ATOM     56  C   UNL A   1      42.915  30.082  35.233  1.00  0.00     0.029 A 
ATOM     57  N   UNL A   1      43.183  31.232  33.348  1.00  0.00    -0.354 N 
ATOM     58  N   UNL A   1      43.245  33.631  31.691  1.00  0.00    -0.248 NA
ATOM     59  C   UNL A   1      42.927  35.928  31.433  1.00  0.00     0.031 C 
ATOM     60  C   UNL A   1      42.653  31.431  35.496  1.00  0.00     0.029 A 
ATOM     61  C   UNL A   1      42.843  32.150  34.327  1.00  0.00     0.049 A 
ATOM     62  H   UNL A   1      43.374  31.452  32.408  1.00  0.00     0.167 HD
ATOM     63  C   UNL A   1      42.897  34.185  32.918  1.00  0.00     0.074 A 
ATOM     64  C   UNL A   1      42.748  35.609  32.706  1.00  0.00     0.031 C 
ATOM     65  C   UNL A   1      42.720  33.569  34.112  1.00  0.00     0.037 A 
BRANCH  52  66
ATOM     66  C   UNL A   1      43.469  27.444  33.850  1.00  0.00     0.064 A 
ATOM     67  C   UNL A   1      42.260  26.853  34.251  1.00  0.00     0.173 A 
ATOM     68  C   UNL A   1      44.664  26.778  34.151  1.00  0.00     0.173 A 
ATOM     69  F   UNL A   1      41.094  27.470  34.007  1.00  0.00    -0.203 F 
ATOM     70  C   UNL A   1      42.252  25.653  34.954  1.00  0.00     0.198 A 
ATOM     71  C   UNL A   1      44.650  25.564  34.832  1.00  0.00     0.198 A 
ATOM     72  F   UNL A   1      45.843  27.309  33.794  1.00  0.00    -0.203 F 
ATOM     73  F   UNL A   1      41.091  25.134  35.376  1.00  0.00    -0.200 F 
ATOM     74  C   UNL A   1      43.446  25.008  35.240  1.00  0.00     0.200 A 
ATOM     75  F   UNL A   1      45.803  24.940  35.108  1.00  0.00    -0.200 F 
ATOM     76  F   UNL A   1      43.438  23.855  35.923  1.00  0.00    -0.200 F 
ENDBRANCH  52  66
BRANCH  53  77
ATOM     77  C   UNL A   1      43.707  35.908  28.627  1.00  0.00     0.064 A 
ATOM     78  C   UNL A   1      42.567  36.412  27.981  1.00  0.00     0.173 A 
ATOM     79  C   UNL A   1      44.906  36.618  28.475  1.00  0.00     0.173 A 
ATOM     80  F   UNL A   1      41.402  35.754  28.070  1.00  0.00    -0.203 F 
ATOM     81  C   UNL A   1      42.633  37.557  27.189  1.00  0.00     0.198 A 
ATOM     82  C   UNL A   1      44.965  37.778  27.704  1.00  0.00     0.198 A 
ATOM     83  F   UNL A   1      46.027  36.178  29.066  1.00  0.00    -0.203 F 
ATOM     84  F   UNL A   1      41.543  37.980  26.534  1.00  0.00    -0.200 F 
ATOM     85  C   UNL A   1      43.831  38.240  27.053  1.00  0.00     0.200 A 
ATOM     86  F   UNL A   1      46.124  38.439  27.579  1.00  0.00    -0.200 F 
ATOM     87  F   UNL A   1      43.898  39.334  26.281  1.00  0.00    -0.200 F 
ENDBRANCH  53  77
BRANCH  65  88
ATOM     88  C   UNL A   1      42.398  34.429  35.300  1.00  0.00     0.064 A 
ATOM     89  C   UNL A   1      41.077  34.665  35.708  1.00  0.00     0.173 A 
ATOM     90  C   UNL A   1      43.432  34.986  36.070  1.00  0.00     0.173 A 
ATOM     91  F   UNL A   1      40.052  34.166  35.000  1.00  0.00    -0.203 F 
ATOM     92  C   UNL A   1      40.802  35.448  36.827  1.00  0.00     0.198 A 
ATOM     93  C   UNL A   1      43.154  35.743  37.205  1.00  0.00     0.198 A 
ATOM     94  F   UNL A   1      44.713  34.784  35.728  1.00  0.00    -0.203 F 
ATOM     95  F   UNL A   1      39.531  35.698  37.172  1.00  0.00    -0.200 F 
ATOM     96  C   UNL A   1      41.840  35.979  37.579  1.00  0.00     0.200 A 
ATOM     97  F   UNL A   1      44.159  36.242  37.938  1.00  0.00    -0.200 F 
ATOM     98  F   UNL A   1      41.574  36.725  38.659  1.00  0.00    -0.200 F 
ENDBRANCH  65  88
ENDBRANCH  39  40
ENDBRANCH  32  34
ENDBRANCH  31  32
ENDBRANCH  30  31
ENDBRANCH  29  30
ENDBRANCH  28  29
ENDBRANCH  27  28
ENDBRANCH  26  27
ENDBRANCH  25  26
ENDBRANCH  24  25
ENDBRANCH   1  24
TORSDOF 25
ENDMDL
