MODEL 1
REMARK VINA RESULT:      -7.7      0.000      0.000
REMARK SMILES N#Cc1ccccc1S(=O)(=O)N1CCC(C(=O)OCCOCCOCCOCCOC(=O)c2ccc(-c3c4nc(c(-c5c(F)c(F)c(F)c(F)c5F)c5ccc([nH]5)c(-c5c(F)c(F)c(F)c(F)c5F)c5nc(c(-c6c(F)c(F)c(F)c(F)c6F)c6ccc3[nH]6)C=C5)C=C4)cc2)CC1
REMARK SMILES IDX 23 1 22 2 21 3 20 4 19 5 18 6 16 7 17 8 15 9 12 10 13 11
REMARK SMILES IDX 97 12 14 13 96 14 9 15 10 16 11 17 8 18 3 19 4 20 5 21 7 22
REMARK SMILES IDX 6 23 2 24 1 25 24 26 25 27 26 28 27 29 28 30 29 31 30 32
REMARK SMILES IDX 31 33 32 34 33 35 34 36 95 37 35 38 94 39 36 40 37 41 38 42
REMARK SMILES IDX 88 43 39 44 93 45 87 46 89 47 40 48 92 49 86 50 85 51 41 53
REMARK SMILES IDX 73 54 53 55 72 56 54 57 57 58 71 59 90 60 55 61 56 62 70 64
REMARK SMILES IDX 91 65 58 66 42 67 43 68 51 69 44 70 45 71 49 72 52 73 46 74
REMARK SMILES IDX 47 75 50 76 48 77 74 78 75 79 83 80 76 81 77 82 81 83 84 84
REMARK SMILES IDX 78 85 79 86 82 87 80 88 59 89 60 90 68 91 61 92 62 93 66 94
REMARK SMILES IDX 69 95 63 96 64 97 67 98 65 99
REMARK H PARENT 89 52 57 63
REMARK Flexibility Score: inf
ROOT
ATOM      1  C   UNL A   1      34.416  34.228  30.465  1.00  0.00     0.188 C 
ENDROOT
BRANCH   1   2
ATOM      2  C   UNL A   1      34.750  32.737  30.562  1.00  0.00     0.188 C 
BRANCH   2   3
ATOM      3  O   UNL A   1      35.146  32.175  31.797  1.00  0.00    -0.376 OA
BRANCH   3   4
ATOM      4  C   UNL A   1      36.329  31.409  31.953  1.00  0.00     0.202 C 
BRANCH   4   5
ATOM      5  C   UNL A   1      36.749  30.194  31.109  1.00  0.00     0.261 C 
BRANCH   5   6
ATOM      6  O   UNL A   1      37.225  30.441  29.784  1.00  0.00    -0.463 OA
BRANCH   6   7
ATOM      7  C   UNL A   1      38.566  30.394  29.648  1.00  0.00     0.309 C 
ATOM      8  O   UNL A   1      39.334  31.254  30.075  1.00  0.00    -0.252 OA
BRANCH   7   9
ATOM      9  C   UNL A   1      39.087  29.173  28.925  1.00  0.00     0.102 C 
ATOM     10  N   UNL A   1      40.661  26.962  27.980  1.00  0.00    -0.198 NA
ATOM     11  C   UNL A   1      40.236  27.977  27.001  1.00  0.00     0.103 C 
ATOM     12  C   UNL A   1      40.265  27.032  29.397  1.00  0.00     0.103 C 
ATOM     13  C   UNL A   1      39.824  29.315  27.599  1.00  0.00     0.032 C 
ATOM     14  C   UNL A   1      40.022  28.445  29.877  1.00  0.00     0.032 C 
BRANCH  10  15
ATOM     15  S   UNL A   1      41.173  25.475  27.375  1.00  0.00     0.244 S 
ATOM     16  O   UNL A   1      41.671  25.733  26.038  1.00  0.00    -0.207 OA
ATOM     17  O   UNL A   1      40.118  24.510  27.601  1.00  0.00    -0.207 OA
BRANCH  15  18
ATOM     18  C   UNL A   1      42.582  24.858  28.280  1.00  0.00     0.100 A 
ATOM     19  C   UNL A   1      43.815  25.477  28.494  1.00  0.00     0.072 A 
ATOM     20  C   UNL A   1      44.831  24.766  29.170  1.00  0.00     0.021 A 
ATOM     21  C   UNL A   1      44.613  23.487  29.674  1.00  0.00     0.001 A 
ATOM     22  C   UNL A   1      42.370  23.567  28.813  1.00  0.00     0.023 A 
ATOM     23  C   UNL A   1      43.371  22.895  29.512  1.00  0.00     0.001 A 
BRANCH  19  24
ATOM     24  C   UNL A   1      44.170  26.814  28.159  1.00  0.00     0.101 C 
ATOM     25  N   UNL A   1      44.324  27.932  27.871  1.00  0.00    -0.192 NA
ENDBRANCH  19  24
ENDBRANCH  15  18
ENDBRANCH  10  15
ENDBRANCH   7   9
ENDBRANCH   6   7
ENDBRANCH   5   6
ENDBRANCH   4   5
ENDBRANCH   3   4
ENDBRANCH   2   3
ENDBRANCH   1   2
BRANCH   1  26
ATOM     26  O   UNL A   1      33.488  34.721  31.409  1.00  0.00    -0.377 OA
BRANCH  26  27
ATOM     27  C   UNL A   1      33.931  35.605  32.432  1.00  0.00     0.188 C 
BRANCH  27  28
ATOM     28  C   UNL A   1      34.774  35.089  33.620  1.00  0.00     0.188 C 
BRANCH  28  29
ATOM     29  O   UNL A   1      36.166  35.301  33.516  1.00  0.00    -0.376 OA
BRANCH  29  30
ATOM     30  C   UNL A   1      37.076  34.398  34.120  1.00  0.00     0.202 C 
BRANCH  30  31
ATOM     31  C   UNL A   1      36.612  33.434  35.227  1.00  0.00     0.261 C 
BRANCH  31  32
ATOM     32  O   UNL A   1      37.512  33.201  36.322  1.00  0.00    -0.460 OA
BRANCH  32  33
ATOM     33  C   UNL A   1      37.925  31.936  36.540  1.00  0.00     0.338 C 
ATOM     34  O   UNL A   1      37.381  31.094  37.230  1.00  0.00    -0.246 OA
BRANCH  33  35
ATOM     35  C   UNL A   1      39.064  31.669  35.632  1.00  0.00     0.060 A 
ATOM     36  C   UNL A   1      38.877  30.812  34.540  1.00  0.00     0.016 A 
ATOM     37  C   UNL A   1      40.312  32.253  35.862  1.00  0.00     0.016 A 
ATOM     38  C   UNL A   1      39.945  30.501  33.698  1.00  0.00     0.010 A 
ATOM     39  C   UNL A   1      41.390  31.918  35.035  1.00  0.00     0.010 A 
ATOM     40  C   UNL A   1      41.219  31.009  33.974  1.00  0.00    -0.014 A 
BRANCH  40  41
ATOM     41  C   UNL A   1      42.399  30.435  33.285  1.00  0.00     0.031 A 
ATOM     42  C   UNL A   1      42.979  31.184  32.115  1.00  0.00     0.074 A 
ATOM     43  C   UNL A   1      42.971  29.292  33.703  1.00  0.00     0.049 A 
ATOM     44  N   UNL A   1      43.963  30.856  31.317  1.00  0.00    -0.248 NA
ATOM     45  C   UNL A   1      42.357  32.481  31.802  1.00  0.00     0.031 C 
ATOM     46  C   UNL A   1      42.540  28.506  34.857  1.00  0.00     0.029 A 
ATOM     47  N   UNL A   1      44.037  28.591  33.193  1.00  0.00    -0.354 N 
ATOM     48  C   UNL A   1      44.067  31.895  30.402  1.00  0.00     0.074 A 
ATOM     49  C   UNL A   1      43.027  32.848  30.721  1.00  0.00     0.031 C 
ATOM     50  C   UNL A   1      43.325  27.419  34.958  1.00  0.00     0.029 A 
ATOM     51  C   UNL A   1      44.284  27.413  33.853  1.00  0.00     0.049 A 
ATOM     52  H   UNL A   1      44.571  28.903  32.428  1.00  0.00     0.167 HD
ATOM     53  C   UNL A   1      44.956  32.045  29.392  1.00  0.00     0.037 A 
ATOM     54  C   UNL A   1      45.163  26.430  33.576  1.00  0.00     0.037 A 
ATOM     55  C   UNL A   1      45.987  31.091  29.078  1.00  0.00     0.049 A 
ATOM     56  C   UNL A   1      46.082  26.576  32.387  1.00  0.00     0.074 A 
ATOM     57  C   UNL A   1      46.948  31.155  28.085  1.00  0.00     0.029 A 
ATOM     58  N   UNL A   1      46.181  29.889  29.744  1.00  0.00    -0.354 N 
ATOM     59  N   UNL A   1      46.193  27.569  31.539  1.00  0.00    -0.248 NA
ATOM     60  C   UNL A   1      47.001  25.460  32.119  1.00  0.00     0.031 C 
ATOM     61  C   UNL A   1      47.672  29.960  28.100  1.00  0.00     0.029 A 
ATOM     62  C   UNL A   1      47.222  29.186  29.157  1.00  0.00     0.049 A 
ATOM     63  H   UNL A   1      45.657  29.580  30.518  1.00  0.00     0.167 HD
ATOM     64  C   UNL A   1      47.214  27.217  30.664  1.00  0.00     0.074 A 
ATOM     65  C   UNL A   1      47.701  25.923  31.094  1.00  0.00     0.031 C 
ATOM     66  C   UNL A   1      47.705  27.902  29.600  1.00  0.00     0.037 A 
BRANCH  53  67
ATOM     67  C   UNL A   1      44.828  33.266  28.526  1.00  0.00     0.064 A 
ATOM     68  C   UNL A   1      44.194  33.229  27.274  1.00  0.00     0.173 A 
ATOM     69  C   UNL A   1      45.323  34.502  28.970  1.00  0.00     0.173 A 
ATOM     70  F   UNL A   1      43.714  32.071  26.794  1.00  0.00    -0.203 F 
ATOM     71  C   UNL A   1      44.091  34.374  26.487  1.00  0.00     0.198 A 
ATOM     72  C   UNL A   1      45.182  35.653  28.198  1.00  0.00     0.198 A 
ATOM     73  F   UNL A   1      45.935  34.599  30.160  1.00  0.00    -0.203 F 
ATOM     74  F   UNL A   1      43.533  34.300  25.271  1.00  0.00    -0.200 F 
ATOM     75  C   UNL A   1      44.576  35.586  26.954  1.00  0.00     0.200 A 
ATOM     76  F   UNL A   1      45.636  36.826  28.661  1.00  0.00    -0.200 F 
ATOM     77  F   UNL A   1      44.466  36.689  26.201  1.00  0.00    -0.200 F 
ENDBRANCH  53  67
BRANCH  54  78
ATOM     78  C   UNL A   1      45.208  25.206  34.422  1.00  0.00     0.064 A 
ATOM     79  C   UNL A   1      45.950  25.174  35.612  1.00  0.00     0.173 A 
ATOM     80  C   UNL A   1      44.538  24.034  34.043  1.00  0.00     0.173 A 
ATOM     81  F   UNL A   1      46.630  26.260  36.006  1.00  0.00    -0.203 F 
ATOM     82  C   UNL A   1      46.040  24.010  36.373  1.00  0.00     0.198 A 
ATOM     83  C   UNL A   1      44.599  22.881  34.824  1.00  0.00     0.198 A 
ATOM     84  F   UNL A   1      43.817  24.006  32.912  1.00  0.00    -0.203 F 
ATOM     85  F   UNL A   1      46.806  23.990  37.473  1.00  0.00    -0.200 F 
ATOM     86  C   UNL A   1      45.360  22.867  35.983  1.00  0.00     0.200 A 
ATOM     87  F   UNL A   1      43.926  21.785  34.451  1.00  0.00    -0.200 F 
ATOM     88  F   UNL A   1      45.445  21.750  36.718  1.00  0.00    -0.200 F 
ENDBRANCH  54  78
BRANCH  66  89
ATOM     89  C   UNL A   1      48.862  27.294  28.854  1.00  0.00     0.064 A 
ATOM     90  C   UNL A   1      50.177  27.361  29.336  1.00  0.00     0.173 A 
ATOM     91  C   UNL A   1      48.641  26.595  27.655  1.00  0.00     0.173 A 
ATOM     92  F   UNL A   1      50.448  28.025  30.471  1.00  0.00    -0.203 F 
ATOM     93  C   UNL A   1      51.230  26.786  28.630  1.00  0.00     0.198 A 
ATOM     94  C   UNL A   1      49.690  25.985  26.974  1.00  0.00     0.198 A 
ATOM     95  F   UNL A   1      47.402  26.488  27.153  1.00  0.00    -0.203 F 
ATOM     96  F   UNL A   1      52.487  26.916  29.079  1.00  0.00    -0.200 F 
ATOM     97  C   UNL A   1      50.986  26.090  27.455  1.00  0.00     0.200 A 
ATOM     98  F   UNL A   1      49.446  25.295  25.852  1.00  0.00    -0.200 F 
ATOM     99  F   UNL A   1      52.000  25.528  26.783  1.00  0.00    -0.200 F 
ENDBRANCH  66  89
ENDBRANCH  40  41
ENDBRANCH  33  35
ENDBRANCH  32  33
ENDBRANCH  31  32
ENDBRANCH  30  31
ENDBRANCH  29  30
ENDBRANCH  28  29
ENDBRANCH  27  28
ENDBRANCH  26  27
ENDBRANCH   1  26
TORSDOF 23
ENDMDL
MODEL 2
REMARK VINA RESULT:      -7.6      4.692      8.328
REMARK SMILES N#Cc1ccccc1S(=O)(=O)N1CCC(C(=O)OCCOCCOCCOCCOC(=O)c2ccc(-c3c4nc(c(-c5c(F)c(F)c(F)c(F)c5F)c5ccc([nH]5)c(-c5c(F)c(F)c(F)c(F)c5F)c5nc(c(-c6c(F)c(F)c(F)c(F)c6F)c6ccc3[nH]6)C=C5)C=C4)cc2)CC1
REMARK SMILES IDX 23 1 22 2 21 3 20 4 19 5 18 6 16 7 17 8 15 9 12 10 13 11
REMARK SMILES IDX 97 12 14 13 96 14 9 15 10 16 11 17 8 18 3 19 4 20 5 21 7 22
REMARK SMILES IDX 6 23 2 24 1 25 24 26 25 27 26 28 27 29 28 30 29 31 30 32
REMARK SMILES IDX 31 33 32 34 33 35 34 36 95 37 35 38 94 39 36 40 37 41 38 42
REMARK SMILES IDX 88 43 39 44 93 45 87 46 89 47 40 48 92 49 86 50 85 51 41 53
REMARK SMILES IDX 73 54 53 55 72 56 54 57 57 58 71 59 90 60 55 61 56 62 70 64
REMARK SMILES IDX 91 65 58 66 42 67 43 68 51 69 44 70 45 71 49 72 52 73 46 74
REMARK SMILES IDX 47 75 50 76 48 77 74 78 75 79 83 80 76 81 77 82 81 83 84 84
REMARK SMILES IDX 78 85 79 86 82 87 80 88 59 89 60 90 68 91 61 92 62 93 66 94
REMARK SMILES IDX 69 95 63 96 64 97 67 98 65 99
REMARK H PARENT 89 52 57 63
REMARK Flexibility Score: inf
ROOT
ATOM      1  C   UNL A   1      32.541  26.159  24.167  1.00  0.00     0.188 C 
ENDROOT
BRANCH   1   2
ATOM      2  C   UNL A   1      32.605  25.004  23.164  1.00  0.00     0.188 C 
BRANCH   2   3
ATOM      3  O   UNL A   1      32.457  23.670  23.604  1.00  0.00    -0.376 OA
BRANCH   3   4
ATOM      4  C   UNL A   1      33.274  22.607  23.141  1.00  0.00     0.202 C 
BRANCH   4   5
ATOM      5  C   UNL A   1      34.291  21.807  23.973  1.00  0.00     0.261 C 
BRANCH   5   6
ATOM      6  O   UNL A   1      35.626  22.311  24.050  1.00  0.00    -0.463 OA
BRANCH   6   7
ATOM      7  C   UNL A   1      35.889  23.048  25.148  1.00  0.00     0.309 C 
ATOM      8  O   UNL A   1      35.028  23.574  25.850  1.00  0.00    -0.252 OA
BRANCH   7   9
ATOM      9  C   UNL A   1      37.357  23.183  25.484  1.00  0.00     0.102 C 
ATOM     10  N   UNL A   1      40.000  22.878  26.568  1.00  0.00    -0.198 NA
ATOM     11  C   UNL A   1      39.329  24.178  26.738  1.00  0.00     0.103 C 
ATOM     12  C   UNL A   1      39.376  21.769  25.828  1.00  0.00     0.103 C 
ATOM     13  C   UNL A   1      37.816  24.147  26.570  1.00  0.00     0.032 C 
ATOM     14  C   UNL A   1      37.864  21.804  25.870  1.00  0.00     0.032 C 
BRANCH  10  15
ATOM     15  S   UNL A   1      41.671  22.839  26.787  1.00  0.00     0.244 S 
ATOM     16  O   UNL A   1      41.901  23.143  28.186  1.00  0.00    -0.207 OA
ATOM     17  O   UNL A   1      42.280  23.637  25.744  1.00  0.00    -0.207 OA
BRANCH  15  18
ATOM     18  C   UNL A   1      42.317  21.190  26.561  1.00  0.00     0.100 A 
ATOM     19  C   UNL A   1      43.253  20.747  25.626  1.00  0.00     0.072 A 
ATOM     20  C   UNL A   1      43.559  19.370  25.564  1.00  0.00     0.021 A 
ATOM     21  C   UNL A   1      42.991  18.456  26.447  1.00  0.00     0.001 A 
ATOM     22  C   UNL A   1      41.761  20.255  27.462  1.00  0.00     0.023 A 
ATOM     23  C   UNL A   1      42.104  18.905  27.412  1.00  0.00     0.001 A 
BRANCH  19  24
ATOM     24  C   UNL A   1      44.018  21.550  24.734  1.00  0.00     0.101 C 
ATOM     25  N   UNL A   1      44.524  22.268  23.970  1.00  0.00    -0.192 NA
ENDBRANCH  19  24
ENDBRANCH  15  18
ENDBRANCH  10  15
ENDBRANCH   7   9
ENDBRANCH   6   7
ENDBRANCH   5   6
ENDBRANCH   4   5
ENDBRANCH   3   4
ENDBRANCH   2   3
ENDBRANCH   1   2
BRANCH   1  26
ATOM     26  O   UNL A   1      31.267  26.444  24.708  1.00  0.00    -0.377 OA
BRANCH  26  27
ATOM     27  C   UNL A   1      30.485  27.491  24.147  1.00  0.00     0.188 C 
BRANCH  27  28
ATOM     28  C   UNL A   1      31.127  28.838  23.746  1.00  0.00     0.188 C 
BRANCH  28  29
ATOM     29  O   UNL A   1      30.691  29.962  24.481  1.00  0.00    -0.376 OA
BRANCH  29  30
ATOM     30  C   UNL A   1      31.410  30.396  25.622  1.00  0.00     0.202 C 
BRANCH  30  31
ATOM     31  C   UNL A   1      32.852  29.918  25.875  1.00  0.00     0.261 C 
BRANCH  31  32
ATOM     32  O   UNL A   1      33.361  30.029  27.213  1.00  0.00    -0.460 OA
BRANCH  32  33
ATOM     33  C   UNL A   1      33.921  31.200  27.579  1.00  0.00     0.338 C 
ATOM     34  O   UNL A   1      33.359  32.269  27.725  1.00  0.00    -0.246 OA
BRANCH  33  35
ATOM     35  C   UNL A   1      35.321  30.927  27.975  1.00  0.00     0.060 A 
ATOM     36  C   UNL A   1      35.696  29.613  28.289  1.00  0.00     0.016 A 
ATOM     37  C   UNL A   1      36.257  31.961  28.046  1.00  0.00     0.016 A 
ATOM     38  C   UNL A   1      36.994  29.335  28.716  1.00  0.00     0.010 A 
ATOM     39  C   UNL A   1      37.551  31.685  28.502  1.00  0.00     0.010 A 
ATOM     40  C   UNL A   1      37.913  30.378  28.876  1.00  0.00    -0.014 A 
BRANCH  40  41
ATOM     41  C   UNL A   1      39.170  30.135  29.623  1.00  0.00     0.031 A 
ATOM     42  C   UNL A   1      39.285  30.672  31.024  1.00  0.00     0.074 A 
ATOM     43  C   UNL A   1      40.179  29.424  29.089  1.00  0.00     0.049 A 
ATOM     44  N   UNL A   1      40.300  30.643  31.850  1.00  0.00    -0.248 NA
ATOM     45  C   UNL A   1      38.089  31.338  31.565  1.00  0.00     0.031 C 
ATOM     46  C   UNL A   1      40.166  28.802  27.767  1.00  0.00     0.029 A 
ATOM     47  N   UNL A   1      41.417  29.114  29.598  1.00  0.00    -0.354 N 
ATOM     48  C   UNL A   1      39.870  31.297  32.997  1.00  0.00     0.074 A 
ATOM     49  C   UNL A   1      38.516  31.742  32.750  1.00  0.00     0.031 C 
ATOM     50  C   UNL A   1      41.349  28.197  27.561  1.00  0.00     0.029 A 
ATOM     51  C   UNL A   1      42.215  28.426  28.718  1.00  0.00     0.049 A 
ATOM     52  H   UNL A   1      41.704  29.363  30.506  1.00  0.00     0.167 HD
ATOM     53  C   UNL A   1      40.542  31.502  34.155  1.00  0.00     0.037 A 
ATOM     54  C   UNL A   1      43.505  28.052  28.825  1.00  0.00     0.037 A 
ATOM     55  C   UNL A   1      41.891  31.060  34.392  1.00  0.00     0.049 A 
ATOM     56  C   UNL A   1      44.264  28.375  30.090  1.00  0.00     0.074 A 
ATOM     57  C   UNL A   1      42.657  31.203  35.535  1.00  0.00     0.029 A 
ATOM     58  N   UNL A   1      42.682  30.401  33.461  1.00  0.00    -0.354 N 
ATOM     59  N   UNL A   1      43.848  28.973  31.180  1.00  0.00    -0.248 NA
ATOM     60  C   UNL A   1      45.676  27.966  30.139  1.00  0.00     0.031 C 
ATOM     61  C   UNL A   1      43.934  30.701  35.271  1.00  0.00     0.029 A 
ATOM     62  C   UNL A   1      43.941  30.166  33.993  1.00  0.00     0.049 A 
ATOM     63  H   UNL A   1      42.393  30.139  32.558  1.00  0.00     0.167 HD
ATOM     64  C   UNL A   1      44.929  28.978  32.053  1.00  0.00     0.074 A 
ATOM     65  C   UNL A   1      46.016  28.309  31.371  1.00  0.00     0.031 C 
ATOM     66  C   UNL A   1      45.014  29.491  33.307  1.00  0.00     0.037 A 
BRANCH  53  67
ATOM     67  C   UNL A   1      39.844  32.272  35.239  1.00  0.00     0.064 A 
ATOM     68  C   UNL A   1      39.944  33.668  35.346  1.00  0.00     0.173 A 
ATOM     69  C   UNL A   1      39.034  31.603  36.171  1.00  0.00     0.173 A 
ATOM     70  F   UNL A   1      40.715  34.356  34.490  1.00  0.00    -0.203 F 
ATOM     71  C   UNL A   1      39.290  34.359  36.363  1.00  0.00     0.198 A 
ATOM     72  C   UNL A   1      38.349  32.302  37.162  1.00  0.00     0.198 A 
ATOM     73  F   UNL A   1      38.897  30.270  36.115  1.00  0.00    -0.203 F 
ATOM     74  F   UNL A   1      39.450  35.685  36.479  1.00  0.00    -0.200 F 
ATOM     75  C   UNL A   1      38.487  33.677  37.264  1.00  0.00     0.200 A 
ATOM     76  F   UNL A   1      37.559  31.642  38.019  1.00  0.00    -0.200 F 
ATOM     77  F   UNL A   1      37.849  34.345  38.235  1.00  0.00    -0.200 F 
ENDBRANCH  53  67
BRANCH  54  78
ATOM     78  C   UNL A   1      44.177  27.351  27.697  1.00  0.00     0.064 A 
ATOM     79  C   UNL A   1      44.330  25.958  27.698  1.00  0.00     0.173 A 
ATOM     80  C   UNL A   1      44.708  28.062  26.611  1.00  0.00     0.173 A 
ATOM     81  F   UNL A   1      43.864  25.233  28.726  1.00  0.00    -0.203 F 
ATOM     82  C   UNL A   1      45.012  25.307  26.671  1.00  0.00     0.198 A 
ATOM     83  C   UNL A   1      45.357  27.407  25.566  1.00  0.00     0.198 A 
ATOM     84  F   UNL A   1      44.594  29.398  26.559  1.00  0.00    -0.203 F 
ATOM     85  F   UNL A   1      45.197  23.981  26.729  1.00  0.00    -0.200 F 
ATOM     86  C   UNL A   1      45.518  26.030  25.603  1.00  0.00     0.200 A 
ATOM     87  F   UNL A   1      45.830  28.110  24.528  1.00  0.00    -0.200 F 
ATOM     88  F   UNL A   1      46.170  25.404  24.614  1.00  0.00    -0.200 F 
ENDBRANCH  54  78
BRANCH  66  89
ATOM     89  C   UNL A   1      46.311  29.305  34.049  1.00  0.00     0.064 A 
ATOM     90  C   UNL A   1      47.348  30.247  33.983  1.00  0.00     0.173 A 
ATOM     91  C   UNL A   1      46.499  28.183  34.873  1.00  0.00     0.173 A 
ATOM     92  F   UNL A   1      47.227  31.334  33.204  1.00  0.00    -0.203 F 
ATOM     93  C   UNL A   1      48.537  30.055  34.683  1.00  0.00     0.198 A 
ATOM     94  C   UNL A   1      47.671  28.016  35.604  1.00  0.00     0.198 A 
ATOM     95  F   UNL A   1      45.537  27.255  34.983  1.00  0.00    -0.203 F 
ATOM     96  F   UNL A   1      49.537  30.938  34.556  1.00  0.00    -0.200 F 
ATOM     97  C   UNL A   1      48.695  28.945  35.500  1.00  0.00     0.200 A 
ATOM     98  F   UNL A   1      47.811  26.954  36.409  1.00  0.00    -0.200 F 
ATOM     99  F   UNL A   1      49.835  28.769  36.181  1.00  0.00    -0.200 F 
ENDBRANCH  66  89
ENDBRANCH  40  41
ENDBRANCH  33  35
ENDBRANCH  32  33
ENDBRANCH  31  32
ENDBRANCH  30  31
ENDBRANCH  29  30
ENDBRANCH  28  29
ENDBRANCH  27  28
ENDBRANCH  26  27
ENDBRANCH   1  26
TORSDOF 23
ENDMDL
MODEL 3
REMARK VINA RESULT:      -7.4      3.996      8.545
REMARK SMILES N#Cc1ccccc1S(=O)(=O)N1CCC(C(=O)OCCOCCOCCOCCOC(=O)c2ccc(-c3c4nc(c(-c5c(F)c(F)c(F)c(F)c5F)c5ccc([nH]5)c(-c5c(F)c(F)c(F)c(F)c5F)c5nc(c(-c6c(F)c(F)c(F)c(F)c6F)c6ccc3[nH]6)C=C5)C=C4)cc2)CC1
REMARK SMILES IDX 23 1 22 2 21 3 20 4 19 5 18 6 16 7 17 8 15 9 12 10 13 11
REMARK SMILES IDX 97 12 14 13 96 14 9 15 10 16 11 17 8 18 3 19 4 20 5 21 7 22
REMARK SMILES IDX 6 23 2 24 1 25 24 26 25 27 26 28 27 29 28 30 29 31 30 32
REMARK SMILES IDX 31 33 32 34 33 35 34 36 95 37 35 38 94 39 36 40 37 41 38 42
REMARK SMILES IDX 88 43 39 44 93 45 87 46 89 47 40 48 92 49 86 50 85 51 41 53
REMARK SMILES IDX 73 54 53 55 72 56 54 57 57 58 71 59 90 60 55 61 56 62 70 64
REMARK SMILES IDX 91 65 58 66 42 67 43 68 51 69 44 70 45 71 49 72 52 73 46 74
REMARK SMILES IDX 47 75 50 76 48 77 74 78 75 79 83 80 76 81 77 82 81 83 84 84
REMARK SMILES IDX 78 85 79 86 82 87 80 88 59 89 60 90 68 91 61 92 62 93 66 94
REMARK SMILES IDX 69 95 63 96 64 97 67 98 65 99
REMARK H PARENT 89 52 57 63
REMARK Flexibility Score: inf
ROOT
ATOM      1  C   UNL A   1      33.357  36.229  29.350  1.00  0.00     0.188 C 
ENDROOT
BRANCH   1   2
ATOM      2  C   UNL A   1      33.811  34.770  29.238  1.00  0.00     0.188 C 
BRANCH   2   3
ATOM      3  O   UNL A   1      34.559  34.342  28.119  1.00  0.00    -0.376 OA
BRANCH   3   4
ATOM      4  C   UNL A   1      35.166  33.063  28.039  1.00  0.00     0.202 C 
BRANCH   4   5
ATOM      5  C   UNL A   1      34.666  31.771  28.706  1.00  0.00     0.261 C 
BRANCH   5   6
ATOM      6  O   UNL A   1      33.838  30.902  27.931  1.00  0.00    -0.463 OA
BRANCH   6   7
ATOM      7  C   UNL A   1      34.431  29.755  27.541  1.00  0.00     0.309 C 
ATOM      8  O   UNL A   1      35.616  29.491  27.731  1.00  0.00    -0.252 OA
BRANCH   7   9
ATOM      9  C   UNL A   1      33.516  28.774  26.844  1.00  0.00     0.102 C 
ATOM     10  N   UNL A   1      31.570  27.508  25.151  1.00  0.00    -0.198 NA
ATOM     11  C   UNL A   1      31.383  27.415  26.609  1.00  0.00     0.103 C 
ATOM     12  C   UNL A   1      32.735  28.183  24.556  1.00  0.00     0.103 C 
ATOM     13  C   UNL A   1      32.143  28.453  27.422  1.00  0.00     0.032 C 
ATOM     14  C   UNL A   1      33.294  29.284  25.430  1.00  0.00     0.032 C 
BRANCH  10  15
ATOM     15  S   UNL A   1      30.717  26.414  24.193  1.00  0.00     0.244 S 
ATOM     16  O   UNL A   1      30.610  27.024  22.883  1.00  0.00    -0.207 OA
ATOM     17  O   UNL A   1      29.533  26.007  24.922  1.00  0.00    -0.207 OA
BRANCH  15  18
ATOM     18  C   UNL A   1      31.651  24.916  23.930  1.00  0.00     0.100 A 
ATOM     19  C   UNL A   1      31.920  23.892  24.839  1.00  0.00     0.072 A 
ATOM     20  C   UNL A   1      32.763  22.830  24.444  1.00  0.00     0.021 A 
ATOM     21  C   UNL A   1      33.284  22.754  23.156  1.00  0.00     0.001 A 
ATOM     22  C   UNL A   1      32.173  24.817  22.622  1.00  0.00     0.023 A 
ATOM     23  C   UNL A   1      32.971  23.741  22.236  1.00  0.00     0.001 A 
BRANCH  19  24
ATOM     24  C   UNL A   1      31.378  23.744  26.147  1.00  0.00     0.101 C 
ATOM     25  N   UNL A   1      31.001  23.741  27.248  1.00  0.00    -0.192 NA
ENDBRANCH  19  24
ENDBRANCH  15  18
ENDBRANCH  10  15
ENDBRANCH   7   9
ENDBRANCH   6   7
ENDBRANCH   5   6
ENDBRANCH   4   5
ENDBRANCH   3   4
ENDBRANCH   2   3
ENDBRANCH   1   2
BRANCH   1  26
ATOM     26  O   UNL A   1      32.433  36.515  30.380  1.00  0.00    -0.377 OA
BRANCH  26  27
ATOM     27  C   UNL A   1      32.758  36.187  31.725  1.00  0.00     0.188 C 
BRANCH  27  28
ATOM     28  C   UNL A   1      34.029  36.752  32.398  1.00  0.00     0.188 C 
BRANCH  28  29
ATOM     29  O   UNL A   1      34.765  35.833  33.178  1.00  0.00    -0.376 OA
BRANCH  29  30
ATOM     30  C   UNL A   1      35.647  34.913  32.559  1.00  0.00     0.202 C 
BRANCH  30  31
ATOM     31  C   UNL A   1      36.814  34.288  33.345  1.00  0.00     0.261 C 
BRANCH  31  32
ATOM     32  O   UNL A   1      36.865  32.855  33.426  1.00  0.00    -0.460 OA
BRANCH  32  33
ATOM     33  C   UNL A   1      37.449  32.305  34.511  1.00  0.00     0.338 C 
ATOM     34  O   UNL A   1      37.013  32.281  35.646  1.00  0.00    -0.246 OA
BRANCH  33  35
ATOM     35  C   UNL A   1      38.635  31.549  34.050  1.00  0.00     0.060 A 
ATOM     36  C   UNL A   1      39.879  31.806  34.643  1.00  0.00     0.016 A 
ATOM     37  C   UNL A   1      38.525  30.601  33.030  1.00  0.00     0.016 A 
ATOM     38  C   UNL A   1      41.023  31.148  34.193  1.00  0.00     0.010 A 
ATOM     39  C   UNL A   1      39.678  29.962  32.559  1.00  0.00     0.010 A 
ATOM     40  C   UNL A   1      40.937  30.263  33.112  1.00  0.00    -0.014 A 
BRANCH  40  41
ATOM     41  C   UNL A   1      42.177  29.815  32.434  1.00  0.00     0.031 A 
ATOM     42  C   UNL A   1      42.895  28.611  32.981  1.00  0.00     0.074 A 
ATOM     43  C   UNL A   1      42.643  30.437  31.337  1.00  0.00     0.049 A 
ATOM     44  N   UNL A   1      44.025  28.069  32.603  1.00  0.00    -0.248 NA
ATOM     45  C   UNL A   1      42.249  27.927  34.113  1.00  0.00     0.031 C 
ATOM     46  C   UNL A   1      42.008  31.576  30.678  1.00  0.00     0.029 A 
ATOM     47  N   UNL A   1      43.771  30.199  30.590  1.00  0.00    -0.354 N 
ATOM     48  C   UNL A   1      44.230  26.994  33.458  1.00  0.00     0.074 A 
ATOM     49  C   UNL A   1      43.128  26.979  34.395  1.00  0.00     0.031 C 
ATOM     50  C   UNL A   1      42.764  31.949  29.632  1.00  0.00     0.029 A 
ATOM     51  C   UNL A   1      43.956  31.104  29.574  1.00  0.00     0.049 A 
ATOM     52  H   UNL A   1      44.387  29.452  30.766  1.00  0.00     0.167 HD
ATOM     53  C   UNL A   1      45.243  26.095  33.456  1.00  0.00     0.037 A 
ATOM     54  C   UNL A   1      44.986  31.248  28.717  1.00  0.00     0.037 A 
ATOM     55  C   UNL A   1      46.339  26.117  32.523  1.00  0.00     0.049 A 
ATOM     56  C   UNL A   1      46.151  30.291  28.796  1.00  0.00     0.074 A 
ATOM     57  C   UNL A   1      47.407  25.244  32.427  1.00  0.00     0.029 A 
ATOM     58  N   UNL A   1      46.514  27.074  31.532  1.00  0.00    -0.354 N 
ATOM     59  N   UNL A   1      46.331  29.263  29.590  1.00  0.00    -0.248 NA
ATOM     60  C   UNL A   1      47.257  30.514  27.853  1.00  0.00     0.031 C 
ATOM     61  C   UNL A   1      48.267  25.715  31.431  1.00  0.00     0.029 A 
ATOM     62  C   UNL A   1      47.694  26.833  30.846  1.00  0.00     0.049 A 
ATOM     63  H   UNL A   1      45.893  27.814  31.345  1.00  0.00     0.167 HD
ATOM     64  C   UNL A   1      47.546  28.698  29.220  1.00  0.00     0.074 A 
ATOM     65  C   UNL A   1      48.053  29.489  28.118  1.00  0.00     0.031 C 
ATOM     66  C   UNL A   1      48.185  27.622  29.744  1.00  0.00     0.037 A 
BRANCH  53  67
ATOM     67  C   UNL A   1      45.236  25.036  34.522  1.00  0.00     0.064 A 
ATOM     68  C   UNL A   1      44.725  23.749  34.292  1.00  0.00     0.173 A 
ATOM     69  C   UNL A   1      45.778  25.305  35.788  1.00  0.00     0.173 A 
ATOM     70  F   UNL A   1      44.183  23.441  33.103  1.00  0.00    -0.203 F 
ATOM     71  C   UNL A   1      44.726  22.785  35.297  1.00  0.00     0.198 A 
ATOM     72  C   UNL A   1      45.814  24.326  36.779  1.00  0.00     0.198 A 
ATOM     73  F   UNL A   1      46.286  26.516  36.065  1.00  0.00    -0.203 F 
ATOM     74  F   UNL A   1      44.179  21.583  35.071  1.00  0.00    -0.200 F 
ATOM     75  C   UNL A   1      45.279  23.072  36.536  1.00  0.00     0.200 A 
ATOM     76  F   UNL A   1      46.366  24.601  37.969  1.00  0.00    -0.200 F 
ATOM     77  F   UNL A   1      45.289  22.140  37.499  1.00  0.00    -0.200 F 
ENDBRANCH  53  67
BRANCH  54  78
ATOM     78  C   UNL A   1      44.982  32.355  27.722  1.00  0.00     0.064 A 
ATOM     79  C   UNL A   1      44.301  32.231  26.503  1.00  0.00     0.173 A 
ATOM     80  C   UNL A   1      45.685  33.547  27.956  1.00  0.00     0.173 A 
ATOM     81  F   UNL A   1      43.636  31.102  26.219  1.00  0.00    -0.203 F 
ATOM     82  C   UNL A   1      44.346  33.244  25.546  1.00  0.00     0.198 A 
ATOM     83  C   UNL A   1      45.699  34.574  27.014  1.00  0.00     0.198 A 
ATOM     84  F   UNL A   1      46.357  33.718  29.103  1.00  0.00    -0.203 F 
ATOM     85  F   UNL A   1      43.738  33.073  24.365  1.00  0.00    -0.200 F 
ATOM     86  C   UNL A   1      45.038  34.417  25.805  1.00  0.00     0.200 A 
ATOM     87  F   UNL A   1      46.356  35.711  27.276  1.00  0.00    -0.200 F 
ATOM     88  F   UNL A   1      45.078  35.391  24.886  1.00  0.00    -0.200 F 
ENDBRANCH  54  78
BRANCH  66  89
ATOM     89  C   UNL A   1      49.479  27.199  29.103  1.00  0.00     0.064 A 
ATOM     90  C   UNL A   1      50.720  27.692  29.534  1.00  0.00     0.173 A 
ATOM     91  C   UNL A   1      49.478  26.252  28.066  1.00  0.00     0.173 A 
ATOM     92  F   UNL A   1      50.781  28.606  30.515  1.00  0.00    -0.203 F 
ATOM     93  C   UNL A   1      51.905  27.281  28.928  1.00  0.00     0.198 A 
ATOM     94  C   UNL A   1      50.667  25.812  27.491  1.00  0.00     0.198 A 
ATOM     95  F   UNL A   1      48.322  25.738  27.621  1.00  0.00    -0.203 F 
ATOM     96  F   UNL A   1      53.073  27.812  29.316  1.00  0.00    -0.200 F 
ATOM     97  C   UNL A   1      51.879  26.336  27.914  1.00  0.00     0.200 A 
ATOM     98  F   UNL A   1      50.639  24.882  26.527  1.00  0.00    -0.200 F 
ATOM     99  F   UNL A   1      53.021  25.934  27.340  1.00  0.00    -0.200 F 
ENDBRANCH  66  89
ENDBRANCH  40  41
ENDBRANCH  33  35
ENDBRANCH  32  33
ENDBRANCH  31  32
ENDBRANCH  30  31
ENDBRANCH  29  30
ENDBRANCH  28  29
ENDBRANCH  27  28
ENDBRANCH  26  27
ENDBRANCH   1  26
TORSDOF 23
ENDMDL
