MODEL 1
REMARK VINA RESULT:     -10.2      0.000      0.000
REMARK SMILES Cc1cccc(C(=O)OCCOCCOCCOCCOC(=O)c2ccc(-c3c4nc(c(-c5c(F)c(F)c(F)c(F)c5F)c5ccc([nH]5)c(-c5c(F)c(F)c(F)c(F)c5F)c5nc(c(-c6c(F)c(F)c(F)c(F)c6F)c6ccc3[nH]6)C=C5)C=C4)cc2)c1O[C@H](C)[C@H](C)O
REMARK SMILES IDX 14 1 13 2 12 3 11 4 10 5 9 6 7 7 8 8 6 9 1 10 2 11 3 12
REMARK SMILES IDX 87 13 4 14 5 15 88 16 89 17 90 18 91 19 92 20 93 21 15 23
REMARK SMILES IDX 16 24 17 25 18 26 19 27 20 28 21 29 22 30 23 31 24 32 25 33
REMARK SMILES IDX 86 34 26 35 85 36 27 37 28 38 29 39 79 40 30 41 84 42 78 43
REMARK SMILES IDX 80 44 31 45 83 46 77 47 76 48 32 50 64 51 44 52 63 53 45 54
REMARK SMILES IDX 48 55 62 56 81 57 46 58 47 59 61 61 82 62 49 63 33 64 34 65
REMARK SMILES IDX 42 66 35 67 36 68 40 69 43 70 37 71 38 72 41 73 39 74 65 75
REMARK SMILES IDX 66 76 74 77 67 78 68 79 72 80 75 81 69 82 70 83 73 84 71 85
REMARK SMILES IDX 50 86 51 87 59 88 52 89 53 90 57 91 60 92 54 93 55 94 58 95
REMARK SMILES IDX 56 96
REMARK H PARENT 93 22 80 49 48 60
REMARK Flexibility Score: inf
ROOT
ATOM      1  C   UNL A   1      30.794  26.945  25.129  1.00  0.00     0.188 C 
ENDROOT
BRANCH   1   2
ATOM      2  C   UNL A   1      30.379  25.873  26.120  1.00  0.00     0.188 C 
BRANCH   2   3
ATOM      3  O   UNL A   1      29.978  24.603  25.632  1.00  0.00    -0.376 OA
BRANCH   3   4
ATOM      4  C   UNL A   1      30.281  23.495  26.488  1.00  0.00     0.202 C 
BRANCH   4   5
ATOM      5  C   UNL A   1      31.050  22.376  25.802  1.00  0.00     0.261 C 
BRANCH   5   6
ATOM      6  O   UNL A   1      31.651  22.822  24.573  1.00  0.00    -0.460 OA
BRANCH   6   7
ATOM      7  C   UNL A   1      32.318  21.887  23.865  1.00  0.00     0.342 C 
ATOM      8  O   UNL A   1      31.974  21.488  22.777  1.00  0.00    -0.246 OA
BRANCH   7   9
ATOM      9  C   UNL A   1      33.702  21.607  24.413  1.00  0.00     0.102 A 
ATOM     10  C   UNL A   1      36.743  19.324  24.975  1.00  0.00     0.048 C 
ATOM     11  C   UNL A   1      35.845  20.544  24.923  1.00  0.00    -0.008 A 
ATOM     12  C   UNL A   1      36.439  21.798  25.083  1.00  0.00     0.007 A 
ATOM     13  C   UNL A   1      34.463  20.428  24.607  1.00  0.00     0.137 A 
ATOM     14  C   UNL A   1      35.677  22.947  24.997  1.00  0.00     0.001 A 
ATOM     15  C   UNL A   1      34.330  22.849  24.676  1.00  0.00     0.019 A 
BRANCH  13  16
ATOM     16  O   UNL A   1      34.202  19.093  24.502  1.00  0.00    -0.487 OA
BRANCH  16  17
ATOM     17  C   UNL A   1      32.933  18.484  24.592  1.00  0.00     0.198 C 
ATOM     18  C   UNL A   1      32.792  18.063  26.052  1.00  0.00     0.056 C 
BRANCH  17  19
ATOM     19  C   UNL A   1      32.687  17.640  23.311  1.00  0.00     0.151 C 
ATOM     20  C   UNL A   1      33.935  16.919  22.767  1.00  0.00     0.042 C 
BRANCH  19  21
ATOM     21  O   UNL A   1      32.167  18.391  22.251  1.00  0.00    -0.390 OA
ATOM     22  H   UNL A   1      31.402  18.900  22.560  1.00  0.00     0.211 HD
ENDBRANCH  19  21
ENDBRANCH  17  19
ENDBRANCH  16  17
ENDBRANCH  13  16
ENDBRANCH   7   9
ENDBRANCH   6   7
ENDBRANCH   5   6
ENDBRANCH   4   5
ENDBRANCH   3   4
ENDBRANCH   2   3
ENDBRANCH   1   2
BRANCH   1  23
ATOM     23  O   UNL A   1      31.875  26.565  24.278  1.00  0.00    -0.377 OA
BRANCH  23  24
ATOM     24  C   UNL A   1      33.135  26.310  24.873  1.00  0.00     0.188 C 
BRANCH  24  25
ATOM     25  C   UNL A   1      33.618  27.220  25.994  1.00  0.00     0.188 C 
BRANCH  25  26
ATOM     26  O   UNL A   1      34.029  28.513  25.636  1.00  0.00    -0.376 OA
BRANCH  26  27
ATOM     27  C   UNL A   1      34.358  29.419  26.678  1.00  0.00     0.202 C 
BRANCH  27  28
ATOM     28  C   UNL A   1      33.545  30.719  26.915  1.00  0.00     0.261 C 
BRANCH  28  29
ATOM     29  O   UNL A   1      33.708  31.244  28.262  1.00  0.00    -0.460 OA
BRANCH  29  30
ATOM     30  C   UNL A   1      33.935  32.589  28.387  1.00  0.00     0.338 C 
ATOM     31  O   UNL A   1      33.438  33.443  27.670  1.00  0.00    -0.246 OA
BRANCH  30  32
ATOM     32  C   UNL A   1      35.125  32.863  29.286  1.00  0.00     0.060 A 
ATOM     33  C   UNL A   1      36.385  33.076  28.714  1.00  0.00     0.016 A 
ATOM     34  C   UNL A   1      35.083  32.565  30.643  1.00  0.00     0.016 A 
ATOM     35  C   UNL A   1      37.558  32.737  29.421  1.00  0.00     0.010 A 
ATOM     36  C   UNL A   1      36.227  32.046  31.262  1.00  0.00     0.010 A 
ATOM     37  C   UNL A   1      37.486  32.062  30.646  1.00  0.00    -0.014 A 
BRANCH  37  38
ATOM     38  C   UNL A   1      38.575  31.184  31.188  1.00  0.00     0.031 A 
ATOM     39  C   UNL A   1      38.935  29.848  30.540  1.00  0.00     0.074 A 
ATOM     40  C   UNL A   1      39.470  31.701  32.081  1.00  0.00     0.049 A 
ATOM     41  N   UNL A   1      40.045  29.209  30.728  1.00  0.00    -0.248 NA
ATOM     42  C   UNL A   1      38.100  29.118  29.587  1.00  0.00     0.031 C 
ATOM     43  C   UNL A   1      40.829  31.218  32.264  1.00  0.00     0.029 A 
ATOM     44  N   UNL A   1      39.425  32.813  32.957  1.00  0.00    -0.354 N 
ATOM     45  C   UNL A   1      40.227  28.251  29.763  1.00  0.00     0.074 A 
ATOM     46  C   UNL A   1      38.945  28.189  29.109  1.00  0.00     0.031 C 
ATOM     47  C   UNL A   1      41.480  31.921  33.181  1.00  0.00     0.029 A 
ATOM     48  C   UNL A   1      40.507  32.689  33.861  1.00  0.00     0.049 A 
ATOM     49  H   UNL A   1      38.763  33.540  32.941  1.00  0.00     0.167 HD
ATOM     50  C   UNL A   1      41.477  27.716  29.584  1.00  0.00     0.037 A 
ATOM     51  C   UNL A   1      40.428  32.568  35.212  1.00  0.00     0.037 A 
ATOM     52  C   UNL A   1      42.391  28.046  30.703  1.00  0.00     0.049 A 
ATOM     53  C   UNL A   1      41.059  31.236  35.641  1.00  0.00     0.074 A 
ATOM     54  C   UNL A   1      43.667  28.580  30.807  1.00  0.00     0.029 A 
ATOM     55  N   UNL A   1      41.931  27.936  32.022  1.00  0.00    -0.354 N 
ATOM     56  N   UNL A   1      40.975  30.145  34.895  1.00  0.00    -0.248 NA
ATOM     57  C   UNL A   1      42.106  31.123  36.659  1.00  0.00     0.031 C 
ATOM     58  C   UNL A   1      43.882  28.949  32.173  1.00  0.00     0.029 A 
ATOM     59  C   UNL A   1      42.790  28.533  32.929  1.00  0.00     0.049 A 
ATOM     60  H   UNL A   1      41.094  27.484  32.275  1.00  0.00     0.167 HD
ATOM     61  C   UNL A   1      42.048  29.328  35.168  1.00  0.00     0.074 A 
ATOM     62  C   UNL A   1      42.683  29.950  36.329  1.00  0.00     0.031 C 
ATOM     63  C   UNL A   1      42.603  28.359  34.367  1.00  0.00     0.037 A 
BRANCH  50  64
ATOM     64  C   UNL A   1      41.957  26.988  28.323  1.00  0.00     0.064 A 
ATOM     65  C   UNL A   1      42.705  27.666  27.329  1.00  0.00     0.173 A 
ATOM     66  C   UNL A   1      41.620  25.660  27.980  1.00  0.00     0.173 A 
ATOM     67  F   UNL A   1      43.098  28.935  27.505  1.00  0.00    -0.203 F 
ATOM     68  C   UNL A   1      43.081  27.068  26.114  1.00  0.00     0.198 A 
ATOM     69  C   UNL A   1      42.044  25.046  26.790  1.00  0.00     0.198 A 
ATOM     70  F   UNL A   1      40.824  24.915  28.756  1.00  0.00    -0.203 F 
ATOM     71  F   UNL A   1      43.753  27.781  25.197  1.00  0.00    -0.200 F 
ATOM     72  C   UNL A   1      42.766  25.752  25.852  1.00  0.00     0.200 A 
ATOM     73  F   UNL A   1      41.732  23.762  26.555  1.00  0.00    -0.200 F 
ATOM     74  F   UNL A   1      43.147  25.171  24.705  1.00  0.00    -0.200 F 
ENDBRANCH  50  64
BRANCH  51  75
ATOM     75  C   UNL A   1      39.461  33.549  35.770  1.00  0.00     0.064 A 
ATOM     76  C   UNL A   1      38.308  32.925  36.316  1.00  0.00     0.173 A 
ATOM     77  C   UNL A   1      39.985  34.639  36.480  1.00  0.00     0.173 A 
ATOM     78  F   UNL A   1      37.732  31.903  35.660  1.00  0.00    -0.203 F 
ATOM     79  C   UNL A   1      37.930  33.149  37.641  1.00  0.00     0.198 A 
ATOM     80  C   UNL A   1      39.574  34.885  37.797  1.00  0.00     0.198 A 
ATOM     81  F   UNL A   1      41.064  35.283  36.012  1.00  0.00    -0.203 F 
ATOM     82  F   UNL A   1      37.023  32.350  38.225  1.00  0.00    -0.200 F 
ATOM     83  C   UNL A   1      38.608  34.088  38.398  1.00  0.00     0.200 A 
ATOM     84  F   UNL A   1      40.234  35.784  38.543  1.00  0.00    -0.200 F 
ATOM     85  F   UNL A   1      38.401  34.161  39.722  1.00  0.00    -0.200 F 
ENDBRANCH  51  75
BRANCH  63  86
ATOM     86  C   UNL A   1      42.963  27.008  34.954  1.00  0.00     0.064 A 
ATOM     87  C   UNL A   1      42.022  25.975  35.091  1.00  0.00     0.173 A 
ATOM     88  C   UNL A   1      44.314  26.638  35.189  1.00  0.00     0.173 A 
ATOM     89  F   UNL A   1      40.725  26.167  34.820  1.00  0.00    -0.203 F 
ATOM     90  C   UNL A   1      42.395  24.684  35.460  1.00  0.00     0.198 A 
ATOM     91  C   UNL A   1      44.686  25.336  35.508  1.00  0.00     0.198 A 
ATOM     92  F   UNL A   1      45.327  27.508  35.072  1.00  0.00    -0.203 F 
ATOM     93  F   UNL A   1      41.452  23.742  35.592  1.00  0.00    -0.200 F 
ATOM     94  C   UNL A   1      43.724  24.362  35.655  1.00  0.00     0.200 A 
ATOM     95  F   UNL A   1      45.984  25.028  35.640  1.00  0.00    -0.200 F 
ATOM     96  F   UNL A   1      44.077  23.108  35.966  1.00  0.00    -0.200 F 
ENDBRANCH  63  86
ENDBRANCH  37  38
ENDBRANCH  30  32
ENDBRANCH  29  30
ENDBRANCH  28  29
ENDBRANCH  27  28
ENDBRANCH  26  27
ENDBRANCH  25  26
ENDBRANCH  24  25
ENDBRANCH  23  24
ENDBRANCH   1  23
TORSDOF 24
ENDMDL
MODEL 2
REMARK VINA RESULT:      -8.7      8.284     14.327
REMARK SMILES Cc1cccc(C(=O)OCCOCCOCCOCCOC(=O)c2ccc(-c3c4nc(c(-c5c(F)c(F)c(F)c(F)c5F)c5ccc([nH]5)c(-c5c(F)c(F)c(F)c(F)c5F)c5nc(c(-c6c(F)c(F)c(F)c(F)c6F)c6ccc3[nH]6)C=C5)C=C4)cc2)c1O[C@H](C)[C@H](C)O
REMARK SMILES IDX 14 1 13 2 12 3 11 4 10 5 9 6 7 7 8 8 6 9 1 10 2 11 3 12
REMARK SMILES IDX 87 13 4 14 5 15 88 16 89 17 90 18 91 19 92 20 93 21 15 23
REMARK SMILES IDX 16 24 17 25 18 26 19 27 20 28 21 29 22 30 23 31 24 32 25 33
REMARK SMILES IDX 86 34 26 35 85 36 27 37 28 38 29 39 79 40 30 41 84 42 78 43
REMARK SMILES IDX 80 44 31 45 83 46 77 47 76 48 32 50 64 51 44 52 63 53 45 54
REMARK SMILES IDX 48 55 62 56 81 57 46 58 47 59 61 61 82 62 49 63 33 64 34 65
REMARK SMILES IDX 42 66 35 67 36 68 40 69 43 70 37 71 38 72 41 73 39 74 65 75
REMARK SMILES IDX 66 76 74 77 67 78 68 79 72 80 75 81 69 82 70 83 73 84 71 85
REMARK SMILES IDX 50 86 51 87 59 88 52 89 53 90 57 91 60 92 54 93 55 94 58 95
REMARK SMILES IDX 56 96
REMARK H PARENT 93 22 80 49 48 60
REMARK Flexibility Score: inf
ROOT
ATOM      1  C   UNL A   1      43.960  39.361  29.259  1.00  0.00     0.188 C 
ENDROOT
BRANCH   1   2
ATOM      2  C   UNL A   1      43.221  38.944  27.999  1.00  0.00     0.188 C 
BRANCH   2   3
ATOM      3  O   UNL A   1      42.174  39.768  27.512  1.00  0.00    -0.376 OA
BRANCH   3   4
ATOM      4  C   UNL A   1      42.579  40.801  26.605  1.00  0.00     0.202 C 
BRANCH   4   5
ATOM      5  C   UNL A   1      41.655  40.971  25.409  1.00  0.00     0.261 C 
BRANCH   5   6
ATOM      6  O   UNL A   1      42.383  41.363  24.230  1.00  0.00    -0.460 OA
BRANCH   6   7
ATOM      7  C   UNL A   1      41.790  42.288  23.447  1.00  0.00     0.342 C 
ATOM      8  O   UNL A   1      40.767  42.864  23.737  1.00  0.00    -0.246 OA
BRANCH   7   9
ATOM      9  C   UNL A   1      42.680  42.768  22.320  1.00  0.00     0.102 A 
ATOM     10  C   UNL A   1      46.065  42.982  20.512  1.00  0.00     0.048 C 
ATOM     11  C   UNL A   1      44.586  43.099  20.825  1.00  0.00    -0.008 A 
ATOM     12  C   UNL A   1      43.720  43.399  19.771  1.00  0.00     0.007 A 
ATOM     13  C   UNL A   1      44.083  42.801  22.121  1.00  0.00     0.137 A 
ATOM     14  C   UNL A   1      42.358  43.470  19.988  1.00  0.00     0.001 A 
ATOM     15  C   UNL A   1      41.851  43.167  21.245  1.00  0.00     0.019 A 
BRANCH  13  16
ATOM     16  O   UNL A   1      45.167  42.539  22.906  1.00  0.00    -0.487 OA
BRANCH  16  17
ATOM     17  C   UNL A   1      45.318  42.896  24.262  1.00  0.00     0.198 C 
ATOM     18  C   UNL A   1      45.822  44.337  24.244  1.00  0.00     0.056 C 
BRANCH  17  19
ATOM     19  C   UNL A   1      45.886  41.679  25.043  1.00  0.00     0.151 C 
ATOM     20  C   UNL A   1      47.052  42.012  25.993  1.00  0.00     0.042 C 
BRANCH  19  21
ATOM     21  O   UNL A   1      46.334  40.650  24.207  1.00  0.00    -0.390 OA
ATOM     22  H   UNL A   1      45.634  40.418  23.578  1.00  0.00     0.211 HD
ENDBRANCH  19  21
ENDBRANCH  17  19
ENDBRANCH  16  17
ENDBRANCH  13  16
ENDBRANCH   7   9
ENDBRANCH   6   7
ENDBRANCH   5   6
ENDBRANCH   4   5
ENDBRANCH   3   4
ENDBRANCH   2   3
ENDBRANCH   1   2
BRANCH   1  23
ATOM     23  O   UNL A   1      45.214  39.997  29.015  1.00  0.00    -0.377 OA
BRANCH  23  24
ATOM     24  C   UNL A   1      46.201  39.937  30.029  1.00  0.00     0.188 C 
BRANCH  24  25
ATOM     25  C   UNL A   1      47.458  39.112  29.786  1.00  0.00     0.188 C 
BRANCH  25  26
ATOM     26  O   UNL A   1      48.220  39.429  28.652  1.00  0.00    -0.376 OA
BRANCH  26  27
ATOM     27  C   UNL A   1      48.041  38.638  27.487  1.00  0.00     0.202 C 
BRANCH  27  28
ATOM     28  C   UNL A   1      47.918  37.093  27.562  1.00  0.00     0.261 C 
BRANCH  28  29
ATOM     29  O   UNL A   1      46.555  36.629  27.348  1.00  0.00    -0.460 OA
BRANCH  29  30
ATOM     30  C   UNL A   1      46.378  35.588  26.475  1.00  0.00     0.338 C 
ATOM     31  O   UNL A   1      46.794  35.570  25.328  1.00  0.00    -0.246 OA
BRANCH  30  32
ATOM     32  C   UNL A   1      45.326  34.621  26.982  1.00  0.00     0.060 A 
ATOM     33  C   UNL A   1      45.457  34.069  28.261  1.00  0.00     0.016 A 
ATOM     34  C   UNL A   1      44.440  34.001  26.108  1.00  0.00     0.016 A 
ATOM     35  C   UNL A   1      44.924  32.794  28.549  1.00  0.00     0.010 A 
ATOM     36  C   UNL A   1      44.087  32.664  26.330  1.00  0.00     0.010 A 
ATOM     37  C   UNL A   1      44.372  32.004  27.534  1.00  0.00    -0.014 A 
BRANCH  37  38
ATOM     38  C   UNL A   1      44.303  30.506  27.578  1.00  0.00     0.031 A 
ATOM     39  C   UNL A   1      45.419  29.627  27.015  1.00  0.00     0.074 A 
ATOM     40  C   UNL A   1      43.390  29.901  28.395  1.00  0.00     0.049 A 
ATOM     41  N   UNL A   1      45.595  28.378  27.305  1.00  0.00    -0.248 NA
ATOM     42  C   UNL A   1      46.469  30.076  26.102  1.00  0.00     0.031 C 
ATOM     43  C   UNL A   1      43.543  28.574  28.967  1.00  0.00     0.029 A 
ATOM     44  N   UNL A   1      42.177  30.342  28.978  1.00  0.00    -0.354 N 
ATOM     45  C   UNL A   1      46.851  27.964  26.940  1.00  0.00     0.074 A 
ATOM     46  C   UNL A   1      47.337  29.050  26.128  1.00  0.00     0.031 C 
ATOM     47  C   UNL A   1      42.516  28.251  29.741  1.00  0.00     0.029 A 
ATOM     48  C   UNL A   1      41.503  29.201  29.476  1.00  0.00     0.049 A 
ATOM     49  H   UNL A   1      41.860  31.272  29.028  1.00  0.00     0.167 HD
ATOM     50  C   UNL A   1      47.347  26.799  27.467  1.00  0.00     0.037 A 
ATOM     51  C   UNL A   1      40.283  28.744  29.090  1.00  0.00     0.037 A 
ATOM     52  C   UNL A   1      46.294  25.992  28.126  1.00  0.00     0.049 A 
ATOM     53  C   UNL A   1      40.429  27.326  28.521  1.00  0.00     0.074 A 
ATOM     54  C   UNL A   1      46.150  25.383  29.363  1.00  0.00     0.029 A 
ATOM     55  N   UNL A   1      45.057  25.822  27.488  1.00  0.00    -0.354 N 
ATOM     56  N   UNL A   1      41.500  26.948  27.838  1.00  0.00    -0.248 NA
ATOM     57  C   UNL A   1      39.642  26.180  28.981  1.00  0.00     0.031 C 
ATOM     58  C   UNL A   1      44.775  25.016  29.520  1.00  0.00     0.029 A 
ATOM     59  C   UNL A   1      44.100  25.289  28.334  1.00  0.00     0.049 A 
ATOM     60  H   UNL A   1      44.890  26.055  26.547  1.00  0.00     0.167 HD
ATOM     61  C   UNL A   1      41.657  25.587  27.964  1.00  0.00     0.074 A 
ATOM     62  C   UNL A   1      40.429  25.146  28.625  1.00  0.00     0.031 C 
ATOM     63  C   UNL A   1      42.806  24.847  27.820  1.00  0.00     0.037 A 
BRANCH  50  64
ATOM     64  C   UNL A   1      48.830  26.413  27.524  1.00  0.00     0.064 A 
ATOM     65  C   UNL A   1      49.586  26.591  28.709  1.00  0.00     0.173 A 
ATOM     66  C   UNL A   1      49.592  25.970  26.419  1.00  0.00     0.173 A 
ATOM     67  F   UNL A   1      49.007  27.012  29.842  1.00  0.00    -0.203 F 
ATOM     68  C   UNL A   1      50.968  26.345  28.779  1.00  0.00     0.198 A 
ATOM     69  C   UNL A   1      50.961  25.670  26.506  1.00  0.00     0.198 A 
ATOM     70  F   UNL A   1      49.056  25.855  25.198  1.00  0.00    -0.203 F 
ATOM     71  F   UNL A   1      51.632  26.576  29.922  1.00  0.00    -0.200 F 
ATOM     72  C   UNL A   1      51.652  25.867  27.682  1.00  0.00     0.200 A 
ATOM     73  F   UNL A   1      51.609  25.200  25.428  1.00  0.00    -0.200 F 
ATOM     74  F   UNL A   1      52.966  25.605  27.754  1.00  0.00    -0.200 F 
ENDBRANCH  50  64
BRANCH  51  75
ATOM     75  C   UNL A   1      39.309  29.863  29.000  1.00  0.00     0.064 A 
ATOM     76  C   UNL A   1      38.535  29.816  27.810  1.00  0.00     0.173 A 
ATOM     77  C   UNL A   1      38.637  30.228  30.176  1.00  0.00     0.173 A 
ATOM     78  F   UNL A   1      39.129  29.515  26.643  1.00  0.00    -0.203 F 
ATOM     79  C   UNL A   1      37.140  29.789  27.862  1.00  0.00     0.198 A 
ATOM     80  C   UNL A   1      37.236  30.239  30.213  1.00  0.00     0.198 A 
ATOM     81  F   UNL A   1      39.312  30.306  31.332  1.00  0.00    -0.203 F 
ATOM     82  F   UNL A   1      36.435  29.462  26.767  1.00  0.00    -0.200 F 
ATOM     83  C   UNL A   1      36.496  29.939  29.077  1.00  0.00     0.200 A 
ATOM     84  F   UNL A   1      36.603  30.371  31.389  1.00  0.00    -0.200 F 
ATOM     85  F   UNL A   1      35.179  29.703  29.173  1.00  0.00    -0.200 F 
ENDBRANCH  51  75
BRANCH  63  86
ATOM     86  C   UNL A   1      42.781  23.559  27.020  1.00  0.00     0.064 A 
ATOM     87  C   UNL A   1      43.349  23.460  25.740  1.00  0.00     0.173 A 
ATOM     88  C   UNL A   1      42.385  22.329  27.609  1.00  0.00     0.173 A 
ATOM     89  F   UNL A   1      43.838  24.532  25.104  1.00  0.00    -0.203 F 
ATOM     90  C   UNL A   1      43.484  22.236  25.088  1.00  0.00     0.198 A 
ATOM     91  C   UNL A   1      42.568  21.105  26.974  1.00  0.00     0.198 A 
ATOM     92  F   UNL A   1      41.852  22.260  28.837  1.00  0.00    -0.203 F 
ATOM     93  F   UNL A   1      44.016  22.204  23.859  1.00  0.00    -0.200 F 
ATOM     94  C   UNL A   1      43.107  21.060  25.707  1.00  0.00     0.200 A 
ATOM     95  F   UNL A   1      42.249  19.970  27.611  1.00  0.00    -0.200 F 
ATOM     96  F   UNL A   1      43.281  19.885  25.091  1.00  0.00    -0.200 F 
ENDBRANCH  63  86
ENDBRANCH  37  38
ENDBRANCH  30  32
ENDBRANCH  29  30
ENDBRANCH  28  29
ENDBRANCH  27  28
ENDBRANCH  26  27
ENDBRANCH  25  26
ENDBRANCH  24  25
ENDBRANCH  23  24
ENDBRANCH   1  23
TORSDOF 24
ENDMDL
MODEL 3
REMARK VINA RESULT:      -8.6      4.506     11.176
REMARK SMILES Cc1cccc(C(=O)OCCOCCOCCOCCOC(=O)c2ccc(-c3c4nc(c(-c5c(F)c(F)c(F)c(F)c5F)c5ccc([nH]5)c(-c5c(F)c(F)c(F)c(F)c5F)c5nc(c(-c6c(F)c(F)c(F)c(F)c6F)c6ccc3[nH]6)C=C5)C=C4)cc2)c1O[C@H](C)[C@H](C)O
REMARK SMILES IDX 14 1 13 2 12 3 11 4 10 5 9 6 7 7 8 8 6 9 1 10 2 11 3 12
REMARK SMILES IDX 87 13 4 14 5 15 88 16 89 17 90 18 91 19 92 20 93 21 15 23
REMARK SMILES IDX 16 24 17 25 18 26 19 27 20 28 21 29 22 30 23 31 24 32 25 33
REMARK SMILES IDX 86 34 26 35 85 36 27 37 28 38 29 39 79 40 30 41 84 42 78 43
REMARK SMILES IDX 80 44 31 45 83 46 77 47 76 48 32 50 64 51 44 52 63 53 45 54
REMARK SMILES IDX 48 55 62 56 81 57 46 58 47 59 61 61 82 62 49 63 33 64 34 65
REMARK SMILES IDX 42 66 35 67 36 68 40 69 43 70 37 71 38 72 41 73 39 74 65 75
REMARK SMILES IDX 66 76 74 77 67 78 68 79 72 80 75 81 69 82 70 83 73 84 71 85
REMARK SMILES IDX 50 86 51 87 59 88 52 89 53 90 57 91 60 92 54 93 55 94 58 95
REMARK SMILES IDX 56 96
REMARK H PARENT 93 22 80 49 48 60
REMARK Flexibility Score: inf
ROOT
ATOM      1  C   UNL A   1      39.764  20.517  26.190  1.00  0.00     0.188 C 
ENDROOT
BRANCH   1   2
ATOM      2  C   UNL A   1      41.219  20.820  26.501  1.00  0.00     0.188 C 
BRANCH   2   3
ATOM      3  O   UNL A   1      42.105  21.109  25.431  1.00  0.00    -0.376 OA
BRANCH   3   4
ATOM      4  C   UNL A   1      43.492  20.886  25.708  1.00  0.00     0.202 C 
BRANCH   4   5
ATOM      5  C   UNL A   1      44.436  21.580  24.737  1.00  0.00     0.261 C 
BRANCH   5   6
ATOM      6  O   UNL A   1      45.688  21.913  25.364  1.00  0.00    -0.460 OA
BRANCH   6   7
ATOM      7  C   UNL A   1      46.161  23.154  25.121  1.00  0.00     0.342 C 
ATOM      8  O   UNL A   1      46.321  23.612  24.014  1.00  0.00    -0.246 OA
BRANCH   7   9
ATOM      9  C   UNL A   1      46.179  24.032  26.355  1.00  0.00     0.102 A 
ATOM     10  C   UNL A   1      46.464  27.445  28.101  1.00  0.00     0.048 C 
ATOM     11  C   UNL A   1      46.223  25.969  27.847  1.00  0.00    -0.008 A 
ATOM     12  C   UNL A   1      45.549  25.241  28.829  1.00  0.00     0.007 A 
ATOM     13  C   UNL A   1      46.569  25.371  26.604  1.00  0.00     0.137 A 
ATOM     14  C   UNL A   1      45.259  23.905  28.630  1.00  0.00     0.001 A 
ATOM     15  C   UNL A   1      45.578  23.312  27.416  1.00  0.00     0.019 A 
BRANCH  13  16
ATOM     16  O   UNL A   1      47.194  26.337  25.870  1.00  0.00    -0.487 OA
BRANCH  16  17
ATOM     17  C   UNL A   1      48.241  26.134  24.947  1.00  0.00     0.198 C 
ATOM     18  C   UNL A   1      49.462  25.787  25.793  1.00  0.00     0.056 C 
BRANCH  17  19
ATOM     19  C   UNL A   1      48.115  27.183  23.806  1.00  0.00     0.151 C 
ATOM     20  C   UNL A   1      46.846  28.052  23.869  1.00  0.00     0.042 C 
BRANCH  19  21
ATOM     21  O   UNL A   1      48.145  26.612  22.530  1.00  0.00    -0.390 OA
ATOM     22  H   UNL A   1      49.063  26.560  22.220  1.00  0.00     0.211 HD
ENDBRANCH  19  21
ENDBRANCH  17  19
ENDBRANCH  16  17
ENDBRANCH  13  16
ENDBRANCH   7   9
ENDBRANCH   6   7
ENDBRANCH   5   6
ENDBRANCH   4   5
ENDBRANCH   3   4
ENDBRANCH   2   3
ENDBRANCH   1   2
BRANCH   1  23
ATOM     23  O   UNL A   1      39.025  21.638  25.709  1.00  0.00    -0.377 OA
BRANCH  23  24
ATOM     24  C   UNL A   1      37.862  21.391  24.939  1.00  0.00     0.188 C 
BRANCH  24  25
ATOM     25  C   UNL A   1      36.520  21.266  25.649  1.00  0.00     0.188 C 
BRANCH  25  26
ATOM     26  O   UNL A   1      35.819  22.453  25.905  1.00  0.00    -0.376 OA
BRANCH  26  27
ATOM     27  C   UNL A   1      34.921  22.923  24.911  1.00  0.00     0.202 C 
BRANCH  27  28
ATOM     28  C   UNL A   1      34.648  24.437  24.710  1.00  0.00     0.261 C 
BRANCH  28  29
ATOM     29  O   UNL A   1      33.918  25.027  25.822  1.00  0.00    -0.460 OA
BRANCH  29  30
ATOM     30  C   UNL A   1      32.837  25.811  25.516  1.00  0.00     0.338 C 
ATOM     31  O   UNL A   1      31.853  25.424  24.907  1.00  0.00    -0.246 OA
BRANCH  30  32
ATOM     32  C   UNL A   1      33.152  27.281  25.718  1.00  0.00     0.060 A 
ATOM     33  C   UNL A   1      34.246  27.849  25.054  1.00  0.00     0.016 A 
ATOM     34  C   UNL A   1      32.621  27.987  26.790  1.00  0.00     0.016 A 
ATOM     35  C   UNL A   1      34.936  28.943  25.618  1.00  0.00     0.010 A 
ATOM     36  C   UNL A   1      33.417  28.936  27.444  1.00  0.00     0.010 A 
ATOM     37  C   UNL A   1      34.627  29.397  26.906  1.00  0.00    -0.014 A 
BRANCH  37  38
ATOM     38  C   UNL A   1      35.595  30.117  27.798  1.00  0.00     0.031 A 
ATOM     39  C   UNL A   1      35.339  31.542  28.286  1.00  0.00     0.074 A 
ATOM     40  C   UNL A   1      36.569  29.408  28.441  1.00  0.00     0.049 A 
ATOM     41  N   UNL A   1      35.931  32.097  29.295  1.00  0.00    -0.248 NA
ATOM     42  C   UNL A   1      34.366  32.471  27.711  1.00  0.00     0.031 C 
ATOM     43  C   UNL A   1      37.190  29.803  29.694  1.00  0.00     0.029 A 
ATOM     44  N   UNL A   1      37.166  28.147  28.193  1.00  0.00    -0.354 N 
ATOM     45  C   UNL A   1      35.255  33.220  29.700  1.00  0.00     0.074 A 
ATOM     46  C   UNL A   1      34.317  33.449  28.632  1.00  0.00     0.031 C 
ATOM     47  C   UNL A   1      38.086  28.913  30.100  1.00  0.00     0.029 A 
ATOM     48  C   UNL A   1      38.326  28.058  29.000  1.00  0.00     0.049 A 
ATOM     49  H   UNL A   1      36.835  27.459  27.573  1.00  0.00     0.167 HD
ATOM     50  C   UNL A   1      35.516  33.740  30.942  1.00  0.00     0.037 A 
ATOM     51  C   UNL A   1      39.607  27.914  28.570  1.00  0.00     0.037 A 
ATOM     52  C   UNL A   1      36.745  33.168  31.541  1.00  0.00     0.049 A 
ATOM     53  C   UNL A   1      40.439  29.115  29.039  1.00  0.00     0.074 A 
ATOM     54  C   UNL A   1      37.068  32.585  32.757  1.00  0.00     0.029 A 
ATOM     55  N   UNL A   1      37.895  33.032  30.751  1.00  0.00    -0.354 N 
ATOM     56  N   UNL A   1      39.927  30.334  29.128  1.00  0.00    -0.248 NA
ATOM     57  C   UNL A   1      41.694  28.994  29.782  1.00  0.00     0.031 C 
ATOM     58  C   UNL A   1      38.343  31.949  32.617  1.00  0.00     0.029 A 
ATOM     59  C   UNL A   1      38.856  32.242  31.358  1.00  0.00     0.049 A 
ATOM     60  H   UNL A   1      38.006  33.452  29.868  1.00  0.00     0.167 HD
ATOM     61  C   UNL A   1      40.624  31.047  30.077  1.00  0.00     0.074 A 
ATOM     62  C   UNL A   1      41.763  30.190  30.401  1.00  0.00     0.031 C 
ATOM     63  C   UNL A   1      40.203  32.137  30.800  1.00  0.00     0.037 A 
BRANCH  50  64
ATOM     64  C   UNL A   1      34.592  34.686  31.718  1.00  0.00     0.064 A 
ATOM     65  C   UNL A   1      33.371  35.137  31.159  1.00  0.00     0.173 A 
ATOM     66  C   UNL A   1      34.902  35.273  32.966  1.00  0.00     0.173 A 
ATOM     67  F   UNL A   1      32.940  34.675  29.977  1.00  0.00    -0.203 F 
ATOM     68  C   UNL A   1      32.541  36.080  31.791  1.00  0.00     0.198 A 
ATOM     69  C   UNL A   1      34.045  36.172  33.622  1.00  0.00     0.198 A 
ATOM     70  F   UNL A   1      36.068  35.043  33.580  1.00  0.00    -0.203 F 
ATOM     71  F   UNL A   1      31.418  36.495  31.186  1.00  0.00    -0.200 F 
ATOM     72  C   UNL A   1      32.870  36.583  33.031  1.00  0.00     0.200 A 
ATOM     73  F   UNL A   1      34.379  36.648  34.832  1.00  0.00    -0.200 F 
ATOM     74  F   UNL A   1      32.066  37.463  33.648  1.00  0.00    -0.200 F 
ENDBRANCH  50  64
BRANCH  51  75
ATOM     75  C   UNL A   1      39.690  26.873  27.512  1.00  0.00     0.064 A 
ATOM     76  C   UNL A   1      40.540  27.254  26.440  1.00  0.00     0.173 A 
ATOM     77  C   UNL A   1      39.759  25.535  27.928  1.00  0.00     0.173 A 
ATOM     78  F   UNL A   1      40.489  28.511  25.966  1.00  0.00    -0.203 F 
ATOM     79  C   UNL A   1      41.619  26.454  26.061  1.00  0.00     0.198 A 
ATOM     80  C   UNL A   1      40.822  24.722  27.512  1.00  0.00     0.198 A 
ATOM     81  F   UNL A   1      38.972  25.105  28.925  1.00  0.00    -0.203 F 
ATOM     82  F   UNL A   1      42.570  26.949  25.252  1.00  0.00    -0.200 F 
ATOM     83  C   UNL A   1      41.791  25.212  26.645  1.00  0.00     0.200 A 
ATOM     84  F   UNL A   1      41.005  23.522  28.084  1.00  0.00    -0.200 F 
ATOM     85  F   UNL A   1      42.929  24.529  26.451  1.00  0.00    -0.200 F 
ENDBRANCH  51  75
BRANCH  63  86
ATOM     86  C   UNL A   1      41.117  33.334  30.966  1.00  0.00     0.064 A 
ATOM     87  C   UNL A   1      42.116  33.384  31.950  1.00  0.00     0.173 A 
ATOM     88  C   UNL A   1      41.163  34.371  29.996  1.00  0.00     0.173 A 
ATOM     89  F   UNL A   1      42.238  32.425  32.876  1.00  0.00    -0.203 F 
ATOM     90  C   UNL A   1      43.067  34.403  31.983  1.00  0.00     0.198 A 
ATOM     91  C   UNL A   1      42.144  35.357  30.005  1.00  0.00     0.198 A 
ATOM     92  F   UNL A   1      40.292  34.443  28.980  1.00  0.00    -0.203 F 
ATOM     93  F   UNL A   1      43.986  34.409  32.957  1.00  0.00    -0.200 F 
ATOM     94  C   UNL A   1      43.090  35.379  31.006  1.00  0.00     0.200 A 
ATOM     95  F   UNL A   1      42.186  36.265  29.019  1.00  0.00    -0.200 F 
ATOM     96  F   UNL A   1      44.034  36.328  31.021  1.00  0.00    -0.200 F 
ENDBRANCH  63  86
ENDBRANCH  37  38
ENDBRANCH  30  32
ENDBRANCH  29  30
ENDBRANCH  28  29
ENDBRANCH  27  28
ENDBRANCH  26  27
ENDBRANCH  25  26
ENDBRANCH  24  25
ENDBRANCH  23  24
ENDBRANCH   1  23
TORSDOF 24
ENDMDL
