MODEL 1
REMARK VINA RESULT:     -10.3      0.000      0.000
REMARK SMILES C[NH2+]C[C@@H](C)C(=O)N1CCC([N@@H+]2CCC[C@@H]2C(=O)OCCOCCOCCOCCOC(=O)c2ccc(-c3c4nc(c(-c5c(F)c(F)c(F)c(F)c5F)c5ccc([nH]5)c(-c5c(F)c(F)c(F)c(F)c5F)c5nc(c(-c6c(F)c(F)c(F)c(F)c6F)c6ccc3[nH]6)C=C5)C=C4)cc2)CC1
REMARK SMILES IDX 24 1 23 2 22 3 21 4 20 5 19 6 17 7 18 8 16 9 12 10 13 11
REMARK SMILES IDX 14 13 15 14 11 15 6 16 7 17 8 18 9 19 98 20 10 21 97 22 4 23
REMARK SMILES IDX 5 24 3 25 2 26 1 27 25 30 26 31 27 32 28 33 29 34 30 35
REMARK SMILES IDX 31 36 32 37 33 38 34 39 35 40 96 41 36 42 95 43 37 44 38 45
REMARK SMILES IDX 39 46 89 47 40 48 94 49 88 50 90 51 41 52 93 53 87 54 86 55
REMARK SMILES IDX 42 57 74 58 54 59 73 60 55 61 58 62 72 63 91 64 56 65 57 66
REMARK SMILES IDX 71 68 92 69 59 70 43 71 44 72 52 73 45 74 46 75 50 76 53 77
REMARK SMILES IDX 47 78 48 79 51 80 49 81 75 82 76 83 84 84 77 85 78 86 82 87
REMARK SMILES IDX 85 88 79 89 80 90 83 91 81 92 60 93 61 94 69 95 62 96 63 97
REMARK SMILES IDX 67 98 70 99 64 100 65 101 68 102 66 103
REMARK H PARENT 12 12 2 28 2 29 90 56 58 67
REMARK Flexibility Score: inf
ROOT
ATOM      1  C   UNL A   1      38.608  23.219  26.359  1.00  0.00     0.188 C 
ENDROOT
BRANCH   1   2
ATOM      2  C   UNL A   1      37.357  23.293  25.480  1.00  0.00     0.188 C 
BRANCH   2   3
ATOM      3  O   UNL A   1      36.301  24.157  25.866  1.00  0.00    -0.376 OA
BRANCH   3   4
ATOM      4  C   UNL A   1      35.110  23.658  26.454  1.00  0.00     0.202 C 
BRANCH   4   5
ATOM      5  C   UNL A   1      33.822  24.480  26.408  1.00  0.00     0.261 C 
BRANCH   5   6
ATOM      6  O   UNL A   1      33.975  25.810  25.882  1.00  0.00    -0.459 OA
BRANCH   6   7
ATOM      7  C   UNL A   1      32.883  26.620  25.924  1.00  0.00     0.365 C 
ATOM      8  O   UNL A   1      32.011  26.532  26.783  1.00  0.00    -0.245 OA
BRANCH   7   9
ATOM      9  C   UNL A   1      32.815  27.633  24.779  1.00  0.00     0.295 C 
ATOM     10  N   UNL A   1      31.913  27.312  23.634  1.00  0.00    -0.321 N 
ATOM     11  C   UNL A   1      32.232  28.385  22.668  1.00  0.00     0.263 C 
ATOM     12  H   UNL A   1      30.953  27.279  23.976  1.00  0.00     0.349 HD
ATOM     13  C   UNL A   1      33.723  28.669  22.793  1.00  0.00     0.068 C 
ATOM     14  C   UNL A   1      34.110  28.168  24.177  1.00  0.00     0.083 C 
BRANCH  10  15
ATOM     15  C   UNL A   1      31.930  25.958  23.023  1.00  0.00     0.188 C 
ATOM     16  C   UNL A   1      33.305  22.083  23.633  1.00  0.00     0.231 C 
ATOM     17  O   UNL A   1      34.543  22.147  23.624  1.00  0.00    -0.274 OA
ATOM     18  N   UNL A   1      32.554  23.109  23.081  1.00  0.00    -0.342 N 
ATOM     19  C   UNL A   1      33.192  23.970  22.096  1.00  0.00     0.125 C 
ATOM     20  C   UNL A   1      31.178  23.492  23.376  1.00  0.00     0.125 C 
ATOM     21  C   UNL A   1      33.298  25.403  22.590  1.00  0.00     0.086 C 
ATOM     22  C   UNL A   1      31.070  24.955  23.834  1.00  0.00     0.086 C 
BRANCH  16  23
ATOM     23  C   UNL A   1      32.665  20.775  24.138  1.00  0.00     0.130 C 
ATOM     24  C   UNL A   1      31.899  21.036  25.433  1.00  0.00     0.024 C 
BRANCH  23  25
ATOM     25  C   UNL A   1      33.568  19.534  24.169  1.00  0.00     0.273 C 
BRANCH  25  26
ATOM     26  N   UNL A   1      32.896  18.237  24.010  1.00  0.00    -0.348 N 
ATOM     27  C   UNL A   1      32.339  18.024  22.684  1.00  0.00     0.330 C 
ATOM     28  H   UNL A   1      33.574  17.497  24.198  1.00  0.00     0.346 HD
ATOM     29  H   UNL A   1      32.115  18.224  24.667  1.00  0.00     0.346 HD
ENDBRANCH  25  26
ENDBRANCH  23  25
ENDBRANCH  16  23
ENDBRANCH  10  15
ENDBRANCH   7   9
ENDBRANCH   6   7
ENDBRANCH   5   6
ENDBRANCH   4   5
ENDBRANCH   3   4
ENDBRANCH   2   3
ENDBRANCH   1   2
BRANCH   1  30
ATOM     30  O   UNL A   1      39.563  22.222  26.067  1.00  0.00    -0.377 OA
BRANCH  30  31
ATOM     31  C   UNL A   1      40.104  21.567  27.201  1.00  0.00     0.188 C 
BRANCH  31  32
ATOM     32  C   UNL A   1      40.910  20.308  26.855  1.00  0.00     0.188 C 
BRANCH  32  33
ATOM     33  O   UNL A   1      41.689  20.210  25.662  1.00  0.00    -0.376 OA
BRANCH  33  34
ATOM     34  C   UNL A   1      43.102  20.129  25.728  1.00  0.00     0.202 C 
BRANCH  34  35
ATOM     35  C   UNL A   1      43.858  21.441  25.449  1.00  0.00     0.261 C 
BRANCH  35  36
ATOM     36  O   UNL A   1      43.044  22.599  25.217  1.00  0.00    -0.460 OA
BRANCH  36  37
ATOM     37  C   UNL A   1      43.704  23.771  25.065  1.00  0.00     0.338 C 
ATOM     38  O   UNL A   1      44.625  24.022  24.306  1.00  0.00    -0.246 OA
BRANCH  37  39
ATOM     39  C   UNL A   1      43.059  24.780  25.932  1.00  0.00     0.060 A 
ATOM     40  C   UNL A   1      43.374  26.133  25.759  1.00  0.00     0.016 A 
ATOM     41  C   UNL A   1      42.160  24.383  26.926  1.00  0.00     0.016 A 
ATOM     42  C   UNL A   1      42.798  27.097  26.588  1.00  0.00     0.010 A 
ATOM     43  C   UNL A   1      41.612  25.343  27.779  1.00  0.00     0.010 A 
ATOM     44  C   UNL A   1      41.948  26.700  27.629  1.00  0.00    -0.014 A 
BRANCH  44  45
ATOM     45  C   UNL A   1      41.580  27.660  28.696  1.00  0.00     0.031 A 
ATOM     46  C   UNL A   1      42.407  27.667  29.951  1.00  0.00     0.074 A 
ATOM     47  C   UNL A   1      40.538  28.498  28.560  1.00  0.00     0.049 A 
ATOM     48  N   UNL A   1      42.214  28.308  31.074  1.00  0.00    -0.248 NA
ATOM     49  C   UNL A   1      43.623  26.834  29.934  1.00  0.00     0.031 C 
ATOM     50  C   UNL A   1      39.710  28.634  27.364  1.00  0.00     0.029 A 
ATOM     51  N   UNL A   1      39.989  29.382  29.455  1.00  0.00    -0.354 N 
ATOM     52  C   UNL A   1      43.282  27.964  31.890  1.00  0.00     0.074 A 
ATOM     53  C   UNL A   1      44.106  27.033  31.151  1.00  0.00     0.031 C 
ATOM     54  C   UNL A   1      38.736  29.530  27.611  1.00  0.00     0.029 A 
ATOM     55  C   UNL A   1      38.850  29.995  28.993  1.00  0.00     0.049 A 
ATOM     56  H   UNL A   1      40.375  29.560  30.343  1.00  0.00     0.167 HD
ATOM     57  C   UNL A   1      43.557  28.394  33.144  1.00  0.00     0.037 A 
ATOM     58  C   UNL A   1      37.984  30.804  29.634  1.00  0.00     0.037 A 
ATOM     59  C   UNL A   1      42.725  29.303  33.883  1.00  0.00     0.049 A 
ATOM     60  C   UNL A   1      38.239  31.160  31.079  1.00  0.00     0.074 A 
ATOM     61  C   UNL A   1      42.898  29.782  35.168  1.00  0.00     0.029 A 
ATOM     62  N   UNL A   1      41.554  29.865  33.398  1.00  0.00    -0.354 N 
ATOM     63  N   UNL A   1      39.250  30.833  31.848  1.00  0.00    -0.248 NA
ATOM     64  C   UNL A   1      37.226  31.990  31.748  1.00  0.00     0.031 C 
ATOM     65  C   UNL A   1      41.808  30.601  35.479  1.00  0.00     0.029 A 
ATOM     66  C   UNL A   1      40.981  30.669  34.370  1.00  0.00     0.049 A 
ATOM     67  H   UNL A   1      41.184  29.715  32.497  1.00  0.00     0.167 HD
ATOM     68  C   UNL A   1      39.012  31.443  33.074  1.00  0.00     0.074 A 
ATOM     69  C   UNL A   1      37.768  32.169  32.945  1.00  0.00     0.031 C 
ATOM     70  C   UNL A   1      39.752  31.402  34.210  1.00  0.00     0.037 A 
BRANCH  57  71
ATOM     71  C   UNL A   1      44.799  27.872  33.799  1.00  0.00     0.064 A 
ATOM     72  C   UNL A   1      44.766  26.753  34.643  1.00  0.00     0.173 A 
ATOM     73  C   UNL A   1      46.043  28.468  33.545  1.00  0.00     0.173 A 
ATOM     74  F   UNL A   1      43.598  26.159  34.930  1.00  0.00    -0.203 F 
ATOM     75  C   UNL A   1      45.931  26.258  35.222  1.00  0.00     0.198 A 
ATOM     76  C   UNL A   1      47.210  27.954  34.104  1.00  0.00     0.198 A 
ATOM     77  F   UNL A   1      46.129  29.541  32.744  1.00  0.00    -0.203 F 
ATOM     78  F   UNL A   1      45.871  25.209  36.053  1.00  0.00    -0.200 F 
ATOM     79  C   UNL A   1      47.153  26.853  34.945  1.00  0.00     0.200 A 
ATOM     80  F   UNL A   1      48.391  28.524  33.826  1.00  0.00    -0.200 F 
ATOM     81  F   UNL A   1      48.276  26.367  35.491  1.00  0.00    -0.200 F 
ENDBRANCH  57  71
BRANCH  58  82
ATOM     82  C   UNL A   1      36.762  31.302  28.945  1.00  0.00     0.064 A 
ATOM     83  C   UNL A   1      36.638  32.649  28.576  1.00  0.00     0.173 A 
ATOM     84  C   UNL A   1      35.667  30.458  28.702  1.00  0.00     0.173 A 
ATOM     85  F   UNL A   1      37.643  33.504  28.813  1.00  0.00    -0.203 F 
ATOM     86  C   UNL A   1      35.456  33.139  28.021  1.00  0.00     0.198 A 
ATOM     87  C   UNL A   1      34.499  30.942  28.117  1.00  0.00     0.198 A 
ATOM     88  F   UNL A   1      35.728  29.163  29.041  1.00  0.00    -0.203 F 
ATOM     89  F   UNL A   1      35.342  34.444  27.740  1.00  0.00    -0.200 F 
ATOM     90  C   UNL A   1      34.389  32.285  27.790  1.00  0.00     0.200 A 
ATOM     91  F   UNL A   1      33.474  30.111  27.885  1.00  0.00    -0.200 F 
ATOM     92  F   UNL A   1      33.251  32.757  27.265  1.00  0.00    -0.200 F 
ENDBRANCH  58  82
BRANCH  70  93
ATOM     93  C   UNL A   1      39.265  32.195  35.386  1.00  0.00     0.064 A 
ATOM     94  C   UNL A   1      38.493  31.608  36.398  1.00  0.00     0.173 A 
ATOM     95  C   UNL A   1      39.631  33.542  35.535  1.00  0.00     0.173 A 
ATOM     96  F   UNL A   1      38.104  30.328  36.295  1.00  0.00    -0.203 F 
ATOM     97  C   UNL A   1      38.090  32.346  37.508  1.00  0.00     0.198 A 
ATOM     98  C   UNL A   1      39.252  34.267  36.660  1.00  0.00     0.198 A 
ATOM     99  F   UNL A   1      40.376  34.147  34.599  1.00  0.00    -0.203 F 
ATOM    100  F   UNL A   1      37.319  31.775  38.445  1.00  0.00    -0.200 F 
ATOM    101  C   UNL A   1      38.478  33.671  37.643  1.00  0.00     0.200 A 
ATOM    102  F   UNL A   1      39.640  35.543  36.797  1.00  0.00    -0.200 F 
ATOM    103  F   UNL A   1      38.101  34.374  38.720  1.00  0.00    -0.200 F 
ENDBRANCH  70  93
ENDBRANCH  44  45
ENDBRANCH  37  39
ENDBRANCH  36  37
ENDBRANCH  35  36
ENDBRANCH  34  35
ENDBRANCH  33  34
ENDBRANCH  32  33
ENDBRANCH  31  32
ENDBRANCH  30  31
ENDBRANCH   1  30
TORSDOF 24
ENDMDL
MODEL 2
REMARK VINA RESULT:     -10.3      1.288      2.322
REMARK SMILES C[NH2+]C[C@@H](C)C(=O)N1CCC([N@@H+]2CCC[C@@H]2C(=O)OCCOCCOCCOCCOC(=O)c2ccc(-c3c4nc(c(-c5c(F)c(F)c(F)c(F)c5F)c5ccc([nH]5)c(-c5c(F)c(F)c(F)c(F)c5F)c5nc(c(-c6c(F)c(F)c(F)c(F)c6F)c6ccc3[nH]6)C=C5)C=C4)cc2)CC1
REMARK SMILES IDX 24 1 23 2 22 3 21 4 20 5 19 6 17 7 18 8 16 9 12 10 13 11
REMARK SMILES IDX 14 13 15 14 11 15 6 16 7 17 8 18 9 19 98 20 10 21 97 22 4 23
REMARK SMILES IDX 5 24 3 25 2 26 1 27 25 30 26 31 27 32 28 33 29 34 30 35
REMARK SMILES IDX 31 36 32 37 33 38 34 39 35 40 96 41 36 42 95 43 37 44 38 45
REMARK SMILES IDX 39 46 89 47 40 48 94 49 88 50 90 51 41 52 93 53 87 54 86 55
REMARK SMILES IDX 42 57 74 58 54 59 73 60 55 61 58 62 72 63 91 64 56 65 57 66
REMARK SMILES IDX 71 68 92 69 59 70 43 71 44 72 52 73 45 74 46 75 50 76 53 77
REMARK SMILES IDX 47 78 48 79 51 80 49 81 75 82 76 83 84 84 77 85 78 86 82 87
REMARK SMILES IDX 85 88 79 89 80 90 83 91 81 92 60 93 61 94 69 95 62 96 63 97
REMARK SMILES IDX 67 98 70 99 64 100 65 101 68 102 66 103
REMARK H PARENT 12 12 2 28 2 29 90 56 58 67
REMARK Flexibility Score: inf
ROOT
ATOM      1  C   UNL A   1      38.499  21.695  25.634  1.00  0.00     0.188 C 
ENDROOT
BRANCH   1   2
ATOM      2  C   UNL A   1      37.070  22.232  25.742  1.00  0.00     0.188 C 
BRANCH   2   3
ATOM      3  O   UNL A   1      36.648  23.238  24.834  1.00  0.00    -0.376 OA
BRANCH   3   4
ATOM      4  C   UNL A   1      36.026  22.911  23.601  1.00  0.00     0.202 C 
BRANCH   4   5
ATOM      5  C   UNL A   1      34.663  23.501  23.242  1.00  0.00     0.261 C 
BRANCH   5   6
ATOM      6  O   UNL A   1      34.542  24.917  23.469  1.00  0.00    -0.459 OA
BRANCH   6   7
ATOM      7  C   UNL A   1      33.315  25.470  23.270  1.00  0.00     0.365 C 
ATOM      8  O   UNL A   1      32.633  25.259  22.273  1.00  0.00    -0.245 OA
BRANCH   7   9
ATOM      9  C   UNL A   1      32.871  26.415  24.389  1.00  0.00     0.295 C 
ATOM     10  N   UNL A   1      32.966  25.909  25.790  1.00  0.00    -0.321 N 
ATOM     11  C   UNL A   1      32.304  26.982  26.562  1.00  0.00     0.263 C 
ATOM     12  H   UNL A   1      33.947  25.733  26.006  1.00  0.00     0.349 HD
ATOM     13  C   UNL A   1      31.163  27.510  25.703  1.00  0.00     0.068 C 
ATOM     14  C   UNL A   1      31.530  27.132  24.275  1.00  0.00     0.083 C 
BRANCH  10  15
ATOM     15  C   UNL A   1      32.463  24.554  26.133  1.00  0.00     0.188 C 
ATOM     16  C   UNL A   1      32.560  20.589  24.890  1.00  0.00     0.231 C 
ATOM     17  O   UNL A   1      32.007  20.558  23.781  1.00  0.00    -0.274 OA
ATOM     18  N   UNL A   1      32.353  21.666  25.737  1.00  0.00    -0.342 N 
ATOM     19  C   UNL A   1      31.154  22.470  25.542  1.00  0.00     0.125 C 
ATOM     20  C   UNL A   1      33.205  22.155  26.815  1.00  0.00     0.125 C 
ATOM     21  C   UNL A   1      31.496  23.894  25.135  1.00  0.00     0.086 C 
ATOM     22  C   UNL A   1      33.606  23.625  26.614  1.00  0.00     0.086 C 
BRANCH  16  23
ATOM     23  C   UNL A   1      33.344  19.337  25.327  1.00  0.00     0.130 C 
ATOM     24  C   UNL A   1      34.742  19.357  24.712  1.00  0.00     0.024 C 
BRANCH  23  25
ATOM     25  C   UNL A   1      32.614  17.991  25.212  1.00  0.00     0.273 C 
BRANCH  25  26
ATOM     26  N   UNL A   1      33.119  16.903  26.060  1.00  0.00    -0.348 N 
ATOM     27  C   UNL A   1      32.820  15.575  25.549  1.00  0.00     0.330 C 
ATOM     28  H   UNL A   1      34.132  16.998  26.137  1.00  0.00     0.346 HD
ATOM     29  H   UNL A   1      32.651  16.987  26.963  1.00  0.00     0.346 HD
ENDBRANCH  25  26
ENDBRANCH  23  25
ENDBRANCH  16  23
ENDBRANCH  10  15
ENDBRANCH   7   9
ENDBRANCH   6   7
ENDBRANCH   5   6
ENDBRANCH   4   5
ENDBRANCH   3   4
ENDBRANCH   2   3
ENDBRANCH   1   2
BRANCH   1  30
ATOM     30  O   UNL A   1      39.345  21.838  26.755  1.00  0.00    -0.377 OA
BRANCH  30  31
ATOM     31  C   UNL A   1      40.646  22.313  26.459  1.00  0.00     0.188 C 
BRANCH  31  32
ATOM     32  C   UNL A   1      41.660  21.192  26.190  1.00  0.00     0.188 C 
BRANCH  32  33
ATOM     33  O   UNL A   1      42.715  21.336  25.238  1.00  0.00    -0.376 OA
BRANCH  33  34
ATOM     34  C   UNL A   1      43.999  20.798  25.499  1.00  0.00     0.202 C 
BRANCH  34  35
ATOM     35  C   UNL A   1      45.153  21.816  25.541  1.00  0.00     0.261 C 
BRANCH  35  36
ATOM     36  O   UNL A   1      44.923  22.996  26.322  1.00  0.00    -0.460 OA
BRANCH  36  37
ATOM     37  C   UNL A   1      44.762  24.149  25.630  1.00  0.00     0.338 C 
ATOM     38  O   UNL A   1      45.105  24.391  24.485  1.00  0.00    -0.246 OA
BRANCH  37  39
ATOM     39  C   UNL A   1      43.996  25.091  26.473  1.00  0.00     0.060 A 
ATOM     40  C   UNL A   1      44.192  26.468  26.312  1.00  0.00     0.016 A 
ATOM     41  C   UNL A   1      43.103  24.610  27.434  1.00  0.00     0.016 A 
ATOM     42  C   UNL A   1      43.500  27.372  27.120  1.00  0.00     0.010 A 
ATOM     43  C   UNL A   1      42.438  25.513  28.267  1.00  0.00     0.010 A 
ATOM     44  C   UNL A   1      42.653  26.895  28.129  1.00  0.00    -0.014 A 
BRANCH  44  45
ATOM     45  C   UNL A   1      42.160  27.814  29.181  1.00  0.00     0.031 A 
ATOM     46  C   UNL A   1      42.930  27.882  30.471  1.00  0.00     0.074 A 
ATOM     47  C   UNL A   1      41.058  28.562  29.003  1.00  0.00     0.049 A 
ATOM     48  N   UNL A   1      42.635  28.498  31.586  1.00  0.00    -0.248 NA
ATOM     49  C   UNL A   1      44.211  27.156  30.504  1.00  0.00     0.031 C 
ATOM     50  C   UNL A   1      40.273  28.635  27.774  1.00  0.00     0.029 A 
ATOM     51  N   UNL A   1      40.399  29.391  29.877  1.00  0.00    -0.354 N 
ATOM     52  C   UNL A   1      43.694  28.240  32.447  1.00  0.00     0.074 A 
ATOM     53  C   UNL A   1      44.624  27.386  31.741  1.00  0.00     0.031 C 
ATOM     54  C   UNL A   1      39.217  29.444  27.981  1.00  0.00     0.029 A 
ATOM     55  C   UNL A   1      39.233  29.908  29.367  1.00  0.00     0.049 A 
ATOM     56  H   UNL A   1      40.731  29.595  30.781  1.00  0.00     0.167 HD
ATOM     57  C   UNL A   1      43.877  28.683  33.712  1.00  0.00     0.037 A 
ATOM     58  C   UNL A   1      38.275  30.637  29.973  1.00  0.00     0.037 A 
ATOM     59  C   UNL A   1      42.940  29.514  34.418  1.00  0.00     0.049 A 
ATOM     60  C   UNL A   1      38.437  31.004  31.429  1.00  0.00     0.074 A 
ATOM     61  C   UNL A   1      43.018  29.997  35.711  1.00  0.00     0.029 A 
ATOM     62  N   UNL A   1      41.748  29.978  33.885  1.00  0.00    -0.354 N 
ATOM     63  N   UNL A   1      39.439  30.759  32.240  1.00  0.00    -0.248 NA
ATOM     64  C   UNL A   1      37.330  31.741  32.057  1.00  0.00     0.031 C 
ATOM     65  C   UNL A   1      41.850  30.719  35.977  1.00  0.00     0.029 A 
ATOM     66  C   UNL A   1      41.068  30.725  34.833  1.00  0.00     0.049 A 
ATOM     67  H   UNL A   1      41.431  29.804  32.969  1.00  0.00     0.167 HD
ATOM     68  C   UNL A   1      39.098  31.338  33.457  1.00  0.00     0.074 A 
ATOM     69  C   UNL A   1      37.803  31.958  33.276  1.00  0.00     0.031 C 
ATOM     70  C   UNL A   1      39.790  31.353  34.622  1.00  0.00     0.037 A 
BRANCH  57  71
ATOM     71  C   UNL A   1      45.130  28.264  34.419  1.00  0.00     0.064 A 
ATOM     72  C   UNL A   1      46.278  29.069  34.410  1.00  0.00     0.173 A 
ATOM     73  C   UNL A   1      45.171  27.068  35.150  1.00  0.00     0.173 A 
ATOM     74  F   UNL A   1      46.294  30.214  33.711  1.00  0.00    -0.203 F 
ATOM     75  C   UNL A   1      47.427  28.685  35.096  1.00  0.00     0.198 A 
ATOM     76  C   UNL A   1      46.313  26.699  35.856  1.00  0.00     0.198 A 
ATOM     77  F   UNL A   1      44.099  26.262  35.190  1.00  0.00    -0.203 F 
ATOM     78  F   UNL A   1      48.524  29.453  35.045  1.00  0.00    -0.200 F 
ATOM     79  C   UNL A   1      47.441  27.506  35.826  1.00  0.00     0.200 A 
ATOM     80  F   UNL A   1      46.320  25.565  36.570  1.00  0.00    -0.200 F 
ATOM     81  F   UNL A   1      48.543  27.144  36.497  1.00  0.00    -0.200 F 
ENDBRANCH  57  71
BRANCH  58  82
ATOM     82  C   UNL A   1      37.046  31.035  29.234  1.00  0.00     0.064 A 
ATOM     83  C   UNL A   1      36.046  30.099  28.933  1.00  0.00     0.173 A 
ATOM     84  C   UNL A   1      36.876  32.343  28.754  1.00  0.00     0.173 A 
ATOM     85  F   UNL A   1      36.174  28.828  29.342  1.00  0.00    -0.203 F 
ATOM     86  C   UNL A   1      34.943  30.447  28.155  1.00  0.00     0.198 A 
ATOM     87  C   UNL A   1      35.756  32.698  28.005  1.00  0.00     0.198 A 
ATOM     88  F   UNL A   1      37.804  33.278  29.006  1.00  0.00    -0.203 F 
ATOM     89  F   UNL A   1      34.037  29.515  27.828  1.00  0.00    -0.200 F 
ATOM     90  C   UNL A   1      34.797  31.746  27.695  1.00  0.00     0.200 A 
ATOM     91  F   UNL A   1      35.614  33.958  27.571  1.00  0.00    -0.200 F 
ATOM     92  F   UNL A   1      33.741  32.078  26.941  1.00  0.00    -0.200 F 
ENDBRANCH  58  82
BRANCH  70  93
ATOM     93  C   UNL A   1      39.187  32.095  35.779  1.00  0.00     0.064 A 
ATOM     94  C   UNL A   1      38.349  31.457  36.704  1.00  0.00     0.173 A 
ATOM     95  C   UNL A   1      39.506  33.443  36.001  1.00  0.00     0.173 A 
ATOM     96  F   UNL A   1      38.003  30.172  36.528  1.00  0.00    -0.203 F 
ATOM     97  C   UNL A   1      37.838  32.147  37.800  1.00  0.00     0.198 A 
ATOM     98  C   UNL A   1      39.018  34.121  37.114  1.00  0.00     0.198 A 
ATOM     99  F   UNL A   1      40.311  34.096  35.150  1.00  0.00    -0.203 F 
ATOM    100  F   UNL A   1      37.007  31.528  38.650  1.00  0.00    -0.200 F 
ATOM    101  C   UNL A   1      38.181  33.474  38.009  1.00  0.00     0.200 A 
ATOM    102  F   UNL A   1      39.362  35.400  37.323  1.00  0.00    -0.200 F 
ATOM    103  F   UNL A   1      37.699  34.132  39.073  1.00  0.00    -0.200 F 
ENDBRANCH  70  93
ENDBRANCH  44  45
ENDBRANCH  37  39
ENDBRANCH  36  37
ENDBRANCH  35  36
ENDBRANCH  34  35
ENDBRANCH  33  34
ENDBRANCH  32  33
ENDBRANCH  31  32
ENDBRANCH  30  31
ENDBRANCH   1  30
TORSDOF 24
ENDMDL
MODEL 3
REMARK VINA RESULT:     -10.3      4.810      9.940
REMARK SMILES C[NH2+]C[C@@H](C)C(=O)N1CCC([N@@H+]2CCC[C@@H]2C(=O)OCCOCCOCCOCCOC(=O)c2ccc(-c3c4nc(c(-c5c(F)c(F)c(F)c(F)c5F)c5ccc([nH]5)c(-c5c(F)c(F)c(F)c(F)c5F)c5nc(c(-c6c(F)c(F)c(F)c(F)c6F)c6ccc3[nH]6)C=C5)C=C4)cc2)CC1
REMARK SMILES IDX 24 1 23 2 22 3 21 4 20 5 19 6 17 7 18 8 16 9 12 10 13 11
REMARK SMILES IDX 14 13 15 14 11 15 6 16 7 17 8 18 9 19 98 20 10 21 97 22 4 23
REMARK SMILES IDX 5 24 3 25 2 26 1 27 25 30 26 31 27 32 28 33 29 34 30 35
REMARK SMILES IDX 31 36 32 37 33 38 34 39 35 40 96 41 36 42 95 43 37 44 38 45
REMARK SMILES IDX 39 46 89 47 40 48 94 49 88 50 90 51 41 52 93 53 87 54 86 55
REMARK SMILES IDX 42 57 74 58 54 59 73 60 55 61 58 62 72 63 91 64 56 65 57 66
REMARK SMILES IDX 71 68 92 69 59 70 43 71 44 72 52 73 45 74 46 75 50 76 53 77
REMARK SMILES IDX 47 78 48 79 51 80 49 81 75 82 76 83 84 84 77 85 78 86 82 87
REMARK SMILES IDX 85 88 79 89 80 90 83 91 81 92 60 93 61 94 69 95 62 96 63 97
REMARK SMILES IDX 67 98 70 99 64 100 65 101 68 102 66 103
REMARK H PARENT 12 12 2 28 2 29 90 56 58 67
REMARK Flexibility Score: inf
ROOT
ATOM      1  C   UNL A   1      33.429  33.629  27.927  1.00  0.00     0.188 C 
ENDROOT
BRANCH   1   2
ATOM      2  C   UNL A   1      33.780  32.140  27.862  1.00  0.00     0.188 C 
BRANCH   2   3
ATOM      3  O   UNL A   1      32.841  31.241  27.292  1.00  0.00    -0.376 OA
BRANCH   3   4
ATOM      4  C   UNL A   1      33.256  30.090  26.574  1.00  0.00     0.202 C 
BRANCH   4   5
ATOM      5  C   UNL A   1      33.379  28.741  27.280  1.00  0.00     0.261 C 
BRANCH   5   6
ATOM      6  O   UNL A   1      32.547  27.700  26.738  1.00  0.00    -0.459 OA
BRANCH   6   7
ATOM      7  C   UNL A   1      32.706  27.408  25.418  1.00  0.00     0.365 C 
ATOM      8  O   UNL A   1      33.708  26.865  24.963  1.00  0.00    -0.245 OA
BRANCH   7   9
ATOM      9  C   UNL A   1      31.535  27.852  24.538  1.00  0.00     0.295 C 
ATOM     10  N   UNL A   1      30.285  27.038  24.600  1.00  0.00    -0.321 N 
ATOM     11  C   UNL A   1      29.466  27.632  23.522  1.00  0.00     0.263 C 
ATOM     12  H   UNL A   1      29.906  27.099  25.544  1.00  0.00     0.349 HD
ATOM     13  C   UNL A   1      30.420  28.022  22.400  1.00  0.00     0.068 C 
ATOM     14  C   UNL A   1      31.782  28.160  23.065  1.00  0.00     0.083 C 
BRANCH  10  15
ATOM     15  C   UNL A   1      30.352  25.557  24.529  1.00  0.00     0.188 C 
ATOM     16  C   UNL A   1      32.964  22.349  24.944  1.00  0.00     0.231 C 
ATOM     17  O   UNL A   1      33.809  22.471  24.046  1.00  0.00    -0.274 OA
ATOM     18  N   UNL A   1      31.753  23.018  24.850  1.00  0.00    -0.342 N 
ATOM     19  C   UNL A   1      31.301  23.434  23.530  1.00  0.00     0.125 C 
ATOM     20  C   UNL A   1      30.845  23.414  25.921  1.00  0.00     0.125 C 
ATOM     21  C   UNL A   1      31.222  24.948  23.417  1.00  0.00     0.086 C 
ATOM     22  C   UNL A   1      30.583  24.928  25.927  1.00  0.00     0.086 C 
BRANCH  16  23
ATOM     23  C   UNL A   1      33.256  21.330  26.061  1.00  0.00     0.130 C 
ATOM     24  C   UNL A   1      34.309  21.890  27.015  1.00  0.00     0.024 C 
BRANCH  23  25
ATOM     25  C   UNL A   1      33.498  19.878  25.623  1.00  0.00     0.273 C 
BRANCH  25  26
ATOM     26  N   UNL A   1      32.771  18.844  26.372  1.00  0.00    -0.348 N 
ATOM     27  C   UNL A   1      32.755  17.547  25.714  1.00  0.00     0.330 C 
ATOM     28  H   UNL A   1      33.214  18.736  27.286  1.00  0.00     0.346 HD
ATOM     29  H   UNL A   1      31.802  19.153  26.444  1.00  0.00     0.346 HD
ENDBRANCH  25  26
ENDBRANCH  23  25
ENDBRANCH  16  23
ENDBRANCH  10  15
ENDBRANCH   7   9
ENDBRANCH   6   7
ENDBRANCH   5   6
ENDBRANCH   4   5
ENDBRANCH   3   4
ENDBRANCH   2   3
ENDBRANCH   1   2
BRANCH   1  30
ATOM     30  O   UNL A   1      32.829  34.115  29.109  1.00  0.00    -0.377 OA
BRANCH  30  31
ATOM     31  C   UNL A   1      33.505  35.205  29.712  1.00  0.00     0.188 C 
BRANCH  31  32
ATOM     32  C   UNL A   1      32.767  35.787  30.925  1.00  0.00     0.188 C 
BRANCH  32  33
ATOM     33  O   UNL A   1      32.874  35.210  32.227  1.00  0.00    -0.376 OA
BRANCH  33  34
ATOM     34  C   UNL A   1      34.141  35.048  32.841  1.00  0.00     0.202 C 
BRANCH  34  35
ATOM     35  C   UNL A   1      34.369  33.702  33.552  1.00  0.00     0.261 C 
BRANCH  35  36
ATOM     36  O   UNL A   1      35.510  32.948  33.122  1.00  0.00    -0.460 OA
BRANCH  36  37
ATOM     37  C   UNL A   1      35.402  32.338  31.917  1.00  0.00     0.338 C 
ATOM     38  O   UNL A   1      34.393  32.144  31.261  1.00  0.00    -0.246 OA
BRANCH  37  39
ATOM     39  C   UNL A   1      36.763  32.002  31.448  1.00  0.00     0.060 A 
ATOM     40  C   UNL A   1      37.061  32.106  30.084  1.00  0.00     0.016 A 
ATOM     41  C   UNL A   1      37.733  31.565  32.353  1.00  0.00     0.016 A 
ATOM     42  C   UNL A   1      38.332  31.763  29.617  1.00  0.00     0.010 A 
ATOM     43  C   UNL A   1      38.993  31.188  31.882  1.00  0.00     0.010 A 
ATOM     44  C   UNL A   1      39.288  31.262  30.510  1.00  0.00    -0.014 A 
BRANCH  44  45
ATOM     45  C   UNL A   1      40.515  30.610  29.996  1.00  0.00     0.031 A 
ATOM     46  C   UNL A   1      41.754  31.452  29.863  1.00  0.00     0.074 A 
ATOM     47  C   UNL A   1      40.530  29.312  29.649  1.00  0.00     0.049 A 
ATOM     48  N   UNL A   1      42.906  31.158  29.319  1.00  0.00    -0.248 NA
ATOM     49  C   UNL A   1      41.681  32.812  30.424  1.00  0.00     0.031 C 
ATOM     50  C   UNL A   1      39.416  28.381  29.802  1.00  0.00     0.029 A 
ATOM     51  N   UNL A   1      41.525  28.560  29.076  1.00  0.00    -0.354 N 
ATOM     52  C   UNL A   1      43.694  32.290  29.479  1.00  0.00     0.074 A 
ATOM     53  C   UNL A   1      42.883  33.288  30.141  1.00  0.00     0.031 C 
ATOM     54  C   UNL A   1      39.779  27.184  29.305  1.00  0.00     0.029 A 
ATOM     55  C   UNL A   1      41.134  27.280  28.763  1.00  0.00     0.049 A 
ATOM     56  H   UNL A   1      42.432  28.904  28.906  1.00  0.00     0.167 HD
ATOM     57  C   UNL A   1      44.983  32.477  29.113  1.00  0.00     0.037 A 
ATOM     58  C   UNL A   1      41.788  26.320  28.081  1.00  0.00     0.037 A 
ATOM     59  C   UNL A   1      45.779  31.490  28.437  1.00  0.00     0.049 A 
ATOM     60  C   UNL A   1      43.178  26.601  27.562  1.00  0.00     0.074 A 
ATOM     61  C   UNL A   1      47.087  31.587  27.999  1.00  0.00     0.029 A 
ATOM     62  N   UNL A   1      45.333  30.223  28.095  1.00  0.00    -0.354 N 
ATOM     63  N   UNL A   1      43.921  27.672  27.715  1.00  0.00    -0.248 NA
ATOM     64  C   UNL A   1      43.817  25.543  26.765  1.00  0.00     0.031 C 
ATOM     65  C   UNL A   1      47.420  30.393  27.351  1.00  0.00     0.029 A 
ATOM     66  C   UNL A   1      46.334  29.535  27.429  1.00  0.00     0.049 A 
ATOM     67  H   UNL A   1      44.437  29.864  28.295  1.00  0.00     0.167 HD
ATOM     68  C   UNL A   1      45.120  27.403  27.066  1.00  0.00     0.074 A 
ATOM     69  C   UNL A   1      45.013  26.064  26.529  1.00  0.00     0.031 C 
ATOM     70  C   UNL A   1      46.212  28.193  26.922  1.00  0.00     0.037 A 
BRANCH  57  71
ATOM     71  C   UNL A   1      45.607  33.804  29.423  1.00  0.00     0.064 A 
ATOM     72  C   UNL A   1      46.308  34.020  30.618  1.00  0.00     0.173 A 
ATOM     73  C   UNL A   1      45.542  34.856  28.498  1.00  0.00     0.173 A 
ATOM     74  F   UNL A   1      46.383  33.051  31.542  1.00  0.00    -0.203 F 
ATOM     75  C   UNL A   1      46.910  35.248  30.882  1.00  0.00     0.198 A 
ATOM     76  C   UNL A   1      46.167  36.074  28.754  1.00  0.00     0.198 A 
ATOM     77  F   UNL A   1      44.883  34.700  27.340  1.00  0.00    -0.203 F 
ATOM     78  F   UNL A   1      47.546  35.444  32.045  1.00  0.00    -0.200 F 
ATOM     79  C   UNL A   1      46.847  36.269  29.947  1.00  0.00     0.200 A 
ATOM     80  F   UNL A   1      46.115  37.056  27.844  1.00  0.00    -0.200 F 
ATOM     81  F   UNL A   1      47.439  37.446  30.196  1.00  0.00    -0.200 F 
ENDBRANCH  57  71
BRANCH  58  82
ATOM     82  C   UNL A   1      41.133  25.014  27.797  1.00  0.00     0.064 A 
ATOM     83  C   UNL A   1      41.626  23.822  28.346  1.00  0.00     0.173 A 
ATOM     84  C   UNL A   1      40.043  24.922  26.917  1.00  0.00     0.173 A 
ATOM     85  F   UNL A   1      42.685  23.851  29.168  1.00  0.00    -0.203 F 
ATOM     86  C   UNL A   1      41.076  22.588  28.002  1.00  0.00     0.198 A 
ATOM     87  C   UNL A   1      39.473  23.691  26.600  1.00  0.00     0.198 A 
ATOM     88  F   UNL A   1      39.535  26.029  26.357  1.00  0.00    -0.203 F 
ATOM     89  F   UNL A   1      41.611  21.460  28.491  1.00  0.00    -0.200 F 
ATOM     90  C   UNL A   1      39.999  22.523  27.132  1.00  0.00     0.200 A 
ATOM     91  F   UNL A   1      38.425  23.634  25.767  1.00  0.00    -0.200 F 
ATOM     92  F   UNL A   1      39.476  21.337  26.795  1.00  0.00    -0.200 F 
ENDBRANCH  58  82
BRANCH  70  93
ATOM     93  C   UNL A   1      47.393  27.621  26.195  1.00  0.00     0.064 A 
ATOM     94  C   UNL A   1      47.531  27.746  24.805  1.00  0.00     0.173 A 
ATOM     95  C   UNL A   1      48.431  26.999  26.905  1.00  0.00     0.173 A 
ATOM     96  F   UNL A   1      46.559  28.320  24.079  1.00  0.00    -0.203 F 
ATOM     97  C   UNL A   1      48.656  27.254  24.151  1.00  0.00     0.198 A 
ATOM     98  C   UNL A   1      49.569  26.535  26.252  1.00  0.00     0.198 A 
ATOM     99  F   UNL A   1      48.352  26.863  28.237  1.00  0.00    -0.203 F 
ATOM    100  F   UNL A   1      48.749  27.349  22.818  1.00  0.00    -0.200 F 
ATOM    101  C   UNL A   1      49.678  26.658  24.876  1.00  0.00     0.200 A 
ATOM    102  F   UNL A   1      50.562  25.973  26.955  1.00  0.00    -0.200 F 
ATOM    103  F   UNL A   1      50.768  26.197  24.245  1.00  0.00    -0.200 F 
ENDBRANCH  70  93
ENDBRANCH  44  45
ENDBRANCH  37  39
ENDBRANCH  36  37
ENDBRANCH  35  36
ENDBRANCH  34  35
ENDBRANCH  33  34
ENDBRANCH  32  33
ENDBRANCH  31  32
ENDBRANCH  30  31
ENDBRANCH   1  30
TORSDOF 24
ENDMDL
