MODEL 1
REMARK VINA RESULT:      -9.2      0.000      0.000
REMARK SMILES C[C@@H](Oc1ccc(-c2ccccc2)cc1)C(=O)N1CCC[C@H](C(=O)OCCOCCOCCOCCOC(=O)c2ccc(-c3c4nc(c(-c5c(F)c(F)c(F)c(F)c5F)c5ccc([nH]5)c(-c5c(F)c(F)c(F)c(F)c5F)c5nc(c(-c6c(F)c(F)c(F)c(F)c6F)c6ccc3[nH]6)C=C5)C=C4)cc2)C1
REMARK SMILES IDX 29 1 28 2 27 3 26 4 25 5 23 6 24 7 22 8 18 9 19 10 103 11
REMARK SMILES IDX 20 12 21 13 16 14 17 15 2 16 1 17 3 18 4 19 5 20 15 21 6 22
REMARK SMILES IDX 14 23 7 24 8 25 9 26 13 27 10 28 12 29 11 30 30 31 31 32
REMARK SMILES IDX 32 33 33 34 34 35 35 36 36 37 37 38 38 39 39 40 40 41 41 42
REMARK SMILES IDX 102 43 42 44 101 45 43 46 44 47 45 48 95 49 46 50 100 51
REMARK SMILES IDX 94 52 96 53 47 54 99 55 93 56 92 57 48 59 80 60 60 61 79 62
REMARK SMILES IDX 61 63 64 64 78 65 97 66 62 67 63 68 77 70 98 71 65 72 49 73
REMARK SMILES IDX 50 74 58 75 51 76 52 77 56 78 59 79 53 80 54 81 57 82 55 83
REMARK SMILES IDX 81 84 82 85 90 86 83 87 84 88 88 89 91 90 85 91 86 92 89 93
REMARK SMILES IDX 87 94 66 95 67 96 75 97 68 98 69 99 73 100 76 101 70 102
REMARK SMILES IDX 71 103 74 104 72 105
REMARK H PARENT 96 58 64 69
REMARK Flexibility Score: inf
ROOT
ATOM      1  C   UNL A   1      38.281  29.298  29.662  1.00  0.00     0.188 C 
ENDROOT
BRANCH   1   2
ATOM      2  O   UNL A   1      37.261  30.219  29.360  1.00  0.00    -0.376 OA
BRANCH   2   3
ATOM      3  C   UNL A   1      36.021  29.801  28.823  1.00  0.00     0.202 C 
BRANCH   3   4
ATOM      4  C   UNL A   1      35.718  29.544  27.336  1.00  0.00     0.261 C 
BRANCH   4   5
ATOM      5  O   UNL A   1      34.375  29.682  26.860  1.00  0.00    -0.463 OA
BRANCH   5   6
ATOM      6  C   UNL A   1      33.599  28.573  26.915  1.00  0.00     0.310 C 
ATOM      7  O   UNL A   1      34.028  27.430  26.781  1.00  0.00    -0.252 OA
BRANCH   6   8
ATOM      8  C   UNL A   1      32.106  28.841  27.056  1.00  0.00     0.119 C 
ATOM      9  N   UNL A   1      31.480  27.532  25.100  1.00  0.00    -0.339 N 
ATOM     10  C   UNL A   1      30.840  28.643  24.408  1.00  0.00     0.119 C 
ATOM     11  C   UNL A   1      31.391  27.586  26.562  1.00  0.00     0.134 C 
ATOM     12  C   UNL A   1      31.397  29.984  24.867  1.00  0.00     0.022 C 
ATOM     13  C   UNL A   1      31.473  30.071  26.391  1.00  0.00     0.019 C 
BRANCH   9  14
ATOM     14  C   UNL A   1      32.257  26.629  24.382  1.00  0.00     0.263 C 
ATOM     15  O   UNL A   1      33.282  26.984  23.790  1.00  0.00    -0.271 OA
BRANCH  14  16
ATOM     16  C   UNL A   1      31.790  25.164  24.292  1.00  0.00     0.259 C 
ATOM     17  C   UNL A   1      30.281  25.037  24.107  1.00  0.00     0.064 C 
BRANCH  16  18
ATOM     18  O   UNL A   1      32.550  24.595  23.220  1.00  0.00    -0.481 OA
BRANCH  18  19
ATOM     19  C   UNL A   1      32.780  23.264  23.342  1.00  0.00     0.120 A 
ATOM     20  C   UNL A   1      32.112  22.384  22.498  1.00  0.00     0.047 A 
ATOM     21  C   UNL A   1      33.521  22.804  24.420  1.00  0.00     0.047 A 
ATOM     22  C   UNL A   1      32.199  21.013  22.736  1.00  0.00     0.012 A 
ATOM     23  C   UNL A   1      33.618  21.439  24.646  1.00  0.00     0.012 A 
ATOM     24  C   UNL A   1      32.943  20.521  23.824  1.00  0.00    -0.018 A 
BRANCH  24  25
ATOM     25  C   UNL A   1      32.991  19.089  24.139  1.00  0.00    -0.018 A 
ATOM     26  C   UNL A   1      33.251  18.130  23.149  1.00  0.00     0.009 A 
ATOM     27  C   UNL A   1      32.798  18.648  25.461  1.00  0.00     0.009 A 
ATOM     28  C   UNL A   1      33.336  16.775  23.477  1.00  0.00     0.001 A 
ATOM     29  C   UNL A   1      32.885  17.296  25.788  1.00  0.00     0.001 A 
ATOM     30  C   UNL A   1      33.158  16.360  24.795  1.00  0.00     0.000 A 
ENDBRANCH  24  25
ENDBRANCH  18  19
ENDBRANCH  16  18
ENDBRANCH  14  16
ENDBRANCH   9  14
ENDBRANCH   6   8
ENDBRANCH   5   6
ENDBRANCH   4   5
ENDBRANCH   3   4
ENDBRANCH   2   3
ENDBRANCH   1   2
BRANCH   1  31
ATOM     31  C   UNL A   1      39.083  28.744  28.476  1.00  0.00     0.188 C 
BRANCH  31  32
ATOM     32  O   UNL A   1      39.299  27.346  28.384  1.00  0.00    -0.377 OA
BRANCH  32  33
ATOM     33  C   UNL A   1      40.121  26.811  27.351  1.00  0.00     0.188 C 
BRANCH  33  34
ATOM     34  C   UNL A   1      40.784  25.428  27.497  1.00  0.00     0.188 C 
BRANCH  34  35
ATOM     35  O   UNL A   1      41.282  24.873  26.292  1.00  0.00    -0.376 OA
BRANCH  35  36
ATOM     36  C   UNL A   1      42.201  23.795  26.381  1.00  0.00     0.202 C 
BRANCH  36  37
ATOM     37  C   UNL A   1      43.546  23.949  25.653  1.00  0.00     0.261 C 
BRANCH  37  38
ATOM     38  O   UNL A   1      43.763  25.210  24.996  1.00  0.00    -0.460 OA
BRANCH  38  39
ATOM     39  C   UNL A   1      44.958  25.804  25.168  1.00  0.00     0.338 C 
ATOM     40  O   UNL A   1      46.015  25.526  24.619  1.00  0.00    -0.246 OA
BRANCH  39  41
ATOM     41  C   UNL A   1      44.767  26.993  26.017  1.00  0.00     0.060 A 
ATOM     42  C   UNL A   1      45.850  27.459  26.771  1.00  0.00     0.016 A 
ATOM     43  C   UNL A   1      43.515  27.607  26.110  1.00  0.00     0.016 A 
ATOM     44  C   UNL A   1      45.666  28.497  27.681  1.00  0.00     0.010 A 
ATOM     45  C   UNL A   1      43.327  28.635  27.036  1.00  0.00     0.010 A 
ATOM     46  C   UNL A   1      44.388  29.042  27.865  1.00  0.00    -0.014 A 
BRANCH  46  47
ATOM     47  C   UNL A   1      44.128  29.834  29.091  1.00  0.00     0.031 A 
ATOM     48  C   UNL A   1      44.054  31.332  28.962  1.00  0.00     0.074 A 
ATOM     49  C   UNL A   1      43.884  29.242  30.272  1.00  0.00     0.049 A 
ATOM     50  N   UNL A   1      43.809  32.239  29.873  1.00  0.00    -0.248 NA
ATOM     51  C   UNL A   1      44.284  31.884  27.616  1.00  0.00     0.031 C 
ATOM     52  C   UNL A   1      43.881  27.801  30.511  1.00  0.00     0.029 A 
ATOM     53  N   UNL A   1      43.585  29.789  31.494  1.00  0.00    -0.354 N 
ATOM     54  C   UNL A   1      43.859  33.460  29.213  1.00  0.00     0.074 A 
ATOM     55  C   UNL A   1      44.197  33.186  27.835  1.00  0.00     0.031 C 
ATOM     56  C   UNL A   1      43.595  27.576  31.805  1.00  0.00     0.029 A 
ATOM     57  C   UNL A   1      43.420  28.857  32.488  1.00  0.00     0.049 A 
ATOM     58  H   UNL A   1      43.496  30.758  31.643  1.00  0.00     0.167 HD
ATOM     59  C   UNL A   1      43.629  34.699  29.707  1.00  0.00     0.037 A 
ATOM     60  C   UNL A   1      43.169  29.027  33.801  1.00  0.00     0.037 A 
ATOM     61  C   UNL A   1      43.294  34.970  31.080  1.00  0.00     0.049 A 
ATOM     62  C   UNL A   1      42.983  30.423  34.341  1.00  0.00     0.074 A 
ATOM     63  C   UNL A   1      43.042  36.189  31.684  1.00  0.00     0.029 A 
ATOM     64  N   UNL A   1      43.172  34.002  32.066  1.00  0.00    -0.354 N 
ATOM     65  N   UNL A   1      43.014  31.572  33.708  1.00  0.00    -0.248 NA
ATOM     66  C   UNL A   1      42.712  30.543  35.780  1.00  0.00     0.031 C 
ATOM     67  C   UNL A   1      42.825  35.964  33.047  1.00  0.00     0.029 A 
ATOM     68  C   UNL A   1      42.867  34.599  33.279  1.00  0.00     0.049 A 
ATOM     69  H   UNL A   1      43.284  33.035  31.925  1.00  0.00     0.167 HD
ATOM     70  C   UNL A   1      42.726  32.544  34.661  1.00  0.00     0.074 A 
ATOM     71  C   UNL A   1      42.511  31.846  35.911  1.00  0.00     0.031 C 
ATOM     72  C   UNL A   1      42.642  33.890  34.513  1.00  0.00     0.037 A 
BRANCH  59  73
ATOM     73  C   UNL A   1      43.764  35.858  28.761  1.00  0.00     0.064 A 
ATOM     74  C   UNL A   1      45.003  36.468  28.504  1.00  0.00     0.173 A 
ATOM     75  C   UNL A   1      42.639  36.356  28.086  1.00  0.00     0.173 A 
ATOM     76  F   UNL A   1      46.107  36.044  29.137  1.00  0.00    -0.203 F 
ATOM     77  C   UNL A   1      45.103  37.549  27.632  1.00  0.00     0.198 A 
ATOM     78  C   UNL A   1      42.749  37.414  27.188  1.00  0.00     0.198 A 
ATOM     79  F   UNL A   1      41.430  35.811  28.292  1.00  0.00    -0.203 F 
ATOM     80  F   UNL A   1      46.286  38.151  27.447  1.00  0.00    -0.200 F 
ATOM     81  C   UNL A   1      43.979  38.016  26.969  1.00  0.00     0.200 A 
ATOM     82  F   UNL A   1      41.663  37.856  26.538  1.00  0.00    -0.200 F 
ATOM     83  F   UNL A   1      44.078  39.052  26.125  1.00  0.00    -0.200 F 
ENDBRANCH  59  73
BRANCH  60  84
ATOM     84  C   UNL A   1      43.077  27.847  34.702  1.00  0.00     0.064 A 
ATOM     85  C   UNL A   1      44.160  27.456  35.502  1.00  0.00     0.173 A 
ATOM     86  C   UNL A   1      41.915  27.062  34.752  1.00  0.00     0.173 A 
ATOM     87  F   UNL A   1      45.303  28.157  35.470  1.00  0.00    -0.203 F 
ATOM     88  C   UNL A   1      44.094  26.313  36.298  1.00  0.00     0.198 A 
ATOM     89  C   UNL A   1      41.838  25.939  35.572  1.00  0.00     0.198 A 
ATOM     90  F   UNL A   1      40.852  27.388  34.002  1.00  0.00    -0.203 F 
ATOM     91  F   UNL A   1      45.165  25.931  37.006  1.00  0.00    -0.200 F 
ATOM     92  C   UNL A   1      42.931  25.558  36.336  1.00  0.00     0.200 A 
ATOM     93  F   UNL A   1      40.709  25.218  35.613  1.00  0.00    -0.200 F 
ATOM     94  F   UNL A   1      42.869  24.458  37.097  1.00  0.00    -0.200 F 
ENDBRANCH  60  84
BRANCH  72  95
ATOM     95  C   UNL A   1      42.237  34.692  35.719  1.00  0.00     0.064 A 
ATOM     96  C   UNL A   1      43.180  35.288  36.570  1.00  0.00     0.173 A 
ATOM     97  C   UNL A   1      40.878  34.880  36.017  1.00  0.00     0.173 A 
ATOM     98  F   UNL A   1      44.492  35.135  36.338  1.00  0.00    -0.203 F 
ATOM     99  C   UNL A   1      42.778  36.002  37.697  1.00  0.00     0.198 A 
ATOM    100  C   UNL A   1      40.479  35.627  37.121  1.00  0.00     0.198 A 
ATOM    101  F   UNL A   1      39.932  34.344  35.230  1.00  0.00    -0.203 F 
ATOM    102  F   UNL A   1      43.698  36.503  38.533  1.00  0.00    -0.200 F 
ATOM    103  C   UNL A   1      41.430  36.175  37.969  1.00  0.00     0.200 A 
ATOM    104  F   UNL A   1      39.175  35.810  37.370  1.00  0.00    -0.200 F 
ATOM    105  F   UNL A   1      41.045  36.862  39.053  1.00  0.00    -0.200 F 
ENDBRANCH  72  95
ENDBRANCH  46  47
ENDBRANCH  39  41
ENDBRANCH  38  39
ENDBRANCH  37  38
ENDBRANCH  36  37
ENDBRANCH  35  36
ENDBRANCH  34  35
ENDBRANCH  33  34
ENDBRANCH  32  33
ENDBRANCH  31  32
ENDBRANCH   1  31
TORSDOF 25
ENDMDL
MODEL 2
REMARK VINA RESULT:      -9.2      3.714      9.317
REMARK SMILES C[C@@H](Oc1ccc(-c2ccccc2)cc1)C(=O)N1CCC[C@H](C(=O)OCCOCCOCCOCCOC(=O)c2ccc(-c3c4nc(c(-c5c(F)c(F)c(F)c(F)c5F)c5ccc([nH]5)c(-c5c(F)c(F)c(F)c(F)c5F)c5nc(c(-c6c(F)c(F)c(F)c(F)c6F)c6ccc3[nH]6)C=C5)C=C4)cc2)C1
REMARK SMILES IDX 29 1 28 2 27 3 26 4 25 5 23 6 24 7 22 8 18 9 19 10 103 11
REMARK SMILES IDX 20 12 21 13 16 14 17 15 2 16 1 17 3 18 4 19 5 20 15 21 6 22
REMARK SMILES IDX 14 23 7 24 8 25 9 26 13 27 10 28 12 29 11 30 30 31 31 32
REMARK SMILES IDX 32 33 33 34 34 35 35 36 36 37 37 38 38 39 39 40 40 41 41 42
REMARK SMILES IDX 102 43 42 44 101 45 43 46 44 47 45 48 95 49 46 50 100 51
REMARK SMILES IDX 94 52 96 53 47 54 99 55 93 56 92 57 48 59 80 60 60 61 79 62
REMARK SMILES IDX 61 63 64 64 78 65 97 66 62 67 63 68 77 70 98 71 65 72 49 73
REMARK SMILES IDX 50 74 58 75 51 76 52 77 56 78 59 79 53 80 54 81 57 82 55 83
REMARK SMILES IDX 81 84 82 85 90 86 83 87 84 88 88 89 91 90 85 91 86 92 89 93
REMARK SMILES IDX 87 94 66 95 67 96 75 97 68 98 69 99 73 100 76 101 70 102
REMARK SMILES IDX 71 103 74 104 72 105
REMARK H PARENT 96 58 64 69
REMARK Flexibility Score: inf
ROOT
ATOM      1  C   UNL A   1      40.368  23.138  27.522  1.00  0.00     0.188 C 
ENDROOT
BRANCH   1   2
ATOM      2  O   UNL A   1      39.442  24.198  27.524  1.00  0.00    -0.376 OA
BRANCH   2   3
ATOM      3  C   UNL A   1      38.475  24.337  26.502  1.00  0.00     0.202 C 
BRANCH   3   4
ATOM      4  C   UNL A   1      37.519  23.239  26.003  1.00  0.00     0.261 C 
BRANCH   4   5
ATOM      5  O   UNL A   1      36.132  23.544  25.823  1.00  0.00    -0.463 OA
BRANCH   5   6
ATOM      6  C   UNL A   1      35.262  22.521  25.997  1.00  0.00     0.310 C 
ATOM      7  O   UNL A   1      34.785  22.206  27.085  1.00  0.00    -0.252 OA
BRANCH   6   8
ATOM      8  C   UNL A   1      34.981  21.697  24.747  1.00  0.00     0.119 C 
ATOM      9  N   UNL A   1      32.618  22.279  24.649  1.00  0.00    -0.339 N 
ATOM     10  C   UNL A   1      32.148  20.903  24.737  1.00  0.00     0.119 C 
ATOM     11  C   UNL A   1      33.905  22.446  23.966  1.00  0.00     0.134 C 
ATOM     12  C   UNL A   1      33.169  20.006  25.424  1.00  0.00     0.022 C 
ATOM     13  C   UNL A   1      34.575  20.221  24.867  1.00  0.00     0.019 C 
BRANCH   9  14
ATOM     14  C   UNL A   1      31.948  23.282  25.341  1.00  0.00     0.263 C 
ATOM     15  O   UNL A   1      31.620  23.144  26.524  1.00  0.00    -0.271 OA
BRANCH  14  16
ATOM     16  C   UNL A   1      31.569  24.571  24.587  1.00  0.00     0.259 C 
ATOM     17  C   UNL A   1      30.671  24.307  23.381  1.00  0.00     0.064 C 
BRANCH  16  18
ATOM     18  O   UNL A   1      30.970  25.418  25.574  1.00  0.00    -0.481 OA
BRANCH  18  19
ATOM     19  C   UNL A   1      31.686  26.534  25.861  1.00  0.00     0.120 A 
ATOM     20  C   UNL A   1      32.819  26.821  25.109  1.00  0.00     0.047 A 
ATOM     21  C   UNL A   1      31.382  27.253  27.008  1.00  0.00     0.047 A 
ATOM     22  C   UNL A   1      33.660  27.858  25.512  1.00  0.00     0.012 A 
ATOM     23  C   UNL A   1      32.212  28.294  27.399  1.00  0.00     0.012 A 
ATOM     24  C   UNL A   1      33.375  28.601  26.672  1.00  0.00    -0.018 A 
BRANCH  24  25
ATOM     25  C   UNL A   1      34.281  29.648  27.158  1.00  0.00    -0.018 A 
ATOM     26  C   UNL A   1      33.823  30.946  27.425  1.00  0.00     0.009 A 
ATOM     27  C   UNL A   1      35.638  29.358  27.390  1.00  0.00     0.009 A 
ATOM     28  C   UNL A   1      34.692  31.917  27.929  1.00  0.00     0.001 A 
ATOM     29  C   UNL A   1      36.504  30.327  27.895  1.00  0.00     0.001 A 
ATOM     30  C   UNL A   1      36.029  31.605  28.168  1.00  0.00     0.000 A 
ENDBRANCH  24  25
ENDBRANCH  18  19
ENDBRANCH  16  18
ENDBRANCH  14  16
ENDBRANCH   9  14
ENDBRANCH   6   8
ENDBRANCH   5   6
ENDBRANCH   4   5
ENDBRANCH   3   4
ENDBRANCH   2   3
ENDBRANCH   1   2
BRANCH   1  31
ATOM     31  C   UNL A   1      41.840  23.509  27.749  1.00  0.00     0.188 C 
BRANCH  31  32
ATOM     32  O   UNL A   1      42.851  22.604  27.338  1.00  0.00    -0.377 OA
BRANCH  32  33
ATOM     33  C   UNL A   1      44.053  23.086  26.746  1.00  0.00     0.188 C 
BRANCH  33  34
ATOM     34  C   UNL A   1      44.206  23.177  25.215  1.00  0.00     0.188 C 
BRANCH  34  35
ATOM     35  O   UNL A   1      43.759  24.393  24.641  1.00  0.00    -0.376 OA
BRANCH  35  36
ATOM     36  C   UNL A   1      43.762  25.558  25.452  1.00  0.00     0.202 C 
BRANCH  36  37
ATOM     37  C   UNL A   1      42.878  26.733  25.006  1.00  0.00     0.261 C 
BRANCH  37  38
ATOM     38  O   UNL A   1      41.717  26.989  25.816  1.00  0.00    -0.460 OA
BRANCH  38  39
ATOM     39  C   UNL A   1      41.721  28.101  26.573  1.00  0.00     0.338 C 
ATOM     40  O   UNL A   1      41.212  29.183  26.312  1.00  0.00    -0.246 OA
BRANCH  39  41
ATOM     41  C   UNL A   1      42.298  27.767  27.887  1.00  0.00     0.060 A 
ATOM     42  C   UNL A   1      41.462  27.219  28.867  1.00  0.00     0.016 A 
ATOM     43  C   UNL A   1      43.639  28.044  28.166  1.00  0.00     0.016 A 
ATOM     44  C   UNL A   1      41.945  27.016  30.156  1.00  0.00     0.010 A 
ATOM     45  C   UNL A   1      44.118  27.857  29.465  1.00  0.00     0.010 A 
ATOM     46  C   UNL A   1      43.254  27.398  30.477  1.00  0.00    -0.014 A 
BRANCH  46  47
ATOM     47  C   UNL A   1      43.614  27.558  31.906  1.00  0.00     0.031 A 
ATOM     48  C   UNL A   1      44.272  26.397  32.603  1.00  0.00     0.074 A 
ATOM     49  C   UNL A   1      43.439  28.724  32.549  1.00  0.00     0.049 A 
ATOM     50  N   UNL A   1      44.708  26.297  33.833  1.00  0.00    -0.248 NA
ATOM     51  C   UNL A   1      44.469  25.179  31.799  1.00  0.00     0.031 C 
ATOM     52  C   UNL A   1      42.857  29.931  31.967  1.00  0.00     0.029 A 
ATOM     53  N   UNL A   1      43.742  29.080  33.839  1.00  0.00    -0.354 N 
ATOM     54  C   UNL A   1      45.224  25.013  33.948  1.00  0.00     0.074 A 
ATOM     55  C   UNL A   1      45.013  24.354  32.679  1.00  0.00     0.031 C 
ATOM     56  C   UNL A   1      42.844  30.900  32.900  1.00  0.00     0.029 A 
ATOM     57  C   UNL A   1      43.391  30.371  34.150  1.00  0.00     0.049 A 
ATOM     58  H   UNL A   1      44.170  28.469  34.481  1.00  0.00     0.167 HD
ATOM     59  C   UNL A   1      45.834  24.438  35.011  1.00  0.00     0.037 A 
ATOM     60  C   UNL A   1      43.494  31.039  35.315  1.00  0.00     0.037 A 
ATOM     61  C   UNL A   1      46.042  25.095  36.273  1.00  0.00     0.049 A 
ATOM     62  C   UNL A   1      44.116  30.353  36.506  1.00  0.00     0.074 A 
ATOM     63  C   UNL A   1      46.648  24.602  37.415  1.00  0.00     0.029 A 
ATOM     64  N   UNL A   1      45.641  26.392  36.561  1.00  0.00    -0.354 N 
ATOM     65  N   UNL A   1      44.618  29.145  36.602  1.00  0.00    -0.248 NA
ATOM     66  C   UNL A   1      44.199  31.133  37.748  1.00  0.00     0.031 C 
ATOM     67  C   UNL A   1      46.561  25.579  38.412  1.00  0.00     0.029 A 
ATOM     68  C   UNL A   1      45.968  26.708  37.870  1.00  0.00     0.049 A 
ATOM     69  H   UNL A   1      45.190  26.997  35.929  1.00  0.00     0.167 HD
ATOM     70  C   UNL A   1      45.112  29.036  37.898  1.00  0.00     0.074 A 
ATOM     71  C   UNL A   1      44.859  30.307  38.545  1.00  0.00     0.031 C 
ATOM     72  C   UNL A   1      45.723  27.983  38.496  1.00  0.00     0.037 A 
BRANCH  59  73
ATOM     73  C   UNL A   1      46.291  23.015  34.860  1.00  0.00     0.064 A 
ATOM     74  C   UNL A   1      47.628  22.689  34.579  1.00  0.00     0.173 A 
ATOM     75  C   UNL A   1      45.380  21.958  35.015  1.00  0.00     0.173 A 
ATOM     76  F   UNL A   1      48.536  23.660  34.402  1.00  0.00    -0.203 F 
ATOM     77  C   UNL A   1      48.026  21.363  34.431  1.00  0.00     0.198 A 
ATOM     78  C   UNL A   1      45.789  20.633  34.901  1.00  0.00     0.198 A 
ATOM     79  F   UNL A   1      44.090  22.212  35.285  1.00  0.00    -0.203 F 
ATOM     80  F   UNL A   1      49.296  21.079  34.107  1.00  0.00    -0.200 F 
ATOM     81  C   UNL A   1      47.110  20.336  34.600  1.00  0.00     0.200 A 
ATOM     82  F   UNL A   1      44.905  19.642  35.078  1.00  0.00    -0.200 F 
ATOM     83  F   UNL A   1      47.497  19.061  34.464  1.00  0.00    -0.200 F 
ENDBRANCH  59  73
BRANCH  60  84
ATOM     84  C   UNL A   1      42.997  32.437  35.420  1.00  0.00     0.064 A 
ATOM     85  C   UNL A   1      43.845  33.530  35.191  1.00  0.00     0.173 A 
ATOM     86  C   UNL A   1      41.671  32.709  35.788  1.00  0.00     0.173 A 
ATOM     87  F   UNL A   1      45.129  33.324  34.863  1.00  0.00    -0.203 F 
ATOM     88  C   UNL A   1      43.394  34.839  35.352  1.00  0.00     0.198 A 
ATOM     89  C   UNL A   1      41.212  34.018  35.917  1.00  0.00     0.198 A 
ATOM     90  F   UNL A   1      40.820  31.701  36.025  1.00  0.00    -0.203 F 
ATOM     91  F   UNL A   1      44.243  35.862  35.185  1.00  0.00    -0.200 F 
ATOM     92  C   UNL A   1      42.076  35.082  35.710  1.00  0.00     0.200 A 
ATOM     93  F   UNL A   1      39.936  34.248  36.254  1.00  0.00    -0.200 F 
ATOM     94  F   UNL A   1      41.644  36.340  35.868  1.00  0.00    -0.200 F 
ENDBRANCH  60  84
BRANCH  72  95
ATOM     95  C   UNL A   1      46.222  28.182  39.901  1.00  0.00     0.064 A 
ATOM     96  C   UNL A   1      47.451  28.800  40.176  1.00  0.00     0.173 A 
ATOM     97  C   UNL A   1      45.445  27.760  40.991  1.00  0.00     0.173 A 
ATOM     98  F   UNL A   1      48.238  29.216  39.173  1.00  0.00    -0.203 F 
ATOM     99  C   UNL A   1      47.902  28.946  41.487  1.00  0.00     0.198 A 
ATOM    100  C   UNL A   1      45.881  27.943  42.300  1.00  0.00     0.198 A 
ATOM    101  F   UNL A   1      44.255  27.174  40.788  1.00  0.00    -0.203 F 
ATOM    102  F   UNL A   1      49.111  29.477  41.721  1.00  0.00    -0.200 F 
ATOM    103  C   UNL A   1      47.116  28.522  42.546  1.00  0.00     0.200 A 
ATOM    104  F   UNL A   1      45.110  27.551  43.323  1.00  0.00    -0.200 F 
ATOM    105  F   UNL A   1      47.552  28.664  43.805  1.00  0.00    -0.200 F 
ENDBRANCH  72  95
ENDBRANCH  46  47
ENDBRANCH  39  41
ENDBRANCH  38  39
ENDBRANCH  37  38
ENDBRANCH  36  37
ENDBRANCH  35  36
ENDBRANCH  34  35
ENDBRANCH  33  34
ENDBRANCH  32  33
ENDBRANCH  31  32
ENDBRANCH   1  31
TORSDOF 25
ENDMDL
MODEL 3
REMARK VINA RESULT:      -9.1      4.287      9.203
REMARK SMILES C[C@@H](Oc1ccc(-c2ccccc2)cc1)C(=O)N1CCC[C@H](C(=O)OCCOCCOCCOCCOC(=O)c2ccc(-c3c4nc(c(-c5c(F)c(F)c(F)c(F)c5F)c5ccc([nH]5)c(-c5c(F)c(F)c(F)c(F)c5F)c5nc(c(-c6c(F)c(F)c(F)c(F)c6F)c6ccc3[nH]6)C=C5)C=C4)cc2)C1
REMARK SMILES IDX 29 1 28 2 27 3 26 4 25 5 23 6 24 7 22 8 18 9 19 10 103 11
REMARK SMILES IDX 20 12 21 13 16 14 17 15 2 16 1 17 3 18 4 19 5 20 15 21 6 22
REMARK SMILES IDX 14 23 7 24 8 25 9 26 13 27 10 28 12 29 11 30 30 31 31 32
REMARK SMILES IDX 32 33 33 34 34 35 35 36 36 37 37 38 38 39 39 40 40 41 41 42
REMARK SMILES IDX 102 43 42 44 101 45 43 46 44 47 45 48 95 49 46 50 100 51
REMARK SMILES IDX 94 52 96 53 47 54 99 55 93 56 92 57 48 59 80 60 60 61 79 62
REMARK SMILES IDX 61 63 64 64 78 65 97 66 62 67 63 68 77 70 98 71 65 72 49 73
REMARK SMILES IDX 50 74 58 75 51 76 52 77 56 78 59 79 53 80 54 81 57 82 55 83
REMARK SMILES IDX 81 84 82 85 90 86 83 87 84 88 88 89 91 90 85 91 86 92 89 93
REMARK SMILES IDX 87 94 66 95 67 96 75 97 68 98 69 99 73 100 76 101 70 102
REMARK SMILES IDX 71 103 74 104 72 105
REMARK H PARENT 96 58 64 69
REMARK Flexibility Score: inf
ROOT
ATOM      1  C   UNL A   1      45.911  32.613  26.414  1.00  0.00     0.188 C 
ENDROOT
BRANCH   1   2
ATOM      2  O   UNL A   1      46.224  31.345  25.889  1.00  0.00    -0.376 OA
BRANCH   2   3
ATOM      3  C   UNL A   1      46.913  30.376  26.655  1.00  0.00     0.202 C 
BRANCH   3   4
ATOM      4  C   UNL A   1      46.623  28.865  26.677  1.00  0.00     0.261 C 
BRANCH   4   5
ATOM      5  O   UNL A   1      45.438  28.388  27.323  1.00  0.00    -0.463 OA
BRANCH   5   6
ATOM      6  C   UNL A   1      44.305  28.387  26.580  1.00  0.00     0.310 C 
ATOM      7  O   UNL A   1      44.268  28.093  25.387  1.00  0.00    -0.252 OA
BRANCH   6   8
ATOM      8  C   UNL A   1      43.061  28.885  27.305  1.00  0.00     0.119 C 
ATOM      9  N   UNL A   1      42.093  26.669  27.591  1.00  0.00    -0.339 N 
ATOM     10  C   UNL A   1      40.866  26.976  26.869  1.00  0.00     0.119 C 
ATOM     11  C   UNL A   1      42.682  27.802  28.311  1.00  0.00     0.134 C 
ATOM     12  C   UNL A   1      41.070  28.113  25.877  1.00  0.00     0.022 C 
ATOM     13  C   UNL A   1      41.811  29.289  26.510  1.00  0.00     0.019 C 
BRANCH   9  14
ATOM     14  C   UNL A   1      42.705  25.432  27.417  1.00  0.00     0.263 C 
ATOM     15  O   UNL A   1      43.741  25.133  28.019  1.00  0.00    -0.271 OA
BRANCH  14  16
ATOM     16  C   UNL A   1      42.091  24.441  26.411  1.00  0.00     0.259 C 
ATOM     17  C   UNL A   1      43.117  23.890  25.425  1.00  0.00     0.064 C 
BRANCH  16  18
ATOM     18  O   UNL A   1      41.466  23.433  27.213  1.00  0.00    -0.481 OA
BRANCH  18  19
ATOM     19  C   UNL A   1      40.200  23.124  26.836  1.00  0.00     0.120 A 
ATOM     20  C   UNL A   1      39.948  21.877  26.275  1.00  0.00     0.047 A 
ATOM     21  C   UNL A   1      39.233  24.119  26.842  1.00  0.00     0.047 A 
ATOM     22  C   UNL A   1      38.696  21.622  25.718  1.00  0.00     0.012 A 
ATOM     23  C   UNL A   1      37.983  23.857  26.301  1.00  0.00     0.012 A 
ATOM     24  C   UNL A   1      37.699  22.614  25.711  1.00  0.00    -0.018 A 
BRANCH  24  25
ATOM     25  C   UNL A   1      36.398  22.394  25.067  1.00  0.00    -0.018 A 
ATOM     26  C   UNL A   1      35.501  21.427  25.542  1.00  0.00     0.009 A 
ATOM     27  C   UNL A   1      36.015  23.175  23.962  1.00  0.00     0.009 A 
ATOM     28  C   UNL A   1      34.250  21.264  24.943  1.00  0.00     0.001 A 
ATOM     29  C   UNL A   1      34.765  23.013  23.366  1.00  0.00     0.001 A 
ATOM     30  C   UNL A   1      33.882  22.059  23.860  1.00  0.00     0.000 A 
ENDBRANCH  24  25
ENDBRANCH  18  19
ENDBRANCH  16  18
ENDBRANCH  14  16
ENDBRANCH   9  14
ENDBRANCH   6   8
ENDBRANCH   5   6
ENDBRANCH   4   5
ENDBRANCH   3   4
ENDBRANCH   2   3
ENDBRANCH   1   2
BRANCH   1  31
ATOM     31  C   UNL A   1      47.096  33.526  26.759  1.00  0.00     0.188 C 
BRANCH  31  32
ATOM     32  O   UNL A   1      48.026  33.863  25.744  1.00  0.00    -0.377 OA
BRANCH  32  33
ATOM     33  C   UNL A   1      48.440  35.214  25.566  1.00  0.00     0.188 C 
BRANCH  33  34
ATOM     34  C   UNL A   1      47.460  36.383  25.784  1.00  0.00     0.188 C 
BRANCH  34  35
ATOM     35  O   UNL A   1      48.003  37.670  25.547  1.00  0.00    -0.376 OA
BRANCH  35  36
ATOM     36  C   UNL A   1      47.670  38.714  26.450  1.00  0.00     0.202 C 
BRANCH  36  37
ATOM     37  C   UNL A   1      46.719  39.811  25.945  1.00  0.00     0.261 C 
BRANCH  37  38
ATOM     38  O   UNL A   1      45.331  39.445  25.855  1.00  0.00    -0.460 OA
BRANCH  38  39
ATOM     39  C   UNL A   1      44.511  39.869  26.834  1.00  0.00     0.338 C 
ATOM     40  O   UNL A   1      44.155  41.017  27.063  1.00  0.00    -0.246 OA
BRANCH  39  41
ATOM     41  C   UNL A   1      43.946  38.689  27.510  1.00  0.00     0.060 A 
ATOM     42  C   UNL A   1      43.538  38.811  28.843  1.00  0.00     0.016 A 
ATOM     43  C   UNL A   1      43.874  37.459  26.851  1.00  0.00     0.016 A 
ATOM     44  C   UNL A   1      43.125  37.684  29.548  1.00  0.00     0.010 A 
ATOM     45  C   UNL A   1      43.477  36.325  27.564  1.00  0.00     0.010 A 
ATOM     46  C   UNL A   1      43.158  36.427  28.931  1.00  0.00    -0.014 A 
BRANCH  46  47
ATOM     47  C   UNL A   1      43.114  35.217  29.787  1.00  0.00     0.031 A 
ATOM     48  C   UNL A   1      41.810  34.473  29.892  1.00  0.00     0.074 A 
ATOM     49  C   UNL A   1      44.216  34.744  30.391  1.00  0.00     0.049 A 
ATOM     50  N   UNL A   1      41.522  33.377  30.548  1.00  0.00    -0.248 NA
ATOM     51  C   UNL A   1      40.671  35.042  29.152  1.00  0.00     0.031 C 
ATOM     52  C   UNL A   1      45.544  35.349  30.325  1.00  0.00     0.029 A 
ATOM     53  N   UNL A   1      44.389  33.633  31.179  1.00  0.00    -0.354 N 
ATOM     54  C   UNL A   1      40.177  33.131  30.301  1.00  0.00     0.074 A 
ATOM     55  C   UNL A   1      39.693  34.210  29.470  1.00  0.00     0.031 C 
ATOM     56  C   UNL A   1      46.399  34.602  31.045  1.00  0.00     0.029 A 
ATOM     57  C   UNL A   1      45.672  33.482  31.643  1.00  0.00     0.049 A 
ATOM     58  H   UNL A   1      43.661  33.004  31.390  1.00  0.00     0.167 HD
ATOM     59  C   UNL A   1      39.418  32.091  30.716  1.00  0.00     0.037 A 
ATOM     60  C   UNL A   1      46.190  32.549  32.465  1.00  0.00     0.037 A 
ATOM     61  C   UNL A   1      39.902  31.019  31.544  1.00  0.00     0.049 A 
ATOM     62  C   UNL A   1      45.306  31.437  32.970  1.00  0.00     0.074 A 
ATOM     63  C   UNL A   1      39.214  29.918  32.022  1.00  0.00     0.029 A 
ATOM     64  N   UNL A   1      41.200  30.919  32.024  1.00  0.00    -0.354 N 
ATOM     65  N   UNL A   1      44.040  31.201  32.718  1.00  0.00    -0.248 NA
ATOM     66  C   UNL A   1      45.929  30.452  33.864  1.00  0.00     0.031 C 
ATOM     67  C   UNL A   1      40.080  29.182  32.839  1.00  0.00     0.029 A 
ATOM     68  C   UNL A   1      41.328  29.785  32.810  1.00  0.00     0.049 A 
ATOM     69  H   UNL A   1      41.922  31.560  31.834  1.00  0.00     0.167 HD
ATOM     70  C   UNL A   1      43.729  30.021  33.386  1.00  0.00     0.074 A 
ATOM     71  C   UNL A   1      44.943  29.585  34.043  1.00  0.00     0.031 C 
ATOM     72  C   UNL A   1      42.547  29.356  33.446  1.00  0.00     0.037 A 
BRANCH  59  73
ATOM     73  C   UNL A   1      37.973  32.082  30.305  1.00  0.00     0.064 A 
ATOM     74  C   UNL A   1      36.974  32.689  31.086  1.00  0.00     0.173 A 
ATOM     75  C   UNL A   1      37.582  31.472  29.103  1.00  0.00     0.173 A 
ATOM     76  F   UNL A   1      37.290  33.269  32.253  1.00  0.00    -0.203 F 
ATOM     77  C   UNL A   1      35.639  32.658  30.691  1.00  0.00     0.198 A 
ATOM     78  C   UNL A   1      36.250  31.474  28.695  1.00  0.00     0.198 A 
ATOM     79  F   UNL A   1      38.493  30.878  28.319  1.00  0.00    -0.203 F 
ATOM     80  F   UNL A   1      34.697  33.194  31.481  1.00  0.00    -0.200 F 
ATOM     81  C   UNL A   1      35.279  32.059  29.494  1.00  0.00     0.200 A 
ATOM     82  F   UNL A   1      35.906  30.906  27.532  1.00  0.00    -0.200 F 
ATOM     83  F   UNL A   1      33.995  32.036  29.113  1.00  0.00    -0.200 F 
ENDBRANCH  59  73
BRANCH  60  84
ATOM     84  C   UNL A   1      47.621  32.622  32.867  1.00  0.00     0.064 A 
ATOM     85  C   UNL A   1      48.015  33.285  34.039  1.00  0.00     0.173 A 
ATOM     86  C   UNL A   1      48.628  32.062  32.067  1.00  0.00     0.173 A 
ATOM     87  F   UNL A   1      47.093  33.862  34.824  1.00  0.00    -0.203 F 
ATOM     88  C   UNL A   1      49.360  33.407  34.380  1.00  0.00     0.198 A 
ATOM     89  C   UNL A   1      49.971  32.157  32.427  1.00  0.00     0.198 A 
ATOM     90  F   UNL A   1      48.307  31.423  30.933  1.00  0.00    -0.203 F 
ATOM     91  F   UNL A   1      49.711  34.098  35.474  1.00  0.00    -0.200 F 
ATOM     92  C   UNL A   1      50.337  32.838  33.577  1.00  0.00     0.200 A 
ATOM     93  F   UNL A   1      50.910  31.597  31.652  1.00  0.00    -0.200 F 
ATOM     94  F   UNL A   1      51.631  32.959  33.904  1.00  0.00    -0.200 F 
ENDBRANCH  60  84
BRANCH  72  95
ATOM     95  C   UNL A   1      42.527  28.051  34.194  1.00  0.00     0.064 A 
ATOM     96  C   UNL A   1      43.105  26.883  33.673  1.00  0.00     0.173 A 
ATOM     97  C   UNL A   1      41.933  27.976  35.463  1.00  0.00     0.173 A 
ATOM     98  F   UNL A   1      43.679  26.896  32.461  1.00  0.00    -0.203 F 
ATOM     99  C   UNL A   1      43.047  25.681  34.375  1.00  0.00     0.198 A 
ATOM    100  C   UNL A   1      41.912  26.783  36.179  1.00  0.00     0.198 A 
ATOM    101  F   UNL A   1      41.377  29.065  36.017  1.00  0.00    -0.203 F 
ATOM    102  F   UNL A   1      43.543  24.564  33.826  1.00  0.00    -0.200 F 
ATOM    103  C   UNL A   1      42.455  25.633  35.628  1.00  0.00     0.200 A 
ATOM    104  F   UNL A   1      41.358  26.744  37.398  1.00  0.00    -0.200 F 
ATOM    105  F   UNL A   1      42.401  24.475  36.301  1.00  0.00    -0.200 F 
ENDBRANCH  72  95
ENDBRANCH  46  47
ENDBRANCH  39  41
ENDBRANCH  38  39
ENDBRANCH  37  38
ENDBRANCH  36  37
ENDBRANCH  35  36
ENDBRANCH  34  35
ENDBRANCH  33  34
ENDBRANCH  32  33
ENDBRANCH  31  32
ENDBRANCH   1  31
TORSDOF 25
ENDMDL
