MODEL 1
REMARK VINA RESULT:      -9.4      0.000      0.000
REMARK SMILES CSCC[C@@H](NS(=O)(=O)c1ccc(F)c(C)c1)C(=O)OCCOCCOCCOCCOC(=O)c1ccc(-c2c3nc(c(-c4c(F)c(F)c(F)c(F)c4F)c4ccc([nH]4)c(-c4c(F)c(F)c(F)c(F)c4F)c4nc(c(-c5c(F)c(F)c(F)c(F)c5F)c5ccc2[nH]5)C=C4)C=C3)cc1
REMARK SMILES IDX 25 1 24 2 23 3 22 4 21 5 20 6 18 7 19 8 5 9 4 10 3 11 2 12
REMARK SMILES IDX 1 13 6 14 7 16 8 17 9 18 10 19 11 20 17 21 12 22 15 23 13 24
REMARK SMILES IDX 16 25 14 26 26 27 27 28 28 29 29 30 30 31 31 32 32 33 33 34
REMARK SMILES IDX 34 35 35 36 36 37 97 38 37 39 96 40 38 41 39 42 40 43 90 44
REMARK SMILES IDX 41 45 95 46 89 47 91 48 42 49 94 50 88 51 87 52 43 54 75 55
REMARK SMILES IDX 55 56 74 57 56 58 59 59 73 60 92 61 57 62 58 63 72 65 93 66
REMARK SMILES IDX 60 67 44 68 45 69 53 70 46 71 47 72 51 73 54 74 48 75 49 76
REMARK SMILES IDX 52 77 50 78 76 79 77 80 85 81 78 82 79 83 83 84 86 85 80 86
REMARK SMILES IDX 81 87 84 88 82 89 61 90 62 91 70 92 63 93 64 94 68 95 71 96
REMARK SMILES IDX 65 97 66 98 69 99 67 100
REMARK H PARENT 6 15 91 53 59 64
REMARK Flexibility Score: inf
ROOT
ATOM      1  C   UNL A   1      45.321  41.919  25.424  1.00  0.00     0.188 C 
ENDROOT
BRANCH   1   2
ATOM      2  C   UNL A   1      43.795  41.772  25.390  1.00  0.00     0.188 C 
BRANCH   2   3
ATOM      3  O   UNL A   1      43.235  41.730  24.098  1.00  0.00    -0.376 OA
BRANCH   3   4
ATOM      4  C   UNL A   1      42.030  42.372  23.752  1.00  0.00     0.202 C 
BRANCH   4   5
ATOM      5  C   UNL A   1      41.743  43.184  22.471  1.00  0.00     0.261 C 
BRANCH   5   6
ATOM      6  O   UNL A   1      41.983  42.697  21.153  1.00  0.00    -0.462 OA
BRANCH   6   7
ATOM      7  C   UNL A   1      43.270  42.620  20.761  1.00  0.00     0.324 C 
ATOM      8  O   UNL A   1      43.977  41.634  20.918  1.00  0.00    -0.250 OA
BRANCH   7   9
ATOM      9  C   UNL A   1      43.821  43.940  20.246  1.00  0.00     0.180 C 
BRANCH   9  10
ATOM     10  C   UNL A   1      44.933  44.566  21.102  1.00  0.00     0.043 C 
BRANCH  10  11
ATOM     11  C   UNL A   1      45.340  45.974  20.640  1.00  0.00     0.071 C 
BRANCH  11  12
ATOM     12  S   UNL A   1      47.031  46.099  19.946  1.00  0.00    -0.165 SA
ATOM     13  C   UNL A   1      47.772  44.544  20.525  1.00  0.00     0.085 C 
ENDBRANCH  11  12
ENDBRANCH  10  11
ENDBRANCH   9  10
BRANCH   9  14
ATOM     14  N   UNL A   1      44.268  43.781  18.836  1.00  0.00    -0.197 NA
ATOM     15  H   UNL A   1      44.620  42.829  18.734  1.00  0.00     0.142 HD
BRANCH  14  16
ATOM     16  S   UNL A   1      43.121  44.032  17.610  1.00  0.00     0.241 S 
ATOM     17  O   UNL A   1      43.560  43.293  16.451  1.00  0.00    -0.207 OA
ATOM     18  O   UNL A   1      41.840  43.770  18.232  1.00  0.00    -0.207 OA
BRANCH  16  19
ATOM     19  C   UNL A   1      43.193  45.782  17.290  1.00  0.00     0.082 A 
ATOM     20  C   UNL A   1      44.420  46.444  17.404  1.00  0.00     0.025 A 
ATOM     21  C   UNL A   1      42.053  46.465  16.835  1.00  0.00     0.028 A 
ATOM     22  C   UNL A   1      44.507  47.790  17.043  1.00  0.00     0.041 A 
ATOM     23  C   UNL A   1      42.152  47.800  16.413  1.00  0.00    -0.014 A 
ATOM     24  C   UNL A   1      43.382  48.450  16.542  1.00  0.00     0.126 A 
ATOM     25  C   UNL A   1      41.011  48.477  15.710  1.00  0.00     0.047 C 
ATOM     26  F   UNL A   1      43.522  49.704  16.090  1.00  0.00    -0.207 F 
ENDBRANCH  16  19
ENDBRANCH  14  16
ENDBRANCH   9  14
ENDBRANCH   7   9
ENDBRANCH   6   7
ENDBRANCH   5   6
ENDBRANCH   4   5
ENDBRANCH   3   4
ENDBRANCH   2   3
ENDBRANCH   1   2
BRANCH   1  27
ATOM     27  O   UNL A   1      45.944  42.091  26.688  1.00  0.00    -0.377 OA
BRANCH  27  28
ATOM     28  C   UNL A   1      46.221  40.956  27.500  1.00  0.00     0.188 C 
BRANCH  28  29
ATOM     29  C   UNL A   1      45.848  39.520  27.070  1.00  0.00     0.188 C 
BRANCH  29  30
ATOM     30  O   UNL A   1      46.576  38.484  27.719  1.00  0.00    -0.376 OA
BRANCH  30  31
ATOM     31  C   UNL A   1      46.807  37.303  26.972  1.00  0.00     0.202 C 
BRANCH  31  32
ATOM     32  C   UNL A   1      45.543  36.540  26.558  1.00  0.00     0.261 C 
BRANCH  32  33
ATOM     33  O   UNL A   1      45.780  35.285  25.919  1.00  0.00    -0.460 OA
BRANCH  33  34
ATOM     34  C   UNL A   1      45.865  34.257  26.780  1.00  0.00     0.338 C 
ATOM     35  O   UNL A   1      46.871  33.639  27.090  1.00  0.00    -0.246 OA
BRANCH  34  36
ATOM     36  C   UNL A   1      44.514  33.871  27.255  1.00  0.00     0.060 A 
ATOM     37  C   UNL A   1      44.504  33.698  28.650  1.00  0.00     0.016 A 
ATOM     38  C   UNL A   1      43.992  32.912  26.395  1.00  0.00     0.016 A 
ATOM     39  C   UNL A   1      44.533  32.406  29.122  1.00  0.00     0.010 A 
ATOM     40  C   UNL A   1      44.044  31.622  26.851  1.00  0.00     0.010 A 
ATOM     41  C   UNL A   1      44.433  31.387  28.180  1.00  0.00    -0.014 A 
BRANCH  41  42
ATOM     42  C   UNL A   1      44.687  30.010  28.504  1.00  0.00     0.031 A 
ATOM     43  C   UNL A   1      45.829  29.360  27.859  1.00  0.00     0.074 A 
ATOM     44  C   UNL A   1      43.954  29.369  29.435  1.00  0.00     0.049 A 
ATOM     45  N   UNL A   1      45.931  28.087  27.714  1.00  0.00    -0.248 NA
ATOM     46  C   UNL A   1      46.923  30.122  27.263  1.00  0.00     0.031 C 
ATOM     47  C   UNL A   1      44.362  28.179  30.168  1.00  0.00     0.029 A 
ATOM     48  N   UNL A   1      42.640  29.601  29.847  1.00  0.00    -0.354 N 
ATOM     49  C   UNL A   1      47.216  27.849  27.313  1.00  0.00     0.074 A 
ATOM     50  C   UNL A   1      47.756  29.135  26.925  1.00  0.00     0.031 C 
ATOM     51  C   UNL A   1      43.296  27.660  30.792  1.00  0.00     0.029 A 
ATOM     52  C   UNL A   1      42.123  28.385  30.342  1.00  0.00     0.049 A 
ATOM     53  H   UNL A   1      42.160  30.458  29.797  1.00  0.00     0.167 HD
ATOM     54  C   UNL A   1      47.761  26.622  27.518  1.00  0.00     0.037 A 
ATOM     55  C   UNL A   1      41.040  27.790  29.757  1.00  0.00     0.037 A 
ATOM     56  C   UNL A   1      46.836  25.709  28.179  1.00  0.00     0.049 A 
ATOM     57  C   UNL A   1      41.326  26.495  29.035  1.00  0.00     0.074 A 
ATOM     58  C   UNL A   1      46.642  25.332  29.498  1.00  0.00     0.029 A 
ATOM     59  N   UNL A   1      45.692  25.315  27.509  1.00  0.00    -0.354 N 
ATOM     60  N   UNL A   1      42.499  25.934  28.977  1.00  0.00    -0.248 NA
ATOM     61  C   UNL A   1      40.329  25.787  28.233  1.00  0.00     0.031 C 
ATOM     62  C   UNL A   1      45.390  24.663  29.598  1.00  0.00     0.029 A 
ATOM     63  C   UNL A   1      44.824  24.632  28.338  1.00  0.00     0.049 A 
ATOM     64  H   UNL A   1      45.519  25.498  26.557  1.00  0.00     0.167 HD
ATOM     65  C   UNL A   1      42.454  24.876  28.114  1.00  0.00     0.074 A 
ATOM     66  C   UNL A   1      41.072  24.817  27.676  1.00  0.00     0.031 C 
ATOM     67  C   UNL A   1      43.565  24.154  27.791  1.00  0.00     0.037 A 
BRANCH  54  68
ATOM     68  C   UNL A   1      49.237  26.416  27.382  1.00  0.00     0.064 A 
ATOM     69  C   UNL A   1      49.811  26.089  26.141  1.00  0.00     0.173 A 
ATOM     70  C   UNL A   1      50.121  26.463  28.476  1.00  0.00     0.173 A 
ATOM     71  F   UNL A   1      49.084  26.072  25.017  1.00  0.00    -0.203 F 
ATOM     72  C   UNL A   1      51.153  25.737  26.021  1.00  0.00     0.198 A 
ATOM     73  C   UNL A   1      51.451  26.058  28.365  1.00  0.00     0.198 A 
ATOM     74  F   UNL A   1      49.705  26.891  29.678  1.00  0.00    -0.203 F 
ATOM     75  F   UNL A   1      51.648  25.418  24.817  1.00  0.00    -0.200 F 
ATOM     76  C   UNL A   1      51.965  25.686  27.137  1.00  0.00     0.200 A 
ATOM     77  F   UNL A   1      52.228  26.009  29.457  1.00  0.00    -0.200 F 
ATOM     78  F   UNL A   1      53.238  25.286  27.027  1.00  0.00    -0.200 F 
ENDBRANCH  54  68
BRANCH  55  79
ATOM     79  C   UNL A   1      40.007  28.770  29.358  1.00  0.00     0.064 A 
ATOM     80  C   UNL A   1      39.988  29.156  28.008  1.00  0.00     0.173 A 
ATOM     81  C   UNL A   1      38.835  28.910  30.112  1.00  0.00     0.173 A 
ATOM     82  F   UNL A   1      41.105  29.070  27.269  1.00  0.00    -0.203 F 
ATOM     83  C   UNL A   1      38.796  29.507  27.391  1.00  0.00     0.198 A 
ATOM     84  C   UNL A   1      37.642  29.266  29.490  1.00  0.00     0.198 A 
ATOM     85  F   UNL A   1      38.823  28.580  31.412  1.00  0.00    -0.203 F 
ATOM     86  F   UNL A   1      38.769  29.730  26.069  1.00  0.00    -0.200 F 
ATOM     87  C   UNL A   1      37.622  29.536  28.127  1.00  0.00     0.200 A 
ATOM     88  F   UNL A   1      36.500  29.269  30.192  1.00  0.00    -0.200 F 
ATOM     89  F   UNL A   1      36.466  29.810  27.511  1.00  0.00    -0.200 F 
ENDBRANCH  55  79
BRANCH  67  90
ATOM     90  C   UNL A   1      43.547  22.939  26.906  1.00  0.00     0.064 A 
ATOM     91  C   UNL A   1      42.909  21.746  27.283  1.00  0.00     0.173 A 
ATOM     92  C   UNL A   1      44.276  22.891  25.698  1.00  0.00     0.173 A 
ATOM     93  F   UNL A   1      42.280  21.642  28.462  1.00  0.00    -0.203 F 
ATOM     94  C   UNL A   1      42.925  20.616  26.464  1.00  0.00     0.198 A 
ATOM     95  C   UNL A   1      44.339  21.744  24.912  1.00  0.00     0.198 A 
ATOM     96  F   UNL A   1      44.934  23.958  25.227  1.00  0.00    -0.203 F 
ATOM     97  F   UNL A   1      42.243  19.522  26.831  1.00  0.00    -0.200 F 
ATOM     98  C   UNL A   1      43.644  20.612  25.283  1.00  0.00     0.200 A 
ATOM     99  F   UNL A   1      45.073  21.748  23.790  1.00  0.00    -0.200 F 
ATOM    100  F   UNL A   1      43.672  19.521  24.507  1.00  0.00    -0.200 F 
ENDBRANCH  67  90
ENDBRANCH  41  42
ENDBRANCH  34  36
ENDBRANCH  33  34
ENDBRANCH  32  33
ENDBRANCH  31  32
ENDBRANCH  30  31
ENDBRANCH  29  30
ENDBRANCH  28  29
ENDBRANCH  27  28
ENDBRANCH   1  27
TORSDOF 26
ENDMDL
MODEL 2
REMARK VINA RESULT:      -8.6      8.165     14.584
REMARK SMILES CSCC[C@@H](NS(=O)(=O)c1ccc(F)c(C)c1)C(=O)OCCOCCOCCOCCOC(=O)c1ccc(-c2c3nc(c(-c4c(F)c(F)c(F)c(F)c4F)c4ccc([nH]4)c(-c4c(F)c(F)c(F)c(F)c4F)c4nc(c(-c5c(F)c(F)c(F)c(F)c5F)c5ccc2[nH]5)C=C4)C=C3)cc1
REMARK SMILES IDX 25 1 24 2 23 3 22 4 21 5 20 6 18 7 19 8 5 9 4 10 3 11 2 12
REMARK SMILES IDX 1 13 6 14 7 16 8 17 9 18 10 19 11 20 17 21 12 22 15 23 13 24
REMARK SMILES IDX 16 25 14 26 26 27 27 28 28 29 29 30 30 31 31 32 32 33 33 34
REMARK SMILES IDX 34 35 35 36 36 37 97 38 37 39 96 40 38 41 39 42 40 43 90 44
REMARK SMILES IDX 41 45 95 46 89 47 91 48 42 49 94 50 88 51 87 52 43 54 75 55
REMARK SMILES IDX 55 56 74 57 56 58 59 59 73 60 92 61 57 62 58 63 72 65 93 66
REMARK SMILES IDX 60 67 44 68 45 69 53 70 46 71 47 72 51 73 54 74 48 75 49 76
REMARK SMILES IDX 52 77 50 78 76 79 77 80 85 81 78 82 79 83 83 84 86 85 80 86
REMARK SMILES IDX 81 87 84 88 82 89 61 90 62 91 70 92 63 93 64 94 68 95 71 96
REMARK SMILES IDX 65 97 66 98 69 99 67 100
REMARK H PARENT 6 15 91 53 59 64
REMARK Flexibility Score: inf
ROOT
ATOM      1  C   UNL A   1      43.761  25.870  25.792  1.00  0.00     0.188 C 
ENDROOT
BRANCH   1   2
ATOM      2  C   UNL A   1      43.540  27.131  24.949  1.00  0.00     0.188 C 
BRANCH   2   3
ATOM      3  O   UNL A   1      43.209  28.284  25.688  1.00  0.00    -0.376 OA
BRANCH   3   4
ATOM      4  C   UNL A   1      41.920  28.853  25.703  1.00  0.00     0.202 C 
BRANCH   4   5
ATOM      5  C   UNL A   1      40.908  28.832  26.868  1.00  0.00     0.261 C 
BRANCH   5   6
ATOM      6  O   UNL A   1      41.262  29.054  28.231  1.00  0.00    -0.462 OA
BRANCH   6   7
ATOM      7  C   UNL A   1      40.890  28.107  29.115  1.00  0.00     0.324 C 
ATOM      8  O   UNL A   1      41.670  27.483  29.821  1.00  0.00    -0.250 OA
BRANCH   7   9
ATOM      9  C   UNL A   1      39.410  27.766  29.042  1.00  0.00     0.180 C 
BRANCH   9  10
ATOM     10  C   UNL A   1      39.078  26.267  29.114  1.00  0.00     0.043 C 
BRANCH  10  11
ATOM     11  C   UNL A   1      39.409  25.505  27.821  1.00  0.00     0.071 C 
BRANCH  11  12
ATOM     12  S   UNL A   1      40.880  24.417  27.924  1.00  0.00    -0.165 SA
ATOM     13  C   UNL A   1      40.293  22.938  27.045  1.00  0.00     0.085 C 
ENDBRANCH  11  12
ENDBRANCH  10  11
ENDBRANCH   9  10
BRANCH   9  14
ATOM     14  N   UNL A   1      38.668  28.520  30.087  1.00  0.00    -0.197 NA
ATOM     15  H   UNL A   1      39.358  28.900  30.736  1.00  0.00     0.142 HD
BRANCH  14  16
ATOM     16  S   UNL A   1      37.682  29.807  29.584  1.00  0.00     0.241 S 
ATOM     17  O   UNL A   1      38.505  30.701  28.804  1.00  0.00    -0.207 OA
ATOM     18  O   UNL A   1      36.504  29.183  29.021  1.00  0.00    -0.207 OA
BRANCH  16  19
ATOM     19  C   UNL A   1      37.178  30.596  31.098  1.00  0.00     0.082 A 
ATOM     20  C   UNL A   1      38.009  30.508  32.220  1.00  0.00     0.025 A 
ATOM     21  C   UNL A   1      36.010  31.376  31.134  1.00  0.00     0.028 A 
ATOM     22  C   UNL A   1      37.677  31.220  33.375  1.00  0.00     0.041 A 
ATOM     23  C   UNL A   1      35.707  32.140  32.271  1.00  0.00    -0.014 A 
ATOM     24  C   UNL A   1      36.542  32.035  33.387  1.00  0.00     0.126 A 
ATOM     25  C   UNL A   1      34.600  33.154  32.251  1.00  0.00     0.047 C 
ATOM     26  F   UNL A   1      36.313  32.799  34.464  1.00  0.00    -0.207 F 
ENDBRANCH  16  19
ENDBRANCH  14  16
ENDBRANCH   9  14
ENDBRANCH   7   9
ENDBRANCH   6   7
ENDBRANCH   5   6
ENDBRANCH   4   5
ENDBRANCH   3   4
ENDBRANCH   2   3
ENDBRANCH   1   2
BRANCH   1  27
ATOM     27  O   UNL A   1      43.462  24.614  25.201  1.00  0.00    -0.377 OA
BRANCH  27  28
ATOM     28  C   UNL A   1      44.395  23.545  25.303  1.00  0.00     0.188 C 
BRANCH  28  29
ATOM     29  C   UNL A   1      45.909  23.743  25.070  1.00  0.00     0.188 C 
BRANCH  29  30
ATOM     30  O   UNL A   1      46.736  23.471  26.195  1.00  0.00    -0.376 OA
BRANCH  30  31
ATOM     31  C   UNL A   1      47.023  24.561  27.053  1.00  0.00     0.202 C 
BRANCH  31  32
ATOM     32  C   UNL A   1      46.274  24.549  28.391  1.00  0.00     0.261 C 
BRANCH  32  33
ATOM     33  O   UNL A   1      45.810  25.825  28.832  1.00  0.00    -0.460 OA
BRANCH  33  34
ATOM     34  C   UNL A   1      46.498  26.308  29.881  1.00  0.00     0.338 C 
ATOM     35  O   UNL A   1      46.584  25.812  30.993  1.00  0.00    -0.246 OA
BRANCH  34  36
ATOM     36  C   UNL A   1      47.084  27.629  29.548  1.00  0.00     0.060 A 
ATOM     37  C   UNL A   1      47.489  28.305  30.711  1.00  0.00     0.016 A 
ATOM     38  C   UNL A   1      46.292  28.242  28.583  1.00  0.00     0.016 A 
ATOM     39  C   UNL A   1      46.665  29.306  31.175  1.00  0.00     0.010 A 
ATOM     40  C   UNL A   1      45.452  29.218  29.046  1.00  0.00     0.010 A 
ATOM     41  C   UNL A   1      45.578  29.648  30.377  1.00  0.00    -0.014 A 
BRANCH  41  42
ATOM     42  C   UNL A   1      44.515  30.496  30.844  1.00  0.00     0.031 A 
ATOM     43  C   UNL A   1      44.639  31.934  30.605  1.00  0.00     0.074 A 
ATOM     44  C   UNL A   1      43.405  29.974  31.403  1.00  0.00     0.049 A 
ATOM     45  N   UNL A   1      44.025  32.824  31.301  1.00  0.00    -0.248 NA
ATOM     46  C   UNL A   1      45.534  32.479  29.588  1.00  0.00     0.031 C 
ATOM     47  C   UNL A   1      42.112  30.634  31.501  1.00  0.00     0.029 A 
ATOM     48  N   UNL A   1      43.238  28.771  32.091  1.00  0.00    -0.354 N 
ATOM     49  C   UNL A   1      44.182  34.007  30.633  1.00  0.00     0.074 A 
ATOM     50  C   UNL A   1      45.221  33.776  29.654  1.00  0.00     0.031 C 
ATOM     51  C   UNL A   1      41.333  29.951  32.350  1.00  0.00     0.029 A 
ATOM     52  C   UNL A   1      42.149  28.928  32.975  1.00  0.00     0.049 A 
ATOM     53  H   UNL A   1      43.784  27.959  31.981  1.00  0.00     0.167 HD
ATOM     54  C   UNL A   1      43.294  35.013  30.846  1.00  0.00     0.037 A 
ATOM     55  C   UNL A   1      42.317  28.810  34.326  1.00  0.00     0.037 A 
ATOM     56  C   UNL A   1      42.255  34.643  31.799  1.00  0.00     0.049 A 
ATOM     57  C   UNL A   1      42.156  30.089  35.111  1.00  0.00     0.074 A 
ATOM     58  C   UNL A   1      40.964  34.157  31.666  1.00  0.00     0.029 A 
ATOM     59  N   UNL A   1      42.609  34.402  33.114  1.00  0.00    -0.354 N 
ATOM     60  N   UNL A   1      41.850  31.239  34.582  1.00  0.00    -0.248 NA
ATOM     61  C   UNL A   1      42.434  30.192  36.543  1.00  0.00     0.031 C 
ATOM     62  C   UNL A   1      40.533  33.668  32.932  1.00  0.00     0.029 A 
ATOM     63  C   UNL A   1      41.562  33.859  33.834  1.00  0.00     0.049 A 
ATOM     64  H   UNL A   1      43.498  34.595  33.491  1.00  0.00     0.167 HD
ATOM     65  C   UNL A   1      41.951  32.217  35.530  1.00  0.00     0.074 A 
ATOM     66  C   UNL A   1      42.313  31.514  36.747  1.00  0.00     0.031 C 
ATOM     67  C   UNL A   1      41.770  33.537  35.235  1.00  0.00     0.037 A 
BRANCH  54  68
ATOM     68  C   UNL A   1      43.247  36.189  29.922  1.00  0.00     0.064 A 
ATOM     69  C   UNL A   1      43.831  37.416  30.282  1.00  0.00     0.173 A 
ATOM     70  C   UNL A   1      42.568  36.168  28.689  1.00  0.00     0.173 A 
ATOM     71  F   UNL A   1      44.554  37.546  31.400  1.00  0.00    -0.203 F 
ATOM     72  C   UNL A   1      43.662  38.566  29.512  1.00  0.00     0.198 A 
ATOM     73  C   UNL A   1      42.353  37.330  27.948  1.00  0.00     0.198 A 
ATOM     74  F   UNL A   1      42.087  35.019  28.189  1.00  0.00    -0.203 F 
ATOM     75  F   UNL A   1      44.227  39.715  29.907  1.00  0.00    -0.200 F 
ATOM     76  C   UNL A   1      42.893  38.531  28.365  1.00  0.00     0.200 A 
ATOM     77  F   UNL A   1      41.601  37.284  26.838  1.00  0.00    -0.200 F 
ATOM     78  F   UNL A   1      42.681  39.651  27.661  1.00  0.00    -0.200 F 
ENDBRANCH  54  68
BRANCH  55  79
ATOM     79  C   UNL A   1      43.233  27.707  34.685  1.00  0.00     0.064 A 
ATOM     80  C   UNL A   1      42.696  26.409  34.678  1.00  0.00     0.173 A 
ATOM     81  C   UNL A   1      44.618  27.860  34.539  1.00  0.00     0.173 A 
ATOM     82  F   UNL A   1      41.378  26.227  34.854  1.00  0.00    -0.203 F 
ATOM     83  C   UNL A   1      43.491  25.317  34.364  1.00  0.00     0.198 A 
ATOM     84  C   UNL A   1      45.413  26.761  34.228  1.00  0.00     0.198 A 
ATOM     85  F   UNL A   1      45.171  29.081  34.571  1.00  0.00    -0.203 F 
ATOM     86  F   UNL A   1      42.935  24.106  34.216  1.00  0.00    -0.200 F 
ATOM     87  C   UNL A   1      44.842  25.499  34.114  1.00  0.00     0.200 A 
ATOM     88  F   UNL A   1      46.715  26.936  33.960  1.00  0.00    -0.200 F 
ATOM     89  F   UNL A   1      45.591  24.452  33.747  1.00  0.00    -0.200 F 
ENDBRANCH  55  79
BRANCH  67  90
ATOM     90  C   UNL A   1      41.798  34.636  36.260  1.00  0.00     0.064 A 
ATOM     91  C   UNL A   1      40.625  35.228  36.757  1.00  0.00     0.173 A 
ATOM     92  C   UNL A   1      43.010  35.216  36.691  1.00  0.00     0.173 A 
ATOM     93  F   UNL A   1      39.418  34.831  36.331  1.00  0.00    -0.203 F 
ATOM     94  C   UNL A   1      40.666  36.268  37.687  1.00  0.00     0.198 A 
ATOM     95  C   UNL A   1      43.047  36.292  37.574  1.00  0.00     0.198 A 
ATOM     96  F   UNL A   1      44.200  34.750  36.290  1.00  0.00    -0.203 F 
ATOM     97  F   UNL A   1      39.522  36.756  38.186  1.00  0.00    -0.200 F 
ATOM     98  C   UNL A   1      41.875  36.803  38.090  1.00  0.00     0.200 A 
ATOM     99  F   UNL A   1      44.227  36.823  37.924  1.00  0.00    -0.200 F 
ATOM    100  F   UNL A   1      41.912  37.813  38.970  1.00  0.00    -0.200 F 
ENDBRANCH  67  90
ENDBRANCH  41  42
ENDBRANCH  34  36
ENDBRANCH  33  34
ENDBRANCH  32  33
ENDBRANCH  31  32
ENDBRANCH  30  31
ENDBRANCH  29  30
ENDBRANCH  28  29
ENDBRANCH  27  28
ENDBRANCH   1  27
TORSDOF 26
ENDMDL
MODEL 3
REMARK VINA RESULT:      -8.5      8.057     14.590
REMARK SMILES CSCC[C@@H](NS(=O)(=O)c1ccc(F)c(C)c1)C(=O)OCCOCCOCCOCCOC(=O)c1ccc(-c2c3nc(c(-c4c(F)c(F)c(F)c(F)c4F)c4ccc([nH]4)c(-c4c(F)c(F)c(F)c(F)c4F)c4nc(c(-c5c(F)c(F)c(F)c(F)c5F)c5ccc2[nH]5)C=C4)C=C3)cc1
REMARK SMILES IDX 25 1 24 2 23 3 22 4 21 5 20 6 18 7 19 8 5 9 4 10 3 11 2 12
REMARK SMILES IDX 1 13 6 14 7 16 8 17 9 18 10 19 11 20 17 21 12 22 15 23 13 24
REMARK SMILES IDX 16 25 14 26 26 27 27 28 28 29 29 30 30 31 31 32 32 33 33 34
REMARK SMILES IDX 34 35 35 36 36 37 97 38 37 39 96 40 38 41 39 42 40 43 90 44
REMARK SMILES IDX 41 45 95 46 89 47 91 48 42 49 94 50 88 51 87 52 43 54 75 55
REMARK SMILES IDX 55 56 74 57 56 58 59 59 73 60 92 61 57 62 58 63 72 65 93 66
REMARK SMILES IDX 60 67 44 68 45 69 53 70 46 71 47 72 51 73 54 74 48 75 49 76
REMARK SMILES IDX 52 77 50 78 76 79 77 80 85 81 78 82 79 83 83 84 86 85 80 86
REMARK SMILES IDX 81 87 84 88 82 89 61 90 62 91 70 92 63 93 64 94 68 95 71 96
REMARK SMILES IDX 65 97 66 98 69 99 67 100
REMARK H PARENT 6 15 91 53 59 64
REMARK Flexibility Score: inf
ROOT
ATOM      1  C   UNL A   1      39.839  24.279  26.730  1.00  0.00     0.188 C 
ENDROOT
BRANCH   1   2
ATOM      2  C   UNL A   1      38.375  24.057  26.333  1.00  0.00     0.188 C 
BRANCH   2   3
ATOM      3  O   UNL A   1      37.995  22.706  26.213  1.00  0.00    -0.376 OA
BRANCH   3   4
ATOM      4  C   UNL A   1      37.755  22.073  24.977  1.00  0.00     0.202 C 
BRANCH   4   5
ATOM      5  C   UNL A   1      36.672  22.439  23.940  1.00  0.00     0.261 C 
BRANCH   5   6
ATOM      6  O   UNL A   1      35.857  23.606  24.022  1.00  0.00    -0.462 OA
BRANCH   6   7
ATOM      7  C   UNL A   1      34.694  23.485  24.692  1.00  0.00     0.324 C 
ATOM      8  O   UNL A   1      34.299  22.443  25.198  1.00  0.00    -0.250 OA
BRANCH   7   9
ATOM      9  C   UNL A   1      33.830  24.735  24.628  1.00  0.00     0.180 C 
BRANCH   9  10
ATOM     10  C   UNL A   1      34.044  25.740  25.770  1.00  0.00     0.043 C 
BRANCH  10  11
ATOM     11  C   UNL A   1      33.614  27.172  25.413  1.00  0.00     0.071 C 
BRANCH  11  12
ATOM     12  S   UNL A   1      33.892  28.412  26.732  1.00  0.00    -0.165 SA
ATOM     13  C   UNL A   1      32.191  28.941  27.091  1.00  0.00     0.085 C 
ENDBRANCH  11  12
ENDBRANCH  10  11
ENDBRANCH   9  10
BRANCH   9  14
ATOM     14  N   UNL A   1      34.000  25.395  23.306  1.00  0.00    -0.197 NA
ATOM     15  H   UNL A   1      34.837  25.002  22.875  1.00  0.00     0.142 HD
BRANCH  14  16
ATOM     16  S   UNL A   1      32.735  25.252  22.183  1.00  0.00     0.241 S 
ATOM     17  O   UNL A   1      33.277  25.560  20.881  1.00  0.00    -0.207 OA
ATOM     18  O   UNL A   1      32.125  23.970  22.462  1.00  0.00    -0.207 OA
BRANCH  16  19
ATOM     19  C   UNL A   1      31.565  26.501  22.675  1.00  0.00     0.082 A 
ATOM     20  C   UNL A   1      31.840  27.842  22.387  1.00  0.00     0.025 A 
ATOM     21  C   UNL A   1      30.341  26.132  23.258  1.00  0.00     0.028 A 
ATOM     22  C   UNL A   1      30.876  28.813  22.666  1.00  0.00     0.041 A 
ATOM     23  C   UNL A   1      29.347  27.098  23.481  1.00  0.00    -0.014 A 
ATOM     24  C   UNL A   1      29.640  28.435  23.196  1.00  0.00     0.126 A 
ATOM     25  C   UNL A   1      27.957  26.700  23.882  1.00  0.00     0.047 C 
ATOM     26  F   UNL A   1      28.691  29.369  23.341  1.00  0.00    -0.207 F 
ENDBRANCH  16  19
ENDBRANCH  14  16
ENDBRANCH   9  14
ENDBRANCH   7   9
ENDBRANCH   6   7
ENDBRANCH   5   6
ENDBRANCH   4   5
ENDBRANCH   3   4
ENDBRANCH   2   3
ENDBRANCH   1   2
BRANCH   1  27
ATOM     27  O   UNL A   1      40.667  25.009  25.837  1.00  0.00    -0.377 OA
BRANCH  27  28
ATOM     28  C   UNL A   1      41.045  26.343  26.154  1.00  0.00     0.188 C 
BRANCH  28  29
ATOM     29  C   UNL A   1      42.281  27.025  25.526  1.00  0.00     0.188 C 
BRANCH  29  30
ATOM     30  O   UNL A   1      43.538  26.554  25.999  1.00  0.00    -0.376 OA
BRANCH  30  31
ATOM     31  C   UNL A   1      44.370  25.902  25.056  1.00  0.00     0.202 C 
BRANCH  31  32
ATOM     32  C   UNL A   1      45.826  25.711  25.497  1.00  0.00     0.261 C 
BRANCH  32  33
ATOM     33  O   UNL A   1      46.678  26.833  25.261  1.00  0.00    -0.460 OA
BRANCH  33  34
ATOM     34  C   UNL A   1      47.429  27.164  26.325  1.00  0.00     0.338 C 
ATOM     35  O   UNL A   1      47.749  26.437  27.253  1.00  0.00    -0.246 OA
BRANCH  34  36
ATOM     36  C   UNL A   1      47.757  28.610  26.294  1.00  0.00     0.060 A 
ATOM     37  C   UNL A   1      48.046  29.085  27.584  1.00  0.00     0.016 A 
ATOM     38  C   UNL A   1      46.852  29.257  25.460  1.00  0.00     0.016 A 
ATOM     39  C   UNL A   1      47.058  29.796  28.227  1.00  0.00     0.010 A 
ATOM     40  C   UNL A   1      45.853  29.942  26.097  1.00  0.00     0.010 A 
ATOM     41  C   UNL A   1      45.915  30.094  27.492  1.00  0.00    -0.014 A 
BRANCH  41  42
ATOM     42  C   UNL A   1      44.721  30.614  28.101  1.00  0.00     0.031 A 
ATOM     43  C   UNL A   1      44.713  32.025  28.485  1.00  0.00     0.074 A 
ATOM     44  C   UNL A   1      43.618  29.849  28.230  1.00  0.00     0.049 A 
ATOM     45  N   UNL A   1      43.931  32.512  29.382  1.00  0.00    -0.248 NA
ATOM     46  C   UNL A   1      45.652  32.991  27.920  1.00  0.00     0.031 C 
ATOM     47  C   UNL A   1      42.258  30.340  28.395  1.00  0.00     0.029 A 
ATOM     48  N   UNL A   1      43.507  28.462  28.339  1.00  0.00    -0.354 N 
ATOM     49  C   UNL A   1      44.033  33.871  29.282  1.00  0.00     0.074 A 
ATOM     50  C   UNL A   1      45.194  34.124  28.458  1.00  0.00     0.031 C 
ATOM     51  C   UNL A   1      41.467  29.326  28.770  1.00  0.00     0.029 A 
ATOM     52  C   UNL A   1      42.314  28.180  29.039  1.00  0.00     0.049 A 
ATOM     53  H   UNL A   1      44.146  27.800  27.992  1.00  0.00     0.167 HD
ATOM     54  C   UNL A   1      43.023  34.650  29.751  1.00  0.00     0.037 A 
ATOM     55  C   UNL A   1      42.341  27.519  30.236  1.00  0.00     0.037 A 
ATOM     56  C   UNL A   1      41.929  33.863  30.308  1.00  0.00     0.049 A 
ATOM     57  C   UNL A   1      41.955  28.346  31.439  1.00  0.00     0.074 A 
ATOM     58  C   UNL A   1      40.722  33.409  29.801  1.00  0.00     0.029 A 
ATOM     59  N   UNL A   1      42.157  33.116  31.450  1.00  0.00    -0.354 N 
ATOM     60  N   UNL A   1      41.587  29.593  31.382  1.00  0.00    -0.248 NA
ATOM     61  C   UNL A   1      42.058  27.858  32.814  1.00  0.00     0.031 C 
ATOM     62  C   UNL A   1      40.207  32.416  30.682  1.00  0.00     0.029 A 
ATOM     63  C   UNL A   1      41.102  32.268  31.725  1.00  0.00     0.049 A 
ATOM     64  H   UNL A   1      42.972  33.181  31.999  1.00  0.00     0.167 HD
ATOM     65  C   UNL A   1      41.473  30.092  32.648  1.00  0.00     0.074 A 
ATOM     66  C   UNL A   1      41.771  28.967  33.515  1.00  0.00     0.031 C 
ATOM     67  C   UNL A   1      41.185  31.404  32.890  1.00  0.00     0.037 A 
BRANCH  54  68
ATOM     68  C   UNL A   1      42.952  36.099  29.386  1.00  0.00     0.064 A 
ATOM     69  C   UNL A   1      42.295  36.521  28.217  1.00  0.00     0.173 A 
ATOM     70  C   UNL A   1      43.585  37.109  30.135  1.00  0.00     0.173 A 
ATOM     71  F   UNL A   1      41.605  35.664  27.455  1.00  0.00    -0.203 F 
ATOM     72  C   UNL A   1      42.353  37.841  27.775  1.00  0.00     0.198 A 
ATOM     73  C   UNL A   1      43.689  38.419  29.664  1.00  0.00     0.198 A 
ATOM     74  F   UNL A   1      44.129  36.840  31.332  1.00  0.00    -0.203 F 
ATOM     75  F   UNL A   1      41.721  38.188  26.646  1.00  0.00    -0.200 F 
ATOM     76  C   UNL A   1      43.079  38.782  28.478  1.00  0.00     0.200 A 
ATOM     77  F   UNL A   1      44.401  39.322  30.354  1.00  0.00    -0.200 F 
ATOM     78  F   UNL A   1      43.184  40.035  28.017  1.00  0.00    -0.200 F 
ENDBRANCH  54  68
BRANCH  55  79
ATOM     79  C   UNL A   1      43.326  26.417  30.249  1.00  0.00     0.064 A 
ATOM     80  C   UNL A   1      43.026  25.290  29.465  1.00  0.00     0.173 A 
ATOM     81  C   UNL A   1      44.664  26.665  30.580  1.00  0.00     0.173 A 
ATOM     82  F   UNL A   1      41.751  25.004  29.162  1.00  0.00    -0.203 F 
ATOM     83  C   UNL A   1      44.041  24.539  28.891  1.00  0.00     0.198 A 
ATOM     84  C   UNL A   1      45.679  25.907  30.006  1.00  0.00     0.198 A 
ATOM     85  F   UNL A   1      44.986  27.714  31.352  1.00  0.00    -0.203 F 
ATOM     86  F   UNL A   1      43.740  23.558  28.028  1.00  0.00    -0.200 F 
ATOM     87  C   UNL A   1      45.365  24.864  29.142  1.00  0.00     0.200 A 
ATOM     88  F   UNL A   1      46.960  26.234  30.225  1.00  0.00    -0.200 F 
ATOM     89  F   UNL A   1      46.339  24.177  28.533  1.00  0.00    -0.200 F 
ENDBRANCH  55  79
BRANCH  67  90
ATOM     90  C   UNL A   1      40.977  31.977  34.263  1.00  0.00     0.064 A 
ATOM     91  C   UNL A   1      39.739  32.490  34.683  1.00  0.00     0.173 A 
ATOM     92  C   UNL A   1      42.049  32.140  35.168  1.00  0.00     0.173 A 
ATOM     93  F   UNL A   1      38.678  32.489  33.864  1.00  0.00    -0.203 F 
ATOM     94  C   UNL A   1      39.567  33.046  35.952  1.00  0.00     0.198 A 
ATOM     95  C   UNL A   1      41.887  32.749  36.409  1.00  0.00     0.198 A 
ATOM     96  F   UNL A   1      43.282  31.699  34.889  1.00  0.00    -0.203 F 
ATOM     97  F   UNL A   1      38.351  33.459  36.336  1.00  0.00    -0.200 F 
ATOM     98  C   UNL A   1      40.641  33.180  36.812  1.00  0.00     0.200 A 
ATOM     99  F   UNL A   1      42.949  32.905  37.214  1.00  0.00    -0.200 F 
ATOM    100  F   UNL A   1      40.478  33.730  38.023  1.00  0.00    -0.200 F 
ENDBRANCH  67  90
ENDBRANCH  41  42
ENDBRANCH  34  36
ENDBRANCH  33  34
ENDBRANCH  32  33
ENDBRANCH  31  32
ENDBRANCH  30  31
ENDBRANCH  29  30
ENDBRANCH  28  29
ENDBRANCH  27  28
ENDBRANCH   1  27
TORSDOF 26
ENDMDL
