MODEL 1
REMARK VINA RESULT:     -13.7      0.000      0.000
REMARK SMILES COC(=O)c1ccc(C)c(NC(=O)[C@H]2CC=CC[C@H]2C(=O)OCCOCCOCCOCCOC(=O)c2ccc(-c3c4nc(c(-c5c(F)c(F)c(F)c(F)c5F)c5ccc([nH]5)c(-c5c(F)c(F)c(F)c(F)c5F)c5nc(c(-c6c(F)c(F)c(F)c(F)c6F)c6ccc3[nH]6)C=C5)C=C4)cc2)c1
REMARK SMILES IDX 27 1 26 2 25 3 24 4 23 5 22 6 20 7 21 8 19 9 14 10 15 11
REMARK SMILES IDX 16 12 18 13 17 14 12 15 11 16 13 18 10 19 5 20 6 21 100 22
REMARK SMILES IDX 7 23 8 24 9 25 3 26 4 27 2 28 1 29 28 30 29 31 30 32 31 33
REMARK SMILES IDX 32 34 33 35 34 36 35 37 36 38 37 39 38 40 99 41 39 42 98 43
REMARK SMILES IDX 40 44 41 45 42 46 92 47 43 48 97 49 91 50 93 51 44 52 96 53
REMARK SMILES IDX 90 54 89 55 45 57 77 58 57 59 76 60 58 61 61 62 75 63 94 64
REMARK SMILES IDX 59 65 60 66 74 68 95 69 62 70 46 71 47 72 55 73 48 74 49 75
REMARK SMILES IDX 53 76 56 77 50 78 51 79 54 80 52 81 78 82 79 83 87 84 80 85
REMARK SMILES IDX 81 86 85 87 88 88 82 89 83 90 86 91 84 92 63 93 64 94 72 95
REMARK SMILES IDX 65 96 66 97 70 98 73 99 67 100 68 101 71 102 69 103
REMARK H PARENT 11 17 93 56 61 67
REMARK Flexibility Score: inf
ROOT
ATOM      1  C   UNL A   1      43.079  18.495  25.709  1.00  0.00     0.188 C 
ENDROOT
BRANCH   1   2
ATOM      2  C   UNL A   1      42.263  19.679  26.590  1.00  0.00     0.188 C 
BRANCH   2   3
ATOM      3  O   UNL A   1      41.200  21.067  26.160  1.00  0.00    -0.376 OA
BRANCH   3   4
ATOM      4  C   UNL A   1      39.472  21.466  26.454  1.00  0.00     0.202 C 
BRANCH   4   5
ATOM      5  C   UNL A   1      38.072  21.796  25.161  1.00  0.00     0.261 C 
BRANCH   5   6
ATOM      6  O   UNL A   1      36.250  21.536  25.283  1.00  0.00    -0.463 OA
BRANCH   6   7
ATOM      7  C   UNL A   1      34.975  22.000  25.887  1.00  0.00     0.310 C 
ATOM      8  O   UNL A   1      34.849  22.281  27.091  1.00  0.00    -0.252 OA
BRANCH   7   9
ATOM      9  C   UNL A   1      33.521  22.493  24.992  1.00  0.00     0.116 C 
ATOM     10  C   UNL A   1      32.789  23.764  25.283  1.00  0.00     0.097 C 
ATOM     11  C   UNL A   1      31.316  23.803  24.827  1.00  0.00     0.041 C 
ATOM     12  C   UNL A   1      31.226  23.809  23.357  1.00  0.00    -0.030 C 
ATOM     13  C   UNL A   1      33.265  22.346  23.385  1.00  0.00     0.043 C 
ATOM     14  C   UNL A   1      32.159  23.132  22.686  1.00  0.00    -0.030 C 
BRANCH  10  15
ATOM     15  C   UNL A   1      33.632  24.888  24.714  1.00  0.00     0.228 C 
ATOM     16  N   UNL A   1      33.382  26.225  24.665  1.00  0.00    -0.326 N 
ATOM     17  H   UNL A   1      34.047  26.543  24.011  1.00  0.00     0.169 HD
ATOM     18  O   UNL A   1      34.670  24.560  24.108  1.00  0.00    -0.274 OA
BRANCH  16  19
ATOM     19  C   UNL A   1      32.692  27.448  25.028  1.00  0.00     0.044 A 
ATOM     20  C   UNL A   1      30.878  28.778  23.904  1.00  0.00     0.062 A 
ATOM     21  C   UNL A   1      31.091  29.863  24.717  1.00  0.00     0.016 A 
ATOM     22  C   UNL A   1      31.671  27.627  24.055  1.00  0.00     0.042 A 
ATOM     23  C   UNL A   1      32.006  29.715  25.739  1.00  0.00     0.006 A 
ATOM     24  C   UNL A   1      32.759  28.512  25.983  1.00  0.00    -0.027 A 
ATOM     25  C   UNL A   1      33.417  28.763  27.329  1.00  0.00     0.046 C 
BRANCH  20  26
ATOM     26  C   UNL A   1      29.644  28.705  23.099  1.00  0.00     0.337 C 
ATOM     27  O   UNL A   1      28.602  28.181  23.494  1.00  0.00    -0.246 OA
BRANCH  26  28
ATOM     28  O   UNL A   1      29.926  29.064  21.829  1.00  0.00    -0.465 OA
ATOM     29  C   UNL A   1      29.301  30.289  21.459  1.00  0.00     0.282 C 
ENDBRANCH  26  28
ENDBRANCH  20  26
ENDBRANCH  16  19
ENDBRANCH  10  15
ENDBRANCH   7   9
ENDBRANCH   6   7
ENDBRANCH   5   6
ENDBRANCH   4   5
ENDBRANCH   3   4
ENDBRANCH   2   3
ENDBRANCH   1   2
BRANCH   1  30
ATOM     30  O   UNL A   1      44.470  18.100  25.706  1.00  0.00    -0.377 OA
BRANCH  30  31
ATOM     31  C   UNL A   1      45.620  18.911  25.498  1.00  0.00     0.188 C 
BRANCH  31  32
ATOM     32  C   UNL A   1      45.571  20.192  24.715  1.00  0.00     0.188 C 
BRANCH  32  33
ATOM     33  O   UNL A   1      45.227  21.248  25.582  1.00  0.00    -0.376 OA
BRANCH  33  34
ATOM     34  C   UNL A   1      44.257  22.119  25.025  1.00  0.00     0.202 C 
BRANCH  34  35
ATOM     35  C   UNL A   1      44.512  23.587  25.392  1.00  0.00     0.261 C 
BRANCH  35  36
ATOM     36  O   UNL A   1      43.251  24.211  25.718  1.00  0.00    -0.460 OA
BRANCH  36  37
ATOM     37  C   UNL A   1      43.161  25.545  25.445  1.00  0.00     0.338 C 
ATOM     38  O   UNL A   1      44.097  26.291  25.205  1.00  0.00    -0.246 OA
BRANCH  37  39
ATOM     39  C   UNL A   1      41.817  26.015  25.868  1.00  0.00     0.060 A 
ATOM     40  C   UNL A   1      41.461  27.344  25.751  1.00  0.00     0.016 A 
ATOM     41  C   UNL A   1      40.988  25.249  26.637  1.00  0.00     0.016 A 
ATOM     42  C   UNL A   1      40.658  27.941  26.756  1.00  0.00     0.010 A 
ATOM     43  C   UNL A   1      40.151  25.903  27.559  1.00  0.00     0.010 A 
ATOM     44  C   UNL A   1      40.302  27.283  27.945  1.00  0.00    -0.014 A 
BRANCH  44  45
ATOM     45  C   UNL A   1      40.223  28.108  29.607  1.00  0.00     0.031 A 
ATOM     46  C   UNL A   1      38.690  29.142  30.394  1.00  0.00     0.074 A 
ATOM     47  C   UNL A   1      41.563  28.121  30.025  1.00  0.00     0.049 A 
ATOM     48  N   UNL A   1      38.706  30.509  30.514  1.00  0.00    -0.248 NA
ATOM     49  C   UNL A   1      37.069  29.079  30.377  1.00  0.00     0.031 C 
ATOM     50  C   UNL A   1      42.151  28.593  31.229  1.00  0.00     0.029 A 
ATOM     51  N   UNL A   1      42.768  27.981  29.315  1.00  0.00    -0.354 N 
ATOM     52  C   UNL A   1      37.599  31.292  30.472  1.00  0.00     0.074 A 
ATOM     53  C   UNL A   1      36.565  30.334  30.358  1.00  0.00     0.031 C 
ATOM     54  C   UNL A   1      43.339  29.173  31.114  1.00  0.00     0.029 A 
ATOM     55  C   UNL A   1      43.687  28.921  29.774  1.00  0.00     0.049 A 
ATOM     56  H   UNL A   1      42.937  27.321  28.604  1.00  0.00     0.167 HD
ATOM     57  C   UNL A   1      37.655  32.666  30.449  1.00  0.00     0.037 A 
ATOM     58  C   UNL A   1      44.766  29.481  29.225  1.00  0.00     0.037 A 
ATOM     59  C   UNL A   1      38.986  33.289  30.630  1.00  0.00     0.049 A 
ATOM     60  C   UNL A   1      44.470  30.978  29.060  1.00  0.00     0.074 A 
ATOM     61  C   UNL A   1      39.621  33.697  31.785  1.00  0.00     0.029 A 
ATOM     62  N   UNL A   1      39.949  33.504  29.615  1.00  0.00    -0.354 N 
ATOM     63  N   UNL A   1      43.403  31.625  29.517  1.00  0.00    -0.248 NA
ATOM     64  C   UNL A   1      45.356  31.866  28.325  1.00  0.00     0.031 C 
ATOM     65  C   UNL A   1      40.985  33.921  31.510  1.00  0.00     0.029 A 
ATOM     66  C   UNL A   1      41.249  33.688  30.176  1.00  0.00     0.049 A 
ATOM     67  H   UNL A   1      39.750  33.523  28.652  1.00  0.00     0.167 HD
ATOM     68  C   UNL A   1      43.425  32.959  29.123  1.00  0.00     0.074 A 
ATOM     69  C   UNL A   1      44.673  33.026  28.357  1.00  0.00     0.031 C 
ATOM     70  C   UNL A   1      42.499  33.955  29.420  1.00  0.00     0.037 A 
BRANCH  57  71
ATOM     71  C   UNL A   1      36.350  33.412  30.630  1.00  0.00     0.064 A 
ATOM     72  C   UNL A   1      35.589  33.831  29.520  1.00  0.00     0.173 A 
ATOM     73  C   UNL A   1      35.897  33.862  31.885  1.00  0.00     0.173 A 
ATOM     74  F   UNL A   1      35.896  33.437  28.278  1.00  0.00    -0.203 F 
ATOM     75  C   UNL A   1      34.515  34.716  29.643  1.00  0.00     0.198 A 
ATOM     76  C   UNL A   1      34.835  34.769  32.005  1.00  0.00     0.198 A 
ATOM     77  F   UNL A   1      36.517  33.466  33.008  1.00  0.00    -0.203 F 
ATOM     78  F   UNL A   1      33.855  35.121  28.548  1.00  0.00    -0.200 F 
ATOM     79  C   UNL A   1      34.159  35.213  30.882  1.00  0.00     0.200 A 
ATOM     80  F   UNL A   1      34.496  35.251  33.210  1.00  0.00    -0.200 F 
ATOM     81  F   UNL A   1      33.181  36.124  30.988  1.00  0.00    -0.200 F 
ENDBRANCH  57  71
BRANCH  58  82
ATOM     82  C   UNL A   1      45.568  28.374  28.623  1.00  0.00     0.064 A 
ATOM     83  C   UNL A   1      45.624  28.438  27.192  1.00  0.00     0.173 A 
ATOM     84  C   UNL A   1      46.708  27.872  29.257  1.00  0.00     0.173 A 
ATOM     85  F   UNL A   1      44.566  28.909  26.510  1.00  0.00    -0.203 F 
ATOM     86  C   UNL A   1      46.827  28.298  26.492  1.00  0.00     0.198 A 
ATOM     87  C   UNL A   1      47.895  27.655  28.533  1.00  0.00     0.198 A 
ATOM     88  F   UNL A   1      46.750  27.804  30.594  1.00  0.00    -0.203 F 
ATOM     89  F   UNL A   1      46.902  28.645  25.198  1.00  0.00    -0.200 F 
ATOM     90  C   UNL A   1      47.974  27.948  27.176  1.00  0.00     0.200 A 
ATOM     91  F   UNL A   1      49.009  27.296  29.184  1.00  0.00    -0.200 F 
ATOM     92  F   UNL A   1      49.162  27.979  26.553  1.00  0.00    -0.200 F 
ENDBRANCH  58  82
BRANCH  70  93
ATOM     93  C   UNL A   1      42.788  35.459  29.244  1.00  0.00     0.064 A 
ATOM     94  C   UNL A   1      43.544  36.244  30.135  1.00  0.00     0.173 A 
ATOM     95  C   UNL A   1      42.093  36.204  28.254  1.00  0.00     0.173 A 
ATOM     96  F   UNL A   1      44.135  35.716  31.214  1.00  0.00    -0.203 F 
ATOM     97  C   UNL A   1      43.675  37.631  29.988  1.00  0.00     0.198 A 
ATOM     98  C   UNL A   1      42.149  37.595  28.168  1.00  0.00     0.198 A 
ATOM     99  F   UNL A   1      41.326  35.605  27.332  1.00  0.00    -0.203 F 
ATOM    100  F   UNL A   1      44.485  38.308  30.814  1.00  0.00    -0.200 F 
ATOM    101  C   UNL A   1      42.968  38.307  29.014  1.00  0.00     0.200 A 
ATOM    102  F   UNL A   1      41.409  38.234  27.252  1.00  0.00    -0.200 F 
ATOM    103  F   UNL A   1      43.076  39.636  28.892  1.00  0.00    -0.200 F 
ENDBRANCH  70  93
ENDBRANCH  44  45
ENDBRANCH  37  39
ENDBRANCH  36  37
ENDBRANCH  35  36
ENDBRANCH  34  35
ENDBRANCH  33  34
ENDBRANCH  32  33
ENDBRANCH  31  32
ENDBRANCH  30  31
ENDBRANCH   1  30
TORSDOF 24
ENDMDL
MODEL 2
REMARK VINA RESULT:     -13.7      1.319      2.115
REMARK SMILES COC(=O)c1ccc(C)c(NC(=O)[C@H]2CC=CC[C@H]2C(=O)OCCOCCOCCOCCOC(=O)c2ccc(-c3c4nc(c(-c5c(F)c(F)c(F)c(F)c5F)c5ccc([nH]5)c(-c5c(F)c(F)c(F)c(F)c5F)c5nc(c(-c6c(F)c(F)c(F)c(F)c6F)c6ccc3[nH]6)C=C5)C=C4)cc2)c1
REMARK SMILES IDX 27 1 26 2 25 3 24 4 23 5 22 6 20 7 21 8 19 9 14 10 15 11
REMARK SMILES IDX 16 12 18 13 17 14 12 15 11 16 13 18 10 19 5 20 6 21 100 22
REMARK SMILES IDX 7 23 8 24 9 25 3 26 4 27 2 28 1 29 28 30 29 31 30 32 31 33
REMARK SMILES IDX 32 34 33 35 34 36 35 37 36 38 37 39 38 40 99 41 39 42 98 43
REMARK SMILES IDX 40 44 41 45 42 46 92 47 43 48 97 49 91 50 93 51 44 52 96 53
REMARK SMILES IDX 90 54 89 55 45 57 77 58 57 59 76 60 58 61 61 62 75 63 94 64
REMARK SMILES IDX 59 65 60 66 74 68 95 69 62 70 46 71 47 72 55 73 48 74 49 75
REMARK SMILES IDX 53 76 56 77 50 78 51 79 54 80 52 81 78 82 79 83 87 84 80 85
REMARK SMILES IDX 81 86 85 87 88 88 82 89 83 90 86 91 84 92 63 93 64 94 72 95
REMARK SMILES IDX 65 96 66 97 70 98 73 99 67 100 68 101 71 102 69 103
REMARK H PARENT 11 17 93 56 61 67
REMARK Flexibility Score: inf
ROOT
ATOM      1  C   UNL A   1      43.005  18.642  25.575  1.00  0.00     0.188 C 
ENDROOT
BRANCH   1   2
ATOM      2  C   UNL A   1      42.183  19.792  26.493  1.00  0.00     0.188 C 
BRANCH   2   3
ATOM      3  O   UNL A   1      41.079  21.161  26.112  1.00  0.00    -0.376 OA
BRANCH   3   4
ATOM      4  C   UNL A   1      39.293  21.345  26.003  1.00  0.00     0.202 C 
BRANCH   4   5
ATOM      5  C   UNL A   1      38.037  20.321  24.948  1.00  0.00     0.261 C 
BRANCH   5   6
ATOM      6  O   UNL A   1      36.237  20.009  25.208  1.00  0.00    -0.463 OA
BRANCH   6   7
ATOM      7  C   UNL A   1      34.851  20.420  24.867  1.00  0.00     0.310 C 
ATOM      8  O   UNL A   1      33.839  19.874  25.337  1.00  0.00    -0.252 OA
BRANCH   7   9
ATOM      9  C   UNL A   1      34.393  21.890  23.981  1.00  0.00     0.116 C 
ATOM     10  C   UNL A   1      33.109  22.614  24.233  1.00  0.00     0.097 C 
ATOM     11  C   UNL A   1      32.615  23.514  23.082  1.00  0.00     0.041 C 
ATOM     12  C   UNL A   1      33.509  24.671  22.903  1.00  0.00    -0.030 C 
ATOM     13  C   UNL A   1      35.374  23.129  23.568  1.00  0.00     0.043 C 
ATOM     14  C   UNL A   1      34.806  24.482  23.150  1.00  0.00    -0.030 C 
BRANCH  10  15
ATOM     15  C   UNL A   1      33.279  23.350  25.549  1.00  0.00     0.228 C 
ATOM     16  N   UNL A   1      32.988  24.640  25.869  1.00  0.00    -0.326 N 
ATOM     17  H   UNL A   1      33.472  24.763  26.718  1.00  0.00     0.169 HD
ATOM     18  O   UNL A   1      33.859  22.735  26.465  1.00  0.00    -0.274 OA
BRANCH  16  19
ATOM     19  C   UNL A   1      32.370  25.937  25.670  1.00  0.00     0.044 A 
ATOM     20  C   UNL A   1      32.882  28.224  26.581  1.00  0.00     0.062 A 
ATOM     21  C   UNL A   1      31.671  28.722  26.169  1.00  0.00     0.016 A 
ATOM     22  C   UNL A   1      33.196  26.873  26.348  1.00  0.00     0.042 A 
ATOM     23  C   UNL A   1      30.865  27.884  25.425  1.00  0.00     0.006 A 
ATOM     24  C   UNL A   1      31.206  26.527  25.082  1.00  0.00    -0.027 A 
ATOM     25  C   UNL A   1      30.141  26.129  24.076  1.00  0.00     0.046 C 
BRANCH  20  26
ATOM     26  C   UNL A   1      33.952  29.157  26.980  1.00  0.00     0.337 C 
ATOM     27  O   UNL A   1      34.859  28.862  27.759  1.00  0.00    -0.246 OA
BRANCH  26  28
ATOM     28  O   UNL A   1      33.630  30.400  26.565  1.00  0.00    -0.465 OA
ATOM     29  C   UNL A   1      33.810  31.377  27.585  1.00  0.00     0.282 C 
ENDBRANCH  26  28
ENDBRANCH  20  26
ENDBRANCH  16  19
ENDBRANCH  10  15
ENDBRANCH   7   9
ENDBRANCH   6   7
ENDBRANCH   5   6
ENDBRANCH   4   5
ENDBRANCH   3   4
ENDBRANCH   2   3
ENDBRANCH   1   2
BRANCH   1  30
ATOM     30  O   UNL A   1      44.419  18.370  25.432  1.00  0.00    -0.377 OA
BRANCH  30  31
ATOM     31  C   UNL A   1      45.471  19.283  25.139  1.00  0.00     0.188 C 
BRANCH  31  32
ATOM     32  C   UNL A   1      45.241  20.558  24.378  1.00  0.00     0.188 C 
BRANCH  32  33
ATOM     33  O   UNL A   1      44.950  21.591  25.291  1.00  0.00    -0.376 OA
BRANCH  33  34
ATOM     34  C   UNL A   1      44.035  22.540  24.769  1.00  0.00     0.202 C 
BRANCH  34  35
ATOM     35  C   UNL A   1      44.336  23.966  25.249  1.00  0.00     0.261 C 
BRANCH  35  36
ATOM     36  O   UNL A   1      43.104  24.580  25.686  1.00  0.00    -0.460 OA
BRANCH  36  37
ATOM     37  C   UNL A   1      42.968  25.907  25.398  1.00  0.00     0.338 C 
ATOM     38  O   UNL A   1      43.872  26.671  25.103  1.00  0.00    -0.246 OA
BRANCH  37  39
ATOM     39  C   UNL A   1      41.634  26.351  25.878  1.00  0.00     0.060 A 
ATOM     40  C   UNL A   1      41.256  27.676  25.798  1.00  0.00     0.016 A 
ATOM     41  C   UNL A   1      40.844  25.560  26.662  1.00  0.00     0.016 A 
ATOM     42  C   UNL A   1      40.482  28.244  26.841  1.00  0.00     0.010 A 
ATOM     43  C   UNL A   1      40.033  26.186  27.626  1.00  0.00     0.010 A 
ATOM     44  C   UNL A   1      40.179  27.562  28.031  1.00  0.00    -0.014 A 
BRANCH  44  45
ATOM     45  C   UNL A   1      40.149  28.357  29.709  1.00  0.00     0.031 A 
ATOM     46  C   UNL A   1      38.621  29.327  30.581  1.00  0.00     0.074 A 
ATOM     47  C   UNL A   1      41.505  28.408  30.065  1.00  0.00     0.049 A 
ATOM     48  N   UNL A   1      38.599  30.692  30.724  1.00  0.00    -0.248 NA
ATOM     49  C   UNL A   1      37.004  29.211  30.637  1.00  0.00     0.031 C 
ATOM     50  C   UNL A   1      42.133  28.880  31.250  1.00  0.00     0.029 A 
ATOM     51  N   UNL A   1      42.681  28.319  29.299  1.00  0.00    -0.354 N 
ATOM     52  C   UNL A   1      37.466  31.438  30.746  1.00  0.00     0.074 A 
ATOM     53  C   UNL A   1      36.459  30.449  30.662  1.00  0.00     0.031 C 
ATOM     54  C   UNL A   1      43.295  29.500  31.091  1.00  0.00     0.029 A 
ATOM     55  C   UNL A   1      43.589  29.281  29.732  1.00  0.00     0.049 A 
ATOM     56  H   UNL A   1      42.839  27.676  28.570  1.00  0.00     0.167 HD
ATOM     57  C   UNL A   1      37.476  32.814  30.744  1.00  0.00     0.037 A 
ATOM     58  C   UNL A   1      44.623  29.885  29.145  1.00  0.00     0.037 A 
ATOM     59  C   UNL A   1      38.793  33.477  30.876  1.00  0.00     0.049 A 
ATOM     60  C   UNL A   1      44.271  31.374  29.020  1.00  0.00     0.074 A 
ATOM     61  C   UNL A   1      39.467  33.888  32.008  1.00  0.00     0.029 A 
ATOM     62  N   UNL A   1      39.702  33.740  29.822  1.00  0.00    -0.354 N 
ATOM     63  N   UNL A   1      43.206  31.979  29.536  1.00  0.00    -0.248 NA
ATOM     64  C   UNL A   1      45.094  32.303  28.261  1.00  0.00     0.031 C 
ATOM     65  C   UNL A   1      40.810  34.161  31.676  1.00  0.00     0.029 A 
ATOM     66  C   UNL A   1      41.019  33.958  30.328  1.00  0.00     0.049 A 
ATOM     67  H   UNL A   1      39.458  33.768  28.870  1.00  0.00     0.167 HD
ATOM     68  C   UNL A   1      43.168  33.319  29.165  1.00  0.00     0.074 A 
ATOM     69  C   UNL A   1      44.376  33.438  28.344  1.00  0.00     0.031 C 
ATOM     70  C   UNL A   1      42.224  34.278  29.520  1.00  0.00     0.037 A 
BRANCH  57  71
ATOM     71  C   UNL A   1      36.158  33.513  30.998  1.00  0.00     0.064 A 
ATOM     72  C   UNL A   1      35.340  33.935  29.930  1.00  0.00     0.173 A 
ATOM     73  C   UNL A   1      35.743  33.916  32.281  1.00  0.00     0.173 A 
ATOM     74  F   UNL A   1      35.607  33.583  28.667  1.00  0.00    -0.203 F 
ATOM     75  C   UNL A   1      34.245  34.783  30.120  1.00  0.00     0.198 A 
ATOM     76  C   UNL A   1      34.659  34.786  32.467  1.00  0.00     0.198 A 
ATOM     77  F   UNL A   1      36.420  33.512  33.368  1.00  0.00    -0.203 F 
ATOM     78  F   UNL A   1      33.529  35.194  29.063  1.00  0.00    -0.200 F 
ATOM     79  C   UNL A   1      33.924  35.237  31.385  1.00  0.00     0.200 A 
ATOM     80  F   UNL A   1      34.355  35.226  33.698  1.00  0.00    -0.200 F 
ATOM     81  F   UNL A   1      32.925  36.114  31.554  1.00  0.00    -0.200 F 
ENDBRANCH  57  71
BRANCH  58  82
ATOM     82  C   UNL A   1      45.432  28.815  28.489  1.00  0.00     0.064 A 
ATOM     83  C   UNL A   1      45.400  28.889  27.057  1.00  0.00     0.173 A 
ATOM     84  C   UNL A   1      46.628  28.358  29.050  1.00  0.00     0.173 A 
ATOM     85  F   UNL A   1      44.285  29.319  26.443  1.00  0.00    -0.203 F 
ATOM     86  C   UNL A   1      46.563  28.801  26.286  1.00  0.00     0.198 A 
ATOM     87  C   UNL A   1      47.776  28.192  28.255  1.00  0.00     0.198 A 
ATOM     88  F   UNL A   1      46.752  28.285  30.382  1.00  0.00    -0.203 F 
ATOM     89  F   UNL A   1      46.546  29.158  24.992  1.00  0.00    -0.200 F 
ATOM     90  C   UNL A   1      47.762  28.496  26.897  1.00  0.00     0.200 A 
ATOM     91  F   UNL A   1      48.941  27.877  28.836  1.00  0.00    -0.200 F 
ATOM     92  F   UNL A   1      48.909  28.579  26.205  1.00  0.00    -0.200 F 
ENDBRANCH  58  82
BRANCH  70  93
ATOM     93  C   UNL A   1      42.457  35.794  29.358  1.00  0.00     0.064 A 
ATOM     94  C   UNL A   1      41.939  36.582  28.313  1.00  0.00     0.173 A 
ATOM     95  C   UNL A   1      43.426  36.452  30.161  1.00  0.00     0.173 A 
ATOM     96  F   UNL A   1      41.132  36.069  27.375  1.00  0.00    -0.203 F 
ATOM     97  C   UNL A   1      42.281  37.930  28.150  1.00  0.00     0.198 A 
ATOM     98  C   UNL A   1      43.835  37.767  29.938  1.00  0.00     0.198 A 
ATOM     99  F   UNL A   1      44.018  35.838  31.196  1.00  0.00    -0.203 F 
ATOM    100  F   UNL A   1      41.681  38.651  27.192  1.00  0.00    -0.200 F 
ATOM    101  C   UNL A   1      43.237  38.518  28.952  1.00  0.00     0.200 A 
ATOM    102  F   UNL A   1      44.807  38.297  30.693  1.00  0.00    -0.200 F 
ATOM    103  F   UNL A   1      43.579  39.801  28.778  1.00  0.00    -0.200 F 
ENDBRANCH  70  93
ENDBRANCH  44  45
ENDBRANCH  37  39
ENDBRANCH  36  37
ENDBRANCH  35  36
ENDBRANCH  34  35
ENDBRANCH  33  34
ENDBRANCH  32  33
ENDBRANCH  31  32
ENDBRANCH  30  31
ENDBRANCH   1  30
TORSDOF 24
ENDMDL
MODEL 3
REMARK VINA RESULT:     -12.7      4.631     10.410
REMARK SMILES COC(=O)c1ccc(C)c(NC(=O)[C@H]2CC=CC[C@H]2C(=O)OCCOCCOCCOCCOC(=O)c2ccc(-c3c4nc(c(-c5c(F)c(F)c(F)c(F)c5F)c5ccc([nH]5)c(-c5c(F)c(F)c(F)c(F)c5F)c5nc(c(-c6c(F)c(F)c(F)c(F)c6F)c6ccc3[nH]6)C=C5)C=C4)cc2)c1
REMARK SMILES IDX 27 1 26 2 25 3 24 4 23 5 22 6 20 7 21 8 19 9 14 10 15 11
REMARK SMILES IDX 16 12 18 13 17 14 12 15 11 16 13 18 10 19 5 20 6 21 100 22
REMARK SMILES IDX 7 23 8 24 9 25 3 26 4 27 2 28 1 29 28 30 29 31 30 32 31 33
REMARK SMILES IDX 32 34 33 35 34 36 35 37 36 38 37 39 38 40 99 41 39 42 98 43
REMARK SMILES IDX 40 44 41 45 42 46 92 47 43 48 97 49 91 50 93 51 44 52 96 53
REMARK SMILES IDX 90 54 89 55 45 57 77 58 57 59 76 60 58 61 61 62 75 63 94 64
REMARK SMILES IDX 59 65 60 66 74 68 95 69 62 70 46 71 47 72 55 73 48 74 49 75
REMARK SMILES IDX 53 76 56 77 50 78 51 79 54 80 52 81 78 82 79 83 87 84 80 85
REMARK SMILES IDX 81 86 85 87 88 88 82 89 83 90 86 91 84 92 63 93 64 94 72 95
REMARK SMILES IDX 65 96 66 97 70 98 73 99 67 100 68 101 71 102 69 103
REMARK H PARENT 11 17 93 56 61 67
REMARK Flexibility Score: inf
ROOT
ATOM      1  C   UNL A   1      33.028  30.434  27.461  1.00  0.00     0.188 C 
ENDROOT
BRANCH   1   2
ATOM      2  C   UNL A   1      32.662  29.162  26.417  1.00  0.00     0.188 C 
BRANCH   2   3
ATOM      3  O   UNL A   1      33.139  27.430  26.318  1.00  0.00    -0.376 OA
BRANCH   3   4
ATOM      4  C   UNL A   1      34.297  26.499  25.303  1.00  0.00     0.202 C 
BRANCH   4   5
ATOM      5  C   UNL A   1      34.682  24.604  25.340  1.00  0.00     0.261 C 
BRANCH   5   6
ATOM      6  O   UNL A   1      34.494  23.375  26.702  1.00  0.00    -0.463 OA
BRANCH   6   7
ATOM      7  C   UNL A   1      33.854  22.110  27.144  1.00  0.00     0.310 C 
ATOM      8  O   UNL A   1      33.014  22.048  28.057  1.00  0.00    -0.252 OA
BRANCH   7   9
ATOM      9  C   UNL A   1      33.950  20.549  26.300  1.00  0.00     0.116 C 
ATOM     10  C   UNL A   1      32.738  19.823  25.809  1.00  0.00     0.097 C 
ATOM     11  C   UNL A   1      32.913  18.307  25.589  1.00  0.00     0.041 C 
ATOM     12  C   UNL A   1      33.820  18.045  24.458  1.00  0.00    -0.030 C 
ATOM     13  C   UNL A   1      35.052  20.111  25.176  1.00  0.00     0.043 C 
ATOM     14  C   UNL A   1      34.816  18.910  24.263  1.00  0.00    -0.030 C 
BRANCH  10  15
ATOM     15  C   UNL A   1      32.260  20.565  24.575  1.00  0.00     0.228 C 
ATOM     16  N   UNL A   1      31.550  21.722  24.476  1.00  0.00    -0.326 N 
ATOM     17  H   UNL A   1      31.250  21.708  23.538  1.00  0.00     0.169 HD
ATOM     18  O   UNL A   1      32.447  20.007  23.477  1.00  0.00    -0.274 OA
BRANCH  16  19
ATOM     19  C   UNL A   1      30.984  22.964  24.966  1.00  0.00     0.044 A 
ATOM     20  C   UNL A   1      31.092  25.332  24.128  1.00  0.00     0.062 A 
ATOM     21  C   UNL A   1      30.610  25.834  25.311  1.00  0.00     0.016 A 
ATOM     22  C   UNL A   1      31.284  23.946  23.984  1.00  0.00     0.042 A 
ATOM     23  C   UNL A   1      30.216  24.921  26.268  1.00  0.00     0.006 A 
ATOM     24  C   UNL A   1      30.302  23.492  26.109  1.00  0.00    -0.027 A 
ATOM     25  C   UNL A   1      29.533  22.947  27.299  1.00  0.00     0.046 C 
BRANCH  20  26
ATOM     26  C   UNL A   1      31.117  26.194  22.931  1.00  0.00     0.337 C 
ATOM     27  O   UNL A   1      31.471  25.804  21.818  1.00  0.00    -0.246 OA
BRANCH  26  28
ATOM     28  O   UNL A   1      30.939  27.476  23.309  1.00  0.00    -0.465 OA
ATOM     29  C   UNL A   1      30.309  28.258  22.298  1.00  0.00     0.282 C 
ENDBRANCH  26  28
ENDBRANCH  20  26
ENDBRANCH  16  19
ENDBRANCH  10  15
ENDBRANCH   7   9
ENDBRANCH   6   7
ENDBRANCH   5   6
ENDBRANCH   4   5
ENDBRANCH   3   4
ENDBRANCH   2   3
ENDBRANCH   1   2
BRANCH   1  30
ATOM     30  O   UNL A   1      34.159  31.335  27.505  1.00  0.00    -0.377 OA
BRANCH  30  31
ATOM     31  C   UNL A   1      34.230  32.639  28.071  1.00  0.00     0.188 C 
BRANCH  31  32
ATOM     32  C   UNL A   1      33.099  33.622  27.970  1.00  0.00     0.188 C 
BRANCH  32  33
ATOM     33  O   UNL A   1      33.611  34.927  28.122  1.00  0.00    -0.376 OA
BRANCH  33  34
ATOM     34  C   UNL A   1      33.006  35.629  29.197  1.00  0.00     0.202 C 
BRANCH  34  35
ATOM     35  C   UNL A   1      33.967  35.826  30.377  1.00  0.00     0.261 C 
BRANCH  35  36
ATOM     36  O   UNL A   1      33.207  36.253  31.528  1.00  0.00    -0.460 OA
BRANCH  36  37
ATOM     37  C   UNL A   1      32.698  35.255  32.307  1.00  0.00     0.338 C 
ATOM     38  O   UNL A   1      31.533  35.138  32.649  1.00  0.00    -0.246 OA
BRANCH  37  39
ATOM     39  C   UNL A   1      33.831  34.573  32.986  1.00  0.00     0.060 A 
ATOM     40  C   UNL A   1      34.834  35.300  33.595  1.00  0.00     0.016 A 
ATOM     41  C   UNL A   1      34.091  33.245  32.807  1.00  0.00     0.016 A 
ATOM     42  C   UNL A   1      36.171  34.835  33.527  1.00  0.00     0.010 A 
ATOM     43  C   UNL A   1      35.434  32.827  32.832  1.00  0.00     0.010 A 
ATOM     44  C   UNL A   1      36.559  33.726  32.757  1.00  0.00    -0.014 A 
BRANCH  44  45
ATOM     45  C   UNL A   1      38.141  33.632  31.789  1.00  0.00     0.031 A 
ATOM     46  C   UNL A   1      38.549  32.455  30.213  1.00  0.00     0.074 A 
ATOM     47  C   UNL A   1      39.058  34.312  32.605  1.00  0.00     0.049 A 
ATOM     48  N   UNL A   1      39.377  31.363  30.301  1.00  0.00    -0.248 NA
ATOM     49  C   UNL A   1      37.759  31.856  28.928  1.00  0.00     0.031 C 
ATOM     50  C   UNL A   1      40.434  34.606  32.403  1.00  0.00     0.029 A 
ATOM     51  N   UNL A   1      39.035  34.640  33.972  1.00  0.00    -0.354 N 
ATOM     52  C   UNL A   1      39.260  30.253  29.531  1.00  0.00     0.074 A 
ATOM     53  C   UNL A   1      38.189  30.599  28.674  1.00  0.00     0.031 C 
ATOM     54  C   UNL A   1      41.210  34.550  33.478  1.00  0.00     0.029 A 
ATOM     55  C   UNL A   1      40.286  34.393  34.528  1.00  0.00     0.049 A 
ATOM     56  H   UNL A   1      38.255  34.990  34.461  1.00  0.00     0.167 HD
ATOM     57  C   UNL A   1      40.008  29.117  29.737  1.00  0.00     0.037 A 
ATOM     58  C   UNL A   1      40.695  34.147  35.774  1.00  0.00     0.037 A 
ATOM     59  C   UNL A   1      41.082  29.194  30.753  1.00  0.00     0.049 A 
ATOM     60  C   UNL A   1      41.248  32.714  35.798  1.00  0.00     0.074 A 
ATOM     61  C   UNL A   1      42.410  29.542  30.611  1.00  0.00     0.029 A 
ATOM     62  N   UNL A   1      40.922  29.015  32.148  1.00  0.00    -0.354 N 
ATOM     63  N   UNL A   1      41.429  31.922  34.748  1.00  0.00    -0.248 NA
ATOM     64  C   UNL A   1      41.613  32.046  37.038  1.00  0.00     0.031 C 
ATOM     65  C   UNL A   1      42.963  29.793  31.883  1.00  0.00     0.029 A 
ATOM     66  C   UNL A   1      42.015  29.589  32.865  1.00  0.00     0.049 A 
ATOM     67  H   UNL A   1      40.160  28.556  32.568  1.00  0.00     0.167 HD
ATOM     68  C   UNL A   1      41.878  30.666  35.145  1.00  0.00     0.074 A 
ATOM     69  C   UNL A   1      41.945  30.818  36.601  1.00  0.00     0.031 C 
ATOM     70  C   UNL A   1      42.198  29.577  34.339  1.00  0.00     0.037 A 
BRANCH  57  71
ATOM     71  C   UNL A   1      39.938  28.043  28.672  1.00  0.00     0.064 A 
ATOM     72  C   UNL A   1      39.349  26.790  28.938  1.00  0.00     0.173 A 
ATOM     73  C   UNL A   1      40.578  28.165  27.424  1.00  0.00     0.173 A 
ATOM     74  F   UNL A   1      38.679  26.564  30.074  1.00  0.00    -0.203 F 
ATOM     75  C   UNL A   1      39.477  25.706  28.066  1.00  0.00     0.198 A 
ATOM     76  C   UNL A   1      40.726  27.069  26.561  1.00  0.00     0.198 A 
ATOM     77  F   UNL A   1      41.114  29.337  27.051  1.00  0.00    -0.203 F 
ATOM     78  F   UNL A   1      38.939  24.521  28.391  1.00  0.00    -0.200 F 
ATOM     79  C   UNL A   1      40.195  25.835  26.893  1.00  0.00     0.200 A 
ATOM     80  F   UNL A   1      41.427  27.200  25.424  1.00  0.00    -0.200 F 
ATOM     81  F   UNL A   1      40.385  24.773  26.098  1.00  0.00    -0.200 F 
ENDBRANCH  57  71
BRANCH  58  82
ATOM     82  C   UNL A   1      40.043  35.164  36.652  1.00  0.00     0.064 A 
ATOM     83  C   UNL A   1      39.066  34.596  37.534  1.00  0.00     0.173 A 
ATOM     84  C   UNL A   1      40.754  36.259  37.151  1.00  0.00     0.173 A 
ATOM     85  F   UNL A   1      38.341  33.541  37.126  1.00  0.00    -0.203 F 
ATOM     86  C   UNL A   1      39.027  34.912  38.896  1.00  0.00     0.198 A 
ATOM     87  C   UNL A   1      40.650  36.625  38.505  1.00  0.00     0.198 A 
ATOM     88  F   UNL A   1      41.705  36.832  36.402  1.00  0.00    -0.203 F 
ATOM     89  F   UNL A   1      38.306  34.164  39.744  1.00  0.00    -0.200 F 
ATOM     90  C   UNL A   1      39.856  35.899  39.388  1.00  0.00     0.200 A 
ATOM     91  F   UNL A   1      41.436  37.595  38.989  1.00  0.00    -0.200 F 
ATOM     92  F   UNL A   1      39.958  36.093  40.712  1.00  0.00    -0.200 F 
ENDBRANCH  58  82
BRANCH  70  93
ATOM     93  C   UNL A   1      43.016  28.369  34.836  1.00  0.00     0.064 A 
ATOM     94  C   UNL A   1      44.392  28.391  35.127  1.00  0.00     0.173 A 
ATOM     95  C   UNL A   1      42.446  27.068  34.809  1.00  0.00     0.173 A 
ATOM     96  F   UNL A   1      45.114  29.516  35.042  1.00  0.00    -0.203 F 
ATOM     97  C   UNL A   1      45.108  27.234  35.460  1.00  0.00     0.198 A 
ATOM     98  C   UNL A   1      43.182  25.907  35.048  1.00  0.00     0.198 A 
ATOM     99  F   UNL A   1      41.146  26.874  34.543  1.00  0.00    -0.203 F 
ATOM    100  F   UNL A   1      46.396  27.336  35.819  1.00  0.00    -0.200 F 
ATOM    101  C   UNL A   1      44.508  25.993  35.408  1.00  0.00     0.200 A 
ATOM    102  F   UNL A   1      42.591  24.710  34.934  1.00  0.00    -0.200 F 
ATOM    103  F   UNL A   1      45.201  24.887  35.704  1.00  0.00    -0.200 F 
ENDBRANCH  70  93
ENDBRANCH  44  45
ENDBRANCH  37  39
ENDBRANCH  36  37
ENDBRANCH  35  36
ENDBRANCH  34  35
ENDBRANCH  33  34
ENDBRANCH  32  33
ENDBRANCH  31  32
ENDBRANCH  30  31
ENDBRANCH   1  30
TORSDOF 24
ENDMDL
