MODEL 1
REMARK VINA RESULT:      -9.1      0.000      0.000
REMARK SMILES CCc1cc(OC(F)(F)F)cc2c1O[C@H](C(F)(F)F)C(C(=O)OCCOCCOCCOCCOC(=O)c1ccc(-c3c4nc(c(-c5c(F)c(F)c(F)c(F)c5F)c5ccc([nH]5)c(-c5c(F)c(F)c(F)c(F)c5F)c5nc(c(-c6c(F)c(F)c(F)c(F)c6F)c6ccc3[nH]6)C=C5)C=C4)cc1)=C2
REMARK SMILES IDX 29 1 28 2 27 3 26 4 25 5 24 6 23 7 21 8 22 9 20 10 3 11 4 12
REMARK SMILES IDX 13 13 5 14 12 15 14 16 11 17 101 18 15 19 2 20 1 21 6 22
REMARK SMILES IDX 7 23 8 24 9 25 10 26 16 27 17 28 18 29 19 30 30 31 31 32
REMARK SMILES IDX 32 33 33 34 34 35 35 36 36 37 37 38 38 39 39 40 100 41 40 42
REMARK SMILES IDX 99 43 41 44 42 45 43 46 93 47 44 48 98 49 92 50 94 51 45 52
REMARK SMILES IDX 97 53 91 54 90 55 46 57 78 58 58 59 77 60 59 61 62 62 76 63
REMARK SMILES IDX 95 64 60 65 61 66 75 68 96 69 63 70 47 71 48 72 56 73 49 74
REMARK SMILES IDX 50 75 54 76 57 77 51 78 52 79 55 80 53 81 79 82 80 83 88 84
REMARK SMILES IDX 81 85 82 86 86 87 89 88 83 89 84 90 87 91 85 92 64 93 65 94
REMARK SMILES IDX 73 95 66 96 67 97 71 98 74 99 68 100 69 101 72 102 70 103
REMARK H PARENT 94 56 62 67
REMARK Flexibility Score: inf
ROOT
ATOM      1  O   UNL A   1      40.411  29.142  28.770  1.00  0.00    -0.377 OA
ENDROOT
BRANCH   1   2
ATOM      2  C   UNL A   1      39.582  29.219  29.917  1.00  0.00     0.188 C 
BRANCH   2   3
ATOM      3  C   UNL A   1      38.101  29.611  29.707  1.00  0.00     0.188 C 
BRANCH   3   4
ATOM      4  O   UNL A   1      37.858  30.206  28.447  1.00  0.00    -0.376 OA
BRANCH   4   5
ATOM      5  C   UNL A   1      36.685  30.966  28.257  1.00  0.00     0.202 C 
BRANCH   5   6
ATOM      6  C   UNL A   1      35.296  30.303  28.235  1.00  0.00     0.261 C 
BRANCH   6   7
ATOM      7  O   UNL A   1      34.726  29.980  26.960  1.00  0.00    -0.460 OA
BRANCH   7   8
ATOM      8  C   UNL A   1      33.387  29.827  26.903  1.00  0.00     0.338 C 
ATOM      9  O   UNL A   1      32.558  30.690  27.141  1.00  0.00    -0.246 OA
BRANCH   8  10
ATOM     10  C   UNL A   1      33.040  28.496  26.365  1.00  0.00     0.087 C 
ATOM     11  C   UNL A   1      31.602  24.620  26.002  1.00  0.00    -0.002 A 
ATOM     12  C   UNL A   1      32.484  23.606  25.588  1.00  0.00     0.054 A 
ATOM     13  C   UNL A   1      32.126  25.901  26.178  1.00  0.00     0.131 A 
ATOM     14  C   UNL A   1      33.837  23.871  25.341  1.00  0.00     0.130 A 
ATOM     15  C   UNL A   1      33.478  26.195  25.910  1.00  0.00     0.021 A 
ATOM     16  O   UNL A   1      31.290  26.869  26.682  1.00  0.00    -0.475 OA
ATOM     17  C   UNL A   1      34.326  25.175  25.479  1.00  0.00     0.058 A 
ATOM     18  C   UNL A   1      33.973  27.545  26.193  1.00  0.00     0.027 C 
ATOM     19  C   UNL A   1      31.576  28.185  26.153  1.00  0.00     0.316 C 
BRANCH  11  20
ATOM     20  C   UNL A   1      30.161  24.271  26.311  1.00  0.00     0.036 C 
ATOM     21  C   UNL A   1      29.919  22.916  26.970  1.00  0.00     0.009 C 
ENDBRANCH  11  20
BRANCH  14  22
ATOM     22  O   UNL A   1      34.778  22.949  24.974  1.00  0.00    -0.406 OA
BRANCH  22  23
ATOM     23  C   UNL A   1      35.540  22.350  26.011  1.00  0.00     0.573 C 
ATOM     24  F   UNL A   1      34.880  22.380  27.189  1.00  0.00    -0.132 F 
ATOM     25  F   UNL A   1      35.853  21.073  25.702  1.00  0.00    -0.132 F 
ATOM     26  F   UNL A   1      36.692  23.041  26.159  1.00  0.00    -0.132 F 
ENDBRANCH  22  23
ENDBRANCH  14  22
BRANCH  19  27
ATOM     27  C   UNL A   1      31.061  28.296  24.694  1.00  0.00     0.430 C 
ATOM     28  F   UNL A   1      32.052  28.289  23.772  1.00  0.00    -0.167 F 
ATOM     29  F   UNL A   1      30.222  27.278  24.384  1.00  0.00    -0.167 F 
ATOM     30  F   UNL A   1      30.349  29.428  24.495  1.00  0.00    -0.167 F 
ENDBRANCH  19  27
ENDBRANCH   8  10
ENDBRANCH   7   8
ENDBRANCH   6   7
ENDBRANCH   5   6
ENDBRANCH   4   5
ENDBRANCH   3   4
ENDBRANCH   2   3
ENDBRANCH   1   2
BRANCH   1  31
ATOM     31  C   UNL A   1      40.525  27.904  28.077  1.00  0.00     0.188 C 
BRANCH  31  32
ATOM     32  C   UNL A   1      40.384  26.537  28.793  1.00  0.00     0.188 C 
BRANCH  32  33
ATOM     33  O   UNL A   1      39.194  25.824  28.509  1.00  0.00    -0.376 OA
BRANCH  33  34
ATOM     34  C   UNL A   1      39.174  24.947  27.400  1.00  0.00     0.202 C 
BRANCH  34  35
ATOM     35  C   UNL A   1      40.209  23.815  27.391  1.00  0.00     0.261 C 
BRANCH  35  36
ATOM     36  O   UNL A   1      40.978  23.682  26.187  1.00  0.00    -0.460 OA
BRANCH  36  37
ATOM     37  C   UNL A   1      42.272  23.328  26.325  1.00  0.00     0.338 C 
ATOM     38  O   UNL A   1      42.748  22.207  26.220  1.00  0.00    -0.246 OA
BRANCH  37  39
ATOM     39  C   UNL A   1      43.067  24.564  26.437  1.00  0.00     0.060 A 
ATOM     40  C   UNL A   1      43.336  25.306  25.279  1.00  0.00     0.016 A 
ATOM     41  C   UNL A   1      43.530  24.996  27.682  1.00  0.00     0.016 A 
ATOM     42  C   UNL A   1      44.103  26.467  25.359  1.00  0.00     0.010 A 
ATOM     43  C   UNL A   1      44.322  26.144  27.757  1.00  0.00     0.010 A 
ATOM     44  C   UNL A   1      44.644  26.861  26.590  1.00  0.00    -0.014 A 
BRANCH  44  45
ATOM     45  C   UNL A   1      45.716  27.882  26.611  1.00  0.00     0.031 A 
ATOM     46  C   UNL A   1      45.330  29.307  26.903  1.00  0.00     0.074 A 
ATOM     47  C   UNL A   1      47.005  27.551  26.427  1.00  0.00     0.049 A 
ATOM     48  N   UNL A   1      46.079  30.377  26.974  1.00  0.00    -0.248 NA
ATOM     49  C   UNL A   1      43.899  29.556  27.147  1.00  0.00     0.031 C 
ATOM     50  C   UNL A   1      47.504  26.202  26.178  1.00  0.00     0.029 A 
ATOM     51  N   UNL A   1      48.130  28.337  26.419  1.00  0.00    -0.354 N 
ATOM     52  C   UNL A   1      45.213  31.422  27.266  1.00  0.00     0.074 A 
ATOM     53  C   UNL A   1      43.879  30.868  27.321  1.00  0.00     0.031 C 
ATOM     54  C   UNL A   1      48.840  26.252  26.036  1.00  0.00     0.029 A 
ATOM     55  C   UNL A   1      49.284  27.641  26.152  1.00  0.00     0.049 A 
ATOM     56  H   UNL A   1      48.113  29.306  26.589  1.00  0.00     0.167 HD
ATOM     57  C   UNL A   1      45.506  32.726  27.483  1.00  0.00     0.037 A 
ATOM     58  C   UNL A   1      50.547  28.085  26.001  1.00  0.00     0.037 A 
ATOM     59  C   UNL A   1      46.836  33.274  27.421  1.00  0.00     0.049 A 
ATOM     60  C   UNL A   1      50.837  29.556  26.171  1.00  0.00     0.074 A 
ATOM     61  C   UNL A   1      47.242  34.578  27.637  1.00  0.00     0.029 A 
ATOM     62  N   UNL A   1      47.975  32.545  27.110  1.00  0.00    -0.354 N 
ATOM     63  N   UNL A   1      50.020  30.535  26.478  1.00  0.00    -0.248 NA
ATOM     64  C   UNL A   1      52.232  29.981  25.982  1.00  0.00     0.031 C 
ATOM     65  C   UNL A   1      48.617  34.653  27.393  1.00  0.00     0.029 A 
ATOM     66  C   UNL A   1      49.081  33.380  27.098  1.00  0.00     0.049 A 
ATOM     67  H   UNL A   1      47.996  31.579  26.925  1.00  0.00     0.167 HD
ATOM     68  C   UNL A   1      50.804  31.680  26.553  1.00  0.00     0.074 A 
ATOM     69  C   UNL A   1      52.164  31.271  26.275  1.00  0.00     0.031 C 
ATOM     70  C   UNL A   1      50.432  32.957  26.828  1.00  0.00     0.037 A 
BRANCH  57  71
ATOM     71  C   UNL A   1      44.362  33.655  27.771  1.00  0.00     0.064 A 
ATOM     72  C   UNL A   1      43.781  33.743  29.046  1.00  0.00     0.173 A 
ATOM     73  C   UNL A   1      43.856  34.488  26.762  1.00  0.00     0.173 A 
ATOM     74  F   UNL A   1      44.216  32.956  30.042  1.00  0.00    -0.203 F 
ATOM     75  C   UNL A   1      42.718  34.608  29.291  1.00  0.00     0.198 A 
ATOM     76  C   UNL A   1      42.816  35.377  27.020  1.00  0.00     0.198 A 
ATOM     77  F   UNL A   1      44.375  34.447  25.526  1.00  0.00    -0.203 F 
ATOM     78  F   UNL A   1      42.143  34.635  30.501  1.00  0.00    -0.200 F 
ATOM     79  C   UNL A   1      42.242  35.430  28.281  1.00  0.00     0.200 A 
ATOM     80  F   UNL A   1      42.368  36.182  26.046  1.00  0.00    -0.200 F 
ATOM     81  F   UNL A   1      41.224  36.269  28.520  1.00  0.00    -0.200 F 
ENDBRANCH  57  71
BRANCH  58  82
ATOM     82  C   UNL A   1      51.638  27.131  25.663  1.00  0.00     0.064 A 
ATOM     83  C   UNL A   1      52.371  26.480  26.666  1.00  0.00     0.173 A 
ATOM     84  C   UNL A   1      51.990  26.874  24.330  1.00  0.00     0.173 A 
ATOM     85  F   UNL A   1      52.092  26.711  27.957  1.00  0.00    -0.203 F 
ATOM     86  C   UNL A   1      53.430  25.631  26.348  1.00  0.00     0.198 A 
ATOM     87  C   UNL A   1      53.026  25.998  24.012  1.00  0.00     0.198 A 
ATOM     88  F   UNL A   1      51.324  27.472  23.331  1.00  0.00    -0.203 F 
ATOM     89  F   UNL A   1      54.150  25.067  27.327  1.00  0.00    -0.200 F 
ATOM     90  C   UNL A   1      53.752  25.385  25.022  1.00  0.00     0.200 A 
ATOM     91  F   UNL A   1      53.325  25.754  22.730  1.00  0.00    -0.200 F 
ATOM     92  F   UNL A   1      54.768  24.567  24.718  1.00  0.00    -0.200 F 
ENDBRANCH  58  82
BRANCH  70  93
ATOM     93  C   UNL A   1      51.518  33.995  26.894  1.00  0.00     0.064 A 
ATOM     94  C   UNL A   1      51.893  34.752  25.774  1.00  0.00     0.173 A 
ATOM     95  C   UNL A   1      52.172  34.258  28.109  1.00  0.00     0.173 A 
ATOM     96  F   UNL A   1      51.308  34.535  24.586  1.00  0.00    -0.203 F 
ATOM     97  C   UNL A   1      52.907  35.702  25.858  1.00  0.00     0.198 A 
ATOM     98  C   UNL A   1      53.159  35.236  28.198  1.00  0.00     0.198 A 
ATOM     99  F   UNL A   1      51.846  33.572  29.215  1.00  0.00    -0.203 F 
ATOM    100  F   UNL A   1      53.292  36.367  24.759  1.00  0.00    -0.200 F 
ATOM    101  C   UNL A   1      53.534  35.949  27.070  1.00  0.00     0.200 A 
ATOM    102  F   UNL A   1      53.748  35.486  29.375  1.00  0.00    -0.200 F 
ATOM    103  F   UNL A   1      54.506  36.868  27.149  1.00  0.00    -0.200 F 
ENDBRANCH  70  93
ENDBRANCH  44  45
ENDBRANCH  37  39
ENDBRANCH  36  37
ENDBRANCH  35  36
ENDBRANCH  34  35
ENDBRANCH  33  34
ENDBRANCH  32  33
ENDBRANCH  31  32
ENDBRANCH   1  31
TORSDOF 24
ENDMDL
MODEL 2
REMARK VINA RESULT:      -8.5      7.899     16.642
REMARK SMILES CCc1cc(OC(F)(F)F)cc2c1O[C@H](C(F)(F)F)C(C(=O)OCCOCCOCCOCCOC(=O)c1ccc(-c3c4nc(c(-c5c(F)c(F)c(F)c(F)c5F)c5ccc([nH]5)c(-c5c(F)c(F)c(F)c(F)c5F)c5nc(c(-c6c(F)c(F)c(F)c(F)c6F)c6ccc3[nH]6)C=C5)C=C4)cc1)=C2
REMARK SMILES IDX 29 1 28 2 27 3 26 4 25 5 24 6 23 7 21 8 22 9 20 10 3 11 4 12
REMARK SMILES IDX 13 13 5 14 12 15 14 16 11 17 101 18 15 19 2 20 1 21 6 22
REMARK SMILES IDX 7 23 8 24 9 25 10 26 16 27 17 28 18 29 19 30 30 31 31 32
REMARK SMILES IDX 32 33 33 34 34 35 35 36 36 37 37 38 38 39 39 40 100 41 40 42
REMARK SMILES IDX 99 43 41 44 42 45 43 46 93 47 44 48 98 49 92 50 94 51 45 52
REMARK SMILES IDX 97 53 91 54 90 55 46 57 78 58 58 59 77 60 59 61 62 62 76 63
REMARK SMILES IDX 95 64 60 65 61 66 75 68 96 69 63 70 47 71 48 72 56 73 49 74
REMARK SMILES IDX 50 75 54 76 57 77 51 78 52 79 55 80 53 81 79 82 80 83 88 84
REMARK SMILES IDX 81 85 82 86 86 87 89 88 83 89 84 90 87 91 85 92 64 93 65 94
REMARK SMILES IDX 73 95 66 96 67 97 71 98 74 99 68 100 69 101 72 102 70 103
REMARK H PARENT 94 56 62 67
REMARK Flexibility Score: inf
ROOT
ATOM      1  O   UNL A   1      46.901  41.452  29.355  1.00  0.00    -0.377 OA
ENDROOT
BRANCH   1   2
ATOM      2  C   UNL A   1      46.436  41.430  28.016  1.00  0.00     0.188 C 
BRANCH   2   3
ATOM      3  C   UNL A   1      47.306  40.701  26.967  1.00  0.00     0.188 C 
BRANCH   3   4
ATOM      4  O   UNL A   1      46.547  40.104  25.934  1.00  0.00    -0.376 OA
BRANCH   4   5
ATOM      5  C   UNL A   1      46.779  40.487  24.596  1.00  0.00     0.202 C 
BRANCH   5   6
ATOM      6  C   UNL A   1      46.299  41.846  24.058  1.00  0.00     0.261 C 
BRANCH   6   7
ATOM      7  O   UNL A   1      45.889  41.918  22.686  1.00  0.00    -0.460 OA
BRANCH   7   8
ATOM      8  C   UNL A   1      44.761  42.607  22.414  1.00  0.00     0.338 C 
ATOM      9  O   UNL A   1      43.687  42.470  22.975  1.00  0.00    -0.246 OA
BRANCH   8  10
ATOM     10  C   UNL A   1      45.030  43.674  21.429  1.00  0.00     0.087 C 
ATOM     11  C   UNL A   1      45.299  47.375  19.570  1.00  0.00    -0.002 A 
ATOM     12  C   UNL A   1      44.709  47.542  18.305  1.00  0.00     0.054 A 
ATOM     13  C   UNL A   1      45.138  46.140  20.201  1.00  0.00     0.131 A 
ATOM     14  C   UNL A   1      44.000  46.503  17.686  1.00  0.00     0.130 A 
ATOM     15  C   UNL A   1      44.452  45.074  19.585  1.00  0.00     0.021 A 
ATOM     16  O   UNL A   1      45.624  46.009  21.480  1.00  0.00    -0.475 OA
ATOM     17  C   UNL A   1      43.896  45.261  18.320  1.00  0.00     0.058 A 
ATOM     18  C   UNL A   1      44.257  43.834  20.341  1.00  0.00     0.027 C 
ATOM     19  C   UNL A   1      46.112  44.676  21.759  1.00  0.00     0.316 C 
BRANCH  11  20
ATOM     20  C   UNL A   1      46.005  48.545  20.221  1.00  0.00     0.036 C 
ATOM     21  C   UNL A   1      47.478  48.344  20.564  1.00  0.00     0.009 C 
ENDBRANCH  11  20
BRANCH  14  22
ATOM     22  O   UNL A   1      43.361  46.580  16.480  1.00  0.00    -0.406 OA
BRANCH  22  23
ATOM     23  C   UNL A   1      41.942  46.599  16.497  1.00  0.00     0.573 C 
ATOM     24  F   UNL A   1      41.426  45.550  15.821  1.00  0.00    -0.132 F 
ATOM     25  F   UNL A   1      41.475  46.592  17.765  1.00  0.00    -0.132 F 
ATOM     26  F   UNL A   1      41.515  47.733  15.898  1.00  0.00    -0.132 F 
ENDBRANCH  22  23
ENDBRANCH  14  22
BRANCH  19  27
ATOM     27  C   UNL A   1      47.481  44.454  21.062  1.00  0.00     0.430 C 
ATOM     28  F   UNL A   1      47.589  45.095  19.875  1.00  0.00    -0.167 F 
ATOM     29  F   UNL A   1      48.508  44.876  21.837  1.00  0.00    -0.167 F 
ATOM     30  F   UNL A   1      47.718  43.145  20.823  1.00  0.00    -0.167 F 
ENDBRANCH  19  27
ENDBRANCH   8  10
ENDBRANCH   7   8
ENDBRANCH   6   7
ENDBRANCH   5   6
ENDBRANCH   4   5
ENDBRANCH   3   4
ENDBRANCH   2   3
ENDBRANCH   1   2
BRANCH   1  31
ATOM     31  C   UNL A   1      46.177  42.196  30.329  1.00  0.00     0.188 C 
BRANCH  31  32
ATOM     32  C   UNL A   1      45.655  41.556  31.641  1.00  0.00     0.188 C 
BRANCH  32  33
ATOM     33  O   UNL A   1      44.451  40.820  31.519  1.00  0.00    -0.376 OA
BRANCH  33  34
ATOM     34  C   UNL A   1      44.408  39.727  30.623  1.00  0.00     0.202 C 
BRANCH  34  35
ATOM     35  C   UNL A   1      45.363  38.560  30.906  1.00  0.00     0.261 C 
BRANCH  35  36
ATOM     36  O   UNL A   1      45.073  37.335  30.217  1.00  0.00    -0.460 OA
BRANCH  36  37
ATOM     37  C   UNL A   1      45.927  36.965  29.242  1.00  0.00     0.338 C 
ATOM     38  O   UNL A   1      46.860  37.612  28.791  1.00  0.00    -0.246 OA
BRANCH  37  39
ATOM     39  C   UNL A   1      45.668  35.547  28.931  1.00  0.00     0.060 A 
ATOM     40  C   UNL A   1      44.971  35.225  27.759  1.00  0.00     0.016 A 
ATOM     41  C   UNL A   1      46.129  34.541  29.783  1.00  0.00     0.016 A 
ATOM     42  C   UNL A   1      44.698  33.893  27.455  1.00  0.00     0.010 A 
ATOM     43  C   UNL A   1      45.830  33.208  29.493  1.00  0.00     0.010 A 
ATOM     44  C   UNL A   1      45.080  32.883  28.348  1.00  0.00    -0.014 A 
BRANCH  44  45
ATOM     45  C   UNL A   1      44.501  31.529  28.192  1.00  0.00     0.031 A 
ATOM     46  C   UNL A   1      45.284  30.511  27.409  1.00  0.00     0.074 A 
ATOM     47  C   UNL A   1      43.336  31.192  28.770  1.00  0.00     0.049 A 
ATOM     48  N   UNL A   1      44.992  29.266  27.131  1.00  0.00    -0.248 NA
ATOM     49  C   UNL A   1      46.576  30.962  26.865  1.00  0.00     0.031 C 
ATOM     50  C   UNL A   1      42.509  32.079  29.585  1.00  0.00     0.029 A 
ATOM     51  N   UNL A   1      42.647  30.005  28.754  1.00  0.00    -0.354 N 
ATOM     52  C   UNL A   1      46.058  28.790  26.380  1.00  0.00     0.074 A 
ATOM     53  C   UNL A   1      46.984  29.886  26.210  1.00  0.00     0.031 C 
ATOM     54  C   UNL A   1      41.417  31.405  29.988  1.00  0.00     0.029 A 
ATOM     55  C   UNL A   1      41.455  30.052  29.434  1.00  0.00     0.049 A 
ATOM     56  H   UNL A   1      42.976  29.197  28.299  1.00  0.00     0.167 HD
ATOM     57  C   UNL A   1      46.252  27.545  25.886  1.00  0.00     0.037 A 
ATOM     58  C   UNL A   1      40.499  29.113  29.571  1.00  0.00     0.037 A 
ATOM     59  C   UNL A   1      45.323  26.458  26.051  1.00  0.00     0.049 A 
ATOM     60  C   UNL A   1      40.704  27.755  28.945  1.00  0.00     0.074 A 
ATOM     61  C   UNL A   1      45.432  25.154  25.602  1.00  0.00     0.029 A 
ATOM     62  N   UNL A   1      44.108  26.554  26.714  1.00  0.00    -0.354 N 
ATOM     63  N   UNL A   1      41.727  27.300  28.261  1.00  0.00    -0.248 NA
ATOM     64  C   UNL A   1      39.621  26.776  29.119  1.00  0.00     0.031 C 
ATOM     65  C   UNL A   1      44.254  24.479  25.934  1.00  0.00     0.029 A 
ATOM     66  C   UNL A   1      43.443  25.339  26.657  1.00  0.00     0.049 A 
ATOM     67  H   UNL A   1      43.768  27.364  27.157  1.00  0.00     0.167 HD
ATOM     68  C   UNL A   1      41.427  25.978  27.956  1.00  0.00     0.074 A 
ATOM     69  C   UNL A   1      40.134  25.699  28.543  1.00  0.00     0.031 C 
ATOM     70  C   UNL A   1      42.158  25.074  27.254  1.00  0.00     0.037 A 
BRANCH  57  71
ATOM     71  C   UNL A   1      47.502  27.303  25.088  1.00  0.00     0.064 A 
ATOM     72  C   UNL A   1      47.590  27.640  23.728  1.00  0.00     0.173 A 
ATOM     73  C   UNL A   1      48.636  26.748  25.700  1.00  0.00     0.173 A 
ATOM     74  F   UNL A   1      46.530  28.157  23.090  1.00  0.00    -0.203 F 
ATOM     75  C   UNL A   1      48.756  27.402  23.005  1.00  0.00     0.198 A 
ATOM     76  C   UNL A   1      49.812  26.545  24.983  1.00  0.00     0.198 A 
ATOM     77  F   UNL A   1      48.607  26.409  26.997  1.00  0.00    -0.203 F 
ATOM     78  F   UNL A   1      48.800  27.681  21.695  1.00  0.00    -0.200 F 
ATOM     79  C   UNL A   1      49.869  26.864  23.635  1.00  0.00     0.200 A 
ATOM     80  F   UNL A   1      50.890  26.038  25.597  1.00  0.00    -0.200 F 
ATOM     81  F   UNL A   1      50.994  26.645  22.940  1.00  0.00    -0.200 F 
ENDBRANCH  57  71
BRANCH  58  82
ATOM     82  C   UNL A   1      39.254  29.419  30.327  1.00  0.00     0.064 A 
ATOM     83  C   UNL A   1      38.133  29.968  29.689  1.00  0.00     0.173 A 
ATOM     84  C   UNL A   1      39.171  29.194  31.709  1.00  0.00     0.173 A 
ATOM     85  F   UNL A   1      38.170  30.227  28.374  1.00  0.00    -0.203 F 
ATOM     86  C   UNL A   1      36.988  30.306  30.408  1.00  0.00     0.198 A 
ATOM     87  C   UNL A   1      38.013  29.499  32.421  1.00  0.00     0.198 A 
ATOM     88  F   UNL A   1      40.214  28.672  32.370  1.00  0.00    -0.203 F 
ATOM     89  F   UNL A   1      35.952  30.882  29.783  1.00  0.00    -0.200 F 
ATOM     90  C   UNL A   1      36.926  30.065  31.773  1.00  0.00     0.200 A 
ATOM     91  F   UNL A   1      37.954  29.253  33.737  1.00  0.00    -0.200 F 
ATOM     92  F   UNL A   1      35.824  30.387  32.463  1.00  0.00    -0.200 F 
ENDBRANCH  58  82
BRANCH  70  93
ATOM     93  C   UNL A   1      41.599  23.683  27.125  1.00  0.00     0.064 A 
ATOM     94  C   UNL A   1      42.210  22.577  27.733  1.00  0.00     0.173 A 
ATOM     95  C   UNL A   1      40.414  23.462  26.405  1.00  0.00     0.173 A 
ATOM     96  F   UNL A   1      43.350  22.730  28.424  1.00  0.00    -0.203 F 
ATOM     97  C   UNL A   1      41.679  21.297  27.592  1.00  0.00     0.198 A 
ATOM     98  C   UNL A   1      39.864  22.187  26.299  1.00  0.00     0.198 A 
ATOM     99  F   UNL A   1      39.781  24.486  25.812  1.00  0.00    -0.203 F 
ATOM    100  F   UNL A   1      42.316  20.246  28.129  1.00  0.00    -0.200 F 
ATOM    101  C   UNL A   1      40.503  21.104  26.882  1.00  0.00     0.200 A 
ATOM    102  F   UNL A   1      38.717  22.007  25.629  1.00  0.00    -0.200 F 
ATOM    103  F   UNL A   1      39.991  19.873  26.753  1.00  0.00    -0.200 F 
ENDBRANCH  70  93
ENDBRANCH  44  45
ENDBRANCH  37  39
ENDBRANCH  36  37
ENDBRANCH  35  36
ENDBRANCH  34  35
ENDBRANCH  33  34
ENDBRANCH  32  33
ENDBRANCH  31  32
ENDBRANCH   1  31
TORSDOF 24
ENDMDL
MODEL 3
REMARK VINA RESULT:      -8.2      4.941     11.502
REMARK SMILES CCc1cc(OC(F)(F)F)cc2c1O[C@H](C(F)(F)F)C(C(=O)OCCOCCOCCOCCOC(=O)c1ccc(-c3c4nc(c(-c5c(F)c(F)c(F)c(F)c5F)c5ccc([nH]5)c(-c5c(F)c(F)c(F)c(F)c5F)c5nc(c(-c6c(F)c(F)c(F)c(F)c6F)c6ccc3[nH]6)C=C5)C=C4)cc1)=C2
REMARK SMILES IDX 29 1 28 2 27 3 26 4 25 5 24 6 23 7 21 8 22 9 20 10 3 11 4 12
REMARK SMILES IDX 13 13 5 14 12 15 14 16 11 17 101 18 15 19 2 20 1 21 6 22
REMARK SMILES IDX 7 23 8 24 9 25 10 26 16 27 17 28 18 29 19 30 30 31 31 32
REMARK SMILES IDX 32 33 33 34 34 35 35 36 36 37 37 38 38 39 39 40 100 41 40 42
REMARK SMILES IDX 99 43 41 44 42 45 43 46 93 47 44 48 98 49 92 50 94 51 45 52
REMARK SMILES IDX 97 53 91 54 90 55 46 57 78 58 58 59 77 60 59 61 62 62 76 63
REMARK SMILES IDX 95 64 60 65 61 66 75 68 96 69 63 70 47 71 48 72 56 73 49 74
REMARK SMILES IDX 50 75 54 76 57 77 51 78 52 79 55 80 53 81 79 82 80 83 88 84
REMARK SMILES IDX 81 85 82 86 86 87 89 88 83 89 84 90 87 91 85 92 64 93 65 94
REMARK SMILES IDX 73 95 66 96 67 97 71 98 74 99 68 100 69 101 72 102 70 103
REMARK H PARENT 94 56 62 67
REMARK Flexibility Score: inf
ROOT
ATOM      1  O   UNL A   1      50.110  26.427  25.611  1.00  0.00    -0.377 OA
ENDROOT
BRANCH   1   2
ATOM      2  C   UNL A   1      50.622  25.449  26.499  1.00  0.00     0.188 C 
BRANCH   2   3
ATOM      3  C   UNL A   1      49.754  25.063  27.719  1.00  0.00     0.188 C 
BRANCH   3   4
ATOM      4  O   UNL A   1      48.482  24.560  27.358  1.00  0.00    -0.376 OA
BRANCH   4   5
ATOM      5  C   UNL A   1      47.500  25.449  26.873  1.00  0.00     0.202 C 
BRANCH   5   6
ATOM      6  C   UNL A   1      46.335  24.955  25.996  1.00  0.00     0.261 C 
BRANCH   6   7
ATOM      7  O   UNL A   1      45.547  25.936  25.311  1.00  0.00    -0.460 OA
BRANCH   7   8
ATOM      8  C   UNL A   1      45.120  26.996  26.028  1.00  0.00     0.338 C 
ATOM      9  O   UNL A   1      45.765  28.003  26.269  1.00  0.00    -0.246 OA
BRANCH   8  10
ATOM     10  C   UNL A   1      43.692  26.848  26.373  1.00  0.00     0.087 C 
ATOM     11  C   UNL A   1      40.151  26.428  28.496  1.00  0.00    -0.002 A 
ATOM     12  C   UNL A   1      39.305  25.346  28.197  1.00  0.00     0.054 A 
ATOM     13  C   UNL A   1      41.365  26.509  27.813  1.00  0.00     0.131 A 
ATOM     14  C   UNL A   1      39.655  24.390  27.232  1.00  0.00     0.130 A 
ATOM     15  C   UNL A   1      41.724  25.574  26.821  1.00  0.00     0.021 A 
ATOM     16  O   UNL A   1      42.238  27.506  28.179  1.00  0.00    -0.475 OA
ATOM     17  C   UNL A   1      40.856  24.523  26.528  1.00  0.00     0.058 A 
ATOM     18  C   UNL A   1      43.048  25.680  26.203  1.00  0.00     0.027 C 
ATOM     19  C   UNL A   1      43.013  28.007  27.064  1.00  0.00     0.316 C 
BRANCH  11  20
ATOM     20  C   UNL A   1      39.754  27.401  29.586  1.00  0.00     0.036 C 
ATOM     21  C   UNL A   1      38.652  26.942  30.537  1.00  0.00     0.009 C 
ENDBRANCH  11  20
BRANCH  14  22
ATOM     22  O   UNL A   1      38.921  23.286  26.899  1.00  0.00    -0.406 OA
BRANCH  22  23
ATOM     23  C   UNL A   1      37.770  23.490  26.093  1.00  0.00     0.573 C 
ATOM     24  F   UNL A   1      36.780  24.088  26.790  1.00  0.00    -0.132 F 
ATOM     25  F   UNL A   1      38.069  24.234  25.006  1.00  0.00    -0.132 F 
ATOM     26  F   UNL A   1      37.318  22.290  25.669  1.00  0.00    -0.132 F 
ENDBRANCH  22  23
ENDBRANCH  14  22
BRANCH  19  27
ATOM     27  C   UNL A   1      42.129  28.912  26.166  1.00  0.00     0.430 C 
ATOM     28  F   UNL A   1      41.933  28.410  24.925  1.00  0.00    -0.167 F 
ATOM     29  F   UNL A   1      40.906  29.112  26.712  1.00  0.00    -0.167 F 
ATOM     30  F   UNL A   1      42.664  30.144  26.010  1.00  0.00    -0.167 F 
ENDBRANCH  19  27
ENDBRANCH   8  10
ENDBRANCH   7   8
ENDBRANCH   6   7
ENDBRANCH   5   6
ENDBRANCH   4   5
ENDBRANCH   3   4
ENDBRANCH   2   3
ENDBRANCH   1   2
BRANCH   1  31
ATOM     31  C   UNL A   1      50.801  26.691  24.395  1.00  0.00     0.188 C 
BRANCH  31  32
ATOM     32  C   UNL A   1      50.360  27.809  23.416  1.00  0.00     0.188 C 
BRANCH  32  33
ATOM     33  O   UNL A   1      51.136  28.992  23.457  1.00  0.00    -0.376 OA
BRANCH  33  34
ATOM     34  C   UNL A   1      52.311  29.009  24.243  1.00  0.00     0.202 C 
BRANCH  34  35
ATOM     35  C   UNL A   1      52.884  30.385  24.606  1.00  0.00     0.261 C 
BRANCH  35  36
ATOM     36  O   UNL A   1      52.103  31.165  25.523  1.00  0.00    -0.460 OA
BRANCH  36  37
ATOM     37  C   UNL A   1      52.341  30.982  26.837  1.00  0.00     0.338 C 
ATOM     38  O   UNL A   1      53.418  31.047  27.410  1.00  0.00    -0.246 OA
BRANCH  37  39
ATOM     39  C   UNL A   1      51.038  30.877  27.521  1.00  0.00     0.060 A 
ATOM     40  C   UNL A   1      49.966  30.273  26.850  1.00  0.00     0.016 A 
ATOM     41  C   UNL A   1      50.883  31.358  28.823  1.00  0.00     0.016 A 
ATOM     42  C   UNL A   1      48.721  30.181  27.469  1.00  0.00     0.010 A 
ATOM     43  C   UNL A   1      49.628  31.291  29.431  1.00  0.00     0.010 A 
ATOM     44  C   UNL A   1      48.534  30.738  28.741  1.00  0.00    -0.014 A 
BRANCH  44  45
ATOM     45  C   UNL A   1      47.155  30.937  29.243  1.00  0.00     0.031 A 
ATOM     46  C   UNL A   1      46.487  29.789  29.951  1.00  0.00     0.074 A 
ATOM     47  C   UNL A   1      46.526  32.118  29.121  1.00  0.00     0.049 A 
ATOM     48  N   UNL A   1      45.291  29.713  30.475  1.00  0.00    -0.248 NA
ATOM     49  C   UNL A   1      47.281  28.556  30.083  1.00  0.00     0.031 C 
ATOM     50  C   UNL A   1      47.085  33.311  28.493  1.00  0.00     0.029 A 
ATOM     51  N   UNL A   1      45.271  32.501  29.523  1.00  0.00    -0.354 N 
ATOM     52  C   UNL A   1      45.190  28.429  30.994  1.00  0.00     0.074 A 
ATOM     53  C   UNL A   1      46.426  27.746  30.688  1.00  0.00     0.031 C 
ATOM     54  C   UNL A   1      46.172  34.298  28.546  1.00  0.00     0.029 A 
ATOM     55  C   UNL A   1      44.955  33.793  29.183  1.00  0.00     0.049 A 
ATOM     56  H   UNL A   1      44.654  31.906  30.008  1.00  0.00     0.167 HD
ATOM     57  C   UNL A   1      44.161  27.873  31.675  1.00  0.00     0.037 A 
ATOM     58  C   UNL A   1      43.807  34.477  29.351  1.00  0.00     0.037 A 
ATOM     59  C   UNL A   1      42.928  28.555  31.972  1.00  0.00     0.049 A 
ATOM     60  C   UNL A   1      42.646  33.809  30.047  1.00  0.00     0.074 A 
ATOM     61  C   UNL A   1      41.828  28.086  32.667  1.00  0.00     0.029 A 
ATOM     62  N   UNL A   1      42.630  29.852  31.577  1.00  0.00    -0.354 N 
ATOM     63  N   UNL A   1      42.566  32.606  30.562  1.00  0.00    -0.248 NA
ATOM     64  C   UNL A   1      41.416  34.603  30.191  1.00  0.00     0.031 C 
ATOM     65  C   UNL A   1      40.840  29.074  32.638  1.00  0.00     0.029 A 
ATOM     66  C   UNL A   1      41.350  30.188  31.990  1.00  0.00     0.049 A 
ATOM     67  H   UNL A   1      43.237  30.445  31.079  1.00  0.00     0.167 HD
ATOM     68  C   UNL A   1      41.297  32.511  31.120  1.00  0.00     0.074 A 
ATOM     69  C   UNL A   1      40.647  33.784  30.894  1.00  0.00     0.031 C 
ATOM     70  C   UNL A   1      40.720  31.465  31.764  1.00  0.00     0.037 A 
BRANCH  57  71
ATOM     71  C   UNL A   1      44.312  26.445  32.116  1.00  0.00     0.064 A 
ATOM     72  C   UNL A   1      44.601  26.106  33.447  1.00  0.00     0.173 A 
ATOM     73  C   UNL A   1      44.141  25.399  31.197  1.00  0.00     0.173 A 
ATOM     74  F   UNL A   1      44.791  27.068  34.363  1.00  0.00    -0.203 F 
ATOM     75  C   UNL A   1      44.742  24.776  33.834  1.00  0.00     0.198 A 
ATOM     76  C   UNL A   1      44.248  24.069  31.594  1.00  0.00     0.198 A 
ATOM     77  F   UNL A   1      43.862  25.666  29.912  1.00  0.00    -0.203 F 
ATOM     78  F   UNL A   1      45.072  24.479  35.098  1.00  0.00    -0.200 F 
ATOM     79  C   UNL A   1      44.557  23.759  32.910  1.00  0.00     0.200 A 
ATOM     80  F   UNL A   1      44.054  23.088  30.703  1.00  0.00    -0.200 F 
ATOM     81  F   UNL A   1      44.684  22.479  33.285  1.00  0.00    -0.200 F 
ENDBRANCH  57  71
BRANCH  58  82
ATOM     82  C   UNL A   1      43.689  35.874  28.850  1.00  0.00     0.064 A 
ATOM     83  C   UNL A   1      44.195  36.955  29.584  1.00  0.00     0.173 A 
ATOM     84  C   UNL A   1      43.040  36.156  27.639  1.00  0.00     0.173 A 
ATOM     85  F   UNL A   1      44.800  36.741  30.761  1.00  0.00    -0.203 F 
ATOM     86  C   UNL A   1      44.033  38.267  29.140  1.00  0.00     0.198 A 
ATOM     87  C   UNL A   1      42.909  37.465  27.178  1.00  0.00     0.198 A 
ATOM     88  F   UNL A   1      42.535  35.160  26.897  1.00  0.00    -0.203 F 
ATOM     89  F   UNL A   1      44.476  39.285  29.890  1.00  0.00    -0.200 F 
ATOM     90  C   UNL A   1      43.396  38.520  27.934  1.00  0.00     0.200 A 
ATOM     91  F   UNL A   1      42.305  37.703  26.007  1.00  0.00    -0.200 F 
ATOM     92  F   UNL A   1      43.244  39.780  27.507  1.00  0.00    -0.200 F 
ENDBRANCH  58  82
BRANCH  70  93
ATOM     93  C   UNL A   1      39.335  31.668  32.315  1.00  0.00     0.064 A 
ATOM     94  C   UNL A   1      38.190  31.249  31.623  1.00  0.00     0.173 A 
ATOM     95  C   UNL A   1      39.157  32.267  33.573  1.00  0.00     0.173 A 
ATOM     96  F   UNL A   1      38.302  30.681  30.412  1.00  0.00    -0.203 F 
ATOM     97  C   UNL A   1      36.917  31.457  32.150  1.00  0.00     0.198 A 
ATOM     98  C   UNL A   1      37.885  32.437  34.115  1.00  0.00     0.198 A 
ATOM     99  F   UNL A   1      40.218  32.677  34.285  1.00  0.00    -0.203 F 
ATOM    100  F   UNL A   1      35.835  31.105  31.441  1.00  0.00    -0.200 F 
ATOM    101  C   UNL A   1      36.766  32.044  33.398  1.00  0.00     0.200 A 
ATOM    102  F   UNL A   1      37.743  32.986  35.329  1.00  0.00    -0.200 F 
ATOM    103  F   UNL A   1      35.541  32.237  33.905  1.00  0.00    -0.200 F 
ENDBRANCH  70  93
ENDBRANCH  44  45
ENDBRANCH  37  39
ENDBRANCH  36  37
ENDBRANCH  35  36
ENDBRANCH  34  35
ENDBRANCH  33  34
ENDBRANCH  32  33
ENDBRANCH  31  32
ENDBRANCH   1  31
TORSDOF 24
ENDMDL
