MODEL 1
REMARK VINA RESULT:     -10.5      0.000      0.000
REMARK SMILES CCOc1ccc(-c2cc(Cl)cc3c2O[C@@H](C(F)(F)F)C(C(=O)OCCOCCOCCOCCOC(=O)c2ccc(-c4c5nc(c(-c6c(F)c(F)c(F)c(F)c6F)c6ccc([nH]6)c(-c6c(F)c(F)c(F)c(F)c6F)c6nc(c(-c7c(F)c(F)c(F)c(F)c7F)c7ccc4[nH]7)C=C6)C=C5)cc2)=C3)cc1
REMARK SMILES IDX 29 1 28 2 27 3 26 4 25 5 24 6 22 7 23 8 21 9 8 10 9 11 14 12
REMARK SMILES IDX 10 13 13 14 15 15 11 16 12 17 102 18 16 19 7 20 4 21 5 22
REMARK SMILES IDX 104 23 6 24 103 25 3 26 2 27 1 28 17 29 18 30 19 31 20 32
REMARK SMILES IDX 30 33 31 34 32 35 33 36 34 37 35 38 36 39 37 40 38 41 39 42
REMARK SMILES IDX 40 43 101 44 41 45 100 46 42 47 43 48 44 49 94 50 45 51
REMARK SMILES IDX 99 52 93 53 95 54 46 55 98 56 92 57 91 58 47 60 79 61 59 62
REMARK SMILES IDX 78 63 60 64 63 65 77 66 96 67 61 68 62 69 76 71 97 72 64 73
REMARK SMILES IDX 48 74 49 75 57 76 50 77 51 78 55 79 58 80 52 81 53 82 56 83
REMARK SMILES IDX 54 84 80 85 81 86 89 87 82 88 83 89 87 90 90 91 84 92 85 93
REMARK SMILES IDX 88 94 86 95 65 96 66 97 74 98 67 99 68 100 72 101 75 102
REMARK SMILES IDX 69 103 70 104 73 105 71 106
REMARK H PARENT 95 59 63 70
REMARK Flexibility Score: inf
ROOT
ATOM      1  C   UNL A   1      38.011  22.028  25.334  1.00  0.00     0.188 C 
ENDROOT
BRANCH   1   2
ATOM      2  C   UNL A   1      36.548  21.852  25.765  1.00  0.00     0.188 C 
BRANCH   2   3
ATOM      3  O   UNL A   1      35.984  20.597  25.393  1.00  0.00    -0.376 OA
BRANCH   3   4
ATOM      4  C   UNL A   1      34.771  20.617  24.642  1.00  0.00     0.202 C 
BRANCH   4   5
ATOM      5  C   UNL A   1      34.543  21.811  23.709  1.00  0.00     0.261 C 
BRANCH   5   6
ATOM      6  O   UNL A   1      33.138  21.940  23.396  1.00  0.00    -0.460 OA
BRANCH   6   7
ATOM      7  C   UNL A   1      32.508  22.986  23.954  1.00  0.00     0.338 C 
ATOM      8  O   UNL A   1      31.306  23.202  23.869  1.00  0.00    -0.246 OA
BRANCH   7   9
ATOM      9  C   UNL A   1      33.391  23.767  24.854  1.00  0.00     0.087 C 
ATOM     10  C   UNL A   1      32.034  27.544  25.913  1.00  0.00     0.026 A 
ATOM     11  C   UNL A   1      31.190  27.993  24.871  1.00  0.00     0.033 A 
ATOM     12  C   UNL A   1      32.669  26.306  25.694  1.00  0.00     0.135 A 
ATOM     13  C   UNL A   1      31.288  27.447  23.592  1.00  0.00     0.042 A 
ATOM     14  C   UNL A   1      32.949  25.920  24.376  1.00  0.00     0.019 A 
ATOM     15  O   UNL A   1      32.783  25.369  26.717  1.00  0.00    -0.475 OA
ATOM     16  Cl  UNL A   1      30.278  28.036  22.335  1.00  0.00    -0.084 Cl
ATOM     17  C   UNL A   1      32.251  26.485  23.316  1.00  0.00     0.032 A 
ATOM     18  C   UNL A   1      33.897  24.806  24.165  1.00  0.00     0.027 C 
ATOM     19  C   UNL A   1      33.258  24.001  26.349  1.00  0.00     0.316 C 
BRANCH  10  20
ATOM     20  C   UNL A   1      32.651  28.655  26.720  1.00  0.00    -0.014 A 
ATOM     21  C   UNL A   1      34.182  30.939  27.478  1.00  0.00     0.119 A 
ATOM     22  C   UNL A   1      32.830  31.066  27.172  1.00  0.00     0.047 A 
ATOM     23  C   UNL A   1      34.756  29.676  27.498  1.00  0.00     0.047 A 
ATOM     24  C   UNL A   1      32.073  29.938  26.801  1.00  0.00     0.013 A 
ATOM     25  C   UNL A   1      34.000  28.551  27.125  1.00  0.00     0.013 A 
BRANCH  21  26
ATOM     26  O   UNL A   1      34.865  32.061  27.859  1.00  0.00    -0.494 OA
BRANCH  26  27
ATOM     27  C   UNL A   1      35.861  31.851  28.871  1.00  0.00     0.226 C 
ATOM     28  C   UNL A   1      36.989  32.865  28.764  1.00  0.00     0.049 C 
ENDBRANCH  26  27
ENDBRANCH  21  26
ENDBRANCH  10  20
BRANCH  19  29
ATOM     29  C   UNL A   1      32.702  22.843  27.218  1.00  0.00     0.430 C 
ATOM     30  F   UNL A   1      33.297  22.871  28.442  1.00  0.00    -0.167 F 
ATOM     31  F   UNL A   1      31.372  22.984  27.435  1.00  0.00    -0.167 F 
ATOM     32  F   UNL A   1      32.892  21.605  26.742  1.00  0.00    -0.167 F 
ENDBRANCH  19  29
ENDBRANCH   7   9
ENDBRANCH   6   7
ENDBRANCH   5   6
ENDBRANCH   4   5
ENDBRANCH   3   4
ENDBRANCH   2   3
ENDBRANCH   1   2
BRANCH   1  33
ATOM     33  O   UNL A   1      38.929  21.667  26.346  1.00  0.00    -0.377 OA
BRANCH  33  34
ATOM     34  C   UNL A   1      40.124  22.435  26.452  1.00  0.00     0.188 C 
BRANCH  34  35
ATOM     35  C   UNL A   1      41.513  21.824  26.156  1.00  0.00     0.188 C 
BRANCH  35  36
ATOM     36  O   UNL A   1      41.481  20.477  25.692  1.00  0.00    -0.376 OA
BRANCH  36  37
ATOM     37  C   UNL A   1      42.147  19.502  26.482  1.00  0.00     0.202 C 
BRANCH  37  38
ATOM     38  C   UNL A   1      43.078  18.586  25.678  1.00  0.00     0.261 C 
BRANCH  38  39
ATOM     39  O   UNL A   1      44.391  19.119  25.449  1.00  0.00    -0.460 OA
BRANCH  39  40
ATOM     40  C   UNL A   1      44.572  19.843  24.324  1.00  0.00     0.338 C 
ATOM     41  O   UNL A   1      44.313  19.512  23.179  1.00  0.00    -0.246 OA
BRANCH  40  42
ATOM     42  C   UNL A   1      44.967  21.205  24.725  1.00  0.00     0.060 A 
ATOM     43  C   UNL A   1      45.372  21.427  26.047  1.00  0.00     0.016 A 
ATOM     44  C   UNL A   1      44.962  22.249  23.795  1.00  0.00     0.016 A 
ATOM     45  C   UNL A   1      45.730  22.712  26.457  1.00  0.00     0.010 A 
ATOM     46  C   UNL A   1      45.301  23.536  24.210  1.00  0.00     0.010 A 
ATOM     47  C   UNL A   1      45.649  23.778  25.551  1.00  0.00    -0.014 A 
BRANCH  47  48
ATOM     48  C   UNL A   1      45.692  25.170  26.050  1.00  0.00     0.031 A 
ATOM     49  C   UNL A   1      47.011  25.889  26.008  1.00  0.00     0.074 A 
ATOM     50  C   UNL A   1      44.597  25.782  26.529  1.00  0.00     0.049 A 
ATOM     51  N   UNL A   1      47.318  27.095  26.412  1.00  0.00    -0.248 NA
ATOM     52  C   UNL A   1      48.140  25.139  25.434  1.00  0.00     0.031 C 
ATOM     53  C   UNL A   1      43.258  25.202  26.585  1.00  0.00     0.029 A 
ATOM     54  N   UNL A   1      44.448  27.036  27.066  1.00  0.00    -0.354 N 
ATOM     55  C   UNL A   1      48.671  27.245  26.144  1.00  0.00     0.074 A 
ATOM     56  C   UNL A   1      49.136  26.000  25.575  1.00  0.00     0.031 C 
ATOM     57  C   UNL A   1      42.419  26.101  27.130  1.00  0.00     0.029 A 
ATOM     58  C   UNL A   1      43.170  27.306  27.485  1.00  0.00     0.049 A 
ATOM     59  H   UNL A   1      45.187  27.681  27.141  1.00  0.00     0.167 HD
ATOM     60  C   UNL A   1      49.458  28.327  26.348  1.00  0.00     0.037 A 
ATOM     61  C   UNL A   1      42.674  28.398  28.099  1.00  0.00     0.037 A 
ATOM     62  C   UNL A   1      48.998  29.560  26.926  1.00  0.00     0.049 A 
ATOM     63  C   UNL A   1      43.591  29.556  28.401  1.00  0.00     0.074 A 
ATOM     64  C   UNL A   1      49.706  30.726  27.153  1.00  0.00     0.029 A 
ATOM     65  N   UNL A   1      47.708  29.777  27.389  1.00  0.00    -0.354 N 
ATOM     66  N   UNL A   1      44.860  29.712  28.106  1.00  0.00    -0.248 NA
ATOM     67  C   UNL A   1      43.004  30.692  29.126  1.00  0.00     0.031 C 
ATOM     68  C   UNL A   1      48.859  31.630  27.804  1.00  0.00     0.029 A 
ATOM     69  C   UNL A   1      47.608  31.047  27.932  1.00  0.00     0.049 A 
ATOM     70  H   UNL A   1      46.972  29.125  27.338  1.00  0.00     0.167 HD
ATOM     71  C   UNL A   1      45.212  30.971  28.576  1.00  0.00     0.074 A 
ATOM     72  C   UNL A   1      44.021  31.541  29.172  1.00  0.00     0.031 C 
ATOM     73  C   UNL A   1      46.412  31.602  28.514  1.00  0.00     0.037 A 
BRANCH  60  74
ATOM     74  C   UNL A   1      50.905  28.199  25.973  1.00  0.00     0.064 A 
ATOM     75  C   UNL A   1      51.896  27.940  26.932  1.00  0.00     0.173 A 
ATOM     76  C   UNL A   1      51.307  28.353  24.639  1.00  0.00     0.173 A 
ATOM     77  F   UNL A   1      51.566  27.805  28.226  1.00  0.00    -0.203 F 
ATOM     78  C   UNL A   1      53.240  27.877  26.574  1.00  0.00     0.198 A 
ATOM     79  C   UNL A   1      52.648  28.259  24.279  1.00  0.00     0.198 A 
ATOM     80  F   UNL A   1      50.399  28.603  23.683  1.00  0.00    -0.203 F 
ATOM     81  F   UNL A   1      54.176  27.692  27.516  1.00  0.00    -0.200 F 
ATOM     82  C   UNL A   1      53.614  28.033  25.248  1.00  0.00     0.200 A 
ATOM     83  F   UNL A   1      53.008  28.401  22.996  1.00  0.00    -0.200 F 
ATOM     84  F   UNL A   1      54.909  27.977  24.904  1.00  0.00    -0.200 F 
ENDBRANCH  60  74
BRANCH  61  85
ATOM     85  C   UNL A   1      41.235  28.460  28.460  1.00  0.00     0.064 A 
ATOM     86  C   UNL A   1      40.293  28.982  27.563  1.00  0.00     0.173 A 
ATOM     87  C   UNL A   1      40.773  28.018  29.707  1.00  0.00     0.173 A 
ATOM     88  F   UNL A   1      40.691  29.444  26.368  1.00  0.00    -0.203 F 
ATOM     89  C   UNL A   1      38.944  29.069  27.904  1.00  0.00     0.198 A 
ATOM     90  C   UNL A   1      39.421  28.083  30.039  1.00  0.00     0.198 A 
ATOM     91  F   UNL A   1      41.636  27.518  30.605  1.00  0.00    -0.203 F 
ATOM     92  F   UNL A   1      38.072  29.610  27.043  1.00  0.00    -0.200 F 
ATOM     93  C   UNL A   1      38.509  28.615  29.140  1.00  0.00     0.200 A 
ATOM     94  F   UNL A   1      39.002  27.638  31.231  1.00  0.00    -0.200 F 
ATOM     95  F   UNL A   1      37.212  28.697  29.467  1.00  0.00    -0.200 F 
ENDBRANCH  61  85
BRANCH  73  96
ATOM     96  C   UNL A   1      46.490  32.996  29.065  1.00  0.00     0.064 A 
ATOM     97  C   UNL A   1      46.205  34.120  28.276  1.00  0.00     0.173 A 
ATOM     98  C   UNL A   1      46.805  33.206  30.417  1.00  0.00     0.173 A 
ATOM     99  F   UNL A   1      45.913  33.974  26.975  1.00  0.00    -0.203 F 
ATOM    100  C   UNL A   1      46.257  35.403  28.814  1.00  0.00     0.198 A 
ATOM    101  C   UNL A   1      46.826  34.488  30.959  1.00  0.00     0.198 A 
ATOM    102  F   UNL A   1      47.077  32.164  31.217  1.00  0.00    -0.203 F 
ATOM    103  F   UNL A   1      46.024  36.466  28.031  1.00  0.00    -0.200 F 
ATOM    104  C   UNL A   1      46.558  35.586  30.156  1.00  0.00     0.200 A 
ATOM    105  F   UNL A   1      47.102  34.661  32.259  1.00  0.00    -0.200 F 
ATOM    106  F   UNL A   1      46.597  36.821  30.673  1.00  0.00    -0.200 F 
ENDBRANCH  73  96
ENDBRANCH  47  48
ENDBRANCH  40  42
ENDBRANCH  39  40
ENDBRANCH  38  39
ENDBRANCH  37  38
ENDBRANCH  36  37
ENDBRANCH  35  36
ENDBRANCH  34  35
ENDBRANCH  33  34
ENDBRANCH   1  33
TORSDOF 24
ENDMDL
MODEL 2
REMARK VINA RESULT:     -10.3      2.799      4.712
REMARK SMILES CCOc1ccc(-c2cc(Cl)cc3c2O[C@@H](C(F)(F)F)C(C(=O)OCCOCCOCCOCCOC(=O)c2ccc(-c4c5nc(c(-c6c(F)c(F)c(F)c(F)c6F)c6ccc([nH]6)c(-c6c(F)c(F)c(F)c(F)c6F)c6nc(c(-c7c(F)c(F)c(F)c(F)c7F)c7ccc4[nH]7)C=C6)C=C5)cc2)=C3)cc1
REMARK SMILES IDX 29 1 28 2 27 3 26 4 25 5 24 6 22 7 23 8 21 9 8 10 9 11 14 12
REMARK SMILES IDX 10 13 13 14 15 15 11 16 12 17 102 18 16 19 7 20 4 21 5 22
REMARK SMILES IDX 104 23 6 24 103 25 3 26 2 27 1 28 17 29 18 30 19 31 20 32
REMARK SMILES IDX 30 33 31 34 32 35 33 36 34 37 35 38 36 39 37 40 38 41 39 42
REMARK SMILES IDX 40 43 101 44 41 45 100 46 42 47 43 48 44 49 94 50 45 51
REMARK SMILES IDX 99 52 93 53 95 54 46 55 98 56 92 57 91 58 47 60 79 61 59 62
REMARK SMILES IDX 78 63 60 64 63 65 77 66 96 67 61 68 62 69 76 71 97 72 64 73
REMARK SMILES IDX 48 74 49 75 57 76 50 77 51 78 55 79 58 80 52 81 53 82 56 83
REMARK SMILES IDX 54 84 80 85 81 86 89 87 82 88 83 89 87 90 90 91 84 92 85 93
REMARK SMILES IDX 88 94 86 95 65 96 66 97 74 98 67 99 68 100 72 101 75 102
REMARK SMILES IDX 69 103 70 104 73 105 71 106
REMARK H PARENT 95 59 63 70
REMARK Flexibility Score: inf
ROOT
ATOM      1  C   UNL A   1      33.210  21.521  25.811  1.00  0.00     0.188 C 
ENDROOT
BRANCH   1   2
ATOM      2  C   UNL A   1      31.744  21.830  25.479  1.00  0.00     0.188 C 
BRANCH   2   3
ATOM      3  O   UNL A   1      31.476  23.216  25.279  1.00  0.00    -0.376 OA
BRANCH   3   4
ATOM      4  C   UNL A   1      31.673  24.091  26.387  1.00  0.00     0.202 C 
BRANCH   4   5
ATOM      5  C   UNL A   1      31.619  25.598  26.107  1.00  0.00     0.261 C 
BRANCH   5   6
ATOM      6  O   UNL A   1      32.647  25.967  25.160  1.00  0.00    -0.460 OA
BRANCH   6   7
ATOM      7  C   UNL A   1      33.187  27.185  25.328  1.00  0.00     0.338 C 
ATOM      8  O   UNL A   1      34.183  27.592  24.744  1.00  0.00    -0.246 OA
BRANCH   7   9
ATOM      9  C   UNL A   1      32.341  28.072  26.162  1.00  0.00     0.087 C 
ATOM     10  C   UNL A   1      34.115  31.594  27.459  1.00  0.00     0.026 A 
ATOM     11  C   UNL A   1      35.508  31.362  27.521  1.00  0.00     0.033 A 
ATOM     12  C   UNL A   1      33.325  30.477  27.121  1.00  0.00     0.135 A 
ATOM     13  C   UNL A   1      36.010  30.065  27.621  1.00  0.00     0.042 A 
ATOM     14  C   UNL A   1      33.788  29.200  27.463  1.00  0.00     0.019 A 
ATOM     15  O   UNL A   1      32.248  30.601  26.248  1.00  0.00    -0.475 OA
ATOM     16  Cl  UNL A   1      37.704  29.813  27.733  1.00  0.00    -0.084 Cl
ATOM     17  C   UNL A   1      35.140  28.986  27.707  1.00  0.00     0.032 A 
ATOM     18  C   UNL A   1      32.829  28.076  27.417  1.00  0.00     0.027 C 
ATOM     19  C   UNL A   1      31.607  29.341  25.762  1.00  0.00     0.316 C 
BRANCH  10  20
ATOM     20  C   UNL A   1      33.638  32.696  28.366  1.00  0.00    -0.014 A 
ATOM     21  C   UNL A   1      33.509  35.117  29.870  1.00  0.00     0.119 A 
ATOM     22  C   UNL A   1      32.902  35.029  28.620  1.00  0.00     0.047 A 
ATOM     23  C   UNL A   1      34.101  33.986  30.416  1.00  0.00     0.047 A 
ATOM     24  C   UNL A   1      32.963  33.834  27.879  1.00  0.00     0.013 A 
ATOM     25  C   UNL A   1      34.162  32.794  29.674  1.00  0.00     0.013 A 
BRANCH  21  26
ATOM     26  O   UNL A   1      33.397  36.292  30.561  1.00  0.00    -0.494 OA
BRANCH  26  27
ATOM     27  C   UNL A   1      33.143  36.148  31.966  1.00  0.00     0.226 C 
ATOM     28  C   UNL A   1      34.399  36.397  32.788  1.00  0.00     0.049 C 
ENDBRANCH  26  27
ENDBRANCH  21  26
ENDBRANCH  10  20
BRANCH  19  29
ATOM     29  C   UNL A   1      30.996  29.406  24.339  1.00  0.00     0.430 C 
ATOM     30  F   UNL A   1      30.380  28.225  24.057  1.00  0.00    -0.167 F 
ATOM     31  F   UNL A   1      30.042  30.364  24.255  1.00  0.00    -0.167 F 
ATOM     32  F   UNL A   1      31.857  29.623  23.336  1.00  0.00    -0.167 F 
ENDBRANCH  19  29
ENDBRANCH   7   9
ENDBRANCH   6   7
ENDBRANCH   5   6
ENDBRANCH   4   5
ENDBRANCH   3   4
ENDBRANCH   2   3
ENDBRANCH   1   2
BRANCH   1  33
ATOM     33  O   UNL A   1      33.762  20.516  24.983  1.00  0.00    -0.377 OA
BRANCH  33  34
ATOM     34  C   UNL A   1      35.180  20.386  24.965  1.00  0.00     0.188 C 
BRANCH  34  35
ATOM     35  C   UNL A   1      36.110  21.583  25.270  1.00  0.00     0.188 C 
BRANCH  35  36
ATOM     36  O   UNL A   1      37.502  21.295  25.161  1.00  0.00    -0.376 OA
BRANCH  36  37
ATOM     37  C   UNL A   1      37.870  19.933  24.993  1.00  0.00     0.202 C 
BRANCH  37  38
ATOM     38  C   UNL A   1      39.266  19.600  25.534  1.00  0.00     0.261 C 
BRANCH  38  39
ATOM     39  O   UNL A   1      39.662  20.365  26.682  1.00  0.00    -0.460 OA
BRANCH  39  40
ATOM     40  C   UNL A   1      40.985  20.558  26.866  1.00  0.00     0.338 C 
ATOM     41  O   UNL A   1      41.890  19.779  26.617  1.00  0.00    -0.246 OA
BRANCH  40  42
ATOM     42  C   UNL A   1      41.185  21.968  27.246  1.00  0.00     0.060 A 
ATOM     43  C   UNL A   1      40.620  22.969  26.446  1.00  0.00     0.016 A 
ATOM     44  C   UNL A   1      41.904  22.297  28.399  1.00  0.00     0.016 A 
ATOM     45  C   UNL A   1      40.814  24.311  26.772  1.00  0.00     0.010 A 
ATOM     46  C   UNL A   1      42.113  23.640  28.715  1.00  0.00     0.010 A 
ATOM     47  C   UNL A   1      41.601  24.649  27.881  1.00  0.00    -0.014 A 
BRANCH  47  48
ATOM     48  C   UNL A   1      42.091  26.037  28.038  1.00  0.00     0.031 A 
ATOM     49  C   UNL A   1      43.396  26.397  27.386  1.00  0.00     0.074 A 
ATOM     50  C   UNL A   1      41.404  26.953  28.739  1.00  0.00     0.049 A 
ATOM     51  N   UNL A   1      44.054  27.528  27.400  1.00  0.00    -0.248 NA
ATOM     52  C   UNL A   1      44.053  25.329  26.614  1.00  0.00     0.031 C 
ATOM     53  C   UNL A   1      40.113  26.733  29.383  1.00  0.00     0.029 A 
ATOM     54  N   UNL A   1      41.711  28.259  29.027  1.00  0.00    -0.354 N 
ATOM     55  C   UNL A   1      45.196  27.306  26.644  1.00  0.00     0.074 A 
ATOM     56  C   UNL A   1      45.163  25.926  26.214  1.00  0.00     0.031 C 
ATOM     57  C   UNL A   1      39.735  27.869  29.995  1.00  0.00     0.029 A 
ATOM     58  C   UNL A   1      40.772  28.884  29.808  1.00  0.00     0.049 A 
ATOM     59  H   UNL A   1      42.525  28.706  28.702  1.00  0.00     0.167 HD
ATOM     60  C   UNL A   1      46.184  28.176  26.331  1.00  0.00     0.037 A 
ATOM     61  C   UNL A   1      40.766  30.129  30.321  1.00  0.00     0.037 A 
ATOM     62  C   UNL A   1      46.223  29.544  26.771  1.00  0.00     0.049 A 
ATOM     63  C   UNL A   1      41.924  31.053  30.036  1.00  0.00     0.074 A 
ATOM     64  C   UNL A   1      47.164  30.517  26.489  1.00  0.00     0.029 A 
ATOM     65  N   UNL A   1      45.280  30.126  27.608  1.00  0.00    -0.354 N 
ATOM     66  N   UNL A   1      42.981  30.853  29.286  1.00  0.00    -0.248 NA
ATOM     67  C   UNL A   1      41.887  32.376  30.675  1.00  0.00     0.031 C 
ATOM     68  C   UNL A   1      46.822  31.672  27.200  1.00  0.00     0.029 A 
ATOM     69  C   UNL A   1      45.636  31.437  27.880  1.00  0.00     0.049 A 
ATOM     70  H   UNL A   1      44.478  29.676  27.955  1.00  0.00     0.167 HD
ATOM     71  C   UNL A   1      43.714  32.033  29.333  1.00  0.00     0.074 A 
ATOM     72  C   UNL A   1      42.979  32.946  30.184  1.00  0.00     0.031 C 
ATOM     73  C   UNL A   1      44.888  32.335  28.722  1.00  0.00     0.037 A 
BRANCH  60  74
ATOM     74  C   UNL A   1      47.319  27.650  25.502  1.00  0.00     0.064 A 
ATOM     75  C   UNL A   1      48.445  27.053  26.087  1.00  0.00     0.173 A 
ATOM     76  C   UNL A   1      47.285  27.761  24.105  1.00  0.00     0.173 A 
ATOM     77  F   UNL A   1      48.536  26.941  27.421  1.00  0.00    -0.203 F 
ATOM     78  C   UNL A   1      49.512  26.619  25.305  1.00  0.00     0.198 A 
ATOM     79  C   UNL A   1      48.340  27.299  23.324  1.00  0.00     0.198 A 
ATOM     80  F   UNL A   1      46.231  28.325  23.496  1.00  0.00    -0.203 F 
ATOM     81  F   UNL A   1      50.606  26.109  25.888  1.00  0.00    -0.200 F 
ATOM     82  C   UNL A   1      49.457  26.739  23.924  1.00  0.00     0.200 A 
ATOM     83  F   UNL A   1      48.281  27.407  21.989  1.00  0.00    -0.200 F 
ATOM     84  F   UNL A   1      50.486  26.325  23.172  1.00  0.00    -0.200 F 
ENDBRANCH  60  74
BRANCH  61  85
ATOM     85  C   UNL A   1      39.621  30.588  31.149  1.00  0.00     0.064 A 
ATOM     86  C   UNL A   1      39.469  30.144  32.470  1.00  0.00     0.173 A 
ATOM     87  C   UNL A   1      38.651  31.461  30.638  1.00  0.00     0.173 A 
ATOM     88  F   UNL A   1      40.355  29.285  32.994  1.00  0.00    -0.203 F 
ATOM     89  C   UNL A   1      38.382  30.548  33.244  1.00  0.00     0.198 A 
ATOM     90  C   UNL A   1      37.578  31.883  31.420  1.00  0.00     0.198 A 
ATOM     91  F   UNL A   1      38.747  31.908  29.377  1.00  0.00    -0.203 F 
ATOM     92  F   UNL A   1      38.239  30.075  34.490  1.00  0.00    -0.200 F 
ATOM     93  C   UNL A   1      37.441  31.421  32.721  1.00  0.00     0.200 A 
ATOM     94  F   UNL A   1      36.674  32.732  30.914  1.00  0.00    -0.200 F 
ATOM     95  F   UNL A   1      36.398  31.810  33.467  1.00  0.00    -0.200 F 
ENDBRANCH  61  85
BRANCH  73  96
ATOM     96  C   UNL A   1      45.430  33.722  28.914  1.00  0.00     0.064 A 
ATOM     97  C   UNL A   1      46.360  34.019  29.921  1.00  0.00     0.173 A 
ATOM     98  C   UNL A   1      45.051  34.757  28.044  1.00  0.00     0.173 A 
ATOM     99  F   UNL A   1      46.743  33.068  30.788  1.00  0.00    -0.203 F 
ATOM    100  C   UNL A   1      46.872  35.305  30.065  1.00  0.00     0.198 A 
ATOM    101  C   UNL A   1      45.589  36.035  28.172  1.00  0.00     0.198 A 
ATOM    102  F   UNL A   1      44.172  34.524  27.059  1.00  0.00    -0.203 F 
ATOM    103  F   UNL A   1      47.726  35.577  31.062  1.00  0.00    -0.200 F 
ATOM    104  C   UNL A   1      46.494  36.310  29.186  1.00  0.00     0.200 A 
ATOM    105  F   UNL A   1      45.233  36.999  27.313  1.00  0.00    -0.200 F 
ATOM    106  F   UNL A   1      46.996  37.544  29.321  1.00  0.00    -0.200 F 
ENDBRANCH  73  96
ENDBRANCH  47  48
ENDBRANCH  40  42
ENDBRANCH  39  40
ENDBRANCH  38  39
ENDBRANCH  37  38
ENDBRANCH  36  37
ENDBRANCH  35  36
ENDBRANCH  34  35
ENDBRANCH  33  34
ENDBRANCH   1  33
TORSDOF 24
ENDMDL
MODEL 3
REMARK VINA RESULT:      -9.7      3.127      5.346
REMARK SMILES CCOc1ccc(-c2cc(Cl)cc3c2O[C@@H](C(F)(F)F)C(C(=O)OCCOCCOCCOCCOC(=O)c2ccc(-c4c5nc(c(-c6c(F)c(F)c(F)c(F)c6F)c6ccc([nH]6)c(-c6c(F)c(F)c(F)c(F)c6F)c6nc(c(-c7c(F)c(F)c(F)c(F)c7F)c7ccc4[nH]7)C=C6)C=C5)cc2)=C3)cc1
REMARK SMILES IDX 29 1 28 2 27 3 26 4 25 5 24 6 22 7 23 8 21 9 8 10 9 11 14 12
REMARK SMILES IDX 10 13 13 14 15 15 11 16 12 17 102 18 16 19 7 20 4 21 5 22
REMARK SMILES IDX 104 23 6 24 103 25 3 26 2 27 1 28 17 29 18 30 19 31 20 32
REMARK SMILES IDX 30 33 31 34 32 35 33 36 34 37 35 38 36 39 37 40 38 41 39 42
REMARK SMILES IDX 40 43 101 44 41 45 100 46 42 47 43 48 44 49 94 50 45 51
REMARK SMILES IDX 99 52 93 53 95 54 46 55 98 56 92 57 91 58 47 60 79 61 59 62
REMARK SMILES IDX 78 63 60 64 63 65 77 66 96 67 61 68 62 69 76 71 97 72 64 73
REMARK SMILES IDX 48 74 49 75 57 76 50 77 51 78 55 79 58 80 52 81 53 82 56 83
REMARK SMILES IDX 54 84 80 85 81 86 89 87 82 88 83 89 87 90 90 91 84 92 85 93
REMARK SMILES IDX 88 94 86 95 65 96 66 97 74 98 67 99 68 100 72 101 75 102
REMARK SMILES IDX 69 103 70 104 73 105 71 106
REMARK H PARENT 95 59 63 70
REMARK Flexibility Score: inf
ROOT
ATOM      1  C   UNL A   1      32.769  22.060  26.601  1.00  0.00     0.188 C 
ENDROOT
BRANCH   1   2
ATOM      2  C   UNL A   1      31.356  22.418  26.120  1.00  0.00     0.188 C 
BRANCH   2   3
ATOM      3  O   UNL A   1      31.327  23.420  25.106  1.00  0.00    -0.376 OA
BRANCH   3   4
ATOM      4  C   UNL A   1      32.440  24.308  25.026  1.00  0.00     0.202 C 
BRANCH   4   5
ATOM      5  C   UNL A   1      32.532  25.414  26.084  1.00  0.00     0.261 C 
BRANCH   5   6
ATOM      6  O   UNL A   1      32.364  26.711  25.467  1.00  0.00    -0.460 OA
BRANCH   6   7
ATOM      7  C   UNL A   1      33.216  27.665  25.872  1.00  0.00     0.338 C 
ATOM      8  O   UNL A   1      34.362  27.797  25.461  1.00  0.00    -0.246 OA
BRANCH   7   9
ATOM      9  C   UNL A   1      32.567  28.676  26.741  1.00  0.00     0.087 C 
ATOM     10  C   UNL A   1      34.863  31.998  27.706  1.00  0.00     0.026 A 
ATOM     11  C   UNL A   1      36.218  31.600  27.648  1.00  0.00     0.033 A 
ATOM     12  C   UNL A   1      33.917  30.975  27.495  1.00  0.00     0.135 A 
ATOM     13  C   UNL A   1      36.571  30.256  27.759  1.00  0.00     0.042 A 
ATOM     14  C   UNL A   1      34.258  29.662  27.848  1.00  0.00     0.019 A 
ATOM     15  O   UNL A   1      32.782  31.199  26.720  1.00  0.00    -0.475 OA
ATOM     16  Cl  UNL A   1      38.227  29.803  27.723  1.00  0.00    -0.084 Cl
ATOM     17  C   UNL A   1      35.593  29.294  27.974  1.00  0.00     0.032 A 
ATOM     18  C   UNL A   1      33.173  28.663  27.943  1.00  0.00     0.027 C 
ATOM     19  C   UNL A   1      31.952  30.011  26.354  1.00  0.00     0.316 C 
BRANCH  10  20
ATOM     20  C   UNL A   1      34.611  33.179  28.603  1.00  0.00    -0.014 A 
ATOM     21  C   UNL A   1      33.313  35.139  30.220  1.00  0.00     0.119 A 
ATOM     22  C   UNL A   1      33.913  34.027  30.804  1.00  0.00     0.047 A 
ATOM     23  C   UNL A   1      33.432  35.330  28.850  1.00  0.00     0.047 A 
ATOM     24  C   UNL A   1      34.555  33.060  30.007  1.00  0.00     0.013 A 
ATOM     25  C   UNL A   1      34.073  34.364  28.055  1.00  0.00     0.013 A 
BRANCH  21  26
ATOM     26  O   UNL A   1      32.726  36.061  31.041  1.00  0.00    -0.494 OA
BRANCH  26  27
ATOM     27  C   UNL A   1      33.276  36.131  32.365  1.00  0.00     0.226 C 
ATOM     28  C   UNL A   1      33.964  37.465  32.614  1.00  0.00     0.049 C 
ENDBRANCH  26  27
ENDBRANCH  21  26
ENDBRANCH  10  20
BRANCH  19  29
ATOM     29  C   UNL A   1      31.216  30.102  24.993  1.00  0.00     0.430 C 
ATOM     30  F   UNL A   1      32.127  30.057  23.982  1.00  0.00    -0.167 F 
ATOM     31  F   UNL A   1      30.387  29.046  24.808  1.00  0.00    -0.167 F 
ATOM     32  F   UNL A   1      30.489  31.210  24.788  1.00  0.00    -0.167 F 
ENDBRANCH  19  29
ENDBRANCH   7   9
ENDBRANCH   6   7
ENDBRANCH   5   6
ENDBRANCH   4   5
ENDBRANCH   3   4
ENDBRANCH   2   3
ENDBRANCH   1   2
BRANCH   1  33
ATOM     33  O   UNL A   1      33.050  20.678  26.502  1.00  0.00    -0.377 OA
BRANCH  33  34
ATOM     34  C   UNL A   1      33.254  20.141  25.199  1.00  0.00     0.188 C 
BRANCH  34  35
ATOM     35  C   UNL A   1      34.661  19.750  24.691  1.00  0.00     0.188 C 
BRANCH  35  36
ATOM     36  O   UNL A   1      35.714  20.589  25.159  1.00  0.00    -0.376 OA
BRANCH  36  37
ATOM     37  C   UNL A   1      36.040  21.722  24.366  1.00  0.00     0.202 C 
BRANCH  37  38
ATOM     38  C   UNL A   1      37.452  22.265  24.616  1.00  0.00     0.261 C 
BRANCH  38  39
ATOM     39  O   UNL A   1      37.898  22.170  25.977  1.00  0.00    -0.460 OA
BRANCH  39  40
ATOM     40  C   UNL A   1      39.218  21.976  26.180  1.00  0.00     0.338 C 
ATOM     41  O   UNL A   1      39.917  21.089  25.719  1.00  0.00    -0.246 OA
BRANCH  40  42
ATOM     42  C   UNL A   1      39.737  23.145  26.913  1.00  0.00     0.060 A 
ATOM     43  C   UNL A   1      39.111  24.385  26.735  1.00  0.00     0.016 A 
ATOM     44  C   UNL A   1      40.817  23.010  27.790  1.00  0.00     0.016 A 
ATOM     45  C   UNL A   1      39.597  25.510  27.401  1.00  0.00     0.010 A 
ATOM     46  C   UNL A   1      41.314  24.139  28.441  1.00  0.00     0.010 A 
ATOM     47  C   UNL A   1      40.729  25.398  28.218  1.00  0.00    -0.014 A 
BRANCH  47  48
ATOM     48  C   UNL A   1      41.448  26.618  28.648  1.00  0.00     0.031 A 
ATOM     49  C   UNL A   1      42.843  26.829  28.131  1.00  0.00     0.074 A 
ATOM     50  C   UNL A   1      40.884  27.514  29.475  1.00  0.00     0.049 A 
ATOM     51  N   UNL A   1      43.690  27.794  28.381  1.00  0.00    -0.248 NA
ATOM     52  C   UNL A   1      43.353  25.804  27.206  1.00  0.00     0.031 C 
ATOM     53  C   UNL A   1      39.528  27.437  30.010  1.00  0.00     0.029 A 
ATOM     54  N   UNL A   1      41.398  28.668  30.010  1.00  0.00    -0.354 N 
ATOM     55  C   UNL A   1      44.829  27.491  27.649  1.00  0.00     0.074 A 
ATOM     56  C   UNL A   1      44.581  26.238  26.971  1.00  0.00     0.031 C 
ATOM     57  C   UNL A   1      39.315  28.503  30.803  1.00  0.00     0.029 A 
ATOM     58  C   UNL A   1      40.530  29.317  30.851  1.00  0.00     0.049 A 
ATOM     59  H   UNL A   1      42.303  29.000  29.809  1.00  0.00     0.167 HD
ATOM     60  C   UNL A   1      45.978  28.197  27.544  1.00  0.00     0.037 A 
ATOM     61  C   UNL A   1      40.709  30.433  31.584  1.00  0.00     0.037 A 
ATOM     62  C   UNL A   1      46.229  29.435  28.229  1.00  0.00     0.049 A 
ATOM     63  C   UNL A   1      42.033  31.153  31.524  1.00  0.00     0.074 A 
ATOM     64  C   UNL A   1      47.349  30.244  28.172  1.00  0.00     0.029 A 
ATOM     65  N   UNL A   1      45.345  30.034  29.116  1.00  0.00    -0.354 N 
ATOM     66  N   UNL A   1      43.092  30.887  30.797  1.00  0.00    -0.248 NA
ATOM     67  C   UNL A   1      42.186  32.329  32.393  1.00  0.00     0.031 C 
ATOM     68  C   UNL A   1      47.166  31.304  29.067  1.00  0.00     0.029 A 
ATOM     69  C   UNL A   1      45.909  31.186  29.640  1.00  0.00     0.049 A 
ATOM     70  H   UNL A   1      44.450  29.692  29.339  1.00  0.00     0.167 HD
ATOM     71  C   UNL A   1      44.019  31.879  31.092  1.00  0.00     0.074 A 
ATOM     72  C   UNL A   1      43.397  32.756  32.063  1.00  0.00     0.031 C 
ATOM     73  C   UNL A   1      45.272  32.052  30.599  1.00  0.00     0.037 A 
BRANCH  60  74
ATOM     74  C   UNL A   1      47.061  27.614  26.683  1.00  0.00     0.064 A 
ATOM     75  C   UNL A   1      47.172  27.930  25.321  1.00  0.00     0.173 A 
ATOM     76  C   UNL A   1      47.990  26.716  27.228  1.00  0.00     0.173 A 
ATOM     77  F   UNL A   1      46.295  28.768  24.748  1.00  0.00    -0.203 F 
ATOM     78  C   UNL A   1      48.150  27.338  24.527  1.00  0.00     0.198 A 
ATOM     79  C   UNL A   1      48.986  26.149  26.438  1.00  0.00     0.198 A 
ATOM     80  F   UNL A   1      47.927  26.380  28.525  1.00  0.00    -0.203 F 
ATOM     81  F   UNL A   1      48.198  27.605  23.214  1.00  0.00    -0.200 F 
ATOM     82  C   UNL A   1      49.059  26.451  25.086  1.00  0.00     0.200 A 
ATOM     83  F   UNL A   1      49.868  25.300  26.982  1.00  0.00    -0.200 F 
ATOM     84  F   UNL A   1      49.997  25.879  24.320  1.00  0.00    -0.200 F 
ENDBRANCH  60  74
BRANCH  61  85
ATOM     85  C   UNL A   1      39.605  30.953  32.431  1.00  0.00     0.064 A 
ATOM     86  C   UNL A   1      38.692  31.888  31.923  1.00  0.00     0.173 A 
ATOM     87  C   UNL A   1      39.447  30.543  33.762  1.00  0.00     0.173 A 
ATOM     88  F   UNL A   1      38.819  32.333  30.665  1.00  0.00    -0.203 F 
ATOM     89  C   UNL A   1      37.669  32.401  32.720  1.00  0.00     0.198 A 
ATOM     90  C   UNL A   1      38.411  31.039  34.550  1.00  0.00     0.198 A 
ATOM     91  F   UNL A   1      40.300  29.656  34.297  1.00  0.00    -0.203 F 
ATOM     92  F   UNL A   1      36.836  33.325  32.222  1.00  0.00    -0.200 F 
ATOM     93  C   UNL A   1      37.526  31.972  34.030  1.00  0.00     0.200 A 
ATOM     94  F   UNL A   1      38.271  30.617  35.814  1.00  0.00    -0.200 F 
ATOM     95  F   UNL A   1      36.542  32.465  34.794  1.00  0.00    -0.200 F 
ENDBRANCH  61  85
BRANCH  73  96
ATOM     96  C   UNL A   1      46.039  33.255  31.066  1.00  0.00     0.064 A 
ATOM     97  C   UNL A   1      45.917  34.501  30.432  1.00  0.00     0.173 A 
ATOM     98  C   UNL A   1      46.869  33.171  32.195  1.00  0.00     0.173 A 
ATOM     99  F   UNL A   1      45.147  34.631  29.341  1.00  0.00    -0.203 F 
ATOM    100  C   UNL A   1      46.616  35.611  30.898  1.00  0.00     0.198 A 
ATOM    101  C   UNL A   1      47.543  34.291  32.675  1.00  0.00     0.198 A 
ATOM    102  F   UNL A   1      47.014  32.006  32.842  1.00  0.00    -0.203 F 
ATOM    103  F   UNL A   1      46.519  36.782  30.251  1.00  0.00    -0.200 F 
ATOM    104  C   UNL A   1      47.421  35.508  32.023  1.00  0.00     0.200 A 
ATOM    105  F   UNL A   1      48.308  34.192  33.771  1.00  0.00    -0.200 F 
ATOM    106  F   UNL A   1      48.085  36.581  32.474  1.00  0.00    -0.200 F 
ENDBRANCH  73  96
ENDBRANCH  47  48
ENDBRANCH  40  42
ENDBRANCH  39  40
ENDBRANCH  38  39
ENDBRANCH  37  38
ENDBRANCH  36  37
ENDBRANCH  35  36
ENDBRANCH  34  35
ENDBRANCH  33  34
ENDBRANCH   1  33
TORSDOF 24
ENDMDL
