MODEL 1
REMARK VINA RESULT:     -11.7      0.000      0.000
REMARK SMILES Cc1cccc(CC(=O)N2CCC3(CCC(=O)N([C@H](C)C(=O)OCCOCCOCCOCCOC(=O)c4ccc(-c5c6nc(c(-c7c(F)c(F)c(F)c(F)c7F)c7ccc([nH]7)c(-c7c(F)c(F)c(F)c(F)c7F)c7nc(c(-c8c(F)c(F)c(F)c(F)c8F)c8ccc5[nH]8)C=C7)C=C6)cc4)C3)CC2)c1
REMARK SMILES IDX 28 1 27 2 26 3 25 4 24 5 23 6 21 7 22 8 19 9 20 10 18 11
REMARK SMILES IDX 8 12 9 13 10 14 11 15 103 16 12 17 102 18 13 19 14 20 101 21
REMARK SMILES IDX 15 22 16 23 17 24 7 25 6 26 1 27 2 28 3 29 104 30 4 31 5 32
REMARK SMILES IDX 29 33 30 34 31 35 32 36 33 37 34 38 35 39 36 40 37 41 38 42
REMARK SMILES IDX 39 43 100 44 40 45 99 46 41 47 42 48 43 49 93 50 44 51 98 52
REMARK SMILES IDX 92 53 94 54 45 55 97 56 91 57 90 58 46 60 78 61 58 62 77 63
REMARK SMILES IDX 59 64 62 65 76 66 95 67 60 68 61 69 75 71 96 72 63 73 47 74
REMARK SMILES IDX 48 75 56 76 49 77 50 78 54 79 57 80 51 81 52 82 55 83 53 84
REMARK SMILES IDX 79 85 80 86 88 87 81 88 82 89 86 90 89 91 83 92 84 93 87 94
REMARK SMILES IDX 85 95 64 96 65 97 73 98 66 99 67 100 71 101 74 102 68 103
REMARK SMILES IDX 69 104 72 105 70 106
REMARK H PARENT 94 59 62 70
REMARK Flexibility Score: inf
ROOT
ATOM      1  C   UNL A   1      41.878  21.852  26.993  1.00  0.00     0.188 C 
ENDROOT
BRANCH   1   2
ATOM      2  C   UNL A   1      40.613  22.705  27.205  1.00  0.00     0.188 C 
BRANCH   2   3
ATOM      3  O   UNL A   1      40.558  24.038  26.727  1.00  0.00    -0.376 OA
BRANCH   3   4
ATOM      4  C   UNL A   1      39.274  24.534  26.375  1.00  0.00     0.202 C 
BRANCH   4   5
ATOM      5  C   UNL A   1      38.058  23.703  26.770  1.00  0.00     0.261 C 
BRANCH   5   6
ATOM      6  O   UNL A   1      36.965  24.037  25.922  1.00  0.00    -0.462 OA
BRANCH   6   7
ATOM      7  C   UNL A   1      36.284  23.015  25.365  1.00  0.00     0.328 C 
ATOM      8  O   UNL A   1      36.594  21.841  25.404  1.00  0.00    -0.250 OA
BRANCH   7   9
ATOM      9  C   UNL A   1      34.971  23.542  24.799  1.00  0.00     0.192 C 
ATOM     10  C   UNL A   1      34.760  23.110  23.359  1.00  0.00     0.044 C 
BRANCH   9  11
ATOM     11  N   UNL A   1      33.874  23.230  25.713  1.00  0.00    -0.329 N 
ATOM     12  C   UNL A   1      30.338  27.553  23.137  1.00  0.00     0.226 C 
ATOM     13  O   UNL A   1      30.422  27.768  21.920  1.00  0.00    -0.275 OA
ATOM     14  N   UNL A   1      30.298  26.251  23.610  1.00  0.00    -0.342 N 
ATOM     15  C   UNL A   1      31.065  25.250  22.890  1.00  0.00     0.120 C 
ATOM     16  C   UNL A   1      29.782  25.783  24.890  1.00  0.00     0.120 C 
ATOM     17  C   UNL A   1      32.259  24.868  23.766  1.00  0.00     0.030 C 
ATOM     18  C   UNL A   1      30.936  25.498  25.823  1.00  0.00     0.030 C 
ATOM     19  C   UNL A   1      31.846  24.430  25.210  1.00  0.00    -0.008 C 
ATOM     20  C   UNL A   1      31.112  23.051  25.184  1.00  0.00     0.019 C 
ATOM     21  C   UNL A   1      33.071  24.332  26.143  1.00  0.00     0.127 C 
ATOM     22  C   UNL A   1      32.054  21.905  24.847  1.00  0.00     0.101 C 
ATOM     23  C   UNL A   1      33.210  22.020  25.806  1.00  0.00     0.223 C 
ATOM     24  O   UNL A   1      33.255  21.294  26.792  1.00  0.00    -0.275 OA
BRANCH  12  25
ATOM     25  C   UNL A   1      30.568  28.723  24.095  1.00  0.00     0.135 C 
BRANCH  25  26
ATOM     26  C   UNL A   1      31.855  28.785  24.870  1.00  0.00    -0.038 A 
ATOM     27  C   UNL A   1      33.395  31.003  27.566  1.00  0.00     0.044 C 
ATOM     28  C   UNL A   1      33.236  29.949  26.508  1.00  0.00    -0.051 A 
ATOM     29  C   UNL A   1      34.349  29.235  26.052  1.00  0.00     0.003 A 
ATOM     30  C   UNL A   1      31.987  29.696  25.934  1.00  0.00     0.007 A 
ATOM     31  C   UNL A   1      34.209  28.265  25.057  1.00  0.00     0.001 A 
ATOM     32  C   UNL A   1      32.963  28.022  24.481  1.00  0.00     0.004 A 
ENDBRANCH  25  26
ENDBRANCH  12  25
ENDBRANCH   9  11
ENDBRANCH   7   9
ENDBRANCH   6   7
ENDBRANCH   5   6
ENDBRANCH   4   5
ENDBRANCH   3   4
ENDBRANCH   2   3
ENDBRANCH   1   2
BRANCH   1  33
ATOM     33  O   UNL A   1      41.772  20.435  26.964  1.00  0.00    -0.377 OA
BRANCH  33  34
ATOM     34  C   UNL A   1      42.542  19.702  26.017  1.00  0.00     0.188 C 
BRANCH  34  35
ATOM     35  C   UNL A   1      42.925  18.283  26.397  1.00  0.00     0.188 C 
BRANCH  35  36
ATOM     36  O   UNL A   1      44.260  18.071  25.945  1.00  0.00    -0.376 OA
BRANCH  36  37
ATOM     37  C   UNL A   1      44.743  18.955  24.939  1.00  0.00     0.202 C 
BRANCH  37  38
ATOM     38  C   UNL A   1      46.112  19.558  25.259  1.00  0.00     0.261 C 
BRANCH  38  39
ATOM     39  O   UNL A   1      46.364  20.663  24.366  1.00  0.00    -0.460 OA
BRANCH  39  40
ATOM     40  C   UNL A   1      45.470  21.686  24.443  1.00  0.00     0.338 C 
ATOM     41  O   UNL A   1      44.505  21.831  23.706  1.00  0.00    -0.246 OA
BRANCH  40  42
ATOM     42  C   UNL A   1      45.997  22.767  25.333  1.00  0.00     0.060 A 
ATOM     43  C   UNL A   1      45.551  22.867  26.663  1.00  0.00     0.016 A 
ATOM     44  C   UNL A   1      46.603  23.865  24.741  1.00  0.00     0.016 A 
ATOM     45  C   UNL A   1      45.539  24.112  27.322  1.00  0.00     0.010 A 
ATOM     46  C   UNL A   1      46.468  25.097  25.349  1.00  0.00     0.010 A 
ATOM     47  C   UNL A   1      45.910  25.262  26.629  1.00  0.00    -0.014 A 
BRANCH  47  48
ATOM     48  C   UNL A   1      45.621  26.668  27.018  1.00  0.00     0.031 A 
ATOM     49  C   UNL A   1      44.198  27.174  26.948  1.00  0.00     0.074 A 
ATOM     50  C   UNL A   1      46.524  27.328  27.789  1.00  0.00     0.049 A 
ATOM     51  N   UNL A   1      43.743  28.253  27.491  1.00  0.00    -0.248 NA
ATOM     52  C   UNL A   1      43.136  26.457  26.242  1.00  0.00     0.031 C 
ATOM     53  C   UNL A   1      46.188  28.236  28.885  1.00  0.00     0.029 A 
ATOM     54  N   UNL A   1      47.924  27.239  27.875  1.00  0.00    -0.354 N 
ATOM     55  C   UNL A   1      42.355  28.237  27.470  1.00  0.00     0.074 A 
ATOM     56  C   UNL A   1      42.036  27.121  26.622  1.00  0.00     0.031 C 
ATOM     57  C   UNL A   1      47.299  28.640  29.504  1.00  0.00     0.029 A 
ATOM     58  C   UNL A   1      48.388  28.329  28.641  1.00  0.00     0.049 A 
ATOM     59  H   UNL A   1      48.484  26.537  27.470  1.00  0.00     0.167 HD
ATOM     60  C   UNL A   1      41.662  29.118  28.264  1.00  0.00     0.037 A 
ATOM     61  C   UNL A   1      49.139  29.340  28.109  1.00  0.00     0.037 A 
ATOM     62  C   UNL A   1      42.574  30.107  28.862  1.00  0.00     0.049 A 
ATOM     63  C   UNL A   1      48.373  30.659  28.009  1.00  0.00     0.074 A 
ATOM     64  C   UNL A   1      42.853  30.519  30.154  1.00  0.00     0.029 A 
ATOM     65  N   UNL A   1      43.512  30.742  28.046  1.00  0.00    -0.354 N 
ATOM     66  N   UNL A   1      47.064  30.717  27.880  1.00  0.00    -0.248 NA
ATOM     67  C   UNL A   1      48.961  31.986  28.195  1.00  0.00     0.031 C 
ATOM     68  C   UNL A   1      43.989  31.368  30.104  1.00  0.00     0.029 A 
ATOM     69  C   UNL A   1      44.398  31.486  28.785  1.00  0.00     0.049 A 
ATOM     70  H   UNL A   1      43.535  30.665  27.065  1.00  0.00     0.167 HD
ATOM     71  C   UNL A   1      46.638  32.011  28.054  1.00  0.00     0.074 A 
ATOM     72  C   UNL A   1      47.866  32.771  28.205  1.00  0.00     0.031 C 
ATOM     73  C   UNL A   1      45.326  32.395  28.136  1.00  0.00     0.037 A 
BRANCH  60  74
ATOM     74  C   UNL A   1      40.177  29.059  28.674  1.00  0.00     0.064 A 
ATOM     75  C   UNL A   1      39.152  29.394  27.747  1.00  0.00     0.173 A 
ATOM     76  C   UNL A   1      39.685  28.776  29.966  1.00  0.00     0.173 A 
ATOM     77  F   UNL A   1      39.421  29.639  26.458  1.00  0.00    -0.203 F 
ATOM     78  C   UNL A   1      37.794  29.490  28.094  1.00  0.00     0.198 A 
ATOM     79  C   UNL A   1      38.320  28.817  30.299  1.00  0.00     0.198 A 
ATOM     80  F   UNL A   1      40.493  28.478  30.984  1.00  0.00    -0.203 F 
ATOM     81  F   UNL A   1      36.896  29.878  27.176  1.00  0.00    -0.200 F 
ATOM     82  C   UNL A   1      37.376  29.192  29.370  1.00  0.00     0.200 A 
ATOM     83  F   UNL A   1      37.933  28.501  31.543  1.00  0.00    -0.200 F 
ATOM     84  F   UNL A   1      36.080  29.265  29.702  1.00  0.00    -0.200 F 
ENDBRANCH  60  74
BRANCH  61  85
ATOM     85  C   UNL A   1      50.341  28.787  27.408  1.00  0.00     0.064 A 
ATOM     86  C   UNL A   1      51.242  28.188  28.323  1.00  0.00     0.173 A 
ATOM     87  C   UNL A   1      50.121  28.107  26.199  1.00  0.00     0.173 A 
ATOM     88  F   UNL A   1      51.547  28.823  29.467  1.00  0.00    -0.203 F 
ATOM     89  C   UNL A   1      51.561  26.833  28.218  1.00  0.00     0.198 A 
ATOM     90  C   UNL A   1      50.478  26.758  26.080  1.00  0.00     0.198 A 
ATOM     91  F   UNL A   1      49.340  28.652  25.256  1.00  0.00    -0.203 F 
ATOM     92  F   UNL A   1      52.141  26.201  29.250  1.00  0.00    -0.200 F 
ATOM     93  C   UNL A   1      51.120  26.105  27.125  1.00  0.00     0.200 A 
ATOM     94  F   UNL A   1      50.049  26.043  25.029  1.00  0.00    -0.200 F 
ATOM     95  F   UNL A   1      51.224  24.767  27.124  1.00  0.00    -0.200 F 
ENDBRANCH  61  85
BRANCH  73  96
ATOM     96  C   UNL A   1      44.757  33.720  27.650  1.00  0.00     0.064 A 
ATOM     97  C   UNL A   1      44.033  33.859  26.457  1.00  0.00     0.173 A 
ATOM     98  C   UNL A   1      44.716  34.856  28.510  1.00  0.00     0.173 A 
ATOM     99  F   UNL A   1      43.899  32.846  25.592  1.00  0.00    -0.203 F 
ATOM    100  C   UNL A   1      43.353  35.037  26.136  1.00  0.00     0.198 A 
ATOM    101  C   UNL A   1      43.990  36.005  28.211  1.00  0.00     0.198 A 
ATOM    102  F   UNL A   1      45.331  34.883  29.699  1.00  0.00    -0.203 F 
ATOM    103  F   UNL A   1      42.693  35.120  24.972  1.00  0.00    -0.200 F 
ATOM    104  C   UNL A   1      43.315  36.100  27.017  1.00  0.00     0.200 A 
ATOM    105  F   UNL A   1      43.921  37.001  29.107  1.00  0.00    -0.200 F 
ATOM    106  F   UNL A   1      42.612  37.202  26.727  1.00  0.00    -0.200 F 
ENDBRANCH  73  96
ENDBRANCH  47  48
ENDBRANCH  40  42
ENDBRANCH  39  40
ENDBRANCH  38  39
ENDBRANCH  37  38
ENDBRANCH  36  37
ENDBRANCH  35  36
ENDBRANCH  34  35
ENDBRANCH  33  34
ENDBRANCH   1  33
TORSDOF 23
ENDMDL
MODEL 2
REMARK VINA RESULT:     -11.6      1.162      1.973
REMARK SMILES Cc1cccc(CC(=O)N2CCC3(CCC(=O)N([C@H](C)C(=O)OCCOCCOCCOCCOC(=O)c4ccc(-c5c6nc(c(-c7c(F)c(F)c(F)c(F)c7F)c7ccc([nH]7)c(-c7c(F)c(F)c(F)c(F)c7F)c7nc(c(-c8c(F)c(F)c(F)c(F)c8F)c8ccc5[nH]8)C=C7)C=C6)cc4)C3)CC2)c1
REMARK SMILES IDX 28 1 27 2 26 3 25 4 24 5 23 6 21 7 22 8 19 9 20 10 18 11
REMARK SMILES IDX 8 12 9 13 10 14 11 15 103 16 12 17 102 18 13 19 14 20 101 21
REMARK SMILES IDX 15 22 16 23 17 24 7 25 6 26 1 27 2 28 3 29 104 30 4 31 5 32
REMARK SMILES IDX 29 33 30 34 31 35 32 36 33 37 34 38 35 39 36 40 37 41 38 42
REMARK SMILES IDX 39 43 100 44 40 45 99 46 41 47 42 48 43 49 93 50 44 51 98 52
REMARK SMILES IDX 92 53 94 54 45 55 97 56 91 57 90 58 46 60 78 61 58 62 77 63
REMARK SMILES IDX 59 64 62 65 76 66 95 67 60 68 61 69 75 71 96 72 63 73 47 74
REMARK SMILES IDX 48 75 56 76 49 77 50 78 54 79 57 80 51 81 52 82 55 83 53 84
REMARK SMILES IDX 79 85 80 86 88 87 81 88 82 89 86 90 89 91 83 92 84 93 87 94
REMARK SMILES IDX 85 95 64 96 65 97 73 98 66 99 67 100 71 101 74 102 68 103
REMARK SMILES IDX 69 104 72 105 70 106
REMARK H PARENT 94 59 62 70
REMARK Flexibility Score: inf
ROOT
ATOM      1  C   UNL A   1      42.196  21.679  27.022  1.00  0.00     0.188 C 
ENDROOT
BRANCH   1   2
ATOM      2  C   UNL A   1      41.190  22.798  27.353  1.00  0.00     0.188 C 
BRANCH   2   3
ATOM      3  O   UNL A   1      40.975  23.861  26.440  1.00  0.00    -0.376 OA
BRANCH   3   4
ATOM      4  C   UNL A   1      39.859  24.703  26.697  1.00  0.00     0.202 C 
BRANCH   4   5
ATOM      5  C   UNL A   1      38.544  24.039  27.090  1.00  0.00     0.261 C 
BRANCH   5   6
ATOM      6  O   UNL A   1      37.873  23.595  25.916  1.00  0.00    -0.462 OA
BRANCH   6   7
ATOM      7  C   UNL A   1      37.782  22.263  25.725  1.00  0.00     0.328 C 
ATOM      8  O   UNL A   1      38.594  21.432  26.079  1.00  0.00    -0.250 OA
BRANCH   7   9
ATOM      9  C   UNL A   1      36.422  21.938  25.120  1.00  0.00     0.192 C 
ATOM     10  C   UNL A   1      36.335  20.492  24.663  1.00  0.00     0.044 C 
BRANCH   9  11
ATOM     11  N   UNL A   1      35.360  22.374  26.023  1.00  0.00    -0.329 N 
ATOM     12  C   UNL A   1      33.004  26.033  21.676  1.00  0.00     0.226 C 
ATOM     13  O   UNL A   1      33.048  25.681  20.490  1.00  0.00    -0.275 OA
ATOM     14  N   UNL A   1      32.634  25.126  22.655  1.00  0.00    -0.342 N 
ATOM     15  C   UNL A   1      33.023  23.739  22.470  1.00  0.00     0.120 C 
ATOM     16  C   UNL A   1      32.110  25.413  23.985  1.00  0.00     0.120 C 
ATOM     17  C   UNL A   1      34.126  23.432  23.484  1.00  0.00     0.030 C 
ATOM     18  C   UNL A   1      33.207  25.224  25.008  1.00  0.00     0.030 C 
ATOM     19  C   UNL A   1      33.722  23.784  24.955  1.00  0.00    -0.008 C 
ATOM     20  C   UNL A   1      32.627  22.803  25.481  1.00  0.00     0.019 C 
ATOM     21  C   UNL A   1      34.940  23.735  25.901  1.00  0.00     0.127 C 
ATOM     22  C   UNL A   1      33.174  21.402  25.712  1.00  0.00     0.101 C 
ATOM     23  C   UNL A   1      34.388  21.568  26.588  1.00  0.00     0.223 C 
ATOM     24  O   UNL A   1      34.304  21.346  27.790  1.00  0.00    -0.275 OA
BRANCH  12  25
ATOM     25  C   UNL A   1      33.634  27.374  22.055  1.00  0.00     0.135 C 
BRANCH  25  26
ATOM     26  C   UNL A   1      32.876  28.304  22.963  1.00  0.00    -0.038 A 
ATOM     27  C   UNL A   1      33.380  29.897  26.392  1.00  0.00     0.044 C 
ATOM     28  C   UNL A   1      32.744  29.463  25.103  1.00  0.00    -0.051 A 
ATOM     29  C   UNL A   1      31.379  29.676  24.884  1.00  0.00     0.003 A 
ATOM     30  C   UNL A   1      33.492  28.804  24.123  1.00  0.00     0.007 A 
ATOM     31  C   UNL A   1      30.779  29.261  23.693  1.00  0.00     0.001 A 
ATOM     32  C   UNL A   1      31.528  28.596  22.722  1.00  0.00     0.004 A 
ENDBRANCH  25  26
ENDBRANCH  12  25
ENDBRANCH   9  11
ENDBRANCH   7   9
ENDBRANCH   6   7
ENDBRANCH   5   6
ENDBRANCH   4   5
ENDBRANCH   3   4
ENDBRANCH   2   3
ENDBRANCH   1   2
BRANCH   1  33
ATOM     33  O   UNL A   1      41.767  20.324  27.035  1.00  0.00    -0.377 OA
BRANCH  33  34
ATOM     34  C   UNL A   1      42.302  19.418  26.077  1.00  0.00     0.188 C 
BRANCH  34  35
ATOM     35  C   UNL A   1      43.007  18.186  26.618  1.00  0.00     0.188 C 
BRANCH  35  36
ATOM     36  O   UNL A   1      44.158  17.969  25.806  1.00  0.00    -0.376 OA
BRANCH  36  37
ATOM     37  C   UNL A   1      44.553  19.040  24.955  1.00  0.00     0.202 C 
BRANCH  37  38
ATOM     38  C   UNL A   1      45.921  19.629  25.304  1.00  0.00     0.261 C 
BRANCH  38  39
ATOM     39  O   UNL A   1      46.212  20.719  24.405  1.00  0.00    -0.460 OA
BRANCH  39  40
ATOM     40  C   UNL A   1      45.355  21.774  24.476  1.00  0.00     0.338 C 
ATOM     41  O   UNL A   1      44.402  21.955  23.732  1.00  0.00    -0.246 OA
BRANCH  40  42
ATOM     42  C   UNL A   1      45.913  22.834  25.373  1.00  0.00     0.060 A 
ATOM     43  C   UNL A   1      45.552  22.873  26.731  1.00  0.00     0.016 A 
ATOM     44  C   UNL A   1      46.457  23.967  24.787  1.00  0.00     0.016 A 
ATOM     45  C   UNL A   1      45.554  24.092  27.438  1.00  0.00     0.010 A 
ATOM     46  C   UNL A   1      46.333  25.172  25.450  1.00  0.00     0.010 A 
ATOM     47  C   UNL A   1      45.855  25.276  26.767  1.00  0.00    -0.014 A 
BRANCH  47  48
ATOM     48  C   UNL A   1      45.560  26.659  27.228  1.00  0.00     0.031 A 
ATOM     49  C   UNL A   1      44.151  27.193  27.100  1.00  0.00     0.074 A 
ATOM     50  C   UNL A   1      46.419  27.252  28.098  1.00  0.00     0.049 A 
ATOM     51  N   UNL A   1      43.677  28.243  27.683  1.00  0.00    -0.248 NA
ATOM     52  C   UNL A   1      43.128  26.543  26.282  1.00  0.00     0.031 C 
ATOM     53  C   UNL A   1      46.025  28.093  29.227  1.00  0.00     0.029 A 
ATOM     54  N   UNL A   1      47.809  27.132  28.267  1.00  0.00    -0.354 N 
ATOM     55  C   UNL A   1      42.293  28.254  27.571  1.00  0.00     0.074 A 
ATOM     56  C   UNL A   1      42.015  27.200  26.633  1.00  0.00     0.031 C 
ATOM     57  C   UNL A   1      47.099  28.437  29.941  1.00  0.00     0.029 A 
ATOM     58  C   UNL A   1      48.237  28.162  29.132  1.00  0.00     0.049 A 
ATOM     59  H   UNL A   1      48.385  26.448  27.854  1.00  0.00     0.167 HD
ATOM     60  C   UNL A   1      41.561  29.094  28.375  1.00  0.00     0.037 A 
ATOM     61  C   UNL A   1      49.035  29.191  28.716  1.00  0.00     0.037 A 
ATOM     62  C   UNL A   1      42.446  30.026  29.093  1.00  0.00     0.049 A 
ATOM     63  C   UNL A   1      48.295  30.528  28.654  1.00  0.00     0.074 A 
ATOM     64  C   UNL A   1      42.646  30.349  30.425  1.00  0.00     0.029 A 
ATOM     65  N   UNL A   1      43.444  30.695  28.383  1.00  0.00    -0.354 N 
ATOM     66  N   UNL A   1      46.998  30.618  28.444  1.00  0.00    -0.248 NA
ATOM     67  C   UNL A   1      48.888  31.829  28.963  1.00  0.00     0.031 C 
ATOM     68  C   UNL A   1      43.794  31.178  30.504  1.00  0.00     0.029 A 
ATOM     69  C   UNL A   1      44.290  31.374  29.224  1.00  0.00     0.049 A 
ATOM     70  H   UNL A   1      43.530  30.681  27.402  1.00  0.00     0.167 HD
ATOM     71  C   UNL A   1      46.580  31.905  28.675  1.00  0.00     0.074 A 
ATOM     72  C   UNL A   1      47.806  32.632  28.954  1.00  0.00     0.031 C 
ATOM     73  C   UNL A   1      45.271  32.307  28.698  1.00  0.00     0.037 A 
BRANCH  60  74
ATOM     74  C   UNL A   1      40.053  29.035  28.683  1.00  0.00     0.064 A 
ATOM     75  C   UNL A   1      39.092  29.368  27.689  1.00  0.00     0.173 A 
ATOM     76  C   UNL A   1      39.475  28.755  29.940  1.00  0.00     0.173 A 
ATOM     77  F   UNL A   1      39.448  29.611  26.421  1.00  0.00    -0.203 F 
ATOM     78  C   UNL A   1      37.714  29.464  27.943  1.00  0.00     0.198 A 
ATOM     79  C   UNL A   1      38.090  28.795  30.179  1.00  0.00     0.198 A 
ATOM     80  F   UNL A   1      40.212  28.458  31.010  1.00  0.00    -0.203 F 
ATOM     81  F   UNL A   1      36.880  29.850  26.966  1.00  0.00    -0.200 F 
ATOM     82  C   UNL A   1      37.211  29.168  29.188  1.00  0.00     0.200 A 
ATOM     83  F   UNL A   1      37.620  28.481  31.396  1.00  0.00    -0.200 F 
ATOM     84  F   UNL A   1      35.895  29.241  29.432  1.00  0.00    -0.200 F 
ENDBRANCH  60  74
BRANCH  61  85
ATOM     85  C   UNL A   1      50.272  28.664  28.059  1.00  0.00     0.064 A 
ATOM     86  C   UNL A   1      50.443  29.212  26.763  1.00  0.00     0.173 A 
ATOM     87  C   UNL A   1      51.424  28.554  28.856  1.00  0.00     0.173 A 
ATOM     88  F   UNL A   1      49.393  29.279  25.928  1.00  0.00    -0.203 F 
ATOM     89  C   UNL A   1      51.576  29.967  26.457  1.00  0.00     0.198 A 
ATOM     90  C   UNL A   1      52.576  29.280  28.526  1.00  0.00     0.198 A 
ATOM     91  F   UNL A   1      51.351  27.976  30.063  1.00  0.00    -0.203 F 
ATOM     92  F   UNL A   1      51.586  30.743  25.362  1.00  0.00    -0.200 F 
ATOM     93  C   UNL A   1      52.614  30.051  27.371  1.00  0.00     0.200 A 
ATOM     94  F   UNL A   1      53.582  29.374  29.408  1.00  0.00    -0.200 F 
ATOM     95  F   UNL A   1      53.597  30.946  27.188  1.00  0.00    -0.200 F 
ENDBRANCH  61  85
BRANCH  73  96
ATOM     96  C   UNL A   1      44.752  33.669  28.264  1.00  0.00     0.064 A 
ATOM     97  C   UNL A   1      44.133  33.903  27.027  1.00  0.00     0.173 A 
ATOM     98  C   UNL A   1      44.645  34.740  29.198  1.00  0.00     0.173 A 
ATOM     99  F   UNL A   1      44.069  32.958  26.082  1.00  0.00    -0.203 F 
ATOM    100  C   UNL A   1      43.490  35.110  26.737  1.00  0.00     0.198 A 
ATOM    101  C   UNL A   1      43.954  35.917  28.924  1.00  0.00     0.198 A 
ATOM    102  F   UNL A   1      45.157  34.673  30.434  1.00  0.00    -0.203 F 
ATOM    103  F   UNL A   1      42.932  35.285  25.530  1.00  0.00    -0.200 F 
ATOM    104  C   UNL A   1      43.384  36.107  27.688  1.00  0.00     0.200 A 
ATOM    105  F   UNL A   1      43.815  36.846  29.881  1.00  0.00    -0.200 F 
ATOM    106  F   UNL A   1      42.714  37.235  27.421  1.00  0.00    -0.200 F 
ENDBRANCH  73  96
ENDBRANCH  47  48
ENDBRANCH  40  42
ENDBRANCH  39  40
ENDBRANCH  38  39
ENDBRANCH  37  38
ENDBRANCH  36  37
ENDBRANCH  35  36
ENDBRANCH  34  35
ENDBRANCH  33  34
ENDBRANCH   1  33
TORSDOF 23
ENDMDL
MODEL 3
REMARK VINA RESULT:     -11.4      4.266     11.014
REMARK SMILES Cc1cccc(CC(=O)N2CCC3(CCC(=O)N([C@H](C)C(=O)OCCOCCOCCOCCOC(=O)c4ccc(-c5c6nc(c(-c7c(F)c(F)c(F)c(F)c7F)c7ccc([nH]7)c(-c7c(F)c(F)c(F)c(F)c7F)c7nc(c(-c8c(F)c(F)c(F)c(F)c8F)c8ccc5[nH]8)C=C7)C=C6)cc4)C3)CC2)c1
REMARK SMILES IDX 28 1 27 2 26 3 25 4 24 5 23 6 21 7 22 8 19 9 20 10 18 11
REMARK SMILES IDX 8 12 9 13 10 14 11 15 103 16 12 17 102 18 13 19 14 20 101 21
REMARK SMILES IDX 15 22 16 23 17 24 7 25 6 26 1 27 2 28 3 29 104 30 4 31 5 32
REMARK SMILES IDX 29 33 30 34 31 35 32 36 33 37 34 38 35 39 36 40 37 41 38 42
REMARK SMILES IDX 39 43 100 44 40 45 99 46 41 47 42 48 43 49 93 50 44 51 98 52
REMARK SMILES IDX 92 53 94 54 45 55 97 56 91 57 90 58 46 60 78 61 58 62 77 63
REMARK SMILES IDX 59 64 62 65 76 66 95 67 60 68 61 69 75 71 96 72 63 73 47 74
REMARK SMILES IDX 48 75 56 76 49 77 50 78 54 79 57 80 51 81 52 82 55 83 53 84
REMARK SMILES IDX 79 85 80 86 88 87 81 88 82 89 86 90 89 91 83 92 84 93 87 94
REMARK SMILES IDX 85 95 64 96 65 97 73 98 66 99 67 100 71 101 74 102 68 103
REMARK SMILES IDX 69 104 72 105 70 106
REMARK H PARENT 94 59 62 70
REMARK Flexibility Score: inf
ROOT
ATOM      1  C   UNL A   1      33.563  34.617  29.561  1.00  0.00     0.188 C 
ENDROOT
BRANCH   1   2
ATOM      2  C   UNL A   1      34.584  33.605  29.005  1.00  0.00     0.188 C 
BRANCH   2   3
ATOM      3  O   UNL A   1      34.286  32.220  28.993  1.00  0.00    -0.376 OA
BRANCH   3   4
ATOM      4  C   UNL A   1      34.385  31.561  27.738  1.00  0.00     0.202 C 
BRANCH   4   5
ATOM      5  C   UNL A   1      33.157  30.812  27.229  1.00  0.00     0.261 C 
BRANCH   5   6
ATOM      6  O   UNL A   1      33.527  29.482  26.886  1.00  0.00    -0.462 OA
BRANCH   6   7
ATOM      7  C   UNL A   1      33.147  29.031  25.673  1.00  0.00     0.328 C 
ATOM      8  O   UNL A   1      33.274  29.619  24.618  1.00  0.00    -0.250 OA
BRANCH   7   9
ATOM      9  C   UNL A   1      32.662  27.592  25.807  1.00  0.00     0.192 C 
ATOM     10  C   UNL A   1      31.812  27.392  27.050  1.00  0.00     0.044 C 
BRANCH   9  11
ATOM     11  N   UNL A   1      32.050  27.156  24.554  1.00  0.00    -0.329 N 
ATOM     12  C   UNL A   1      34.022  21.400  25.456  1.00  0.00     0.226 C 
ATOM     13  O   UNL A   1      34.072  20.943  26.605  1.00  0.00    -0.275 OA
ATOM     14  N   UNL A   1      32.913  22.120  25.043  1.00  0.00    -0.342 N 
ATOM     15  C   UNL A   1      32.240  22.946  26.030  1.00  0.00     0.120 C 
ATOM     16  C   UNL A   1      32.463  22.360  23.678  1.00  0.00     0.120 C 
ATOM     17  C   UNL A   1      32.537  24.406  25.688  1.00  0.00     0.030 C 
ATOM     18  C   UNL A   1      32.837  23.764  23.263  1.00  0.00     0.030 C 
ATOM     19  C   UNL A   1      32.182  24.774  24.209  1.00  0.00    -0.008 C 
ATOM     20  C   UNL A   1      30.635  24.783  23.995  1.00  0.00     0.019 C 
ATOM     21  C   UNL A   1      32.754  26.153  23.817  1.00  0.00     0.127 C 
ATOM     22  C   UNL A   1      29.964  25.953  24.700  1.00  0.00     0.101 C 
ATOM     23  C   UNL A   1      30.700  27.188  24.251  1.00  0.00     0.223 C 
ATOM     24  O   UNL A   1      30.217  27.899  23.379  1.00  0.00    -0.275 OA
BRANCH  12  25
ATOM     25  C   UNL A   1      35.305  21.401  24.623  1.00  0.00     0.135 C 
BRANCH  25  26
ATOM     26  C   UNL A   1      36.508  22.140  25.141  1.00  0.00    -0.038 A 
ATOM     27  C   UNL A   1      40.029  21.275  26.327  1.00  0.00     0.044 C 
ATOM     28  C   UNL A   1      38.776  22.047  26.030  1.00  0.00    -0.051 A 
ATOM     29  C   UNL A   1      38.630  23.359  26.493  1.00  0.00     0.003 A 
ATOM     30  C   UNL A   1      37.722  21.456  25.328  1.00  0.00     0.007 A 
ATOM     31  C   UNL A   1      37.460  24.076  26.234  1.00  0.00     0.001 A 
ATOM     32  C   UNL A   1      36.408  23.479  25.540  1.00  0.00     0.004 A 
ENDBRANCH  25  26
ENDBRANCH  12  25
ENDBRANCH   9  11
ENDBRANCH   7   9
ENDBRANCH   6   7
ENDBRANCH   5   6
ENDBRANCH   4   5
ENDBRANCH   3   4
ENDBRANCH   2   3
ENDBRANCH   1   2
BRANCH   1  33
ATOM     33  O   UNL A   1      33.274  34.629  30.953  1.00  0.00    -0.377 OA
BRANCH  33  34
ATOM     34  C   UNL A   1      34.338  34.452  31.883  1.00  0.00     0.188 C 
BRANCH  34  35
ATOM     35  C   UNL A   1      34.876  35.704  32.554  1.00  0.00     0.188 C 
BRANCH  35  36
ATOM     36  O   UNL A   1      35.310  35.329  33.859  1.00  0.00    -0.376 OA
BRANCH  36  37
ATOM     37  C   UNL A   1      35.754  33.986  34.025  1.00  0.00     0.202 C 
BRANCH  37  38
ATOM     38  C   UNL A   1      37.131  33.872  34.680  1.00  0.00     0.261 C 
BRANCH  38  39
ATOM     39  O   UNL A   1      38.070  34.695  33.956  1.00  0.00    -0.460 OA
BRANCH  39  40
ATOM     40  C   UNL A   1      39.205  35.015  34.636  1.00  0.00     0.338 C 
ATOM     41  O   UNL A   1      39.282  35.868  35.508  1.00  0.00    -0.246 OA
BRANCH  40  42
ATOM     42  C   UNL A   1      40.398  34.415  33.962  1.00  0.00     0.060 A 
ATOM     43  C   UNL A   1      40.582  34.574  32.577  1.00  0.00     0.016 A 
ATOM     44  C   UNL A   1      41.084  33.407  34.622  1.00  0.00     0.016 A 
ATOM     45  C   UNL A   1      41.293  33.611  31.835  1.00  0.00     0.010 A 
ATOM     46  C   UNL A   1      41.666  32.407  33.869  1.00  0.00     0.010 A 
ATOM     47  C   UNL A   1      41.760  32.461  32.467  1.00  0.00    -0.014 A 
BRANCH  47  48
ATOM     48  C   UNL A   1      42.192  31.197  31.812  1.00  0.00     0.031 A 
ATOM     49  C   UNL A   1      43.668  30.941  31.605  1.00  0.00     0.074 A 
ATOM     50  C   UNL A   1      41.326  30.151  31.783  1.00  0.00     0.049 A 
ATOM     51  N   UNL A   1      44.213  29.810  31.308  1.00  0.00    -0.248 NA
ATOM     52  C   UNL A   1      44.680  31.989  31.742  1.00  0.00     0.031 C 
ATOM     53  C   UNL A   1      41.693  28.749  31.980  1.00  0.00     0.029 A 
ATOM     54  N   UNL A   1      39.923  30.099  31.717  1.00  0.00    -0.354 N 
ATOM     55  C   UNL A   1      45.586  29.890  31.490  1.00  0.00     0.074 A 
ATOM     56  C   UNL A   1      45.824  31.292  31.701  1.00  0.00     0.031 C 
ATOM     57  C   UNL A   1      40.600  27.984  31.991  1.00  0.00     0.029 A 
ATOM     58  C   UNL A   1      39.544  28.767  31.446  1.00  0.00     0.049 A 
ATOM     59  H   UNL A   1      39.310  30.862  31.838  1.00  0.00     0.167 HD
ATOM     60  C   UNL A   1      46.326  28.734  31.540  1.00  0.00     0.037 A 
ATOM     61  C   UNL A   1      38.960  28.390  30.269  1.00  0.00     0.037 A 
ATOM     62  C   UNL A   1      45.503  27.574  31.159  1.00  0.00     0.049 A 
ATOM     63  C   UNL A   1      39.887  27.549  29.390  1.00  0.00     0.074 A 
ATOM     64  C   UNL A   1      45.187  26.365  31.755  1.00  0.00     0.029 A 
ATOM     65  N   UNL A   1      44.707  27.656  30.014  1.00  0.00    -0.354 N 
ATOM     66  N   UNL A   1      41.200  27.650  29.434  1.00  0.00    -0.248 NA
ATOM     67  C   UNL A   1      39.455  26.450  28.527  1.00  0.00     0.031 C 
ATOM     68  C   UNL A   1      44.170  25.750  30.980  1.00  0.00     0.029 A 
ATOM     69  C   UNL A   1      43.870  26.573  29.906  1.00  0.00     0.049 A 
ATOM     70  H   UNL A   1      44.743  28.397  29.367  1.00  0.00     0.167 HD
ATOM     71  C   UNL A   1      41.767  26.622  28.722  1.00  0.00     0.074 A 
ATOM     72  C   UNL A   1      40.634  25.927  28.139  1.00  0.00     0.031 C 
ATOM     73  C   UNL A   1      43.108  26.343  28.692  1.00  0.00     0.037 A 
BRANCH  60  74
ATOM     74  C   UNL A   1      47.760  28.548  32.072  1.00  0.00     0.064 A 
ATOM     75  C   UNL A   1      48.157  29.120  33.312  1.00  0.00     0.173 A 
ATOM     76  C   UNL A   1      48.819  27.910  31.393  1.00  0.00     0.173 A 
ATOM     77  F   UNL A   1      47.276  29.719  34.124  1.00  0.00    -0.203 F 
ATOM     78  C   UNL A   1      49.478  29.102  33.788  1.00  0.00     0.198 A 
ATOM     79  C   UNL A   1      50.130  27.842  31.896  1.00  0.00     0.198 A 
ATOM     80  F   UNL A   1      48.657  27.345  30.196  1.00  0.00    -0.203 F 
ATOM     81  F   UNL A   1      49.784  29.722  34.937  1.00  0.00    -0.200 F 
ATOM     82  C   UNL A   1      50.465  28.453  33.083  1.00  0.00     0.200 A 
ATOM     83  F   UNL A   1      51.072  27.186  31.202  1.00  0.00    -0.200 F 
ATOM     84  F   UNL A   1      51.724  28.418  33.540  1.00  0.00    -0.200 F 
ENDBRANCH  60  74
BRANCH  61  85
ATOM     85  C   UNL A   1      37.752  29.227  29.990  1.00  0.00     0.064 A 
ATOM     86  C   UNL A   1      37.047  29.531  31.183  1.00  0.00     0.173 A 
ATOM     87  C   UNL A   1      37.894  30.268  29.057  1.00  0.00     0.173 A 
ATOM     88  F   UNL A   1      36.819  28.561  32.083  1.00  0.00    -0.203 F 
ATOM     89  C   UNL A   1      36.876  30.857  31.585  1.00  0.00     0.198 A 
ATOM     90  C   UNL A   1      37.681  31.595  29.451  1.00  0.00     0.198 A 
ATOM     91  F   UNL A   1      38.481  30.032  27.875  1.00  0.00    -0.203 F 
ATOM     92  F   UNL A   1      36.508  31.129  32.847  1.00  0.00    -0.200 F 
ATOM     93  C   UNL A   1      37.256  31.887  30.741  1.00  0.00     0.200 A 
ATOM     94  F   UNL A   1      38.053  32.599  28.643  1.00  0.00    -0.200 F 
ATOM     95  F   UNL A   1      37.307  33.146  31.201  1.00  0.00    -0.200 F 
ENDBRANCH  61  85
BRANCH  73  96
ATOM     96  C   UNL A   1      43.867  25.761  27.509  1.00  0.00     0.064 A 
ATOM     97  C   UNL A   1      44.467  26.546  26.514  1.00  0.00     0.173 A 
ATOM     98  C   UNL A   1      44.223  24.381  27.478  1.00  0.00     0.173 A 
ATOM     99  F   UNL A   1      44.304  27.874  26.470  1.00  0.00    -0.203 F 
ATOM    100  C   UNL A   1      45.324  25.999  25.554  1.00  0.00     0.198 A 
ATOM    101  C   UNL A   1      45.122  23.853  26.555  1.00  0.00     0.198 A 
ATOM    102  F   UNL A   1      43.761  23.497  28.370  1.00  0.00    -0.203 F 
ATOM    103  F   UNL A   1      45.854  26.796  24.615  1.00  0.00    -0.200 F 
ATOM    104  C   UNL A   1      45.665  24.661  25.585  1.00  0.00     0.200 A 
ATOM    105  F   UNL A   1      45.482  22.564  26.640  1.00  0.00    -0.200 F 
ATOM    106  F   UNL A   1      46.534  24.158  24.698  1.00  0.00    -0.200 F 
ENDBRANCH  73  96
ENDBRANCH  47  48
ENDBRANCH  40  42
ENDBRANCH  39  40
ENDBRANCH  38  39
ENDBRANCH  37  38
ENDBRANCH  36  37
ENDBRANCH  35  36
ENDBRANCH  34  35
ENDBRANCH  33  34
ENDBRANCH   1  33
TORSDOF 23
ENDMDL
