MODEL 1
REMARK VINA RESULT:      -8.5      0.000      0.000
REMARK SMILES CCN(CC)C(=O)/C(C#N)=C\c1ccc(O[C@H](C)C(=O)OCCOCCOCCOCCOC(=O)c2ccc(-c3c4nc(c(-c5c(F)c(F)c(F)c(F)c5F)c5ccc([nH]5)c(-c5c(F)c(F)c(F)c(F)c5F)c5nc(c(-c6c(F)c(F)c(F)c(F)c6F)c6ccc3[nH]6)C=C5)C=C4)cc2)cc1
REMARK SMILES IDX 25 1 24 2 23 3 22 4 21 5 19 6 20 7 17 8 18 9 16 10 15 11
REMARK SMILES IDX 12 12 13 13 100 14 14 15 99 16 11 17 8 18 6 19 3 20 7 21
REMARK SMILES IDX 2 22 1 23 4 24 5 25 9 26 10 27 26 28 27 29 28 30 29 31 30 32
REMARK SMILES IDX 31 33 32 34 33 35 34 36 35 37 36 38 37 39 98 40 38 41 97 42
REMARK SMILES IDX 39 43 40 44 41 45 91 46 42 47 96 48 90 49 92 50 43 51 95 52
REMARK SMILES IDX 89 53 88 54 44 56 76 57 56 58 75 59 57 60 60 61 74 62 93 63
REMARK SMILES IDX 58 64 59 65 73 67 94 68 61 69 45 70 46 71 54 72 47 73 48 74
REMARK SMILES IDX 52 75 55 76 49 77 50 78 53 79 51 80 77 81 78 82 86 83 79 84
REMARK SMILES IDX 80 85 84 86 87 87 81 88 82 89 85 90 83 91 62 92 63 93 71 94
REMARK SMILES IDX 64 95 65 96 69 97 72 98 66 99 67 100 70 101 68 102
REMARK H PARENT 92 55 60 66
REMARK Flexibility Score: inf
ROOT
ATOM      1  C   UNL A   1      37.904  29.120  28.993  1.00  0.00     0.188 C 
ENDROOT
BRANCH   1   2
ATOM      2  O   UNL A   1      37.533  30.445  28.635  1.00  0.00    -0.376 OA
BRANCH   2   3
ATOM      3  C   UNL A   1      36.269  30.736  28.064  1.00  0.00     0.202 C 
BRANCH   3   4
ATOM      4  C   UNL A   1      35.169  29.671  27.937  1.00  0.00     0.261 C 
BRANCH   4   5
ATOM      5  O   UNL A   1      34.643  29.423  26.624  1.00  0.00    -0.461 OA
BRANCH   5   6
ATOM      6  C   UNL A   1      33.330  29.725  26.466  1.00  0.00     0.347 C 
ATOM      7  O   UNL A   1      32.619  30.179  27.358  1.00  0.00    -0.248 OA
BRANCH   6   8
ATOM      8  C   UNL A   1      32.772  29.348  25.096  1.00  0.00     0.279 C 
ATOM      9  C   UNL A   1      33.568  28.581  24.039  1.00  0.00     0.066 C 
BRANCH   8  10
ATOM     10  O   UNL A   1      31.443  28.899  25.307  1.00  0.00    -0.479 OA
BRANCH  10  11
ATOM     11  C   UNL A   1      31.090  27.592  25.246  1.00  0.00     0.120 A 
ATOM     12  C   UNL A   1      30.746  24.972  24.457  1.00  0.00    -0.024 A 
ATOM     13  C   UNL A   1      31.267  25.236  25.719  1.00  0.00     0.012 A 
ATOM     14  C   UNL A   1      30.190  25.999  23.692  1.00  0.00     0.012 A 
ATOM     15  C   UNL A   1      31.400  26.561  26.130  1.00  0.00     0.047 A 
ATOM     16  C   UNL A   1      30.404  27.309  24.071  1.00  0.00     0.047 A 
BRANCH  12  17
ATOM     17  C   UNL A   1      30.884  23.655  23.865  1.00  0.00     0.033 C 
ATOM     18  C   UNL A   1      32.067  23.162  23.445  1.00  0.00     0.117 C 
BRANCH  18  19
ATOM     19  C   UNL A   1      33.439  23.815  23.578  1.00  0.00     0.264 C 
ATOM     20  N   UNL A   1      34.439  23.304  24.423  1.00  0.00    -0.339 N 
ATOM     21  O   UNL A   1      33.687  24.810  22.890  1.00  0.00    -0.268 OA
BRANCH  20  22
ATOM     22  C   UNL A   1      35.811  23.769  24.182  1.00  0.00     0.116 C 
ATOM     23  C   UNL A   1      36.552  22.835  23.235  1.00  0.00     0.027 C 
ENDBRANCH  20  22
BRANCH  20  24
ATOM     24  C   UNL A   1      34.283  22.451  25.611  1.00  0.00     0.116 C 
ATOM     25  C   UNL A   1      34.315  23.279  26.893  1.00  0.00     0.027 C 
ENDBRANCH  20  24
ENDBRANCH  18  19
BRANCH  18  26
ATOM     26  C   UNL A   1      31.986  21.877  22.638  1.00  0.00     0.105 C 
ATOM     27  N   UNL A   1      31.920  20.810  21.968  1.00  0.00    -0.192 NA
ENDBRANCH  18  26
ENDBRANCH  12  17
ENDBRANCH  10  11
ENDBRANCH   8  10
ENDBRANCH   6   8
ENDBRANCH   5   6
ENDBRANCH   4   5
ENDBRANCH   3   4
ENDBRANCH   2   3
ENDBRANCH   1   2
BRANCH   1  28
ATOM     28  C   UNL A   1      39.149  28.839  29.851  1.00  0.00     0.188 C 
BRANCH  28  29
ATOM     29  O   UNL A   1      40.179  28.107  29.220  1.00  0.00    -0.377 OA
BRANCH  29  30
ATOM     30  C   UNL A   1      39.795  27.290  28.124  1.00  0.00     0.188 C 
BRANCH  30  31
ATOM     31  C   UNL A   1      40.334  25.848  28.085  1.00  0.00     0.188 C 
BRANCH  31  32
ATOM     32  O   UNL A   1      39.790  25.056  27.037  1.00  0.00    -0.376 OA
BRANCH  32  33
ATOM     33  C   UNL A   1      39.806  23.641  27.151  1.00  0.00     0.202 C 
BRANCH  33  34
ATOM     34  C   UNL A   1      40.944  22.865  26.464  1.00  0.00     0.261 C 
BRANCH  34  35
ATOM     35  O   UNL A   1      42.194  22.788  27.166  1.00  0.00    -0.460 OA
BRANCH  35  36
ATOM     36  C   UNL A   1      43.333  22.870  26.446  1.00  0.00     0.338 C 
ATOM     37  O   UNL A   1      43.791  22.036  25.695  1.00  0.00    -0.246 OA
BRANCH  36  38
ATOM     38  C   UNL A   1      43.843  24.256  26.568  1.00  0.00     0.060 A 
ATOM     39  C   UNL A   1      43.961  25.033  25.408  1.00  0.00     0.016 A 
ATOM     40  C   UNL A   1      44.211  24.778  27.809  1.00  0.00     0.016 A 
ATOM     41  C   UNL A   1      44.500  26.318  25.479  1.00  0.00     0.010 A 
ATOM     42  C   UNL A   1      44.772  26.056  27.877  1.00  0.00     0.010 A 
ATOM     43  C   UNL A   1      44.961  26.812  26.705  1.00  0.00    -0.014 A 
BRANCH  43  44
ATOM     44  C   UNL A   1      45.841  28.006  26.723  1.00  0.00     0.031 A 
ATOM     45  C   UNL A   1      47.314  27.803  26.492  1.00  0.00     0.074 A 
ATOM     46  C   UNL A   1      45.349  29.244  26.899  1.00  0.00     0.049 A 
ATOM     47  N   UNL A   1      48.289  28.677  26.491  1.00  0.00    -0.248 NA
ATOM     48  C   UNL A   1      47.745  26.421  26.228  1.00  0.00     0.031 C 
ATOM     49  C   UNL A   1      43.939  29.576  27.078  1.00  0.00     0.029 A 
ATOM     50  N   UNL A   1      45.993  30.455  26.957  1.00  0.00    -0.354 N 
ATOM     51  C   UNL A   1      49.445  27.950  26.235  1.00  0.00     0.074 A 
ATOM     52  C   UNL A   1      49.057  26.560  26.126  1.00  0.00     0.031 C 
ATOM     53  C   UNL A   1      43.822  30.906  27.233  1.00  0.00     0.029 A 
ATOM     54  C   UNL A   1      45.153  31.513  27.200  1.00  0.00     0.049 A 
ATOM     55  H   UNL A   1      46.965  30.555  26.837  1.00  0.00     0.167 HD
ATOM     56  C   UNL A   1      50.713  28.400  26.089  1.00  0.00     0.037 A 
ATOM     57  C   UNL A   1      45.434  32.817  27.392  1.00  0.00     0.037 A 
ATOM     58  C   UNL A   1      51.096  29.782  26.207  1.00  0.00     0.049 A 
ATOM     59  C   UNL A   1      46.867  33.283  27.318  1.00  0.00     0.074 A 
ATOM     60  C   UNL A   1      52.352  30.345  26.073  1.00  0.00     0.029 A 
ATOM     61  N   UNL A   1      50.222  30.820  26.500  1.00  0.00    -0.354 N 
ATOM     62  N   UNL A   1      47.953  32.596  27.056  1.00  0.00    -0.248 NA
ATOM     63  C   UNL A   1      47.111  34.712  27.564  1.00  0.00     0.031 C 
ATOM     64  C   UNL A   1      52.250  31.713  26.349  1.00  0.00     0.029 A 
ATOM     65  C   UNL A   1      50.918  32.016  26.581  1.00  0.00     0.049 A 
ATOM     66  H   UNL A   1      49.251  30.721  26.631  1.00  0.00     0.167 HD
ATOM     67  C   UNL A   1      48.999  33.511  27.067  1.00  0.00     0.074 A 
ATOM     68  C   UNL A   1      48.415  34.805  27.351  1.00  0.00     0.031 C 
ATOM     69  C   UNL A   1      50.323  33.301  26.856  1.00  0.00     0.037 A 
BRANCH  56  70
ATOM     70  C   UNL A   1      51.782  27.377  25.825  1.00  0.00     0.064 A 
ATOM     71  C   UNL A   1      52.088  26.942  24.526  1.00  0.00     0.173 A 
ATOM     72  C   UNL A   1      52.515  26.829  26.888  1.00  0.00     0.173 A 
ATOM     73  F   UNL A   1      51.406  27.423  23.474  1.00  0.00    -0.203 F 
ATOM     74  C   UNL A   1      53.061  25.970  24.306  1.00  0.00     0.198 A 
ATOM     75  C   UNL A   1      53.513  25.884  26.660  1.00  0.00     0.198 A 
ATOM     76  F   UNL A   1      52.267  27.210  28.150  1.00  0.00    -0.203 F 
ATOM     77  F   UNL A   1      53.290  25.524  23.062  1.00  0.00    -0.200 F 
ATOM     78  C   UNL A   1      53.777  25.447  25.372  1.00  0.00     0.200 A 
ATOM     79  F   UNL A   1      54.213  25.391  27.691  1.00  0.00    -0.200 F 
ATOM     80  F   UNL A   1      54.714  24.513  25.158  1.00  0.00    -0.200 F 
ENDBRANCH  56  70
BRANCH  57  81
ATOM     81  C   UNL A   1      44.337  33.781  27.676  1.00  0.00     0.064 A 
ATOM     82  C   UNL A   1      43.839  34.625  26.672  1.00  0.00     0.173 A 
ATOM     83  C   UNL A   1      43.777  33.893  28.957  1.00  0.00     0.173 A 
ATOM     84  F   UNL A   1      44.358  34.575  25.437  1.00  0.00    -0.203 F 
ATOM     85  C   UNL A   1      42.839  35.557  26.945  1.00  0.00     0.198 A 
ATOM     86  C   UNL A   1      42.756  34.803  29.220  1.00  0.00     0.198 A 
ATOM     87  F   UNL A   1      44.219  33.112  29.954  1.00  0.00    -0.203 F 
ATOM     88  F   UNL A   1      42.418  36.386  25.981  1.00  0.00    -0.200 F 
ATOM     89  C   UNL A   1      42.293  35.641  28.217  1.00  0.00     0.200 A 
ATOM     90  F   UNL A   1      42.222  34.870  30.448  1.00  0.00    -0.200 F 
ATOM     91  F   UNL A   1      41.329  36.533  28.478  1.00  0.00    -0.200 F 
ENDBRANCH  57  81
BRANCH  69  92
ATOM     92  C   UNL A   1      51.229  34.501  26.871  1.00  0.00     0.064 A 
ATOM     93  C   UNL A   1      51.920  34.897  28.026  1.00  0.00     0.173 A 
ATOM     94  C   UNL A   1      51.436  35.245  25.698  1.00  0.00     0.173 A 
ATOM     95  F   UNL A   1      51.751  34.230  29.177  1.00  0.00    -0.203 F 
ATOM     96  C   UNL A   1      52.756  36.012  28.015  1.00  0.00     0.198 A 
ATOM     97  C   UNL A   1      52.302  36.335  25.681  1.00  0.00     0.198 A 
ATOM     98  F   UNL A   1      50.809  34.905  24.562  1.00  0.00    -0.203 F 
ATOM     99  F   UNL A   1      53.360  36.405  29.145  1.00  0.00    -0.200 F 
ATOM    100  C   UNL A   1      52.953  36.724  26.841  1.00  0.00     0.200 A 
ATOM    101  F   UNL A   1      52.505  37.009  24.540  1.00  0.00    -0.200 F 
ATOM    102  F   UNL A   1      53.763  37.792  26.830  1.00  0.00    -0.200 F 
ENDBRANCH  69  92
ENDBRANCH  43  44
ENDBRANCH  36  38
ENDBRANCH  35  36
ENDBRANCH  34  35
ENDBRANCH  33  34
ENDBRANCH  32  33
ENDBRANCH  31  32
ENDBRANCH  30  31
ENDBRANCH  29  30
ENDBRANCH  28  29
ENDBRANCH   1  28
TORSDOF 27
ENDMDL
MODEL 2
REMARK VINA RESULT:      -8.4      5.459     11.123
REMARK SMILES CCN(CC)C(=O)/C(C#N)=C\c1ccc(O[C@H](C)C(=O)OCCOCCOCCOCCOC(=O)c2ccc(-c3c4nc(c(-c5c(F)c(F)c(F)c(F)c5F)c5ccc([nH]5)c(-c5c(F)c(F)c(F)c(F)c5F)c5nc(c(-c6c(F)c(F)c(F)c(F)c6F)c6ccc3[nH]6)C=C5)C=C4)cc2)cc1
REMARK SMILES IDX 25 1 24 2 23 3 22 4 21 5 19 6 20 7 17 8 18 9 16 10 15 11
REMARK SMILES IDX 12 12 13 13 100 14 14 15 99 16 11 17 8 18 6 19 3 20 7 21
REMARK SMILES IDX 2 22 1 23 4 24 5 25 9 26 10 27 26 28 27 29 28 30 29 31 30 32
REMARK SMILES IDX 31 33 32 34 33 35 34 36 35 37 36 38 37 39 98 40 38 41 97 42
REMARK SMILES IDX 39 43 40 44 41 45 91 46 42 47 96 48 90 49 92 50 43 51 95 52
REMARK SMILES IDX 89 53 88 54 44 56 76 57 56 58 75 59 57 60 60 61 74 62 93 63
REMARK SMILES IDX 58 64 59 65 73 67 94 68 61 69 45 70 46 71 54 72 47 73 48 74
REMARK SMILES IDX 52 75 55 76 49 77 50 78 53 79 51 80 77 81 78 82 86 83 79 84
REMARK SMILES IDX 80 85 84 86 87 87 81 88 82 89 85 90 83 91 62 92 63 93 71 94
REMARK SMILES IDX 64 95 65 96 69 97 72 98 66 99 67 100 70 101 68 102
REMARK H PARENT 92 55 60 66
REMARK Flexibility Score: inf
ROOT
ATOM      1  C   UNL A   1      39.005  31.443  34.147  1.00  0.00     0.188 C 
ENDROOT
BRANCH   1   2
ATOM      2  O   UNL A   1      38.213  31.724  33.001  1.00  0.00    -0.376 OA
BRANCH   2   3
ATOM      3  C   UNL A   1      36.937  31.137  32.814  1.00  0.00     0.202 C 
BRANCH   3   4
ATOM      4  C   UNL A   1      36.732  29.907  31.915  1.00  0.00     0.261 C 
BRANCH   4   5
ATOM      5  O   UNL A   1      37.887  29.107  31.624  1.00  0.00    -0.461 OA
BRANCH   5   6
ATOM      6  C   UNL A   1      38.172  28.969  30.305  1.00  0.00     0.347 C 
ATOM      7  O   UNL A   1      37.336  29.059  29.410  1.00  0.00    -0.248 OA
BRANCH   6   8
ATOM      8  C   UNL A   1      39.622  28.580  30.024  1.00  0.00     0.279 C 
ATOM      9  C   UNL A   1      40.818  29.175  30.769  1.00  0.00     0.066 C 
BRANCH   8  10
ATOM     10  O   UNL A   1      39.641  27.172  29.861  1.00  0.00    -0.479 OA
BRANCH  10  11
ATOM     11  C   UNL A   1      39.814  26.574  28.657  1.00  0.00     0.120 A 
ATOM     12  C   UNL A   1      40.903  25.404  26.409  1.00  0.00    -0.024 A 
ATOM     13  C   UNL A   1      39.896  24.737  27.099  1.00  0.00     0.012 A 
ATOM     14  C   UNL A   1      41.199  26.736  26.703  1.00  0.00     0.012 A 
ATOM     15  C   UNL A   1      39.320  25.350  28.210  1.00  0.00     0.047 A 
ATOM     16  C   UNL A   1      40.685  27.299  27.853  1.00  0.00     0.047 A 
BRANCH  12  17
ATOM     17  C   UNL A   1      41.743  24.692  25.464  1.00  0.00     0.033 C 
ATOM     18  C   UNL A   1      42.540  23.666  25.822  1.00  0.00     0.117 C 
BRANCH  18  19
ATOM     19  C   UNL A   1      42.652  23.021  27.199  1.00  0.00     0.264 C 
ATOM     20  N   UNL A   1      43.257  23.670  28.290  1.00  0.00    -0.339 N 
ATOM     21  O   UNL A   1      42.163  21.899  27.367  1.00  0.00    -0.268 OA
BRANCH  20  22
ATOM     22  C   UNL A   1      42.967  23.131  29.625  1.00  0.00     0.116 C 
ATOM     23  C   UNL A   1      44.060  23.500  30.619  1.00  0.00     0.027 C 
ENDBRANCH  20  22
BRANCH  20  24
ATOM     24  C   UNL A   1      44.251  24.754  28.272  1.00  0.00     0.116 C 
ATOM     25  C   UNL A   1      45.563  24.288  27.646  1.00  0.00     0.027 C 
ENDBRANCH  20  24
ENDBRANCH  18  19
BRANCH  18  26
ATOM     26  C   UNL A   1      43.521  23.202  24.758  1.00  0.00     0.105 C 
ATOM     27  N   UNL A   1      44.335  22.816  23.875  1.00  0.00    -0.192 NA
ENDBRANCH  18  26
ENDBRANCH  12  17
ENDBRANCH  10  11
ENDBRANCH   8  10
ENDBRANCH   6   8
ENDBRANCH   5   6
ENDBRANCH   4   5
ENDBRANCH   3   4
ENDBRANCH   2   3
ENDBRANCH   1   2
BRANCH   1  28
ATOM     28  C   UNL A   1      38.425  30.701  35.362  1.00  0.00     0.188 C 
BRANCH  28  29
ATOM     29  O   UNL A   1      38.796  31.208  36.627  1.00  0.00    -0.377 OA
BRANCH  29  30
ATOM     30  C   UNL A   1      38.033  32.298  37.122  1.00  0.00     0.188 C 
BRANCH  30  31
ATOM     31  C   UNL A   1      38.107  32.594  38.632  1.00  0.00     0.188 C 
BRANCH  31  32
ATOM     32  O   UNL A   1      39.429  32.772  39.122  1.00  0.00    -0.376 OA
BRANCH  32  33
ATOM     33  C   UNL A   1      39.629  33.396  40.381  1.00  0.00     0.202 C 
BRANCH  33  34
ATOM     34  C   UNL A   1      39.815  34.923  40.419  1.00  0.00     0.261 C 
BRANCH  34  35
ATOM     35  O   UNL A   1      40.719  35.492  39.459  1.00  0.00    -0.460 OA
BRANCH  35  36
ATOM     36  C   UNL A   1      40.195  36.145  38.400  1.00  0.00     0.338 C 
ATOM     37  O   UNL A   1      39.451  37.101  38.420  1.00  0.00    -0.246 OA
BRANCH  36  38
ATOM     38  C   UNL A   1      40.848  35.619  37.179  1.00  0.00     0.060 A 
ATOM     39  C   UNL A   1      40.042  35.190  36.116  1.00  0.00     0.016 A 
ATOM     40  C   UNL A   1      42.239  35.538  37.088  1.00  0.00     0.016 A 
ATOM     41  C   UNL A   1      40.624  34.628  34.980  1.00  0.00     0.010 A 
ATOM     42  C   UNL A   1      42.820  34.953  35.960  1.00  0.00     0.010 A 
ATOM     43  C   UNL A   1      42.012  34.454  34.922  1.00  0.00    -0.014 A 
BRANCH  43  44
ATOM     44  C   UNL A   1      42.589  33.553  33.896  1.00  0.00     0.031 A 
ATOM     45  C   UNL A   1      42.981  34.147  32.569  1.00  0.00     0.074 A 
ATOM     46  C   UNL A   1      42.800  32.248  34.140  1.00  0.00     0.049 A 
ATOM     47  N   UNL A   1      43.472  33.565  31.505  1.00  0.00    -0.248 NA
ATOM     48  C   UNL A   1      42.786  35.599  32.427  1.00  0.00     0.031 C 
ATOM     49  C   UNL A   1      42.515  31.567  35.399  1.00  0.00     0.029 A 
ATOM     50  N   UNL A   1      43.306  31.263  33.327  1.00  0.00    -0.354 N 
ATOM     51  C   UNL A   1      43.639  34.578  30.568  1.00  0.00     0.074 A 
ATOM     52  C   UNL A   1      43.158  35.800  31.173  1.00  0.00     0.031 C 
ATOM     53  C   UNL A   1      42.844  30.269  35.275  1.00  0.00     0.029 A 
ATOM     54  C   UNL A   1      43.329  30.024  33.916  1.00  0.00     0.049 A 
ATOM     55  H   UNL A   1      43.621  31.431  32.410  1.00  0.00     0.167 HD
ATOM     56  C   UNL A   1      44.158  34.499  29.320  1.00  0.00     0.037 A 
ATOM     57  C   UNL A   1      43.684  28.828  33.406  1.00  0.00     0.037 A 
ATOM     58  C   UNL A   1      44.627  33.279  28.718  1.00  0.00     0.049 A 
ATOM     59  C   UNL A   1      44.172  28.748  31.980  1.00  0.00     0.074 A 
ATOM     60  C   UNL A   1      45.175  33.090  27.462  1.00  0.00     0.029 A 
ATOM     61  N   UNL A   1      44.591  32.034  29.330  1.00  0.00    -0.354 N 
ATOM     62  N   UNL A   1      44.346  29.709  31.105  1.00  0.00    -0.248 NA
ATOM     63  C   UNL A   1      44.517  27.412  31.474  1.00  0.00     0.031 C 
ATOM     64  C   UNL A   1      45.411  31.722  27.289  1.00  0.00     0.029 A 
ATOM     65  C   UNL A   1      45.079  31.067  28.465  1.00  0.00     0.049 A 
ATOM     66  H   UNL A   1      44.266  31.862  30.243  1.00  0.00     0.167 HD
ATOM     67  C   UNL A   1      44.855  29.103  29.963  1.00  0.00     0.074 A 
ATOM     68  C   UNL A   1      44.972  27.691  30.261  1.00  0.00     0.031 C 
ATOM     69  C   UNL A   1      45.199  29.664  28.777  1.00  0.00     0.037 A 
BRANCH  56  70
ATOM     70  C   UNL A   1      44.207  35.765  28.512  1.00  0.00     0.064 A 
ATOM     71  C   UNL A   1      43.091  36.238  27.805  1.00  0.00     0.173 A 
ATOM     72  C   UNL A   1      45.388  36.519  28.449  1.00  0.00     0.173 A 
ATOM     73  F   UNL A   1      41.940  35.547  27.817  1.00  0.00    -0.203 F 
ATOM     74  C   UNL A   1      43.167  37.398  27.037  1.00  0.00     0.198 A 
ATOM     75  C   UNL A   1      45.450  37.698  27.710  1.00  0.00     0.198 A 
ATOM     76  F   UNL A   1      46.485  36.116  29.107  1.00  0.00    -0.203 F 
ATOM     77  F   UNL A   1      42.106  37.794  26.318  1.00  0.00    -0.200 F 
ATOM     78  C   UNL A   1      44.344  38.129  26.994  1.00  0.00     0.200 A 
ATOM     79  F   UNL A   1      46.584  38.411  27.683  1.00  0.00    -0.200 F 
ATOM     80  F   UNL A   1      44.415  39.246  26.256  1.00  0.00    -0.200 F 
ENDBRANCH  56  70
BRANCH  57  81
ATOM     81  C   UNL A   1      43.591  27.603  34.245  1.00  0.00     0.064 A 
ATOM     82  C   UNL A   1      42.382  26.904  34.373  1.00  0.00     0.173 A 
ATOM     83  C   UNL A   1      44.702  27.117  34.951  1.00  0.00     0.173 A 
ATOM     84  F   UNL A   1      41.285  27.343  33.740  1.00  0.00    -0.203 F 
ATOM     85  C   UNL A   1      42.283  25.780  35.190  1.00  0.00     0.198 A 
ATOM     86  C   UNL A   1      44.609  25.974  35.741  1.00  0.00     0.198 A 
ATOM     87  F   UNL A   1      45.881  27.749  34.865  1.00  0.00    -0.203 F 
ATOM     88  F   UNL A   1      41.103  25.161  35.335  1.00  0.00    -0.200 F 
ATOM     89  C   UNL A   1      43.398  25.311  35.869  1.00  0.00     0.200 A 
ATOM     90  F   UNL A   1      45.693  25.517  36.384  1.00  0.00    -0.200 F 
ATOM     91  F   UNL A   1      43.304  24.227  36.650  1.00  0.00    -0.200 F 
ENDBRANCH  57  81
BRANCH  69  92
ATOM     92  C   UNL A   1      45.786  28.763  27.725  1.00  0.00     0.064 A 
ATOM     93  C   UNL A   1      45.010  28.231  26.684  1.00  0.00     0.173 A 
ATOM     94  C   UNL A   1      47.156  28.456  27.741  1.00  0.00     0.173 A 
ATOM     95  F   UNL A   1      43.694  28.482  26.626  1.00  0.00    -0.203 F 
ATOM     96  C   UNL A   1      45.577  27.400  25.720  1.00  0.00     0.198 A 
ATOM     97  C   UNL A   1      47.727  27.657  26.755  1.00  0.00     0.198 A 
ATOM     98  F   UNL A   1      47.948  28.945  28.708  1.00  0.00    -0.203 F 
ATOM     99  F   UNL A   1      44.805  26.857  24.769  1.00  0.00    -0.200 F 
ATOM    100  C   UNL A   1      46.936  27.120  25.751  1.00  0.00     0.200 A 
ATOM    101  F   UNL A   1      49.043  27.405  26.777  1.00  0.00    -0.200 F 
ATOM    102  F   UNL A   1      47.481  26.327  24.818  1.00  0.00    -0.200 F 
ENDBRANCH  69  92
ENDBRANCH  43  44
ENDBRANCH  36  38
ENDBRANCH  35  36
ENDBRANCH  34  35
ENDBRANCH  33  34
ENDBRANCH  32  33
ENDBRANCH  31  32
ENDBRANCH  30  31
ENDBRANCH  29  30
ENDBRANCH  28  29
ENDBRANCH   1  28
TORSDOF 27
ENDMDL
MODEL 3
REMARK VINA RESULT:      -8.2      4.501      9.019
REMARK SMILES CCN(CC)C(=O)/C(C#N)=C\c1ccc(O[C@H](C)C(=O)OCCOCCOCCOCCOC(=O)c2ccc(-c3c4nc(c(-c5c(F)c(F)c(F)c(F)c5F)c5ccc([nH]5)c(-c5c(F)c(F)c(F)c(F)c5F)c5nc(c(-c6c(F)c(F)c(F)c(F)c6F)c6ccc3[nH]6)C=C5)C=C4)cc2)cc1
REMARK SMILES IDX 25 1 24 2 23 3 22 4 21 5 19 6 20 7 17 8 18 9 16 10 15 11
REMARK SMILES IDX 12 12 13 13 100 14 14 15 99 16 11 17 8 18 6 19 3 20 7 21
REMARK SMILES IDX 2 22 1 23 4 24 5 25 9 26 10 27 26 28 27 29 28 30 29 31 30 32
REMARK SMILES IDX 31 33 32 34 33 35 34 36 35 37 36 38 37 39 98 40 38 41 97 42
REMARK SMILES IDX 39 43 40 44 41 45 91 46 42 47 96 48 90 49 92 50 43 51 95 52
REMARK SMILES IDX 89 53 88 54 44 56 76 57 56 58 75 59 57 60 60 61 74 62 93 63
REMARK SMILES IDX 58 64 59 65 73 67 94 68 61 69 45 70 46 71 54 72 47 73 48 74
REMARK SMILES IDX 52 75 55 76 49 77 50 78 53 79 51 80 77 81 78 82 86 83 79 84
REMARK SMILES IDX 80 85 84 86 87 87 81 88 82 89 85 90 83 91 62 92 63 93 71 94
REMARK SMILES IDX 64 95 65 96 69 97 72 98 66 99 67 100 70 101 68 102
REMARK H PARENT 92 55 60 66
REMARK Flexibility Score: inf
ROOT
ATOM      1  C   UNL A   1      35.826  30.828  28.365  1.00  0.00     0.188 C 
ENDROOT
BRANCH   1   2
ATOM      2  O   UNL A   1      34.897  31.643  27.664  1.00  0.00    -0.376 OA
BRANCH   2   3
ATOM      3  C   UNL A   1      33.599  31.180  27.333  1.00  0.00     0.202 C 
BRANCH   3   4
ATOM      4  C   UNL A   1      33.379  29.961  26.424  1.00  0.00     0.261 C 
BRANCH   4   5
ATOM      5  O   UNL A   1      32.087  29.336  26.465  1.00  0.00    -0.461 OA
BRANCH   5   6
ATOM      6  C   UNL A   1      31.747  28.649  25.346  1.00  0.00     0.347 C 
ATOM      7  O   UNL A   1      30.907  29.031  24.535  1.00  0.00    -0.248 OA
BRANCH   6   8
ATOM      8  C   UNL A   1      32.425  27.285  25.229  1.00  0.00     0.279 C 
ATOM      9  C   UNL A   1      32.138  26.114  26.168  1.00  0.00     0.066 C 
BRANCH   8  10
ATOM     10  O   UNL A   1      32.465  26.968  23.847  1.00  0.00    -0.479 OA
BRANCH  10  11
ATOM     11  C   UNL A   1      32.201  25.727  23.370  1.00  0.00     0.120 A 
ATOM     12  C   UNL A   1      32.143  23.000  22.960  1.00  0.00    -0.024 A 
ATOM     13  C   UNL A   1      30.943  23.690  23.102  1.00  0.00     0.012 A 
ATOM     14  C   UNL A   1      33.342  23.694  22.795  1.00  0.00     0.012 A 
ATOM     15  C   UNL A   1      30.975  25.072  23.267  1.00  0.00     0.047 A 
ATOM     16  C   UNL A   1      33.372  25.052  23.045  1.00  0.00     0.047 A 
BRANCH  12  17
ATOM     17  C   UNL A   1      32.185  21.558  23.108  1.00  0.00     0.033 C 
ATOM     18  C   UNL A   1      32.714  20.948  24.187  1.00  0.00     0.117 C 
BRANCH  18  19
ATOM     19  C   UNL A   1      33.268  21.611  25.443  1.00  0.00     0.264 C 
ATOM     20  N   UNL A   1      34.646  21.787  25.658  1.00  0.00    -0.339 N 
ATOM     21  O   UNL A   1      32.472  22.037  26.286  1.00  0.00    -0.268 OA
BRANCH  20  22
ATOM     22  C   UNL A   1      35.037  22.760  26.687  1.00  0.00     0.116 C 
ATOM     23  C   UNL A   1      35.281  24.136  26.081  1.00  0.00     0.027 C 
ENDBRANCH  20  22
BRANCH  20  24
ATOM     24  C   UNL A   1      35.766  21.033  25.075  1.00  0.00     0.116 C 
ATOM     25  C   UNL A   1      36.488  21.853  24.009  1.00  0.00     0.027 C 
ENDBRANCH  20  24
ENDBRANCH  18  19
BRANCH  18  26
ATOM     26  C   UNL A   1      32.888  19.443  24.064  1.00  0.00     0.105 C 
ATOM     27  N   UNL A   1      33.033  18.194  23.963  1.00  0.00    -0.192 NA
ENDBRANCH  18  26
ENDBRANCH  12  17
ENDBRANCH  10  11
ENDBRANCH   8  10
ENDBRANCH   6   8
ENDBRANCH   5   6
ENDBRANCH   4   5
ENDBRANCH   3   4
ENDBRANCH   2   3
ENDBRANCH   1   2
BRANCH   1  28
ATOM     28  C   UNL A   1      37.343  31.048  28.238  1.00  0.00     0.188 C 
BRANCH  28  29
ATOM     29  O   UNL A   1      38.055  31.143  29.455  1.00  0.00    -0.377 OA
BRANCH  29  30
ATOM     30  C   UNL A   1      38.491  32.440  29.834  1.00  0.00     0.188 C 
BRANCH  30  31
ATOM     31  C   UNL A   1      37.433  33.418  30.379  1.00  0.00     0.188 C 
BRANCH  31  32
ATOM     32  O   UNL A   1      37.944  34.357  31.316  1.00  0.00    -0.376 OA
BRANCH  32  33
ATOM     33  C   UNL A   1      37.453  34.352  32.647  1.00  0.00     0.202 C 
BRANCH  33  34
ATOM     34  C   UNL A   1      36.313  33.380  33.003  1.00  0.00     0.261 C 
BRANCH  34  35
ATOM     35  O   UNL A   1      36.689  32.123  33.587  1.00  0.00    -0.460 OA
BRANCH  35  36
ATOM     36  C   UNL A   1      36.617  31.018  32.816  1.00  0.00     0.338 C 
ATOM     37  O   UNL A   1      35.692  30.668  32.115  1.00  0.00    -0.246 OA
BRANCH  36  38
ATOM     38  C   UNL A   1      37.958  30.389  32.805  1.00  0.00     0.060 A 
ATOM     39  C   UNL A   1      39.000  31.018  33.501  1.00  0.00     0.016 A 
ATOM     40  C   UNL A   1      38.189  29.202  32.109  1.00  0.00     0.016 A 
ATOM     41  C   UNL A   1      40.290  30.488  33.455  1.00  0.00     0.010 A 
ATOM     42  C   UNL A   1      39.486  28.684  32.044  1.00  0.00     0.010 A 
ATOM     43  C   UNL A   1      40.549  29.351  32.680  1.00  0.00    -0.014 A 
BRANCH  43  44
ATOM     44  C   UNL A   1      41.951  29.002  32.348  1.00  0.00     0.031 A 
ATOM     45  C   UNL A   1      42.660  29.828  31.308  1.00  0.00     0.074 A 
ATOM     46  C   UNL A   1      42.599  28.006  32.975  1.00  0.00     0.049 A 
ATOM     47  N   UNL A   1      43.869  29.703  30.822  1.00  0.00    -0.248 NA
ATOM     48  C   UNL A   1      41.894  30.947  30.736  1.00  0.00     0.031 C 
ATOM     49  C   UNL A   1      42.042  27.171  34.035  1.00  0.00     0.029 A 
ATOM     50  N   UNL A   1      43.876  27.530  32.803  1.00  0.00    -0.354 N 
ATOM     51  C   UNL A   1      44.004  30.721  29.886  1.00  0.00     0.074 A 
ATOM     52  C   UNL A   1      42.743  31.428  29.842  1.00  0.00     0.031 C 
ATOM     53  C   UNL A   1      42.970  26.277  34.417  1.00  0.00     0.029 A 
ATOM     54  C   UNL A   1      44.174  26.455  33.604  1.00  0.00     0.049 A 
ATOM     55  H   UNL A   1      44.515  27.922  32.166  1.00  0.00     0.167 HD
ATOM     56  C   UNL A   1      45.086  31.047  29.140  1.00  0.00     0.037 A 
ATOM     57  C   UNL A   1      45.285  25.695  33.655  1.00  0.00     0.037 A 
ATOM     58  C   UNL A   1      46.336  30.337  29.181  1.00  0.00     0.049 A 
ATOM     59  C   UNL A   1      46.446  26.019  32.748  1.00  0.00     0.074 A 
ATOM     60  C   UNL A   1      47.496  30.587  28.470  1.00  0.00     0.029 A 
ATOM     61  N   UNL A   1      46.585  29.223  29.971  1.00  0.00    -0.354 N 
ATOM     62  N   UNL A   1      46.576  26.993  31.879  1.00  0.00    -0.248 NA
ATOM     63  C   UNL A   1      47.617  25.135  32.832  1.00  0.00     0.031 C 
ATOM     64  C   UNL A   1      48.425  29.588  28.781  1.00  0.00     0.029 A 
ATOM     65  C   UNL A   1      47.870  28.758  29.743  1.00  0.00     0.049 A 
ATOM     66  H   UNL A   1      45.943  28.823  30.602  1.00  0.00     0.167 HD
ATOM     67  C   UNL A   1      47.852  26.863  31.344  1.00  0.00     0.074 A 
ATOM     68  C   UNL A   1      48.460  25.722  31.995  1.00  0.00     0.031 C 
ATOM     69  C   UNL A   1      48.468  27.623  30.404  1.00  0.00     0.037 A 
BRANCH  56  70
ATOM     70  C   UNL A   1      44.945  32.203  28.189  1.00  0.00     0.064 A 
ATOM     71  C   UNL A   1      45.343  33.502  28.536  1.00  0.00     0.173 A 
ATOM     72  C   UNL A   1      44.410  32.003  26.908  1.00  0.00     0.173 A 
ATOM     73  F   UNL A   1      45.847  33.752  29.756  1.00  0.00    -0.203 F 
ATOM     74  C   UNL A   1      45.175  34.565  27.652  1.00  0.00     0.198 A 
ATOM     75  C   UNL A   1      44.278  33.062  26.012  1.00  0.00     0.198 A 
ATOM     76  F   UNL A   1      44.015  30.781  26.521  1.00  0.00    -0.203 F 
ATOM     77  F   UNL A   1      45.502  35.809  28.031  1.00  0.00    -0.200 F 
ATOM     78  C   UNL A   1      44.648  34.343  26.388  1.00  0.00     0.200 A 
ATOM     79  F   UNL A   1      43.782  32.841  24.787  1.00  0.00    -0.200 F 
ATOM     80  F   UNL A   1      44.489  35.366  25.537  1.00  0.00    -0.200 F 
ENDBRANCH  56  70
BRANCH  57  81
ATOM     81  C   UNL A   1      45.358  24.547  34.600  1.00  0.00     0.064 A 
ATOM     82  C   UNL A   1      45.878  24.707  35.892  1.00  0.00     0.173 A 
ATOM     83  C   UNL A   1      44.930  23.265  34.225  1.00  0.00     0.173 A 
ATOM     84  F   UNL A   1      46.325  25.907  36.291  1.00  0.00    -0.203 F 
ATOM     85  C   UNL A   1      45.985  23.625  36.765  1.00  0.00     0.198 A 
ATOM     86  C   UNL A   1      45.008  22.192  35.108  1.00  0.00     0.198 A 
ATOM     87  F   UNL A   1      44.428  23.057  32.999  1.00  0.00    -0.203 F 
ATOM     88  F   UNL A   1      46.533  23.796  37.976  1.00  0.00    -0.200 F 
ATOM     89  C   UNL A   1      45.544  22.370  36.375  1.00  0.00     0.200 A 
ATOM     90  F   UNL A   1      44.568  20.983  34.731  1.00  0.00    -0.200 F 
ATOM     91  F   UNL A   1      45.642  21.331  37.215  1.00  0.00    -0.200 F 
ENDBRANCH  57  81
BRANCH  69  92
ATOM     92  C   UNL A   1      49.891  27.283  30.056  1.00  0.00     0.064 A 
ATOM     93  C   UNL A   1      50.217  26.523  28.922  1.00  0.00     0.173 A 
ATOM     94  C   UNL A   1      50.946  27.755  30.852  1.00  0.00     0.173 A 
ATOM     95  F   UNL A   1      49.249  26.037  28.132  1.00  0.00    -0.203 F 
ATOM     96  C   UNL A   1      51.543  26.221  28.619  1.00  0.00     0.198 A 
ATOM     97  C   UNL A   1      52.272  27.484  30.525  1.00  0.00     0.198 A 
ATOM     98  F   UNL A   1      50.693  28.494  31.942  1.00  0.00    -0.203 F 
ATOM     99  F   UNL A   1      51.827  25.446  27.563  1.00  0.00    -0.200 F 
ATOM    100  C   UNL A   1      52.569  26.709  29.415  1.00  0.00     0.200 A 
ATOM    101  F   UNL A   1      53.262  27.973  31.285  1.00  0.00    -0.200 F 
ATOM    102  F   UNL A   1      53.845  26.424  29.117  1.00  0.00    -0.200 F 
ENDBRANCH  69  92
ENDBRANCH  43  44
ENDBRANCH  36  38
ENDBRANCH  35  36
ENDBRANCH  34  35
ENDBRANCH  33  34
ENDBRANCH  32  33
ENDBRANCH  31  32
ENDBRANCH  30  31
ENDBRANCH  29  30
ENDBRANCH  28  29
ENDBRANCH   1  28
TORSDOF 27
ENDMDL
