MODEL 1
REMARK VINA RESULT:     -10.9      0.000      0.000
REMARK SMILES O=C(OCCOCCOCCOCCOC(=O)c1cc(F)cc(-c2cccc(F)c2F)c1)c1ccc(-c2c3nc(c(-c4c(F)c(F)c(F)c(F)c4F)c4ccc([nH]4)c(-c4c(F)c(F)c(F)c(F)c4F)c4nc(c(-c5c(F)c(F)c(F)c(F)c5F)c5ccc2[nH]5)C=C4)C=C3)cc1
REMARK SMILES IDX 8 1 7 2 6 3 5 4 4 5 3 6 2 7 1 8 33 9 34 10 95 11 35 12 94 13
REMARK SMILES IDX 36 14 37 15 38 16 88 17 39 18 93 19 87 20 89 21 40 22 92 23
REMARK SMILES IDX 86 24 85 25 41 27 73 28 53 29 72 30 54 31 57 32 71 33 90 34
REMARK SMILES IDX 55 35 56 36 70 38 91 39 58 40 42 41 43 42 51 43 44 44 45 45
REMARK SMILES IDX 49 46 52 47 46 48 47 49 50 50 48 51 74 52 75 53 83 54 76 55
REMARK SMILES IDX 77 56 81 57 84 58 78 59 79 60 82 61 80 62 59 63 60 64 68 65
REMARK SMILES IDX 61 66 62 67 66 68 69 69 63 70 64 71 67 72 65 73 9 74 10 75
REMARK SMILES IDX 11 76 12 77 13 78 14 79 15 80 16 81 17 82 18 83 19 84 32 85
REMARK SMILES IDX 20 86 23 87 21 88 22 89 24 90 25 91 30 92 26 93 28 94 31 95
REMARK SMILES IDX 27 96 29 97
REMARK H PARENT 89 26 57 37
REMARK Flexibility Score: inf
ROOT
ATOM      1  C   UNL A   1      33.576  28.570  22.971  1.00  0.00     0.188 C 
ENDROOT
BRANCH   1   2
ATOM      2  C   UNL A   1      33.571  27.597  24.148  1.00  0.00     0.188 C 
BRANCH   2   3
ATOM      3  O   UNL A   1      33.638  28.332  25.371  1.00  0.00    -0.376 OA
BRANCH   3   4
ATOM      4  C   UNL A   1      32.399  28.708  25.960  1.00  0.00     0.202 C 
BRANCH   4   5
ATOM      5  C   UNL A   1      32.081  30.206  25.929  1.00  0.00     0.261 C 
BRANCH   5   6
ATOM      6  O   UNL A   1      32.425  30.899  27.140  1.00  0.00    -0.460 OA
BRANCH   6   7
ATOM      7  C   UNL A   1      33.491  31.706  27.372  1.00  0.00     0.338 C 
ATOM      8  O   UNL A   1      33.392  32.908  27.135  1.00  0.00    -0.246 OA
BRANCH   7   9
ATOM      9  C   UNL A   1      34.773  31.216  27.949  1.00  0.00     0.060 A 
ATOM     10  C   UNL A   1      35.083  29.875  28.164  1.00  0.00     0.016 A 
ATOM     11  C   UNL A   1      35.767  32.169  28.215  1.00  0.00     0.016 A 
ATOM     12  C   UNL A   1      36.263  29.490  28.779  1.00  0.00     0.010 A 
ATOM     13  C   UNL A   1      36.993  31.786  28.766  1.00  0.00     0.010 A 
ATOM     14  C   UNL A   1      37.217  30.446  29.108  1.00  0.00    -0.014 A 
BRANCH  14  15
ATOM     15  C   UNL A   1      38.330  30.041  29.987  1.00  0.00     0.031 A 
ATOM     16  C   UNL A   1      39.404  29.178  29.395  1.00  0.00     0.074 A 
ATOM     17  C   UNL A   1      38.459  30.570  31.217  1.00  0.00     0.049 A 
ATOM     18  N   UNL A   1      40.430  28.613  29.970  1.00  0.00    -0.248 NA
ATOM     19  C   UNL A   1      39.310  28.916  27.947  1.00  0.00     0.031 C 
ATOM     20  C   UNL A   1      37.544  31.544  31.816  1.00  0.00     0.029 A 
ATOM     21  N   UNL A   1      39.436  30.406  32.163  1.00  0.00    -0.354 N 
ATOM     22  C   UNL A   1      41.065  27.889  28.970  1.00  0.00     0.074 A 
ATOM     23  C   UNL A   1      40.314  28.079  27.752  1.00  0.00     0.031 C 
ATOM     24  C   UNL A   1      38.032  31.930  33.006  1.00  0.00     0.029 A 
ATOM     25  C   UNL A   1      39.241  31.165  33.291  1.00  0.00     0.049 A 
ATOM     26  H   UNL A   1      40.204  29.801  32.046  1.00  0.00     0.167 HD
ATOM     27  C   UNL A   1      42.179  27.130  29.072  1.00  0.00     0.037 A 
ATOM     28  C   UNL A   1      39.950  31.205  34.436  1.00  0.00     0.037 A 
ATOM     29  C   UNL A   1      42.920  26.992  30.293  1.00  0.00     0.049 A 
ATOM     30  C   UNL A   1      41.142  30.294  34.555  1.00  0.00     0.074 A 
ATOM     31  C   UNL A   1      44.009  26.188  30.564  1.00  0.00     0.029 A 
ATOM     32  N   UNL A   1      42.646  27.709  31.452  1.00  0.00    -0.354 N 
ATOM     33  N   UNL A   1      41.662  29.495  33.653  1.00  0.00    -0.248 NA
ATOM     34  C   UNL A   1      41.828  30.264  35.852  1.00  0.00     0.031 C 
ATOM     35  C   UNL A   1      44.374  26.395  31.899  1.00  0.00     0.029 A 
ATOM     36  C   UNL A   1      43.544  27.364  32.445  1.00  0.00     0.049 A 
ATOM     37  H   UNL A   1      41.920  28.366  31.552  1.00  0.00     0.167 HD
ATOM     38  C   UNL A   1      42.734  28.867  34.268  1.00  0.00     0.074 A 
ATOM     39  C   UNL A   1      42.805  29.399  35.616  1.00  0.00     0.031 C 
ATOM     40  C   UNL A   1      43.578  27.929  33.772  1.00  0.00     0.037 A 
BRANCH  27  41
ATOM     41  C   UNL A   1      42.595  26.358  27.855  1.00  0.00     0.064 A 
ATOM     42  C   UNL A   1      41.957  25.150  27.538  1.00  0.00     0.173 A 
ATOM     43  C   UNL A   1      43.583  26.828  26.976  1.00  0.00     0.173 A 
ATOM     44  F   UNL A   1      40.997  24.662  28.338  1.00  0.00    -0.203 F 
ATOM     45  C   UNL A   1      42.290  24.442  26.386  1.00  0.00     0.198 A 
ATOM     46  C   UNL A   1      43.893  26.132  25.809  1.00  0.00     0.198 A 
ATOM     47  F   UNL A   1      44.197  27.997  27.213  1.00  0.00    -0.203 F 
ATOM     48  F   UNL A   1      41.668  23.288  26.106  1.00  0.00    -0.200 F 
ATOM     49  C   UNL A   1      43.251  24.938  25.518  1.00  0.00     0.200 A 
ATOM     50  F   UNL A   1      44.792  26.634  24.951  1.00  0.00    -0.200 F 
ATOM     51  F   UNL A   1      43.543  24.275  24.390  1.00  0.00    -0.200 F 
ENDBRANCH  27  41
BRANCH  28  52
ATOM     52  C   UNL A   1      39.521  32.100  35.544  1.00  0.00     0.064 A 
ATOM     53  C   UNL A   1      40.046  33.395  35.679  1.00  0.00     0.173 A 
ATOM     54  C   UNL A   1      38.612  31.666  36.518  1.00  0.00     0.173 A 
ATOM     55  F   UNL A   1      40.916  33.865  34.773  1.00  0.00    -0.203 F 
ATOM     56  C   UNL A   1      39.711  34.204  36.764  1.00  0.00     0.198 A 
ATOM     57  C   UNL A   1      38.254  32.487  37.587  1.00  0.00     0.198 A 
ATOM     58  F   UNL A   1      38.060  30.447  36.424  1.00  0.00    -0.203 F 
ATOM     59  F   UNL A   1      40.268  35.415  36.891  1.00  0.00    -0.200 F 
ATOM     60  C   UNL A   1      38.813  33.750  37.717  1.00  0.00     0.200 A 
ATOM     61  F   UNL A   1      37.366  32.054  38.494  1.00  0.00    -0.200 F 
ATOM     62  F   UNL A   1      38.486  34.528  38.757  1.00  0.00    -0.200 F 
ENDBRANCH  28  52
BRANCH  40  63
ATOM     63  C   UNL A   1      44.657  27.432  34.683  1.00  0.00     0.064 A 
ATOM     64  C   UNL A   1      44.420  26.334  35.524  1.00  0.00     0.173 A 
ATOM     65  C   UNL A   1      45.884  28.098  34.790  1.00  0.00     0.173 A 
ATOM     66  F   UNL A   1      43.253  25.674  35.460  1.00  0.00    -0.203 F 
ATOM     67  C   UNL A   1      45.370  25.932  36.455  1.00  0.00     0.198 A 
ATOM     68  C   UNL A   1      46.843  27.677  35.705  1.00  0.00     0.198 A 
ATOM     69  F   UNL A   1      46.157  29.146  33.998  1.00  0.00    -0.203 F 
ATOM     70  F   UNL A   1      45.109  24.906  37.275  1.00  0.00    -0.200 F 
ATOM     71  C   UNL A   1      46.581  26.602  36.544  1.00  0.00     0.200 A 
ATOM     72  F   UNL A   1      48.022  28.311  35.778  1.00  0.00    -0.200 F 
ATOM     73  F   UNL A   1      47.498  26.211  37.439  1.00  0.00    -0.200 F 
ENDBRANCH  40  63
ENDBRANCH  14  15
ENDBRANCH   7   9
ENDBRANCH   6   7
ENDBRANCH   5   6
ENDBRANCH   4   5
ENDBRANCH   3   4
ENDBRANCH   2   3
ENDBRANCH   1   2
BRANCH   1  74
ATOM     74  O   UNL A   1      32.280  28.992  22.553  1.00  0.00    -0.377 OA
BRANCH  74  75
ATOM     75  C   UNL A   1      31.273  27.989  22.520  1.00  0.00     0.188 C 
BRANCH  75  76
ATOM     76  C   UNL A   1      29.883  28.319  23.102  1.00  0.00     0.188 C 
BRANCH  76  77
ATOM     77  O   UNL A   1      29.229  27.220  23.718  1.00  0.00    -0.376 OA
BRANCH  77  78
ATOM     78  C   UNL A   1      30.096  26.207  24.221  1.00  0.00     0.202 C 
BRANCH  78  79
ATOM     79  C   UNL A   1      29.936  25.890  25.714  1.00  0.00     0.261 C 
BRANCH  79  80
ATOM     80  O   UNL A   1      31.089  25.320  26.361  1.00  0.00    -0.460 OA
BRANCH  80  81
ATOM     81  C   UNL A   1      31.155  23.982  26.555  1.00  0.00     0.338 C 
ATOM     82  O   UNL A   1      30.474  23.311  27.308  1.00  0.00    -0.246 OA
BRANCH  81  83
ATOM     83  C   UNL A   1      32.044  23.457  25.486  1.00  0.00     0.063 A 
ATOM     84  C   UNL A   1      31.495  22.739  24.422  1.00  0.00     0.055 A 
ATOM     85  C   UNL A   1      33.439  23.471  25.691  1.00  0.00     0.024 A 
ATOM     86  C   UNL A   1      32.339  22.024  23.586  1.00  0.00     0.124 A 
ATOM     87  C   UNL A   1      34.281  22.682  24.887  1.00  0.00    -0.012 A 
ATOM     88  F   UNL A   1      31.818  21.308  22.582  1.00  0.00    -0.207 F 
ATOM     89  C   UNL A   1      33.711  21.977  23.814  1.00  0.00     0.048 A 
BRANCH  87  90
ATOM     90  C   UNL A   1      35.697  22.472  25.216  1.00  0.00     0.021 A 
ATOM     91  C   UNL A   1      36.279  21.197  25.058  1.00  0.00     0.012 A 
ATOM     92  C   UNL A   1      36.527  23.524  25.615  1.00  0.00     0.166 A 
ATOM     93  C   UNL A   1      37.644  20.987  25.289  1.00  0.00     0.004 A 
ATOM     94  C   UNL A   1      37.887  23.315  25.841  1.00  0.00     0.159 A 
ATOM     95  F   UNL A   1      36.020  24.759  25.760  1.00  0.00    -0.203 F 
ATOM     96  C   UNL A   1      38.451  22.053  25.679  1.00  0.00     0.042 A 
ATOM     97  F   UNL A   1      38.673  24.338  26.203  1.00  0.00    -0.204 F 
ENDBRANCH  87  90
ENDBRANCH  81  83
ENDBRANCH  80  81
ENDBRANCH  79  80
ENDBRANCH  78  79
ENDBRANCH  77  78
ENDBRANCH  76  77
ENDBRANCH  75  76
ENDBRANCH  74  75
ENDBRANCH   1  74
TORSDOF 21
ENDMDL
MODEL 2
REMARK VINA RESULT:     -10.7      1.287      2.330
REMARK SMILES O=C(OCCOCCOCCOCCOC(=O)c1cc(F)cc(-c2cccc(F)c2F)c1)c1ccc(-c2c3nc(c(-c4c(F)c(F)c(F)c(F)c4F)c4ccc([nH]4)c(-c4c(F)c(F)c(F)c(F)c4F)c4nc(c(-c5c(F)c(F)c(F)c(F)c5F)c5ccc2[nH]5)C=C4)C=C3)cc1
REMARK SMILES IDX 8 1 7 2 6 3 5 4 4 5 3 6 2 7 1 8 33 9 34 10 95 11 35 12 94 13
REMARK SMILES IDX 36 14 37 15 38 16 88 17 39 18 93 19 87 20 89 21 40 22 92 23
REMARK SMILES IDX 86 24 85 25 41 27 73 28 53 29 72 30 54 31 57 32 71 33 90 34
REMARK SMILES IDX 55 35 56 36 70 38 91 39 58 40 42 41 43 42 51 43 44 44 45 45
REMARK SMILES IDX 49 46 52 47 46 48 47 49 50 50 48 51 74 52 75 53 83 54 76 55
REMARK SMILES IDX 77 56 81 57 84 58 78 59 79 60 82 61 80 62 59 63 60 64 68 65
REMARK SMILES IDX 61 66 62 67 66 68 69 69 63 70 64 71 67 72 65 73 9 74 10 75
REMARK SMILES IDX 11 76 12 77 13 78 14 79 15 80 16 81 17 82 18 83 19 84 32 85
REMARK SMILES IDX 20 86 23 87 21 88 22 89 24 90 25 91 30 92 26 93 28 94 31 95
REMARK SMILES IDX 27 96 29 97
REMARK H PARENT 89 26 57 37
REMARK Flexibility Score: inf
ROOT
ATOM      1  C   UNL A   1      33.540  28.866  22.788  1.00  0.00     0.188 C 
ENDROOT
BRANCH   1   2
ATOM      2  C   UNL A   1      33.625  27.932  23.993  1.00  0.00     0.188 C 
BRANCH   2   3
ATOM      3  O   UNL A   1      33.739  28.707  25.187  1.00  0.00    -0.376 OA
BRANCH   3   4
ATOM      4  C   UNL A   1      32.569  28.827  25.987  1.00  0.00     0.202 C 
BRANCH   4   5
ATOM      5  C   UNL A   1      31.986  30.239  26.096  1.00  0.00     0.261 C 
BRANCH   5   6
ATOM      6  O   UNL A   1      32.423  30.960  27.259  1.00  0.00    -0.460 OA
BRANCH   6   7
ATOM      7  C   UNL A   1      33.531  31.731  27.402  1.00  0.00     0.338 C 
ATOM      8  O   UNL A   1      33.482  32.914  27.071  1.00  0.00    -0.246 OA
BRANCH   7   9
ATOM      9  C   UNL A   1      34.803  31.227  27.988  1.00  0.00     0.060 A 
ATOM     10  C   UNL A   1      35.064  29.891  28.284  1.00  0.00     0.016 A 
ATOM     11  C   UNL A   1      35.839  32.153  28.177  1.00  0.00     0.016 A 
ATOM     12  C   UNL A   1      36.239  29.498  28.904  1.00  0.00     0.010 A 
ATOM     13  C   UNL A   1      37.059  31.757  28.731  1.00  0.00     0.010 A 
ATOM     14  C   UNL A   1      37.236  30.433  29.155  1.00  0.00    -0.014 A 
BRANCH  14  15
ATOM     15  C   UNL A   1      38.348  30.040  30.040  1.00  0.00     0.031 A 
ATOM     16  C   UNL A   1      39.443  29.202  29.450  1.00  0.00     0.074 A 
ATOM     17  C   UNL A   1      38.458  30.560  31.276  1.00  0.00     0.049 A 
ATOM     18  N   UNL A   1      40.474  28.650  30.029  1.00  0.00    -0.248 NA
ATOM     19  C   UNL A   1      39.366  28.952  27.999  1.00  0.00     0.031 C 
ATOM     20  C   UNL A   1      37.520  31.512  31.876  1.00  0.00     0.029 A 
ATOM     21  N   UNL A   1      39.429  30.405  32.230  1.00  0.00    -0.354 N 
ATOM     22  C   UNL A   1      41.131  27.947  29.028  1.00  0.00     0.074 A 
ATOM     23  C   UNL A   1      40.387  28.135  27.806  1.00  0.00     0.031 C 
ATOM     24  C   UNL A   1      37.990  31.895  33.074  1.00  0.00     0.029 A 
ATOM     25  C   UNL A   1      39.210  31.150  33.362  1.00  0.00     0.049 A 
ATOM     26  H   UNL A   1      40.209  29.815  32.113  1.00  0.00     0.167 HD
ATOM     27  C   UNL A   1      42.257  27.207  29.133  1.00  0.00     0.037 A 
ATOM     28  C   UNL A   1      39.908  31.191  34.514  1.00  0.00     0.037 A 
ATOM     29  C   UNL A   1      42.990  27.072  30.360  1.00  0.00     0.049 A 
ATOM     30  C   UNL A   1      41.115  30.301  34.635  1.00  0.00     0.074 A 
ATOM     31  C   UNL A   1      44.091  26.284  30.633  1.00  0.00     0.029 A 
ATOM     32  N   UNL A   1      42.693  27.773  31.523  1.00  0.00    -0.354 N 
ATOM     33  N   UNL A   1      41.657  29.520  33.730  1.00  0.00    -0.248 NA
ATOM     34  C   UNL A   1      41.791  30.271  35.938  1.00  0.00     0.031 C 
ATOM     35  C   UNL A   1      44.441  26.485  31.973  1.00  0.00     0.029 A 
ATOM     36  C   UNL A   1      43.588  27.434  32.520  1.00  0.00     0.049 A 
ATOM     37  H   UNL A   1      41.954  28.416  31.622  1.00  0.00     0.167 HD
ATOM     38  C   UNL A   1      42.735  28.905  34.349  1.00  0.00     0.074 A 
ATOM     39  C   UNL A   1      42.785  29.426  35.703  1.00  0.00     0.031 C 
ATOM     40  C   UNL A   1      43.601  27.987  33.852  1.00  0.00     0.037 A 
BRANCH  27  41
ATOM     41  C   UNL A   1      42.697  26.454  27.912  1.00  0.00     0.064 A 
ATOM     42  C   UNL A   1      42.143  25.199  27.624  1.00  0.00     0.173 A 
ATOM     43  C   UNL A   1      43.625  26.986  27.003  1.00  0.00     0.173 A 
ATOM     44  F   UNL A   1      41.243  24.650  28.454  1.00  0.00    -0.203 F 
ATOM     45  C   UNL A   1      42.498  24.504  26.470  1.00  0.00     0.198 A 
ATOM     46  C   UNL A   1      43.956  26.301  25.836  1.00  0.00     0.198 A 
ATOM     47  F   UNL A   1      44.157  28.200  27.213  1.00  0.00    -0.203 F 
ATOM     48  F   UNL A   1      41.956  23.305  26.218  1.00  0.00    -0.200 F 
ATOM     49  C   UNL A   1      43.396  25.060  25.573  1.00  0.00     0.200 A 
ATOM     50  F   UNL A   1      44.793  26.858  24.949  1.00  0.00    -0.200 F 
ATOM     51  F   UNL A   1      43.708  24.408  24.444  1.00  0.00    -0.200 F 
ENDBRANCH  27  41
BRANCH  28  52
ATOM     52  C   UNL A   1      39.453  32.068  35.626  1.00  0.00     0.064 A 
ATOM     53  C   UNL A   1      39.947  33.375  35.773  1.00  0.00     0.173 A 
ATOM     54  C   UNL A   1      38.551  31.606  36.593  1.00  0.00     0.173 A 
ATOM     55  F   UNL A   1      40.809  33.871  34.874  1.00  0.00    -0.203 F 
ATOM     56  C   UNL A   1      39.588  34.167  36.862  1.00  0.00     0.198 A 
ATOM     57  C   UNL A   1      38.169  32.410  37.667  1.00  0.00     0.198 A 
ATOM     58  F   UNL A   1      38.029  30.375  36.489  1.00  0.00    -0.203 F 
ATOM     59  F   UNL A   1      40.116  35.391  36.999  1.00  0.00    -0.200 F 
ATOM     60  C   UNL A   1      38.698  33.685  37.808  1.00  0.00     0.200 A 
ATOM     61  F   UNL A   1      37.288  31.951  38.566  1.00  0.00    -0.200 F 
ATOM     62  F   UNL A   1      38.348  34.449  38.852  1.00  0.00    -0.200 F 
ENDBRANCH  28  52
BRANCH  40  63
ATOM     63  C   UNL A   1      44.680  27.501  34.768  1.00  0.00     0.064 A 
ATOM     64  C   UNL A   1      45.928  28.142  34.790  1.00  0.00     0.173 A 
ATOM     65  C   UNL A   1      44.511  26.349  35.548  1.00  0.00     0.173 A 
ATOM     66  F   UNL A   1      46.136  29.241  34.051  1.00  0.00    -0.203 F 
ATOM     67  C   UNL A   1      46.975  27.634  35.550  1.00  0.00     0.198 A 
ATOM     68  C   UNL A   1      45.553  25.859  36.327  1.00  0.00     0.198 A 
ATOM     69  F   UNL A   1      43.331  25.711  35.564  1.00  0.00    -0.203 F 
ATOM     70  F   UNL A   1      48.171  28.239  35.528  1.00  0.00    -0.200 F 
ATOM     71  C   UNL A   1      46.787  26.495  36.319  1.00  0.00     0.200 A 
ATOM     72  F   UNL A   1      45.366  24.771  37.085  1.00  0.00    -0.200 F 
ATOM     73  F   UNL A   1      47.796  26.009  37.054  1.00  0.00    -0.200 F 
ENDBRANCH  40  63
ENDBRANCH  14  15
ENDBRANCH   7   9
ENDBRANCH   6   7
ENDBRANCH   5   6
ENDBRANCH   4   5
ENDBRANCH   3   4
ENDBRANCH   2   3
ENDBRANCH   1   2
BRANCH   1  74
ATOM     74  O   UNL A   1      32.215  29.276  22.457  1.00  0.00    -0.377 OA
BRANCH  74  75
ATOM     75  C   UNL A   1      31.212  28.270  22.517  1.00  0.00     0.188 C 
BRANCH  75  76
ATOM     76  C   UNL A   1      29.938  28.547  23.342  1.00  0.00     0.188 C 
BRANCH  76  77
ATOM     77  O   UNL A   1      29.264  27.380  23.788  1.00  0.00    -0.376 OA
BRANCH  77  78
ATOM     78  C   UNL A   1      30.112  26.314  24.205  1.00  0.00     0.202 C 
BRANCH  78  79
ATOM     79  C   UNL A   1      29.819  25.752  25.603  1.00  0.00     0.261 C 
BRANCH  79  80
ATOM     80  O   UNL A   1      30.959  25.266  26.336  1.00  0.00    -0.460 OA
BRANCH  80  81
ATOM     81  C   UNL A   1      31.016  23.964  26.700  1.00  0.00     0.338 C 
ATOM     82  O   UNL A   1      30.230  23.361  27.407  1.00  0.00    -0.246 OA
BRANCH  81  83
ATOM     83  C   UNL A   1      32.081  23.351  25.864  1.00  0.00     0.063 A 
ATOM     84  C   UNL A   1      32.878  24.165  25.057  1.00  0.00     0.055 A 
ATOM     85  C   UNL A   1      32.102  21.951  25.706  1.00  0.00     0.024 A 
ATOM     86  C   UNL A   1      33.673  23.575  24.085  1.00  0.00     0.124 A 
ATOM     87  C   UNL A   1      32.851  21.366  24.669  1.00  0.00    -0.012 A 
ATOM     88  F   UNL A   1      34.417  24.349  23.286  1.00  0.00    -0.207 F 
ATOM     89  C   UNL A   1      33.656  22.199  23.875  1.00  0.00     0.048 A 
BRANCH  87  90
ATOM     90  C   UNL A   1      32.710  19.948  24.311  1.00  0.00     0.021 A 
ATOM     91  C   UNL A   1      32.453  19.576  22.976  1.00  0.00     0.012 A 
ATOM     92  C   UNL A   1      32.900  18.928  25.248  1.00  0.00     0.166 A 
ATOM     93  C   UNL A   1      32.393  18.230  22.594  1.00  0.00     0.004 A 
ATOM     94  C   UNL A   1      32.843  17.588  24.866  1.00  0.00     0.159 A 
ATOM     95  F   UNL A   1      33.165  19.235  26.528  1.00  0.00    -0.203 F 
ATOM     96  C   UNL A   1      32.592  17.233  23.544  1.00  0.00     0.042 A 
ATOM     97  F   UNL A   1      33.048  16.622  25.772  1.00  0.00    -0.204 F 
ENDBRANCH  87  90
ENDBRANCH  81  83
ENDBRANCH  80  81
ENDBRANCH  79  80
ENDBRANCH  78  79
ENDBRANCH  77  78
ENDBRANCH  76  77
ENDBRANCH  75  76
ENDBRANCH  74  75
ENDBRANCH   1  74
TORSDOF 21
ENDMDL
MODEL 3
REMARK VINA RESULT:     -10.6      4.265      7.174
REMARK SMILES O=C(OCCOCCOCCOCCOC(=O)c1cc(F)cc(-c2cccc(F)c2F)c1)c1ccc(-c2c3nc(c(-c4c(F)c(F)c(F)c(F)c4F)c4ccc([nH]4)c(-c4c(F)c(F)c(F)c(F)c4F)c4nc(c(-c5c(F)c(F)c(F)c(F)c5F)c5ccc2[nH]5)C=C4)C=C3)cc1
REMARK SMILES IDX 8 1 7 2 6 3 5 4 4 5 3 6 2 7 1 8 33 9 34 10 95 11 35 12 94 13
REMARK SMILES IDX 36 14 37 15 38 16 88 17 39 18 93 19 87 20 89 21 40 22 92 23
REMARK SMILES IDX 86 24 85 25 41 27 73 28 53 29 72 30 54 31 57 32 71 33 90 34
REMARK SMILES IDX 55 35 56 36 70 38 91 39 58 40 42 41 43 42 51 43 44 44 45 45
REMARK SMILES IDX 49 46 52 47 46 48 47 49 50 50 48 51 74 52 75 53 83 54 76 55
REMARK SMILES IDX 77 56 81 57 84 58 78 59 79 60 82 61 80 62 59 63 60 64 68 65
REMARK SMILES IDX 61 66 62 67 66 68 69 69 63 70 64 71 67 72 65 73 9 74 10 75
REMARK SMILES IDX 11 76 12 77 13 78 14 79 15 80 16 81 17 82 18 83 19 84 32 85
REMARK SMILES IDX 20 86 23 87 21 88 22 89 24 90 25 91 30 92 26 93 28 94 31 95
REMARK SMILES IDX 27 96 29 97
REMARK H PARENT 89 26 57 37
REMARK Flexibility Score: inf
ROOT
ATOM      1  C   UNL A   1      34.742  22.714  23.796  1.00  0.00     0.188 C 
ENDROOT
BRANCH   1   2
ATOM      2  C   UNL A   1      36.123  22.993  23.205  1.00  0.00     0.188 C 
BRANCH   2   3
ATOM      3  O   UNL A   1      37.074  22.092  23.773  1.00  0.00    -0.376 OA
BRANCH   3   4
ATOM      4  C   UNL A   1      36.557  21.038  24.577  1.00  0.00     0.202 C 
BRANCH   4   5
ATOM      5  C   UNL A   1      37.599  20.230  25.354  1.00  0.00     0.261 C 
BRANCH   5   6
ATOM      6  O   UNL A   1      38.917  20.800  25.326  1.00  0.00    -0.460 OA
BRANCH   6   7
ATOM      7  C   UNL A   1      39.764  21.010  26.366  1.00  0.00     0.338 C 
ATOM      8  O   UNL A   1      40.334  20.047  26.875  1.00  0.00    -0.246 OA
BRANCH   7   9
ATOM      9  C   UNL A   1      40.078  22.364  26.899  1.00  0.00     0.060 A 
ATOM     10  C   UNL A   1      39.400  23.530  26.550  1.00  0.00     0.016 A 
ATOM     11  C   UNL A   1      41.073  22.455  27.884  1.00  0.00     0.016 A 
ATOM     12  C   UNL A   1      39.794  24.771  27.022  1.00  0.00     0.010 A 
ATOM     13  C   UNL A   1      41.430  23.693  28.425  1.00  0.00     0.010 A 
ATOM     14  C   UNL A   1      40.830  24.864  27.945  1.00  0.00    -0.014 A 
BRANCH  14  15
ATOM     15  C   UNL A   1      41.393  26.199  28.222  1.00  0.00     0.031 A 
ATOM     16  C   UNL A   1      42.767  26.496  27.699  1.00  0.00     0.074 A 
ATOM     17  C   UNL A   1      40.632  27.164  28.770  1.00  0.00     0.049 A 
ATOM     18  N   UNL A   1      43.519  27.545  27.882  1.00  0.00    -0.248 NA
ATOM     19  C   UNL A   1      43.379  25.461  26.845  1.00  0.00     0.031 C 
ATOM     20  C   UNL A   1      39.230  27.010  29.165  1.00  0.00     0.029 A 
ATOM     21  N   UNL A   1      40.912  28.477  29.042  1.00  0.00    -0.354 N 
ATOM     22  C   UNL A   1      44.706  27.272  27.216  1.00  0.00     0.074 A 
ATOM     23  C   UNL A   1      44.583  25.961  26.627  1.00  0.00     0.031 C 
ATOM     24  C   UNL A   1      38.759  28.197  29.578  1.00  0.00     0.029 A 
ATOM     25  C   UNL A   1      39.847  29.169  29.564  1.00  0.00     0.049 A 
ATOM     26  H   UNL A   1      41.794  28.885  28.880  1.00  0.00     0.167 HD
ATOM     27  C   UNL A   1      45.803  28.057  27.116  1.00  0.00     0.037 A 
ATOM     28  C   UNL A   1      39.778  30.438  30.009  1.00  0.00     0.037 A 
ATOM     29  C   UNL A   1      45.877  29.372  27.687  1.00  0.00     0.049 A 
ATOM     30  C   UNL A   1      41.032  31.268  29.957  1.00  0.00     0.074 A 
ATOM     31  C   UNL A   1      46.951  30.237  27.742  1.00  0.00     0.029 A 
ATOM     32  N   UNL A   1      44.804  30.016  28.291  1.00  0.00    -0.354 N 
ATOM     33  N   UNL A   1      42.205  30.959  29.455  1.00  0.00    -0.248 NA
ATOM     34  C   UNL A   1      40.968  32.607  30.556  1.00  0.00     0.031 C 
ATOM     35  C   UNL A   1      46.536  31.395  28.409  1.00  0.00     0.029 A 
ATOM     36  C   UNL A   1      45.190  31.271  28.725  1.00  0.00     0.049 A 
ATOM     37  H   UNL A   1      43.902  29.637  28.394  1.00  0.00     0.167 HD
ATOM     38  C   UNL A   1      43.020  32.059  29.675  1.00  0.00     0.074 A 
ATOM     39  C   UNL A   1      42.196  33.056  30.335  1.00  0.00     0.031 C 
ATOM     40  C   UNL A   1      44.330  32.231  29.372  1.00  0.00     0.037 A 
BRANCH  27  41
ATOM     41  C   UNL A   1      47.001  27.473  26.428  1.00  0.00     0.064 A 
ATOM     42  C   UNL A   1      47.229  27.737  25.069  1.00  0.00     0.173 A 
ATOM     43  C   UNL A   1      47.949  26.696  27.112  1.00  0.00     0.173 A 
ATOM     44  F   UNL A   1      46.361  28.484  24.371  1.00  0.00    -0.203 F 
ATOM     45  C   UNL A   1      48.362  27.249  24.422  1.00  0.00     0.198 A 
ATOM     46  C   UNL A   1      49.094  26.233  26.469  1.00  0.00     0.198 A 
ATOM     47  F   UNL A   1      47.797  26.445  28.422  1.00  0.00    -0.203 F 
ATOM     48  F   UNL A   1      48.556  27.513  23.123  1.00  0.00    -0.200 F 
ATOM     49  C   UNL A   1      49.297  26.505  25.125  1.00  0.00     0.200 A 
ATOM     50  F   UNL A   1      50.018  25.549  27.159  1.00  0.00    -0.200 F 
ATOM     51  F   UNL A   1      50.405  26.067  24.510  1.00  0.00    -0.200 F 
ENDBRANCH  27  41
BRANCH  28  52
ATOM     52  C   UNL A   1      38.501  30.962  30.564  1.00  0.00     0.064 A 
ATOM     53  C   UNL A   1      38.238  30.929  31.943  1.00  0.00     0.173 A 
ATOM     54  C   UNL A   1      37.497  31.465  29.727  1.00  0.00     0.173 A 
ATOM     55  F   UNL A   1      39.165  30.462  32.792  1.00  0.00    -0.203 F 
ATOM     56  C   UNL A   1      37.009  31.339  32.457  1.00  0.00     0.198 A 
ATOM     57  C   UNL A   1      36.278  31.904  30.244  1.00  0.00     0.198 A 
ATOM     58  F   UNL A   1      37.704  31.543  28.404  1.00  0.00    -0.203 F 
ATOM     59  F   UNL A   1      36.771  31.248  33.772  1.00  0.00    -0.200 F 
ATOM     60  C   UNL A   1      36.030  31.829  31.607  1.00  0.00     0.200 A 
ATOM     61  F   UNL A   1      35.343  32.400  29.423  1.00  0.00    -0.200 F 
ATOM     62  F   UNL A   1      34.851  32.229  32.101  1.00  0.00    -0.200 F 
ENDBRANCH  28  52
BRANCH  40  63
ATOM     63  C   UNL A   1      44.948  33.545  29.734  1.00  0.00     0.064 A 
ATOM     64  C   UNL A   1      45.438  33.760  31.031  1.00  0.00     0.173 A 
ATOM     65  C   UNL A   1      44.966  34.616  28.831  1.00  0.00     0.173 A 
ATOM     66  F   UNL A   1      45.429  32.765  31.930  1.00  0.00    -0.203 F 
ATOM     67  C   UNL A   1      45.910  35.010  31.415  1.00  0.00     0.198 A 
ATOM     68  C   UNL A   1      45.463  35.858  29.211  1.00  0.00     0.198 A 
ATOM     69  F   UNL A   1      44.516  34.451  27.578  1.00  0.00    -0.203 F 
ATOM     70  F   UNL A   1      46.339  35.205  32.669  1.00  0.00    -0.200 F 
ATOM     71  C   UNL A   1      45.924  36.057  30.506  1.00  0.00     0.200 A 
ATOM     72  F   UNL A   1      45.496  36.864  28.327  1.00  0.00    -0.200 F 
ATOM     73  F   UNL A   1      46.383  37.260  30.876  1.00  0.00    -0.200 F 
ENDBRANCH  40  63
ENDBRANCH  14  15
ENDBRANCH   7   9
ENDBRANCH   6   7
ENDBRANCH   5   6
ENDBRANCH   4   5
ENDBRANCH   3   4
ENDBRANCH   2   3
ENDBRANCH   1   2
BRANCH   1  74
ATOM     74  O   UNL A   1      34.124  23.846  24.402  1.00  0.00    -0.377 OA
BRANCH  74  75
ATOM     75  C   UNL A   1      34.752  24.355  25.571  1.00  0.00     0.188 C 
BRANCH  75  76
ATOM     76  C   UNL A   1      35.325  23.356  26.596  1.00  0.00     0.188 C 
BRANCH  76  77
ATOM     77  O   UNL A   1      34.407  22.955  27.602  1.00  0.00    -0.376 OA
BRANCH  77  78
ATOM     78  C   UNL A   1      33.574  21.853  27.254  1.00  0.00     0.202 C 
BRANCH  78  79
ATOM     79  C   UNL A   1      32.139  22.217  26.848  1.00  0.00     0.261 C 
BRANCH  79  80
ATOM     80  O   UNL A   1      31.713  23.552  27.178  1.00  0.00    -0.460 OA
BRANCH  80  81
ATOM     81  C   UNL A   1      30.480  23.972  26.813  1.00  0.00     0.338 C 
ATOM     82  O   UNL A   1      29.413  23.633  27.292  1.00  0.00    -0.246 OA
BRANCH  81  83
ATOM     83  C   UNL A   1      30.694  25.116  25.888  1.00  0.00     0.063 A 
ATOM     84  C   UNL A   1      30.709  24.896  24.510  1.00  0.00     0.055 A 
ATOM     85  C   UNL A   1      31.127  26.348  26.418  1.00  0.00     0.024 A 
ATOM     86  C   UNL A   1      31.176  25.899  23.674  1.00  0.00     0.124 A 
ATOM     87  C   UNL A   1      31.673  27.331  25.572  1.00  0.00    -0.012 A 
ATOM     88  F   UNL A   1      31.224  25.685  22.353  1.00  0.00    -0.207 F 
ATOM     89  C   UNL A   1      31.667  27.096  24.187  1.00  0.00     0.048 A 
BRANCH  87  90
ATOM     90  C   UNL A   1      32.360  28.517  26.099  1.00  0.00     0.021 A 
ATOM     91  C   UNL A   1      31.663  29.735  26.240  1.00  0.00     0.012 A 
ATOM     92  C   UNL A   1      33.684  28.466  26.546  1.00  0.00     0.166 A 
ATOM     93  C   UNL A   1      32.271  30.859  26.813  1.00  0.00     0.004 A 
ATOM     94  C   UNL A   1      34.287  29.585  27.119  1.00  0.00     0.159 A 
ATOM     95  F   UNL A   1      34.380  27.323  26.448  1.00  0.00    -0.203 F 
ATOM     96  C   UNL A   1      33.588  30.780  27.257  1.00  0.00     0.042 A 
ATOM     97  F   UNL A   1      35.549  29.514  27.562  1.00  0.00    -0.204 F 
ENDBRANCH  87  90
ENDBRANCH  81  83
ENDBRANCH  80  81
ENDBRANCH  79  80
ENDBRANCH  78  79
ENDBRANCH  77  78
ENDBRANCH  76  77
ENDBRANCH  75  76
ENDBRANCH  74  75
ENDBRANCH   1  74
TORSDOF 21
ENDMDL
