MODEL 1
REMARK VINA RESULT:     -11.4      0.000      0.000
REMARK SMILES Cc1ccc(Cl)c(Nc2ccccc2C(=O)N[C@@H](C)C(=O)OCCOCCOCCOCCOC(=O)c2ccc(-c3c4nc(c(-c5c(F)c(F)c(F)c(F)c5F)c5ccc([nH]5)c(-c5c(F)c(F)c(F)c(F)c5F)c5nc(c(-c6c(F)c(F)c(F)c(F)c6F)c6ccc3[nH]6)C=C5)C=C4)cc2)c1Cl
REMARK SMILES IDX 27 1 26 2 25 3 24 4 23 5 22 6 20 7 21 8 18 9 19 10 17 11
REMARK SMILES IDX 15 12 16 13 14 15 9 16 10 17 11 18 13 19 12 20 8 21 7 23
REMARK SMILES IDX 1 24 2 25 3 26 100 27 4 28 101 29 5 30 6 31 28 32 29 33
REMARK SMILES IDX 30 34 31 35 32 36 33 37 34 38 35 39 36 40 37 41 38 42 99 43
REMARK SMILES IDX 39 44 98 45 40 46 41 47 42 48 92 49 43 50 97 51 91 52 93 53
REMARK SMILES IDX 44 54 96 55 90 56 89 57 45 59 77 60 57 61 76 62 58 63 61 64
REMARK SMILES IDX 75 65 94 66 59 67 60 68 74 70 95 71 62 72 46 73 47 74 55 75
REMARK SMILES IDX 48 76 49 77 53 78 56 79 50 80 51 81 54 82 52 83 78 84 79 85
REMARK SMILES IDX 87 86 80 87 81 88 85 89 88 90 82 91 83 92 86 93 84 94 63 95
REMARK SMILES IDX 64 96 72 97 65 98 66 99 70 100 73 101 67 102 68 103 71 104
REMARK SMILES IDX 69 105
REMARK H PARENT 17 14 8 22 93 58 61 69
REMARK Flexibility Score: inf
ROOT
ATOM      1  C   UNL A   1      42.774  17.920  26.344  1.00  0.00     0.188 C 
ENDROOT
BRANCH   1   2
ATOM      2  C   UNL A   1      42.624  18.854  27.614  1.00  0.00     0.188 C 
BRANCH   2   3
ATOM      3  O   UNL A   1      41.679  19.955  27.662  1.00  0.00    -0.376 OA
BRANCH   3   4
ATOM      4  C   UNL A   1      42.031  21.342  27.500  1.00  0.00     0.202 C 
BRANCH   4   5
ATOM      5  C   UNL A   1      40.864  22.502  27.665  1.00  0.00     0.261 C 
BRANCH   5   6
ATOM      6  O   UNL A   1      40.235  23.133  26.455  1.00  0.00    -0.462 OA
BRANCH   6   7
ATOM      7  C   UNL A   1      38.923  23.594  26.517  1.00  0.00     0.328 C 
ATOM      8  O   UNL A   1      38.658  24.703  26.984  1.00  0.00    -0.250 OA
BRANCH   7   9
ATOM      9  C   UNL A   1      37.793  22.728  25.705  1.00  0.00     0.189 C 
ATOM     10  C   UNL A   1      38.281  21.324  25.344  1.00  0.00     0.043 C 
BRANCH   9  11
ATOM     11  N   UNL A   1      37.025  23.241  24.554  1.00  0.00    -0.339 N 
ATOM     12  C   UNL A   1      35.687  23.298  24.173  1.00  0.00     0.254 C 
ATOM     13  O   UNL A   1      35.590  23.694  22.997  1.00  0.00    -0.269 OA
ATOM     14  H   UNL A   1      37.612  23.650  23.878  1.00  0.00     0.164 HD
BRANCH  12  15
ATOM     15  C   UNL A   1      34.348  23.044  24.916  1.00  0.00     0.063 A 
ATOM     16  C   UNL A   1      33.496  21.921  25.119  1.00  0.00     0.051 A 
ATOM     17  C   UNL A   1      32.299  22.063  25.901  1.00  0.00     0.027 A 
ATOM     18  C   UNL A   1      31.935  23.247  26.529  1.00  0.00     0.002 A 
ATOM     19  C   UNL A   1      33.887  24.250  25.547  1.00  0.00     0.016 A 
ATOM     20  C   UNL A   1      32.730  24.354  26.339  1.00  0.00     0.001 A 
BRANCH  16  21
ATOM     21  N   UNL A   1      33.739  20.569  24.768  1.00  0.00    -0.352 N 
ATOM     22  H   UNL A   1      34.637  20.203  24.942  1.00  0.00     0.167 HD
BRANCH  21  23
ATOM     23  C   UNL A   1      32.759  19.696  24.171  1.00  0.00     0.077 A 
ATOM     24  C   UNL A   1      34.467  16.904  24.003  1.00  0.00     0.046 C 
ATOM     25  C   UNL A   1      33.194  17.538  23.573  1.00  0.00    -0.030 A 
ATOM     26  C   UNL A   1      32.750  17.719  22.267  1.00  0.00     0.006 A 
ATOM     27  C   UNL A   1      32.710  18.376  24.541  1.00  0.00     0.069 A 
ATOM     28  C   UNL A   1      32.161  18.934  21.946  1.00  0.00     0.023 A 
ATOM     29  Cl  UNL A   1      32.544  17.792  26.160  1.00  0.00    -0.082 Cl
ATOM     30  C   UNL A   1      32.285  19.968  22.876  1.00  0.00     0.066 A 
ATOM     31  Cl  UNL A   1      31.997  21.588  22.378  1.00  0.00    -0.082 Cl
ENDBRANCH  21  23
ENDBRANCH  16  21
ENDBRANCH  12  15
ENDBRANCH   9  11
ENDBRANCH   7   9
ENDBRANCH   6   7
ENDBRANCH   5   6
ENDBRANCH   4   5
ENDBRANCH   3   4
ENDBRANCH   2   3
ENDBRANCH   1   2
BRANCH   1  32
ATOM     32  O   UNL A   1      43.026  18.540  25.083  1.00  0.00    -0.377 OA
BRANCH  32  33
ATOM     33  C   UNL A   1      44.356  18.966  24.867  1.00  0.00     0.188 C 
BRANCH  33  34
ATOM     34  C   UNL A   1      44.596  20.427  25.235  1.00  0.00     0.188 C 
BRANCH  34  35
ATOM     35  O   UNL A   1      44.128  21.396  24.320  1.00  0.00    -0.376 OA
BRANCH  35  36
ATOM     36  C   UNL A   1      44.988  22.362  23.728  1.00  0.00     0.202 C 
BRANCH  36  37
ATOM     37  C   UNL A   1      45.585  23.568  24.477  1.00  0.00     0.261 C 
BRANCH  37  38
ATOM     38  O   UNL A   1      44.705  24.383  25.270  1.00  0.00    -0.460 OA
BRANCH  38  39
ATOM     39  C   UNL A   1      44.905  25.718  25.294  1.00  0.00     0.338 C 
ATOM     40  O   UNL A   1      45.690  26.359  24.640  1.00  0.00    -0.246 OA
BRANCH  39  41
ATOM     41  C   UNL A   1      43.799  26.308  26.091  1.00  0.00     0.060 A 
ATOM     42  C   UNL A   1      43.694  27.706  26.138  1.00  0.00     0.016 A 
ATOM     43  C   UNL A   1      42.902  25.509  26.800  1.00  0.00     0.016 A 
ATOM     44  C   UNL A   1      42.729  28.314  26.926  1.00  0.00     0.010 A 
ATOM     45  C   UNL A   1      41.977  26.119  27.654  1.00  0.00     0.010 A 
ATOM     46  C   UNL A   1      41.938  27.521  27.760  1.00  0.00    -0.014 A 
BRANCH  46  47
ATOM     47  C   UNL A   1      41.387  28.179  28.965  1.00  0.00     0.031 A 
ATOM     48  C   UNL A   1      42.171  28.035  30.243  1.00  0.00     0.074 A 
ATOM     49  C   UNL A   1      40.319  28.989  28.900  1.00  0.00     0.049 A 
ATOM     50  N   UNL A   1      41.937  28.536  31.429  1.00  0.00    -0.248 NA
ATOM     51  C   UNL A   1      43.398  27.222  30.170  1.00  0.00     0.031 C 
ATOM     52  C   UNL A   1      39.548  29.278  27.693  1.00  0.00     0.029 A 
ATOM     53  N   UNL A   1      39.709  29.729  29.879  1.00  0.00    -0.354 N 
ATOM     54  C   UNL A   1      42.978  28.091  32.235  1.00  0.00     0.074 A 
ATOM     55  C   UNL A   1      43.829  27.258  31.418  1.00  0.00     0.031 C 
ATOM     56  C   UNL A   1      38.555  30.128  28.008  1.00  0.00     0.029 A 
ATOM     57  C   UNL A   1      38.605  30.413  29.442  1.00  0.00     0.049 A 
ATOM     58  H   UNL A   1      40.034  29.765  30.808  1.00  0.00     0.167 HD
ATOM     59  C   UNL A   1      43.206  28.359  33.540  1.00  0.00     0.037 A 
ATOM     60  C   UNL A   1      37.726  31.163  30.134  1.00  0.00     0.037 A 
ATOM     61  C   UNL A   1      42.350  29.187  34.346  1.00  0.00     0.049 A 
ATOM     62  C   UNL A   1      37.949  31.369  31.612  1.00  0.00     0.074 A 
ATOM     63  C   UNL A   1      42.473  29.512  35.683  1.00  0.00     0.029 A 
ATOM     64  N   UNL A   1      41.201  29.812  33.882  1.00  0.00    -0.354 N 
ATOM     65  N   UNL A   1      38.925  30.937  32.375  1.00  0.00    -0.248 NA
ATOM     66  C   UNL A   1      36.950  32.178  32.324  1.00  0.00     0.031 C 
ATOM     67  C   UNL A   1      41.364  30.283  36.045  1.00  0.00     0.029 A 
ATOM     68  C   UNL A   1      40.592  30.504  34.916  1.00  0.00     0.049 A 
ATOM     69  H   UNL A   1      40.869  29.771  32.957  1.00  0.00     0.167 HD
ATOM     70  C   UNL A   1      38.680  31.451  33.643  1.00  0.00     0.074 A 
ATOM     71  C   UNL A   1      37.468  32.239  33.541  1.00  0.00     0.031 C 
ATOM     72  C   UNL A   1      39.392  31.293  34.787  1.00  0.00     0.037 A 
BRANCH  59  73
ATOM     73  C   UNL A   1      44.397  27.708  34.184  1.00  0.00     0.064 A 
ATOM     74  C   UNL A   1      45.662  28.315  34.203  1.00  0.00     0.173 A 
ATOM     75  C   UNL A   1      44.265  26.454  34.800  1.00  0.00     0.173 A 
ATOM     76  F   UNL A   1      45.850  29.503  33.608  1.00  0.00    -0.203 F 
ATOM     77  C   UNL A   1      46.754  27.680  34.790  1.00  0.00     0.198 A 
ATOM     78  C   UNL A   1      45.351  25.838  35.416  1.00  0.00     0.198 A 
ATOM     79  F   UNL A   1      43.080  25.826  34.808  1.00  0.00    -0.203 F 
ATOM     80  F   UNL A   1      47.965  28.253  34.745  1.00  0.00    -0.200 F 
ATOM     81  C   UNL A   1      46.596  26.446  35.403  1.00  0.00     0.200 A 
ATOM     82  F   UNL A   1      45.192  24.651  36.019  1.00  0.00    -0.200 F 
ATOM     83  F   UNL A   1      47.646  25.840  35.974  1.00  0.00    -0.200 F 
ENDBRANCH  59  73
BRANCH  60  84
ATOM     84  C   UNL A   1      36.547  31.756  29.449  1.00  0.00     0.064 A 
ATOM     85  C   UNL A   1      35.475  30.962  29.018  1.00  0.00     0.173 A 
ATOM     86  C   UNL A   1      36.480  33.134  29.187  1.00  0.00     0.173 A 
ATOM     87  F   UNL A   1      35.500  29.637  29.222  1.00  0.00    -0.203 F 
ATOM     88  C   UNL A   1      34.398  31.517  28.330  1.00  0.00     0.198 A 
ATOM     89  C   UNL A   1      35.386  33.692  28.529  1.00  0.00     0.198 A 
ATOM     90  F   UNL A   1      37.479  33.941  29.575  1.00  0.00    -0.203 F 
ATOM     91  F   UNL A   1      33.415  30.725  27.879  1.00  0.00    -0.200 F 
ATOM     92  C   UNL A   1      34.351  32.882  28.092  1.00  0.00     0.200 A 
ATOM     93  F   UNL A   1      35.341  35.014  28.315  1.00  0.00    -0.200 F 
ATOM     94  F   UNL A   1      33.313  33.415  27.432  1.00  0.00    -0.200 F 
ENDBRANCH  60  84
BRANCH  72  95
ATOM     95  C   UNL A   1      38.916  32.035  36.005  1.00  0.00     0.064 A 
ATOM     96  C   UNL A   1      39.232  33.384  36.228  1.00  0.00     0.173 A 
ATOM     97  C   UNL A   1      38.105  31.387  36.952  1.00  0.00     0.173 A 
ATOM     98  F   UNL A   1      40.010  34.048  35.360  1.00  0.00    -0.203 F 
ATOM     99  C   UNL A   1      38.793  34.041  37.375  1.00  0.00     0.198 A 
ATOM    100  C   UNL A   1      37.634  32.060  38.075  1.00  0.00     0.198 A 
ATOM    101  F   UNL A   1      37.760  30.102  36.781  1.00  0.00    -0.203 F 
ATOM    102  F   UNL A   1      39.165  35.309  37.600  1.00  0.00    -0.200 F 
ATOM    103  C   UNL A   1      37.990  33.381  38.293  1.00  0.00     0.200 A 
ATOM    104  F   UNL A   1      36.841  31.425  38.950  1.00  0.00    -0.200 F 
ATOM    105  F   UNL A   1      37.567  34.017  39.394  1.00  0.00    -0.200 F 
ENDBRANCH  72  95
ENDBRANCH  46  47
ENDBRANCH  39  41
ENDBRANCH  38  39
ENDBRANCH  37  38
ENDBRANCH  36  37
ENDBRANCH  35  36
ENDBRANCH  34  35
ENDBRANCH  33  34
ENDBRANCH  32  33
ENDBRANCH   1  32
TORSDOF 24
ENDMDL
MODEL 2
REMARK VINA RESULT:     -11.3      1.180      2.930
REMARK SMILES Cc1ccc(Cl)c(Nc2ccccc2C(=O)N[C@@H](C)C(=O)OCCOCCOCCOCCOC(=O)c2ccc(-c3c4nc(c(-c5c(F)c(F)c(F)c(F)c5F)c5ccc([nH]5)c(-c5c(F)c(F)c(F)c(F)c5F)c5nc(c(-c6c(F)c(F)c(F)c(F)c6F)c6ccc3[nH]6)C=C5)C=C4)cc2)c1Cl
REMARK SMILES IDX 27 1 26 2 25 3 24 4 23 5 22 6 20 7 21 8 18 9 19 10 17 11
REMARK SMILES IDX 15 12 16 13 14 15 9 16 10 17 11 18 13 19 12 20 8 21 7 23
REMARK SMILES IDX 1 24 2 25 3 26 100 27 4 28 101 29 5 30 6 31 28 32 29 33
REMARK SMILES IDX 30 34 31 35 32 36 33 37 34 38 35 39 36 40 37 41 38 42 99 43
REMARK SMILES IDX 39 44 98 45 40 46 41 47 42 48 92 49 43 50 97 51 91 52 93 53
REMARK SMILES IDX 44 54 96 55 90 56 89 57 45 59 77 60 57 61 76 62 58 63 61 64
REMARK SMILES IDX 75 65 94 66 59 67 60 68 74 70 95 71 62 72 46 73 47 74 55 75
REMARK SMILES IDX 48 76 49 77 53 78 56 79 50 80 51 81 54 82 52 83 78 84 79 85
REMARK SMILES IDX 87 86 80 87 81 88 85 89 88 90 82 91 83 92 86 93 84 94 63 95
REMARK SMILES IDX 64 96 72 97 65 98 66 99 70 100 73 101 67 102 68 103 71 104
REMARK SMILES IDX 69 105
REMARK H PARENT 17 14 8 22 93 58 61 69
REMARK Flexibility Score: inf
ROOT
ATOM      1  C   UNL A   1      42.665  18.049  26.269  1.00  0.00     0.188 C 
ENDROOT
BRANCH   1   2
ATOM      2  C   UNL A   1      42.393  18.915  27.566  1.00  0.00     0.188 C 
BRANCH   2   3
ATOM      3  O   UNL A   1      41.505  20.063  27.562  1.00  0.00    -0.376 OA
BRANCH   3   4
ATOM      4  C   UNL A   1      41.891  21.397  27.942  1.00  0.00     0.202 C 
BRANCH   4   5
ATOM      5  C   UNL A   1      40.787  22.624  27.842  1.00  0.00     0.261 C 
BRANCH   5   6
ATOM      6  O   UNL A   1      40.191  23.011  26.517  1.00  0.00    -0.462 OA
BRANCH   6   7
ATOM      7  C   UNL A   1      38.887  23.495  26.459  1.00  0.00     0.328 C 
ATOM      8  O   UNL A   1      38.616  24.644  26.809  1.00  0.00    -0.250 OA
BRANCH   7   9
ATOM      9  C   UNL A   1      37.792  22.576  25.658  1.00  0.00     0.189 C 
ATOM     10  C   UNL A   1      38.328  21.182  25.329  1.00  0.00     0.043 C 
BRANCH   9  11
ATOM     11  N   UNL A   1      37.013  23.039  24.493  1.00  0.00    -0.339 N 
ATOM     12  C   UNL A   1      35.762  22.779  23.941  1.00  0.00     0.254 C 
ATOM     13  O   UNL A   1      35.658  23.327  22.829  1.00  0.00    -0.269 OA
ATOM     14  H   UNL A   1      37.509  23.708  23.968  1.00  0.00     0.164 HD
BRANCH  12  15
ATOM     15  C   UNL A   1      34.500  22.032  24.450  1.00  0.00     0.063 A 
ATOM     16  C   UNL A   1      33.181  22.409  24.830  1.00  0.00     0.051 A 
ATOM     17  C   UNL A   1      32.243  21.406  25.254  1.00  0.00     0.027 A 
ATOM     18  C   UNL A   1      32.537  20.048  25.273  1.00  0.00     0.002 A 
ATOM     19  C   UNL A   1      34.755  20.620  24.543  1.00  0.00     0.016 A 
ATOM     20  C   UNL A   1      33.809  19.654  24.926  1.00  0.00     0.001 A 
BRANCH  16  21
ATOM     21  N   UNL A   1      32.569  23.682  24.705  1.00  0.00    -0.352 N 
ATOM     22  H   UNL A   1      32.284  23.970  23.807  1.00  0.00     0.167 HD
BRANCH  21  23
ATOM     23  C   UNL A   1      32.339  24.584  25.806  1.00  0.00     0.077 A 
ATOM     24  C   UNL A   1      29.464  25.887  24.922  1.00  0.00     0.046 C 
ATOM     25  C   UNL A   1      30.567  26.017  25.909  1.00  0.00    -0.030 A 
ATOM     26  C   UNL A   1      31.370  27.133  26.123  1.00  0.00     0.006 A 
ATOM     27  C   UNL A   1      31.061  24.790  26.261  1.00  0.00     0.069 A 
ATOM     28  C   UNL A   1      32.729  26.926  26.311  1.00  0.00     0.023 A 
ATOM     29  Cl  UNL A   1      29.968  23.554  26.779  1.00  0.00    -0.082 Cl
ATOM     30  C   UNL A   1      33.226  25.652  26.024  1.00  0.00     0.066 A 
ATOM     31  Cl  UNL A   1      34.916  25.440  25.793  1.00  0.00    -0.082 Cl
ENDBRANCH  21  23
ENDBRANCH  16  21
ENDBRANCH  12  15
ENDBRANCH   9  11
ENDBRANCH   7   9
ENDBRANCH   6   7
ENDBRANCH   5   6
ENDBRANCH   4   5
ENDBRANCH   3   4
ENDBRANCH   2   3
ENDBRANCH   1   2
BRANCH   1  32
ATOM     32  O   UNL A   1      43.072  18.730  25.083  1.00  0.00    -0.377 OA
BRANCH  32  33
ATOM     33  C   UNL A   1      44.262  19.486  25.190  1.00  0.00     0.188 C 
BRANCH  33  34
ATOM     34  C   UNL A   1      44.029  20.994  25.180  1.00  0.00     0.188 C 
BRANCH  34  35
ATOM     35  O   UNL A   1      44.430  21.690  24.019  1.00  0.00    -0.376 OA
BRANCH  35  36
ATOM     36  C   UNL A   1      45.672  22.378  23.935  1.00  0.00     0.202 C 
BRANCH  36  37
ATOM     37  C   UNL A   1      45.996  23.681  24.691  1.00  0.00     0.261 C 
BRANCH  37  38
ATOM     38  O   UNL A   1      44.903  24.502  25.136  1.00  0.00    -0.460 OA
BRANCH  38  39
ATOM     39  C   UNL A   1      45.100  25.832  25.257  1.00  0.00     0.338 C 
ATOM     40  O   UNL A   1      45.901  26.517  24.670  1.00  0.00    -0.246 OA
BRANCH  39  41
ATOM     41  C   UNL A   1      43.973  26.366  26.063  1.00  0.00     0.060 A 
ATOM     42  C   UNL A   1      43.763  27.754  26.065  1.00  0.00     0.016 A 
ATOM     43  C   UNL A   1      43.156  25.528  26.822  1.00  0.00     0.016 A 
ATOM     44  C   UNL A   1      42.774  28.316  26.857  1.00  0.00     0.010 A 
ATOM     45  C   UNL A   1      42.209  26.098  27.681  1.00  0.00     0.010 A 
ATOM     46  C   UNL A   1      42.067  27.497  27.739  1.00  0.00    -0.014 A 
BRANCH  46  47
ATOM     47  C   UNL A   1      41.497  28.154  28.935  1.00  0.00     0.031 A 
ATOM     48  C   UNL A   1      42.265  28.017  30.224  1.00  0.00     0.074 A 
ATOM     49  C   UNL A   1      40.426  28.959  28.855  1.00  0.00     0.049 A 
ATOM     50  N   UNL A   1      42.014  28.519  31.405  1.00  0.00    -0.248 NA
ATOM     51  C   UNL A   1      43.496  27.209  30.169  1.00  0.00     0.031 C 
ATOM     52  C   UNL A   1      39.670  29.242  27.637  1.00  0.00     0.029 A 
ATOM     53  N   UNL A   1      39.801  29.698  29.824  1.00  0.00    -0.354 N 
ATOM     54  C   UNL A   1      43.046  28.081  32.226  1.00  0.00     0.074 A 
ATOM     55  C   UNL A   1      43.911  27.250  31.422  1.00  0.00     0.031 C 
ATOM     56  C   UNL A   1      38.669  30.088  27.937  1.00  0.00     0.029 A 
ATOM     57  C   UNL A   1      38.699  30.377  29.371  1.00  0.00     0.049 A 
ATOM     58  H   UNL A   1      40.113  29.738  30.758  1.00  0.00     0.167 HD
ATOM     59  C   UNL A   1      43.256  28.353  33.534  1.00  0.00     0.037 A 
ATOM     60  C   UNL A   1      37.807  31.124  30.050  1.00  0.00     0.037 A 
ATOM     61  C   UNL A   1      42.386  29.178  34.326  1.00  0.00     0.049 A 
ATOM     62  C   UNL A   1      38.011  31.334  31.531  1.00  0.00     0.074 A 
ATOM     63  C   UNL A   1      42.490  29.507  35.664  1.00  0.00     0.029 A 
ATOM     64  N   UNL A   1      41.240  29.797  33.846  1.00  0.00    -0.354 N 
ATOM     65  N   UNL A   1      38.979  30.908  32.307  1.00  0.00    -0.248 NA
ATOM     66  C   UNL A   1      36.998  32.140  32.228  1.00  0.00     0.031 C 
ATOM     67  C   UNL A   1      41.373  30.274  36.010  1.00  0.00     0.029 A 
ATOM     68  C   UNL A   1      40.614  30.488  34.870  1.00  0.00     0.049 A 
ATOM     69  H   UNL A   1      40.920  29.752  32.917  1.00  0.00     0.167 HD
ATOM     70  C   UNL A   1      38.715  31.424  33.571  1.00  0.00     0.074 A 
ATOM     71  C   UNL A   1      37.501  32.206  33.451  1.00  0.00     0.031 C 
ATOM     72  C   UNL A   1      39.413  31.271  34.725  1.00  0.00     0.037 A 
BRANCH  59  73
ATOM     73  C   UNL A   1      44.441  27.708  34.194  1.00  0.00     0.064 A 
ATOM     74  C   UNL A   1      45.709  28.310  34.207  1.00  0.00     0.173 A 
ATOM     75  C   UNL A   1      44.301  26.466  34.832  1.00  0.00     0.173 A 
ATOM     76  F   UNL A   1      45.905  29.486  33.591  1.00  0.00    -0.203 F 
ATOM     77  C   UNL A   1      46.796  27.681  34.810  1.00  0.00     0.198 A 
ATOM     78  C   UNL A   1      45.382  25.857  35.464  1.00  0.00     0.198 A 
ATOM     79  F   UNL A   1      43.113  25.843  34.847  1.00  0.00    -0.203 F 
ATOM     80  F   UNL A   1      48.009  28.248  34.760  1.00  0.00    -0.200 F 
ATOM     81  C   UNL A   1      46.630  26.459  35.445  1.00  0.00     0.200 A 
ATOM     82  F   UNL A   1      45.215  24.682  36.088  1.00  0.00    -0.200 F 
ATOM     83  F   UNL A   1      47.674  25.859  36.031  1.00  0.00    -0.200 F 
ENDBRANCH  59  73
BRANCH  60  84
ATOM     84  C   UNL A   1      36.635  31.711  29.349  1.00  0.00     0.064 A 
ATOM     85  C   UNL A   1      36.548  33.087  29.095  1.00  0.00     0.173 A 
ATOM     86  C   UNL A   1      35.559  30.906  28.941  1.00  0.00     0.173 A 
ATOM     87  F   UNL A   1      37.537  33.903  29.486  1.00  0.00    -0.203 F 
ATOM     88  C   UNL A   1      35.422  33.637  28.485  1.00  0.00     0.198 A 
ATOM     89  C   UNL A   1      34.450  31.453  28.300  1.00  0.00     0.198 A 
ATOM     90  F   UNL A   1      35.589  29.583  29.161  1.00  0.00    -0.203 F 
ATOM     91  F   UNL A   1      35.341  34.963  28.306  1.00  0.00    -0.200 F 
ATOM     92  C   UNL A   1      34.377  32.819  28.082  1.00  0.00     0.200 A 
ATOM     93  F   UNL A   1      33.450  30.655  27.901  1.00  0.00    -0.200 F 
ATOM     94  F   UNL A   1      33.296  33.349  27.493  1.00  0.00    -0.200 F 
ENDBRANCH  60  84
BRANCH  72  95
ATOM     95  C   UNL A   1      38.917  32.014  35.934  1.00  0.00     0.064 A 
ATOM     96  C   UNL A   1      38.129  31.398  36.918  1.00  0.00     0.173 A 
ATOM     97  C   UNL A   1      39.263  33.363  36.122  1.00  0.00     0.173 A 
ATOM     98  F   UNL A   1      37.763  30.115  36.783  1.00  0.00    -0.203 F 
ATOM     99  C   UNL A   1      37.667  32.116  38.018  1.00  0.00     0.198 A 
ATOM    100  C   UNL A   1      38.834  34.065  37.244  1.00  0.00     0.198 A 
ATOM    101  F   UNL A   1      40.026  33.998  35.220  1.00  0.00    -0.203 F 
ATOM    102  F   UNL A   1      36.859  31.525  38.909  1.00  0.00    -0.200 F 
ATOM    103  C   UNL A   1      38.026  33.446  38.184  1.00  0.00     0.200 A 
ATOM    104  F   UNL A   1      39.200  35.343  37.412  1.00  0.00    -0.200 F 
ATOM    105  F   UNL A   1      37.583  34.133  39.245  1.00  0.00    -0.200 F 
ENDBRANCH  72  95
ENDBRANCH  46  47
ENDBRANCH  39  41
ENDBRANCH  38  39
ENDBRANCH  37  38
ENDBRANCH  36  37
ENDBRANCH  35  36
ENDBRANCH  34  35
ENDBRANCH  33  34
ENDBRANCH  32  33
ENDBRANCH   1  32
TORSDOF 24
ENDMDL
MODEL 3
REMARK VINA RESULT:     -10.1      1.888      3.083
REMARK SMILES Cc1ccc(Cl)c(Nc2ccccc2C(=O)N[C@@H](C)C(=O)OCCOCCOCCOCCOC(=O)c2ccc(-c3c4nc(c(-c5c(F)c(F)c(F)c(F)c5F)c5ccc([nH]5)c(-c5c(F)c(F)c(F)c(F)c5F)c5nc(c(-c6c(F)c(F)c(F)c(F)c6F)c6ccc3[nH]6)C=C5)C=C4)cc2)c1Cl
REMARK SMILES IDX 27 1 26 2 25 3 24 4 23 5 22 6 20 7 21 8 18 9 19 10 17 11
REMARK SMILES IDX 15 12 16 13 14 15 9 16 10 17 11 18 13 19 12 20 8 21 7 23
REMARK SMILES IDX 1 24 2 25 3 26 100 27 4 28 101 29 5 30 6 31 28 32 29 33
REMARK SMILES IDX 30 34 31 35 32 36 33 37 34 38 35 39 36 40 37 41 38 42 99 43
REMARK SMILES IDX 39 44 98 45 40 46 41 47 42 48 92 49 43 50 97 51 91 52 93 53
REMARK SMILES IDX 44 54 96 55 90 56 89 57 45 59 77 60 57 61 76 62 58 63 61 64
REMARK SMILES IDX 75 65 94 66 59 67 60 68 74 70 95 71 62 72 46 73 47 74 55 75
REMARK SMILES IDX 48 76 49 77 53 78 56 79 50 80 51 81 54 82 52 83 78 84 79 85
REMARK SMILES IDX 87 86 80 87 81 88 85 89 88 90 82 91 83 92 86 93 84 94 63 95
REMARK SMILES IDX 64 96 72 97 65 98 66 99 70 100 73 101 67 102 68 103 71 104
REMARK SMILES IDX 69 105
REMARK H PARENT 17 14 8 22 93 58 61 69
REMARK Flexibility Score: inf
ROOT
ATOM      1  C   UNL A   1      42.609  18.273  26.148  1.00  0.00     0.188 C 
ENDROOT
BRANCH   1   2
ATOM      2  C   UNL A   1      42.469  19.126  27.473  1.00  0.00     0.188 C 
BRANCH   2   3
ATOM      3  O   UNL A   1      41.700  20.357  27.529  1.00  0.00    -0.376 OA
BRANCH   3   4
ATOM      4  C   UNL A   1      42.134  21.564  28.182  1.00  0.00     0.202 C 
BRANCH   4   5
ATOM      5  C   UNL A   1      41.159  22.899  28.155  1.00  0.00     0.261 C 
BRANCH   5   6
ATOM      6  O   UNL A   1      40.910  23.639  26.871  1.00  0.00    -0.462 OA
BRANCH   6   7
ATOM      7  C   UNL A   1      39.655  24.185  26.618  1.00  0.00     0.328 C 
ATOM      8  O   UNL A   1      39.472  25.403  26.641  1.00  0.00    -0.250 OA
BRANCH   7   9
ATOM      9  C   UNL A   1      38.512  23.171  26.026  1.00  0.00     0.189 C 
ATOM     10  C   UNL A   1      38.975  21.713  26.011  1.00  0.00     0.043 C 
BRANCH   9  11
ATOM     11  N   UNL A   1      37.755  23.410  24.781  1.00  0.00    -0.339 N 
ATOM     12  C   UNL A   1      36.418  23.431  24.396  1.00  0.00     0.254 C 
ATOM     13  O   UNL A   1      36.326  23.519  23.158  1.00  0.00    -0.269 OA
ATOM     14  H   UNL A   1      38.354  23.605  24.024  1.00  0.00     0.164 HD
BRANCH  12  15
ATOM     15  C   UNL A   1      35.076  23.438  25.178  1.00  0.00     0.063 A 
ATOM     16  C   UNL A   1      33.789  24.014  24.981  1.00  0.00     0.051 A 
ATOM     17  C   UNL A   1      32.749  23.790  25.947  1.00  0.00     0.027 A 
ATOM     18  C   UNL A   1      32.911  22.986  27.068  1.00  0.00     0.002 A 
ATOM     19  C   UNL A   1      35.193  22.663  26.383  1.00  0.00     0.016 A 
ATOM     20  C   UNL A   1      34.148  22.428  27.294  1.00  0.00     0.001 A 
BRANCH  16  21
ATOM     21  N   UNL A   1      33.306  24.693  23.834  1.00  0.00    -0.352 N 
ATOM     22  H   UNL A   1      33.649  24.413  22.954  1.00  0.00     0.167 HD
BRANCH  21  23
ATOM     23  C   UNL A   1      32.345  25.768  23.872  1.00  0.00     0.077 A 
ATOM     24  C   UNL A   1      33.339  27.365  26.556  1.00  0.00     0.046 C 
ATOM     25  C   UNL A   1      32.244  27.306  25.553  1.00  0.00    -0.030 A 
ATOM     26  C   UNL A   1      30.896  27.076  25.801  1.00  0.00     0.006 A 
ATOM     27  C   UNL A   1      32.732  27.010  24.309  1.00  0.00     0.069 A 
ATOM     28  C   UNL A   1      30.215  26.226  24.940  1.00  0.00     0.023 A 
ATOM     29  Cl  UNL A   1      34.047  27.934  23.672  1.00  0.00    -0.082 Cl
ATOM     30  C   UNL A   1      30.982  25.474  24.048  1.00  0.00     0.066 A 
ATOM     31  Cl  UNL A   1      30.284  24.100  23.287  1.00  0.00    -0.082 Cl
ENDBRANCH  21  23
ENDBRANCH  16  21
ENDBRANCH  12  15
ENDBRANCH   9  11
ENDBRANCH   7   9
ENDBRANCH   6   7
ENDBRANCH   5   6
ENDBRANCH   4   5
ENDBRANCH   3   4
ENDBRANCH   2   3
ENDBRANCH   1   2
BRANCH   1  32
ATOM     32  O   UNL A   1      43.145  18.915  24.991  1.00  0.00    -0.377 OA
BRANCH  32  33
ATOM     33  C   UNL A   1      44.202  19.823  25.231  1.00  0.00     0.188 C 
BRANCH  33  34
ATOM     34  C   UNL A   1      43.836  21.275  24.940  1.00  0.00     0.188 C 
BRANCH  34  35
ATOM     35  O   UNL A   1      44.561  21.918  23.914  1.00  0.00    -0.376 OA
BRANCH  35  36
ATOM     36  C   UNL A   1      45.831  22.518  24.139  1.00  0.00     0.202 C 
BRANCH  36  37
ATOM     37  C   UNL A   1      46.036  23.900  24.788  1.00  0.00     0.261 C 
BRANCH  37  38
ATOM     38  O   UNL A   1      45.048  24.917  24.556  1.00  0.00    -0.460 OA
BRANCH  38  39
ATOM     39  C   UNL A   1      45.249  26.146  25.076  1.00  0.00     0.338 C 
ATOM     40  O   UNL A   1      45.947  27.028  24.639  1.00  0.00    -0.246 OA
BRANCH  39  41
ATOM     41  C   UNL A   1      44.249  26.330  26.159  1.00  0.00     0.060 A 
ATOM     42  C   UNL A   1      43.178  27.205  25.926  1.00  0.00     0.016 A 
ATOM     43  C   UNL A   1      44.376  25.679  27.387  1.00  0.00     0.016 A 
ATOM     44  C   UNL A   1      42.257  27.473  26.927  1.00  0.00     0.010 A 
ATOM     45  C   UNL A   1      43.494  26.006  28.423  1.00  0.00     0.010 A 
ATOM     46  C   UNL A   1      42.474  26.951  28.204  1.00  0.00    -0.014 A 
BRANCH  46  47
ATOM     47  C   UNL A   1      41.874  27.698  29.331  1.00  0.00     0.031 A 
ATOM     48  C   UNL A   1      42.603  27.653  30.649  1.00  0.00     0.074 A 
ATOM     49  C   UNL A   1      40.811  28.499  29.160  1.00  0.00     0.049 A 
ATOM     50  N   UNL A   1      42.322  28.242  31.782  1.00  0.00    -0.248 NA
ATOM     51  C   UNL A   1      43.831  26.838  30.689  1.00  0.00     0.031 C 
ATOM     52  C   UNL A   1      40.091  28.693  27.904  1.00  0.00     0.029 A 
ATOM     53  N   UNL A   1      40.162  29.310  30.054  1.00  0.00    -0.354 N 
ATOM     54  C   UNL A   1      43.327  27.861  32.662  1.00  0.00     0.074 A 
ATOM     55  C   UNL A   1      44.210  26.970  31.947  1.00  0.00     0.031 C 
ATOM     56  C   UNL A   1      39.087  29.563  28.111  1.00  0.00     0.029 A 
ATOM     57  C   UNL A   1      39.078  29.957  29.520  1.00  0.00     0.049 A 
ATOM     58  H   UNL A   1      40.447  29.417  30.991  1.00  0.00     0.167 HD
ATOM     59  C   UNL A   1      43.501  28.228  33.952  1.00  0.00     0.037 A 
ATOM     60  C   UNL A   1      38.172  30.756  30.116  1.00  0.00     0.037 A 
ATOM     61  C   UNL A   1      42.613  29.113  34.656  1.00  0.00     0.049 A 
ATOM     62  C   UNL A   1      38.334  31.074  31.583  1.00  0.00     0.074 A 
ATOM     63  C   UNL A   1      42.681  29.539  35.968  1.00  0.00     0.029 A 
ATOM     64  N   UNL A   1      41.486  29.700  34.098  1.00  0.00    -0.354 N 
ATOM     65  N   UNL A   1      39.276  30.703  32.416  1.00  0.00    -0.248 NA
ATOM     66  C   UNL A   1      37.306  31.933  32.189  1.00  0.00     0.031 C 
ATOM     67  C   UNL A   1      41.559  30.334  36.224  1.00  0.00     0.029 A 
ATOM     68  C   UNL A   1      40.835  30.467  35.050  1.00  0.00     0.049 A 
ATOM     69  H   UNL A   1      41.192  29.588  33.166  1.00  0.00     0.167 HD
ATOM     70  C   UNL A   1      38.979  31.312  33.631  1.00  0.00     0.074 A 
ATOM     71  C   UNL A   1      37.774  32.087  33.418  1.00  0.00     0.031 C 
ATOM     72  C   UNL A   1      39.642  31.242  34.812  1.00  0.00     0.037 A 
BRANCH  59  73
ATOM     73  C   UNL A   1      44.663  27.630  34.692  1.00  0.00     0.064 A 
ATOM     74  C   UNL A   1      44.565  26.407  35.375  1.00  0.00     0.173 A 
ATOM     75  C   UNL A   1      45.900  28.292  34.713  1.00  0.00     0.173 A 
ATOM     76  F   UNL A   1      43.399  25.744  35.408  1.00  0.00    -0.203 F 
ATOM     77  C   UNL A   1      45.653  25.885  36.070  1.00  0.00     0.198 A 
ATOM     78  C   UNL A   1      46.995  27.749  35.380  1.00  0.00     0.198 A 
ATOM     79  F   UNL A   1      46.049  29.466  34.081  1.00  0.00    -0.203 F 
ATOM     80  F   UNL A   1      45.519  24.744  36.763  1.00  0.00    -0.200 F 
ATOM     81  C   UNL A   1      46.868  26.552  36.066  1.00  0.00     0.200 A 
ATOM     82  F   UNL A   1      48.172  28.390  35.363  1.00  0.00    -0.200 F 
ATOM     83  F   UNL A   1      47.916  26.044  36.729  1.00  0.00    -0.200 F 
ENDBRANCH  59  73
BRANCH  60  84
ATOM     84  C   UNL A   1      37.023  31.293  29.340  1.00  0.00     0.064 A 
ATOM     85  C   UNL A   1      36.968  32.640  28.954  1.00  0.00     0.173 A 
ATOM     86  C   UNL A   1      35.939  30.473  28.990  1.00  0.00     0.173 A 
ATOM     87  F   UNL A   1      37.966  33.472  29.284  1.00  0.00    -0.203 F 
ATOM     88  C   UNL A   1      35.864  33.150  28.273  1.00  0.00     0.198 A 
ATOM     89  C   UNL A   1      34.852  30.976  28.279  1.00  0.00     0.198 A 
ATOM     90  F   UNL A   1      35.938  29.177  29.336  1.00  0.00    -0.203 F 
ATOM     91  F   UNL A   1      35.813  34.453  27.966  1.00  0.00    -0.200 F 
ATOM     92  C   UNL A   1      34.810  32.316  27.930  1.00  0.00     0.200 A 
ATOM     93  F   UNL A   1      33.844  30.162  27.939  1.00  0.00    -0.200 F 
ATOM     94  F   UNL A   1      33.751  32.806  27.272  1.00  0.00    -0.200 F 
ENDBRANCH  60  84
BRANCH  72  95
ATOM     95  C   UNL A   1      39.117  32.074  35.948  1.00  0.00     0.064 A 
ATOM     96  C   UNL A   1      39.451  33.428  36.099  1.00  0.00     0.173 A 
ATOM     97  C   UNL A   1      38.241  31.507  36.889  1.00  0.00     0.173 A 
ATOM     98  F   UNL A   1      40.291  34.017  35.234  1.00  0.00    -0.203 F 
ATOM     99  C   UNL A   1      38.965  34.170  37.173  1.00  0.00     0.198 A 
ATOM    100  C   UNL A   1      37.724  32.263  37.937  1.00  0.00     0.198 A 
ATOM    101  F   UNL A   1      37.876  30.220  36.785  1.00  0.00    -0.203 F 
ATOM    102  F   UNL A   1      39.353  35.442  37.335  1.00  0.00    -0.200 F 
ATOM    103  C   UNL A   1      38.097  33.589  38.086  1.00  0.00     0.200 A 
ATOM    104  F   UNL A   1      36.870  31.704  38.805  1.00  0.00    -0.200 F 
ATOM    105  F   UNL A   1      37.629  34.306  39.117  1.00  0.00    -0.200 F 
ENDBRANCH  72  95
ENDBRANCH  46  47
ENDBRANCH  39  41
ENDBRANCH  38  39
ENDBRANCH  37  38
ENDBRANCH  36  37
ENDBRANCH  35  36
ENDBRANCH  34  35
ENDBRANCH  33  34
ENDBRANCH  32  33
ENDBRANCH   1  32
TORSDOF 24
ENDMDL
