MODEL 1
REMARK VINA RESULT:      -8.2      0.000      0.000
REMARK SMILES CCN(CC(C)(C)O)C(=O)N[C@@H](C(=O)OCCOCCOCCOCCOC(=O)c1ccc(-c2c3nc(c(-c4c(F)c(F)c(F)c(F)c4F)c4ccc([nH]4)c(-c4c(F)c(F)c(F)c(F)c4F)c4nc(c(-c5c(F)c(F)c(F)c(F)c5F)c5ccc2[nH]5)C=C4)C=C3)cc1)C(C)(C)C
REMARK SMILES IDX 19 1 18 2 17 3 16 4 15 5 13 6 14 7 12 8 11 9 9 10 10 11 3 13
REMARK SMILES IDX 2 14 1 15 4 16 5 17 6 18 7 19 8 20 93 22 94 23 95 24 96 25
REMARK SMILES IDX 20 26 21 27 22 28 23 29 24 30 25 31 26 32 27 33 28 34 29 35
REMARK SMILES IDX 30 36 31 37 92 38 32 39 91 40 33 41 34 42 35 43 85 44 36 45
REMARK SMILES IDX 90 46 84 47 86 48 37 49 89 50 83 51 82 52 38 54 70 55 50 56
REMARK SMILES IDX 69 57 51 58 54 59 68 60 87 61 52 62 53 63 67 65 88 66 55 67
REMARK SMILES IDX 39 68 40 69 48 70 41 71 42 72 46 73 49 74 43 75 44 76 47 77
REMARK SMILES IDX 45 78 71 79 72 80 80 81 73 82 74 83 78 84 81 85 75 86 76 87
REMARK SMILES IDX 79 88 77 89 56 90 57 91 65 92 58 93 59 94 63 95 66 96 60 97
REMARK SMILES IDX 61 98 64 99 62 100
REMARK H PARENT 11 12 8 21 86 53 54 64
REMARK Flexibility Score: inf
ROOT
ATOM      1  C   UNL A   1      34.132  32.022  27.940  1.00  0.00     0.188 C 
ENDROOT
BRANCH   1   2
ATOM      2  O   UNL A   1      32.954  31.367  27.497  1.00  0.00    -0.376 OA
BRANCH   2   3
ATOM      3  C   UNL A   1      33.069  30.199  26.696  1.00  0.00     0.202 C 
BRANCH   3   4
ATOM      4  C   UNL A   1      32.630  28.815  27.215  1.00  0.00     0.261 C 
BRANCH   4   5
ATOM      5  O   UNL A   1      33.060  27.664  26.455  1.00  0.00    -0.462 OA
BRANCH   5   6
ATOM      6  C   UNL A   1      32.152  26.684  26.227  1.00  0.00     0.329 C 
ATOM      7  O   UNL A   1      31.199  26.483  26.973  1.00  0.00    -0.250 OA
BRANCH   6   8
ATOM      8  C   UNL A   1      32.445  25.794  24.963  1.00  0.00     0.199 C 
BRANCH   8   9
ATOM      9  N   UNL A   1      31.784  26.126  23.674  1.00  0.00    -0.324 N 
ATOM     10  C   UNL A   1      31.506  27.186  22.898  1.00  0.00     0.318 C 
ATOM     11  O   UNL A   1      31.105  26.883  21.767  1.00  0.00    -0.249 OA
ATOM     12  H   UNL A   1      31.440  25.304  23.254  1.00  0.00     0.166 HD
BRANCH  10  13
ATOM     13  N   UNL A   1      31.624  28.490  23.282  1.00  0.00    -0.322 N 
BRANCH  13  14
ATOM     14  C   UNL A   1      32.896  29.163  22.971  1.00  0.00     0.118 C 
ATOM     15  C   UNL A   1      33.935  28.216  22.384  1.00  0.00     0.027 C 
ENDBRANCH  13  14
BRANCH  13  16
ATOM     16  C   UNL A   1      30.579  29.377  23.793  1.00  0.00     0.155 C 
BRANCH  16  17
ATOM     17  C   UNL A   1      29.518  29.822  22.743  1.00  0.00     0.077 C 
ATOM     18  C   UNL A   1      28.287  28.914  22.627  1.00  0.00     0.043 C 
ATOM     19  C   UNL A   1      29.123  31.282  23.001  1.00  0.00     0.043 C 
BRANCH  17  20
ATOM     20  O   UNL A   1      30.149  29.790  21.448  1.00  0.00    -0.389 OA
ATOM     21  H   UNL A   1      29.629  29.231  20.849  1.00  0.00     0.211 HD
ENDBRANCH  17  20
ENDBRANCH  16  17
ENDBRANCH  13  16
ENDBRANCH  10  13
ENDBRANCH   8   9
BRANCH   8  22
ATOM     22  C   UNL A   1      32.343  24.241  25.238  1.00  0.00    -0.007 C 
ATOM     23  C   UNL A   1      33.394  23.857  26.304  1.00  0.00     0.013 C 
ATOM     24  C   UNL A   1      30.953  23.875  25.798  1.00  0.00     0.013 C 
ATOM     25  C   UNL A   1      32.604  23.350  24.009  1.00  0.00     0.013 C 
ENDBRANCH   8  22
ENDBRANCH   6   8
ENDBRANCH   5   6
ENDBRANCH   4   5
ENDBRANCH   3   4
ENDBRANCH   2   3
ENDBRANCH   1   2
BRANCH   1  26
ATOM     26  C   UNL A   1      34.212  33.562  27.916  1.00  0.00     0.188 C 
BRANCH  26  27
ATOM     27  O   UNL A   1      34.350  34.172  29.185  1.00  0.00    -0.377 OA
BRANCH  27  28
ATOM     28  C   UNL A   1      33.454  35.239  29.463  1.00  0.00     0.188 C 
BRANCH  28  29
ATOM     29  C   UNL A   1      33.115  35.508  30.943  1.00  0.00     0.188 C 
BRANCH  29  30
ATOM     30  O   UNL A   1      34.190  35.255  31.835  1.00  0.00    -0.376 OA
BRANCH  30  31
ATOM     31  C   UNL A   1      34.142  34.151  32.724  1.00  0.00     0.202 C 
BRANCH  31  32
ATOM     32  C   UNL A   1      34.882  32.852  32.364  1.00  0.00     0.261 C 
BRANCH  32  33
ATOM     33  O   UNL A   1      36.159  32.985  31.727  1.00  0.00    -0.460 OA
BRANCH  33  34
ATOM     34  C   UNL A   1      36.745  31.885  31.215  1.00  0.00     0.338 C 
ATOM     35  O   UNL A   1      36.597  31.416  30.099  1.00  0.00    -0.246 OA
BRANCH  34  36
ATOM     36  C   UNL A   1      37.775  31.458  32.184  1.00  0.00     0.060 A 
ATOM     37  C   UNL A   1      37.421  30.588  33.226  1.00  0.00     0.016 A 
ATOM     38  C   UNL A   1      39.096  31.887  32.039  1.00  0.00     0.016 A 
ATOM     39  C   UNL A   1      38.385  30.161  34.139  1.00  0.00     0.010 A 
ATOM     40  C   UNL A   1      40.052  31.489  32.973  1.00  0.00     0.010 A 
ATOM     41  C   UNL A   1      39.693  30.648  34.043  1.00  0.00    -0.014 A 
BRANCH  41  42
ATOM     42  C   UNL A   1      40.633  30.470  35.171  1.00  0.00     0.031 A 
ATOM     43  C   UNL A   1      40.654  31.528  36.237  1.00  0.00     0.074 A 
ATOM     44  C   UNL A   1      41.451  29.407  35.244  1.00  0.00     0.049 A 
ATOM     45  N   UNL A   1      41.466  31.674  37.252  1.00  0.00    -0.248 NA
ATOM     46  C   UNL A   1      39.619  32.570  36.138  1.00  0.00     0.031 C 
ATOM     47  C   UNL A   1      41.475  28.291  34.304  1.00  0.00     0.029 A 
ATOM     48  N   UNL A   1      42.439  29.110  36.150  1.00  0.00    -0.354 N 
ATOM     49  C   UNL A   1      41.049  32.829  37.899  1.00  0.00     0.074 A 
ATOM     50  C   UNL A   1      39.930  33.359  37.154  1.00  0.00     0.031 C 
ATOM     51  C   UNL A   1      42.452  27.440  34.666  1.00  0.00     0.029 A 
ATOM     52  C   UNL A   1      43.147  27.977  35.835  1.00  0.00     0.049 A 
ATOM     53  H   UNL A   1      42.622  29.657  36.949  1.00  0.00     0.167 HD
ATOM     54  C   UNL A   1      41.558  33.393  39.019  1.00  0.00     0.037 A 
ATOM     55  C   UNL A   1      44.255  27.463  36.406  1.00  0.00     0.037 A 
ATOM     56  C   UNL A   1      42.677  32.861  39.748  1.00  0.00     0.049 A 
ATOM     57  C   UNL A   1      44.867  28.168  37.592  1.00  0.00     0.074 A 
ATOM     58  C   UNL A   1      43.260  33.345  40.905  1.00  0.00     0.029 A 
ATOM     59  N   UNL A   1      43.391  31.731  39.379  1.00  0.00    -0.354 N 
ATOM     60  N   UNL A   1      44.459  29.246  38.218  1.00  0.00    -0.248 NA
ATOM     61  C   UNL A   1      46.098  27.587  38.147  1.00  0.00     0.031 C 
ATOM     62  C   UNL A   1      44.369  32.545  41.199  1.00  0.00     0.029 A 
ATOM     63  C   UNL A   1      44.436  31.523  40.265  1.00  0.00     0.049 A 
ATOM     64  H   UNL A   1      43.187  31.161  38.603  1.00  0.00     0.167 HD
ATOM     65  C   UNL A   1      45.362  29.454  39.254  1.00  0.00     0.074 A 
ATOM     66  C   UNL A   1      46.333  28.383  39.181  1.00  0.00     0.031 C 
ATOM     67  C   UNL A   1      45.387  30.443  40.181  1.00  0.00     0.037 A 
BRANCH  54  68
ATOM     68  C   UNL A   1      40.935  34.673  39.496  1.00  0.00     0.064 A 
ATOM     69  C   UNL A   1      41.457  35.927  39.148  1.00  0.00     0.173 A 
ATOM     70  C   UNL A   1      39.782  34.642  40.295  1.00  0.00     0.173 A 
ATOM     71  F   UNL A   1      42.569  36.013  38.401  1.00  0.00    -0.203 F 
ATOM     72  C   UNL A   1      40.864  37.102  39.602  1.00  0.00     0.198 A 
ATOM     73  C   UNL A   1      39.171  35.817  40.720  1.00  0.00     0.198 A 
ATOM     74  F   UNL A   1      39.242  33.469  40.658  1.00  0.00    -0.203 F 
ATOM     75  F   UNL A   1      41.409  38.288  39.300  1.00  0.00    -0.200 F 
ATOM     76  C   UNL A   1      39.716  37.046  40.380  1.00  0.00     0.200 A 
ATOM     77  F   UNL A   1      38.055  35.762  41.460  1.00  0.00    -0.200 F 
ATOM     78  F   UNL A   1      39.141  38.178  40.809  1.00  0.00    -0.200 F 
ENDBRANCH  54  68
BRANCH  55  79
ATOM     79  C   UNL A   1      44.882  26.235  35.846  1.00  0.00     0.064 A 
ATOM     80  C   UNL A   1      45.855  26.314  34.840  1.00  0.00     0.173 A 
ATOM     81  C   UNL A   1      44.504  24.957  36.286  1.00  0.00     0.173 A 
ATOM     82  F   UNL A   1      46.232  27.510  34.367  1.00  0.00    -0.203 F 
ATOM     83  C   UNL A   1      46.411  25.164  34.282  1.00  0.00     0.198 A 
ATOM     84  C   UNL A   1      45.084  23.809  35.751  1.00  0.00     0.198 A 
ATOM     85  F   UNL A   1      43.574  24.823  37.243  1.00  0.00    -0.203 F 
ATOM     86  F   UNL A   1      47.300  25.269  33.285  1.00  0.00    -0.200 F 
ATOM     87  C   UNL A   1      46.029  23.913  34.742  1.00  0.00     0.200 A 
ATOM     88  F   UNL A   1      44.723  22.603  36.208  1.00  0.00    -0.200 F 
ATOM     89  F   UNL A   1      46.567  22.808  34.208  1.00  0.00    -0.200 F 
ENDBRANCH  55  79
BRANCH  67  90
ATOM     90  C   UNL A   1      46.474  30.402  41.217  1.00  0.00     0.064 A 
ATOM     91  C   UNL A   1      47.673  31.112  41.058  1.00  0.00     0.173 A 
ATOM     92  C   UNL A   1      46.282  29.700  42.418  1.00  0.00     0.173 A 
ATOM     93  F   UNL A   1      47.912  31.789  39.925  1.00  0.00    -0.203 F 
ATOM     94  C   UNL A   1      48.645  31.107  42.055  1.00  0.00     0.198 A 
ATOM     95  C   UNL A   1      47.240  29.724  43.427  1.00  0.00     0.198 A 
ATOM     96  F   UNL A   1      45.149  29.010  42.625  1.00  0.00    -0.203 F 
ATOM     97  F   UNL A   1      49.800  31.760  41.865  1.00  0.00    -0.200 F 
ATOM     98  C   UNL A   1      48.423  30.423  43.242  1.00  0.00     0.200 A 
ATOM     99  F   UNL A   1      47.016  29.080  44.579  1.00  0.00    -0.200 F 
ATOM    100  F   UNL A   1      49.353  30.435  44.207  1.00  0.00    -0.200 F 
ENDBRANCH  67  90
ENDBRANCH  41  42
ENDBRANCH  34  36
ENDBRANCH  33  34
ENDBRANCH  32  33
ENDBRANCH  31  32
ENDBRANCH  30  31
ENDBRANCH  29  30
ENDBRANCH  28  29
ENDBRANCH  27  28
ENDBRANCH  26  27
ENDBRANCH   1  26
TORSDOF 27
ENDMDL
MODEL 2
REMARK VINA RESULT:      -8.2      2.008      7.597
REMARK SMILES CCN(CC(C)(C)O)C(=O)N[C@@H](C(=O)OCCOCCOCCOCCOC(=O)c1ccc(-c2c3nc(c(-c4c(F)c(F)c(F)c(F)c4F)c4ccc([nH]4)c(-c4c(F)c(F)c(F)c(F)c4F)c4nc(c(-c5c(F)c(F)c(F)c(F)c5F)c5ccc2[nH]5)C=C4)C=C3)cc1)C(C)(C)C
REMARK SMILES IDX 19 1 18 2 17 3 16 4 15 5 13 6 14 7 12 8 11 9 9 10 10 11 3 13
REMARK SMILES IDX 2 14 1 15 4 16 5 17 6 18 7 19 8 20 93 22 94 23 95 24 96 25
REMARK SMILES IDX 20 26 21 27 22 28 23 29 24 30 25 31 26 32 27 33 28 34 29 35
REMARK SMILES IDX 30 36 31 37 92 38 32 39 91 40 33 41 34 42 35 43 85 44 36 45
REMARK SMILES IDX 90 46 84 47 86 48 37 49 89 50 83 51 82 52 38 54 70 55 50 56
REMARK SMILES IDX 69 57 51 58 54 59 68 60 87 61 52 62 53 63 67 65 88 66 55 67
REMARK SMILES IDX 39 68 40 69 48 70 41 71 42 72 46 73 49 74 43 75 44 76 47 77
REMARK SMILES IDX 45 78 71 79 72 80 80 81 73 82 74 83 78 84 81 85 75 86 76 87
REMARK SMILES IDX 79 88 77 89 56 90 57 91 65 92 58 93 59 94 63 95 66 96 60 97
REMARK SMILES IDX 61 98 64 99 62 100
REMARK H PARENT 11 12 8 21 86 53 54 64
REMARK Flexibility Score: inf
ROOT
ATOM      1  C   UNL A   1      34.446  32.088  28.119  1.00  0.00     0.188 C 
ENDROOT
BRANCH   1   2
ATOM      2  O   UNL A   1      33.465  31.235  27.551  1.00  0.00    -0.376 OA
BRANCH   2   3
ATOM      3  C   UNL A   1      33.854  29.959  27.062  1.00  0.00     0.202 C 
BRANCH   3   4
ATOM      4  C   UNL A   1      33.069  28.681  27.422  1.00  0.00     0.261 C 
BRANCH   4   5
ATOM      5  O   UNL A   1      33.099  27.602  26.461  1.00  0.00    -0.462 OA
BRANCH   5   6
ATOM      6  C   UNL A   1      31.914  27.146  25.989  1.00  0.00     0.329 C 
ATOM      7  O   UNL A   1      30.954  26.927  26.721  1.00  0.00    -0.250 OA
BRANCH   6   8
ATOM      8  C   UNL A   1      31.883  26.871  24.440  1.00  0.00     0.199 C 
BRANCH   8   9
ATOM      9  N   UNL A   1      32.957  26.045  23.828  1.00  0.00    -0.324 N 
ATOM     10  C   UNL A   1      33.380  24.772  23.780  1.00  0.00     0.318 C 
ATOM     11  O   UNL A   1      34.239  24.566  22.912  1.00  0.00    -0.249 OA
ATOM     12  H   UNL A   1      33.547  26.615  23.283  1.00  0.00     0.166 HD
BRANCH  10  13
ATOM     13  N   UNL A   1      32.946  23.770  24.598  1.00  0.00    -0.322 N 
BRANCH  13  14
ATOM     14  C   UNL A   1      33.357  23.840  26.011  1.00  0.00     0.118 C 
ATOM     15  C   UNL A   1      32.234  23.469  26.971  1.00  0.00     0.027 C 
ENDBRANCH  13  14
BRANCH  13  16
ATOM     16  C   UNL A   1      31.960  22.730  24.305  1.00  0.00     0.155 C 
BRANCH  16  17
ATOM     17  C   UNL A   1      32.553  21.383  23.795  1.00  0.00     0.077 C 
ATOM     18  C   UNL A   1      32.326  20.176  24.714  1.00  0.00     0.043 C 
ATOM     19  C   UNL A   1      32.056  21.110  22.370  1.00  0.00     0.043 C 
BRANCH  17  20
ATOM     20  O   UNL A   1      33.982  21.543  23.709  1.00  0.00    -0.389 OA
ATOM     21  H   UNL A   1      34.215  22.471  23.867  1.00  0.00     0.211 HD
ENDBRANCH  17  20
ENDBRANCH  16  17
ENDBRANCH  13  16
ENDBRANCH  10  13
ENDBRANCH   8   9
BRANCH   8  22
ATOM     22  C   UNL A   1      31.634  28.166  23.567  1.00  0.00    -0.007 C 
ATOM     23  C   UNL A   1      30.636  27.816  22.439  1.00  0.00     0.013 C 
ATOM     24  C   UNL A   1      31.005  29.286  24.419  1.00  0.00     0.013 C 
ATOM     25  C   UNL A   1      32.893  28.740  22.890  1.00  0.00     0.013 C 
ENDBRANCH   8  22
ENDBRANCH   6   8
ENDBRANCH   5   6
ENDBRANCH   4   5
ENDBRANCH   3   4
ENDBRANCH   2   3
ENDBRANCH   1   2
BRANCH   1  26
ATOM     26  C   UNL A   1      34.283  33.619  28.025  1.00  0.00     0.188 C 
BRANCH  26  27
ATOM     27  O   UNL A   1      33.831  34.244  29.212  1.00  0.00    -0.377 OA
BRANCH  27  28
ATOM     28  C   UNL A   1      33.207  35.510  29.048  1.00  0.00     0.188 C 
BRANCH  28  29
ATOM     29  C   UNL A   1      32.711  36.221  30.324  1.00  0.00     0.188 C 
BRANCH  29  30
ATOM     30  O   UNL A   1      33.625  36.164  31.408  1.00  0.00    -0.376 OA
BRANCH  30  31
ATOM     31  C   UNL A   1      33.324  35.396  32.562  1.00  0.00     0.202 C 
BRANCH  31  32
ATOM     32  C   UNL A   1      34.038  34.053  32.789  1.00  0.00     0.261 C 
BRANCH  32  33
ATOM     33  O   UNL A   1      35.173  33.770  31.961  1.00  0.00    -0.460 OA
BRANCH  33  34
ATOM     34  C   UNL A   1      35.734  32.547  32.028  1.00  0.00     0.338 C 
ATOM     35  O   UNL A   1      35.421  31.551  31.396  1.00  0.00    -0.246 OA
BRANCH  34  36
ATOM     36  C   UNL A   1      36.949  32.677  32.858  1.00  0.00     0.060 A 
ATOM     37  C   UNL A   1      38.168  33.002  32.246  1.00  0.00     0.016 A 
ATOM     38  C   UNL A   1      36.874  32.515  34.243  1.00  0.00     0.016 A 
ATOM     39  C   UNL A   1      39.321  33.147  33.017  1.00  0.00     0.010 A 
ATOM     40  C   UNL A   1      38.034  32.623  35.009  1.00  0.00     0.010 A 
ATOM     41  C   UNL A   1      39.266  32.911  34.395  1.00  0.00    -0.014 A 
BRANCH  41  42
ATOM     42  C   UNL A   1      40.518  32.739  35.166  1.00  0.00     0.031 A 
ATOM     43  C   UNL A   1      41.108  31.361  35.243  1.00  0.00     0.074 A 
ATOM     44  C   UNL A   1      41.107  33.773  35.789  1.00  0.00     0.049 A 
ATOM     45  N   UNL A   1      42.115  30.923  35.953  1.00  0.00    -0.248 NA
ATOM     46  C   UNL A   1      40.467  30.332  34.407  1.00  0.00     0.031 C 
ATOM     47  C   UNL A   1      40.661  35.161  35.733  1.00  0.00     0.029 A 
ATOM     48  N   UNL A   1      42.206  33.802  36.612  1.00  0.00    -0.354 N 
ATOM     49  C   UNL A   1      42.216  29.569  35.662  1.00  0.00     0.074 A 
ATOM     50  C   UNL A   1      41.158  29.250  34.730  1.00  0.00     0.031 C 
ATOM     51  C   UNL A   1      41.463  35.907  36.514  1.00  0.00     0.029 A 
ATOM     52  C   UNL A   1      42.449  35.038  37.156  1.00  0.00     0.049 A 
ATOM     53  H   UNL A   1      42.766  33.012  36.794  1.00  0.00     0.167 HD
ATOM     54  C   UNL A   1      43.116  28.674  36.131  1.00  0.00     0.037 A 
ATOM     55  C   UNL A   1      43.339  35.409  38.098  1.00  0.00     0.037 A 
ATOM     56  C   UNL A   1      44.161  29.002  37.064  1.00  0.00     0.049 A 
ATOM     57  C   UNL A   1      44.265  34.371  38.684  1.00  0.00     0.074 A 
ATOM     58  C   UNL A   1      45.137  28.175  37.589  1.00  0.00     0.029 A 
ATOM     59  N   UNL A   1      44.353  30.257  37.621  1.00  0.00    -0.354 N 
ATOM     60  N   UNL A   1      44.377  33.097  38.391  1.00  0.00    -0.248 NA
ATOM     61  C   UNL A   1      45.186  34.822  39.737  1.00  0.00     0.031 C 
ATOM     62  C   UNL A   1      45.879  28.914  38.516  1.00  0.00     0.029 A 
ATOM     63  C   UNL A   1      45.410  30.218  38.516  1.00  0.00     0.049 A 
ATOM     64  H   UNL A   1      43.819  31.057  37.412  1.00  0.00     0.167 HD
ATOM     65  C   UNL A   1      45.394  32.604  39.199  1.00  0.00     0.074 A 
ATOM     66  C   UNL A   1      45.879  33.719  39.985  1.00  0.00     0.031 C 
ATOM     67  C   UNL A   1      45.884  31.343  39.283  1.00  0.00     0.037 A 
BRANCH  54  68
ATOM     68  C   UNL A   1      42.983  27.251  35.676  1.00  0.00     0.064 A 
ATOM     69  C   UNL A   1      43.784  26.721  34.655  1.00  0.00     0.173 A 
ATOM     70  C   UNL A   1      42.054  26.397  36.290  1.00  0.00     0.173 A 
ATOM     71  F   UNL A   1      44.675  27.499  34.021  1.00  0.00    -0.203 F 
ATOM     72  C   UNL A   1      43.644  25.396  34.248  1.00  0.00     0.198 A 
ATOM     73  C   UNL A   1      41.940  25.064  35.906  1.00  0.00     0.198 A 
ATOM     74  F   UNL A   1      41.262  26.853  37.273  1.00  0.00    -0.203 F 
ATOM     75  F   UNL A   1      44.385  24.925  33.235  1.00  0.00    -0.200 F 
ATOM     76  C   UNL A   1      42.729  24.567  34.880  1.00  0.00     0.200 A 
ATOM     77  F   UNL A   1      41.065  24.262  36.526  1.00  0.00    -0.200 F 
ATOM     78  F   UNL A   1      42.601  23.290  34.493  1.00  0.00    -0.200 F 
ENDBRANCH  54  68
BRANCH  55  79
ATOM     79  C   UNL A   1      43.379  36.818  38.575  1.00  0.00     0.064 A 
ATOM     80  C   UNL A   1      42.611  37.232  39.672  1.00  0.00     0.173 A 
ATOM     81  C   UNL A   1      44.166  37.784  37.930  1.00  0.00     0.173 A 
ATOM     82  F   UNL A   1      41.822  36.354  40.306  1.00  0.00    -0.203 F 
ATOM     83  C   UNL A   1      42.611  38.562  40.091  1.00  0.00     0.198 A 
ATOM     84  C   UNL A   1      44.191  39.106  38.370  1.00  0.00     0.198 A 
ATOM     85  F   UNL A   1      44.917  37.444  36.872  1.00  0.00    -0.203 F 
ATOM     86  F   UNL A   1      41.827  38.940  41.110  1.00  0.00    -0.200 F 
ATOM     87  C   UNL A   1      43.406  39.496  39.444  1.00  0.00     0.200 A 
ATOM     88  F   UNL A   1      44.972  40.002  37.752  1.00  0.00    -0.200 F 
ATOM     89  F   UNL A   1      43.410  40.772  39.851  1.00  0.00    -0.200 F 
ENDBRANCH  55  79
BRANCH  67  90
ATOM     90  C   UNL A   1      47.024  31.098  40.231  1.00  0.00     0.064 A 
ATOM     91  C   UNL A   1      46.809  30.674  41.550  1.00  0.00     0.173 A 
ATOM     92  C   UNL A   1      48.351  31.219  39.789  1.00  0.00     0.173 A 
ATOM     93  F   UNL A   1      45.560  30.555  42.026  1.00  0.00    -0.203 F 
ATOM     94  C   UNL A   1      47.880  30.398  42.397  1.00  0.00     0.198 A 
ATOM     95  C   UNL A   1      49.419  30.910  40.626  1.00  0.00     0.198 A 
ATOM     96  F   UNL A   1      48.613  31.613  38.533  1.00  0.00    -0.203 F 
ATOM     97  F   UNL A   1      47.651  30.033  43.665  1.00  0.00    -0.200 F 
ATOM     98  C   UNL A   1      49.183  30.504  41.930  1.00  0.00     0.200 A 
ATOM     99  F   UNL A   1      50.675  30.995  40.168  1.00  0.00    -0.200 F 
ATOM    100  F   UNL A   1      50.211  30.220  42.741  1.00  0.00    -0.200 F 
ENDBRANCH  67  90
ENDBRANCH  41  42
ENDBRANCH  34  36
ENDBRANCH  33  34
ENDBRANCH  32  33
ENDBRANCH  31  32
ENDBRANCH  30  31
ENDBRANCH  29  30
ENDBRANCH  28  29
ENDBRANCH  27  28
ENDBRANCH  26  27
ENDBRANCH   1  26
TORSDOF 27
ENDMDL
MODEL 3
REMARK VINA RESULT:      -8.0      3.890      9.546
REMARK SMILES CCN(CC(C)(C)O)C(=O)N[C@@H](C(=O)OCCOCCOCCOCCOC(=O)c1ccc(-c2c3nc(c(-c4c(F)c(F)c(F)c(F)c4F)c4ccc([nH]4)c(-c4c(F)c(F)c(F)c(F)c4F)c4nc(c(-c5c(F)c(F)c(F)c(F)c5F)c5ccc2[nH]5)C=C4)C=C3)cc1)C(C)(C)C
REMARK SMILES IDX 19 1 18 2 17 3 16 4 15 5 13 6 14 7 12 8 11 9 9 10 10 11 3 13
REMARK SMILES IDX 2 14 1 15 4 16 5 17 6 18 7 19 8 20 93 22 94 23 95 24 96 25
REMARK SMILES IDX 20 26 21 27 22 28 23 29 24 30 25 31 26 32 27 33 28 34 29 35
REMARK SMILES IDX 30 36 31 37 92 38 32 39 91 40 33 41 34 42 35 43 85 44 36 45
REMARK SMILES IDX 90 46 84 47 86 48 37 49 89 50 83 51 82 52 38 54 70 55 50 56
REMARK SMILES IDX 69 57 51 58 54 59 68 60 87 61 52 62 53 63 67 65 88 66 55 67
REMARK SMILES IDX 39 68 40 69 48 70 41 71 42 72 46 73 49 74 43 75 44 76 47 77
REMARK SMILES IDX 45 78 71 79 72 80 80 81 73 82 74 83 78 84 81 85 75 86 76 87
REMARK SMILES IDX 79 88 77 89 56 90 57 91 65 92 58 93 59 94 63 95 66 96 60 97
REMARK SMILES IDX 61 98 64 99 62 100
REMARK H PARENT 11 12 8 21 86 53 54 64
REMARK Flexibility Score: inf
ROOT
ATOM      1  C   UNL A   1      33.184  21.682  25.883  1.00  0.00     0.188 C 
ENDROOT
BRANCH   1   2
ATOM      2  O   UNL A   1      33.086  21.500  24.479  1.00  0.00    -0.376 OA
BRANCH   2   3
ATOM      3  C   UNL A   1      33.754  22.407  23.614  1.00  0.00     0.202 C 
BRANCH   3   4
ATOM      4  C   UNL A   1      34.697  23.500  24.158  1.00  0.00     0.261 C 
BRANCH   4   5
ATOM      5  O   UNL A   1      34.499  24.842  23.661  1.00  0.00    -0.462 OA
BRANCH   5   6
ATOM      6  C   UNL A   1      34.109  25.791  24.546  1.00  0.00     0.329 C 
ATOM      7  O   UNL A   1      34.414  25.748  25.734  1.00  0.00    -0.250 OA
BRANCH   6   8
ATOM      8  C   UNL A   1      33.195  26.920  23.943  1.00  0.00     0.199 C 
BRANCH   8   9
ATOM      9  N   UNL A   1      32.367  26.620  22.745  1.00  0.00    -0.324 N 
ATOM     10  C   UNL A   1      31.126  26.814  22.271  1.00  0.00     0.318 C 
ATOM     11  O   UNL A   1      31.002  26.538  21.071  1.00  0.00    -0.249 OA
ATOM     12  H   UNL A   1      32.902  26.119  22.087  1.00  0.00     0.166 HD
BRANCH  10  13
ATOM     13  N   UNL A   1      30.066  27.256  23.009  1.00  0.00    -0.322 N 
BRANCH  13  14
ATOM     14  C   UNL A   1      29.053  26.255  23.384  1.00  0.00     0.118 C 
ATOM     15  C   UNL A   1      27.856  26.868  24.101  1.00  0.00     0.027 C 
ENDBRANCH  13  14
BRANCH  13  16
ATOM     16  C   UNL A   1      29.895  28.560  23.648  1.00  0.00     0.155 C 
BRANCH  16  17
ATOM     17  C   UNL A   1      29.387  29.694  22.708  1.00  0.00     0.077 C 
ATOM     18  C   UNL A   1      28.173  29.335  21.841  1.00  0.00     0.043 C 
ATOM     19  C   UNL A   1      29.140  30.967  23.527  1.00  0.00     0.043 C 
BRANCH  17  20
ATOM     20  O   UNL A   1      30.449  30.000  21.783  1.00  0.00    -0.389 OA
ATOM     21  H   UNL A   1      31.299  29.739  22.170  1.00  0.00     0.211 HD
ENDBRANCH  17  20
ENDBRANCH  16  17
ENDBRANCH  13  16
ENDBRANCH  10  13
ENDBRANCH   8   9
BRANCH   8  22
ATOM     22  C   UNL A   1      33.930  28.307  23.758  1.00  0.00    -0.007 C 
ATOM     23  C   UNL A   1      32.948  29.440  24.131  1.00  0.00     0.013 C 
ATOM     24  C   UNL A   1      35.145  28.410  24.702  1.00  0.00     0.013 C 
ATOM     25  C   UNL A   1      34.422  28.591  22.326  1.00  0.00     0.013 C 
ENDBRANCH   8  22
ENDBRANCH   6   8
ENDBRANCH   5   6
ENDBRANCH   4   5
ENDBRANCH   3   4
ENDBRANCH   2   3
ENDBRANCH   1   2
BRANCH   1  26
ATOM     26  C   UNL A   1      32.065  22.423  26.643  1.00  0.00     0.188 C 
BRANCH  26  27
ATOM     27  O   UNL A   1      32.043  23.825  26.451  1.00  0.00    -0.377 OA
BRANCH  27  28
ATOM     28  C   UNL A   1      30.795  24.378  26.055  1.00  0.00     0.188 C 
BRANCH  28  29
ATOM     29  C   UNL A   1      30.453  25.790  26.573  1.00  0.00     0.188 C 
BRANCH  29  30
ATOM     30  O   UNL A   1      31.499  26.734  26.402  1.00  0.00    -0.376 OA
BRANCH  30  31
ATOM     31  C   UNL A   1      31.678  27.786  27.337  1.00  0.00     0.202 C 
BRANCH  31  32
ATOM     32  C   UNL A   1      31.563  29.246  26.869  1.00  0.00     0.261 C 
BRANCH  32  33
ATOM     33  O   UNL A   1      32.169  30.246  27.698  1.00  0.00    -0.460 OA
BRANCH  33  34
ATOM     34  C   UNL A   1      33.008  31.134  27.133  1.00  0.00     0.338 C 
ATOM     35  O   UNL A   1      32.718  32.083  26.423  1.00  0.00    -0.246 OA
BRANCH  34  36
ATOM     36  C   UNL A   1      34.348  30.881  27.704  1.00  0.00     0.060 A 
ATOM     37  C   UNL A   1      34.770  29.559  27.906  1.00  0.00     0.016 A 
ATOM     38  C   UNL A   1      35.197  31.948  28.002  1.00  0.00     0.016 A 
ATOM     39  C   UNL A   1      36.038  29.302  28.427  1.00  0.00     0.010 A 
ATOM     40  C   UNL A   1      36.450  31.692  28.557  1.00  0.00     0.010 A 
ATOM     41  C   UNL A   1      36.863  30.369  28.798  1.00  0.00    -0.014 A 
BRANCH  41  42
ATOM     42  C   UNL A   1      38.055  30.124  29.641  1.00  0.00     0.031 A 
ATOM     43  C   UNL A   1      39.109  29.196  29.107  1.00  0.00     0.074 A 
ATOM     44  C   UNL A   1      38.194  30.698  30.847  1.00  0.00     0.049 A 
ATOM     45  N   UNL A   1      40.175  28.719  29.695  1.00  0.00    -0.248 NA
ATOM     46  C   UNL A   1      38.929  28.739  27.719  1.00  0.00     0.031 C 
ATOM     47  C   UNL A   1      37.269  31.659  31.439  1.00  0.00     0.029 A 
ATOM     48  N   UNL A   1      39.168  30.531  31.800  1.00  0.00    -0.354 N 
ATOM     49  C   UNL A   1      40.781  27.895  28.756  1.00  0.00     0.074 A 
ATOM     50  C   UNL A   1      39.956  27.918  27.569  1.00  0.00     0.031 C 
ATOM     51  C   UNL A   1      37.705  31.979  32.670  1.00  0.00     0.029 A 
ATOM     52  C   UNL A   1      38.913  31.210  32.966  1.00  0.00     0.049 A 
ATOM     53  H   UNL A   1      39.971  29.979  31.661  1.00  0.00     0.167 HD
ATOM     54  C   UNL A   1      41.926  27.186  28.877  1.00  0.00     0.037 A 
ATOM     55  C   UNL A   1      39.562  31.174  34.147  1.00  0.00     0.037 A 
ATOM     56  C   UNL A   1      42.735  27.165  30.066  1.00  0.00     0.049 A 
ATOM     57  C   UNL A   1      40.780  30.295  34.291  1.00  0.00     0.074 A 
ATOM     58  C   UNL A   1      43.924  26.494  30.287  1.00  0.00     0.029 A 
ATOM     59  N   UNL A   1      42.427  27.837  31.239  1.00  0.00    -0.354 N 
ATOM     60  N   UNL A   1      41.366  29.535  33.396  1.00  0.00    -0.248 NA
ATOM     61  C   UNL A   1      41.423  30.262  35.612  1.00  0.00     0.031 C 
ATOM     62  C   UNL A   1      44.300  26.706  31.617  1.00  0.00     0.029 A 
ATOM     63  C   UNL A   1      43.383  27.565  32.203  1.00  0.00     0.049 A 
ATOM     64  H   UNL A   1      41.644  28.420  31.368  1.00  0.00     0.167 HD
ATOM     65  C   UNL A   1      42.459  28.961  34.035  1.00  0.00     0.074 A 
ATOM     66  C   UNL A   1      42.463  29.470  35.390  1.00  0.00     0.031 C 
ATOM     67  C   UNL A   1      43.376  28.090  33.546  1.00  0.00     0.037 A 
BRANCH  54  68
ATOM     68  C   UNL A   1      42.348  26.342  27.709  1.00  0.00     0.064 A 
ATOM     69  C   UNL A   1      43.307  26.781  26.785  1.00  0.00     0.173 A 
ATOM     70  C   UNL A   1      41.800  25.063  27.528  1.00  0.00     0.173 A 
ATOM     71  F   UNL A   1      43.849  28.004  26.902  1.00  0.00    -0.203 F 
ATOM     72  C   UNL A   1      43.684  25.982  25.709  1.00  0.00     0.198 A 
ATOM     73  C   UNL A   1      42.203  24.252  26.471  1.00  0.00     0.198 A 
ATOM     74  F   UNL A   1      40.878  24.594  28.382  1.00  0.00    -0.203 F 
ATOM     75  F   UNL A   1      44.564  26.442  24.809  1.00  0.00    -0.200 F 
ATOM     76  C   UNL A   1      43.138  24.715  25.558  1.00  0.00     0.200 A 
ATOM     77  F   UNL A   1      41.685  23.024  26.335  1.00  0.00    -0.200 F 
ATOM     78  F   UNL A   1      43.509  23.944  24.526  1.00  0.00    -0.200 F 
ENDBRANCH  54  68
BRANCH  55  79
ATOM     79  C   UNL A   1      39.059  31.968  35.300  1.00  0.00     0.064 A 
ATOM     80  C   UNL A   1      39.361  33.331  35.427  1.00  0.00     0.173 A 
ATOM     81  C   UNL A   1      38.288  31.376  36.312  1.00  0.00     0.173 A 
ATOM     82  F   UNL A   1      40.117  33.938  34.501  1.00  0.00    -0.203 F 
ATOM     83  C   UNL A   1      38.930  34.066  36.531  1.00  0.00     0.198 A 
ATOM     84  C   UNL A   1      37.829  32.119  37.399  1.00  0.00     0.198 A 
ATOM     85  F   UNL A   1      37.973  30.074  36.244  1.00  0.00    -0.203 F 
ATOM     86  F   UNL A   1      39.278  35.354  36.652  1.00  0.00    -0.200 F 
ATOM     87  C   UNL A   1      38.159  33.461  37.512  1.00  0.00     0.200 A 
ATOM     88  F   UNL A   1      37.072  31.534  38.336  1.00  0.00    -0.200 F 
ATOM     89  F   UNL A   1      37.741  34.169  38.570  1.00  0.00    -0.200 F 
ENDBRANCH  55  79
BRANCH  67  90
ATOM     90  C   UNL A   1      44.483  27.654  34.462  1.00  0.00     0.064 A 
ATOM     91  C   UNL A   1      45.639  28.426  34.643  1.00  0.00     0.173 A 
ATOM     92  C   UNL A   1      44.353  26.481  35.223  1.00  0.00     0.173 A 
ATOM     93  F   UNL A   1      45.819  29.549  33.931  1.00  0.00    -0.203 F 
ATOM     94  C   UNL A   1      46.630  28.033  35.539  1.00  0.00     0.198 A 
ATOM     95  C   UNL A   1      45.328  26.108  36.143  1.00  0.00     0.198 A 
ATOM     96  F   UNL A   1      43.263  25.709  35.094  1.00  0.00    -0.203 F 
ATOM     97  F   UNL A   1      47.744  28.767  35.667  1.00  0.00    -0.200 F 
ATOM     98  C   UNL A   1      46.468  26.882  36.296  1.00  0.00     0.200 A 
ATOM     99  F   UNL A   1      45.162  25.007  36.886  1.00  0.00    -0.200 F 
ATOM    100  F   UNL A   1      47.415  26.515  37.171  1.00  0.00    -0.200 F 
ENDBRANCH  67  90
ENDBRANCH  41  42
ENDBRANCH  34  36
ENDBRANCH  33  34
ENDBRANCH  32  33
ENDBRANCH  31  32
ENDBRANCH  30  31
ENDBRANCH  29  30
ENDBRANCH  28  29
ENDBRANCH  27  28
ENDBRANCH  26  27
ENDBRANCH   1  26
TORSDOF 27
ENDMDL
