MODEL 1
REMARK VINA RESULT:     -10.7      0.000      0.000
REMARK SMILES C/C(C(=O)N[C@H]1CCCC1(C)C)=C(\C)C(=O)OCCOCCOCCOCCOC(=O)c1ccc(-c2c3nc(c(-c4c(F)c(F)c(F)c(F)c4F)c4ccc([nH]4)c(-c4c(F)c(F)c(F)c(F)c4F)c4nc(c(-c5c(F)c(F)c(F)c(F)c5F)c5ccc2[nH]5)C=C4)C=C3)cc1
REMARK SMILES IDX 23 1 22 2 21 3 20 4 19 5 18 6 17 7 15 8 16 9 13 10 1 11 2 12
REMARK SMILES IDX 14 13 3 14 4 15 5 16 6 18 7 19 10 20 8 21 9 22 11 23 12 24
REMARK SMILES IDX 24 25 25 26 26 27 27 28 28 29 29 30 30 31 31 32 32 33 33 34
REMARK SMILES IDX 94 35 34 36 93 37 35 38 36 39 37 40 87 41 38 42 92 43 86 44
REMARK SMILES IDX 88 45 39 46 91 47 85 48 84 49 40 51 72 52 52 53 71 54 53 55
REMARK SMILES IDX 56 56 70 57 89 58 54 59 55 60 69 62 90 63 57 64 41 65 42 66
REMARK SMILES IDX 50 67 43 68 44 69 48 70 51 71 45 72 46 73 49 74 47 75 73 76
REMARK SMILES IDX 74 77 82 78 75 79 76 80 80 81 83 82 77 83 78 84 81 85 79 86
REMARK SMILES IDX 58 87 59 88 67 89 60 90 61 91 65 92 68 93 62 94 63 95 66 96
REMARK SMILES IDX 64 97
REMARK H PARENT 5 17 88 50 56 61
REMARK Flexibility Score: inf
ROOT
ATOM      1  O   UNL A   1      32.663  34.964  30.099  1.00  0.00    -0.377 OA
ENDROOT
BRANCH   1   2
ATOM      2  C   UNL A   1      33.410  34.837  28.900  1.00  0.00     0.188 C 
BRANCH   2   3
ATOM      3  C   UNL A   1      33.113  33.692  27.914  1.00  0.00     0.188 C 
BRANCH   3   4
ATOM      4  O   UNL A   1      34.191  32.785  27.693  1.00  0.00    -0.376 OA
BRANCH   4   5
ATOM      5  C   UNL A   1      34.056  31.539  28.371  1.00  0.00     0.202 C 
BRANCH   5   6
ATOM      6  C   UNL A   1      34.756  30.410  27.618  1.00  0.00     0.261 C 
BRANCH   6   7
ATOM      7  O   UNL A   1      34.005  30.013  26.463  1.00  0.00    -0.460 OA
BRANCH   7   8
ATOM      8  C   UNL A   1      32.858  29.303  26.623  1.00  0.00     0.334 C 
ATOM      9  O   UNL A   1      32.609  28.480  27.472  1.00  0.00    -0.247 OA
BRANCH   8  10
ATOM     10  C   UNL A   1      32.025  29.658  25.430  1.00  0.00     0.042 C 
ATOM     11  C   UNL A   1      30.698  29.127  23.443  1.00  0.00     0.051 C 
ATOM     12  C   UNL A   1      31.898  28.889  24.313  1.00  0.00     0.024 C 
ATOM     13  C   UNL A   1      31.176  30.876  25.712  1.00  0.00     0.053 C 
BRANCH  12  14
ATOM     14  C   UNL A   1      32.689  27.623  24.117  1.00  0.00     0.247 C 
ATOM     15  O   UNL A   1      33.668  27.620  23.366  1.00  0.00    -0.270 OA
ATOM     16  N   UNL A   1      32.552  26.488  24.853  1.00  0.00    -0.349 N 
ATOM     17  H   UNL A   1      33.434  26.174  25.158  1.00  0.00     0.164 HD
BRANCH  16  18
ATOM     18  C   UNL A   1      31.492  25.574  25.341  1.00  0.00     0.088 C 
ATOM     19  C   UNL A   1      30.162  25.533  24.606  1.00  0.00     0.025 C 
ATOM     20  C   UNL A   1      31.909  24.070  25.297  1.00  0.00    -0.015 C 
ATOM     21  C   UNL A   1      30.382  24.555  23.452  1.00  0.00     0.003 C 
ATOM     22  C   UNL A   1      31.614  23.719  23.830  1.00  0.00     0.008 C 
ATOM     23  C   UNL A   1      33.363  23.792  25.692  1.00  0.00     0.013 C 
ATOM     24  C   UNL A   1      31.017  23.206  26.229  1.00  0.00     0.013 C 
ENDBRANCH  16  18
ENDBRANCH  12  14
ENDBRANCH   8  10
ENDBRANCH   7   8
ENDBRANCH   6   7
ENDBRANCH   5   6
ENDBRANCH   4   5
ENDBRANCH   3   4
ENDBRANCH   2   3
ENDBRANCH   1   2
BRANCH   1  25
ATOM     25  C   UNL A   1      32.902  36.082  30.941  1.00  0.00     0.188 C 
BRANCH  25  26
ATOM     26  C   UNL A   1      32.613  35.980  32.452  1.00  0.00     0.188 C 
BRANCH  26  27
ATOM     27  O   UNL A   1      33.715  36.303  33.291  1.00  0.00    -0.376 OA
BRANCH  27  28
ATOM     28  C   UNL A   1      34.961  35.712  32.952  1.00  0.00     0.202 C 
BRANCH  28  29
ATOM     29  C   UNL A   1      35.179  34.326  33.563  1.00  0.00     0.261 C 
BRANCH  29  30
ATOM     30  O   UNL A   1      36.047  33.463  32.814  1.00  0.00    -0.460 OA
BRANCH  30  31
ATOM     31  C   UNL A   1      35.476  32.476  32.091  1.00  0.00     0.338 C 
ATOM     32  O   UNL A   1      34.302  32.333  31.812  1.00  0.00    -0.246 OA
BRANCH  31  33
ATOM     33  C   UNL A   1      36.574  31.661  31.540  1.00  0.00     0.060 A 
ATOM     34  C   UNL A   1      37.282  30.796  32.386  1.00  0.00     0.016 A 
ATOM     35  C   UNL A   1      36.872  31.738  30.180  1.00  0.00     0.016 A 
ATOM     36  C   UNL A   1      38.313  30.013  31.869  1.00  0.00     0.010 A 
ATOM     37  C   UNL A   1      37.921  30.978  29.670  1.00  0.00     0.010 A 
ATOM     38  C   UNL A   1      38.663  30.137  30.517  1.00  0.00    -0.014 A 
BRANCH  38  39
ATOM     39  C   UNL A   1      39.945  29.598  30.016  1.00  0.00     0.031 A 
ATOM     40  C   UNL A   1      41.099  30.552  29.906  1.00  0.00     0.074 A 
ATOM     41  C   UNL A   1      40.062  28.325  29.602  1.00  0.00     0.049 A 
ATOM     42  N   UNL A   1      42.259  30.395  29.325  1.00  0.00    -0.248 NA
ATOM     43  C   UNL A   1      40.908  31.873  30.529  1.00  0.00     0.031 C 
ATOM     44  C   UNL A   1      39.028  27.300  29.705  1.00  0.00     0.029 A 
ATOM     45  N   UNL A   1      41.110  27.691  28.981  1.00  0.00    -0.354 N 
ATOM     46  C   UNL A   1      42.926  31.599  29.499  1.00  0.00     0.074 A 
ATOM     47  C   UNL A   1      42.042  32.483  30.224  1.00  0.00     0.031 C 
ATOM     48  C   UNL A   1      39.482  26.168  29.138  1.00  0.00     0.029 A 
ATOM     49  C   UNL A   1      40.820  26.407  28.595  1.00  0.00     0.049 A 
ATOM     50  H   UNL A   1      41.984  28.118  28.827  1.00  0.00     0.167 HD
ATOM     51  C   UNL A   1      44.170  31.937  29.086  1.00  0.00     0.037 A 
ATOM     52  C   UNL A   1      41.542  25.545  27.851  1.00  0.00     0.037 A 
ATOM     53  C   UNL A   1      45.036  31.059  28.352  1.00  0.00     0.049 A 
ATOM     54  C   UNL A   1      42.890  25.974  27.326  1.00  0.00     0.074 A 
ATOM     55  C   UNL A   1      46.312  31.302  27.879  1.00  0.00     0.029 A 
ATOM     56  N   UNL A   1      44.706  29.765  27.976  1.00  0.00    -0.354 N 
ATOM     57  N   UNL A   1      43.525  27.109  27.498  1.00  0.00    -0.248 NA
ATOM     58  C   UNL A   1      43.620  25.003  26.496  1.00  0.00     0.031 C 
ATOM     59  C   UNL A   1      46.739  30.169  27.178  1.00  0.00     0.029 A 
ATOM     60  C   UNL A   1      45.748  29.203  27.261  1.00  0.00     0.049 A 
ATOM     61  H   UNL A   1      43.856  29.315  28.186  1.00  0.00     0.167 HD
ATOM     62  C   UNL A   1      44.738  26.976  26.835  1.00  0.00     0.074 A 
ATOM     63  C   UNL A   1      44.753  25.650  26.253  1.00  0.00     0.031 C 
ATOM     64  C   UNL A   1      45.751  27.869  26.720  1.00  0.00     0.037 A 
BRANCH  51  65
ATOM     65  C   UNL A   1      44.641  33.326  29.391  1.00  0.00     0.064 A 
ATOM     66  C   UNL A   1      44.388  34.396  28.520  1.00  0.00     0.173 A 
ATOM     67  C   UNL A   1      45.346  33.591  30.574  1.00  0.00     0.173 A 
ATOM     68  F   UNL A   1      43.737  34.188  27.365  1.00  0.00    -0.203 F 
ATOM     69  C   UNL A   1      44.843  35.679  28.813  1.00  0.00     0.198 A 
ATOM     70  C   UNL A   1      45.775  34.880  30.877  1.00  0.00     0.198 A 
ATOM     71  F   UNL A   1      45.618  32.601  31.437  1.00  0.00    -0.203 F 
ATOM     72  F   UNL A   1      44.631  36.678  27.945  1.00  0.00    -0.200 F 
ATOM     73  C   UNL A   1      45.529  35.921  29.994  1.00  0.00     0.200 A 
ATOM     74  F   UNL A   1      46.432  35.114  32.021  1.00  0.00    -0.200 F 
ATOM     75  F   UNL A   1      45.963  37.157  30.276  1.00  0.00    -0.200 F 
ENDBRANCH  51  65
BRANCH  52  76
ATOM     76  C   UNL A   1      41.000  24.197  27.534  1.00  0.00     0.064 A 
ATOM     77  C   UNL A   1      41.555  23.044  28.108  1.00  0.00     0.173 A 
ATOM     78  C   UNL A   1      39.941  24.029  26.629  1.00  0.00     0.173 A 
ATOM     79  F   UNL A   1      42.589  23.151  28.955  1.00  0.00    -0.203 F 
ATOM     80  C   UNL A   1      41.082  21.775  27.777  1.00  0.00     0.198 A 
ATOM     81  C   UNL A   1      39.452  22.761  26.321  1.00  0.00     0.198 A 
ATOM     82  F   UNL A   1      39.380  25.097  26.046  1.00  0.00    -0.203 F 
ATOM     83  F   UNL A   1      41.663  20.689  28.304  1.00  0.00    -0.200 F 
ATOM     84  C   UNL A   1      40.028  21.635  26.889  1.00  0.00     0.200 A 
ATOM     85  F   UNL A   1      38.428  22.631  25.466  1.00  0.00    -0.200 F 
ATOM     86  F   UNL A   1      39.574  20.415  26.570  1.00  0.00    -0.200 F 
ENDBRANCH  52  76
BRANCH  64  87
ATOM     87  C   UNL A   1      46.991  27.431  25.997  1.00  0.00     0.064 A 
ATOM     88  C   UNL A   1      47.156  27.635  24.621  1.00  0.00     0.173 A 
ATOM     89  C   UNL A   1      48.065  26.884  26.717  1.00  0.00     0.173 A 
ATOM     90  F   UNL A   1      46.153  28.144  23.890  1.00  0.00    -0.203 F 
ATOM     91  C   UNL A   1      48.349  27.299  23.988  1.00  0.00     0.198 A 
ATOM     92  C   UNL A   1      49.266  26.574  26.085  1.00  0.00     0.198 A 
ATOM     93  F   UNL A   1      47.959  26.679  28.038  1.00  0.00    -0.203 F 
ATOM     94  F   UNL A   1      48.478  27.479  22.666  1.00  0.00    -0.200 F 
ATOM     95  C   UNL A   1      49.406  26.780  24.722  1.00  0.00     0.200 A 
ATOM     96  F   UNL A   1      50.290  26.087  26.799  1.00  0.00    -0.200 F 
ATOM     97  F   UNL A   1      50.562  26.477  24.114  1.00  0.00    -0.200 F 
ENDBRANCH  64  87
ENDBRANCH  38  39
ENDBRANCH  31  33
ENDBRANCH  30  31
ENDBRANCH  29  30
ENDBRANCH  28  29
ENDBRANCH  27  28
ENDBRANCH  26  27
ENDBRANCH  25  26
ENDBRANCH   1  25
TORSDOF 22
ENDMDL
MODEL 2
REMARK VINA RESULT:     -10.4      3.373      9.329
REMARK SMILES C/C(C(=O)N[C@H]1CCCC1(C)C)=C(\C)C(=O)OCCOCCOCCOCCOC(=O)c1ccc(-c2c3nc(c(-c4c(F)c(F)c(F)c(F)c4F)c4ccc([nH]4)c(-c4c(F)c(F)c(F)c(F)c4F)c4nc(c(-c5c(F)c(F)c(F)c(F)c5F)c5ccc2[nH]5)C=C4)C=C3)cc1
REMARK SMILES IDX 23 1 22 2 21 3 20 4 19 5 18 6 17 7 15 8 16 9 13 10 1 11 2 12
REMARK SMILES IDX 14 13 3 14 4 15 5 16 6 18 7 19 10 20 8 21 9 22 11 23 12 24
REMARK SMILES IDX 24 25 25 26 26 27 27 28 28 29 29 30 30 31 31 32 32 33 33 34
REMARK SMILES IDX 94 35 34 36 93 37 35 38 36 39 37 40 87 41 38 42 92 43 86 44
REMARK SMILES IDX 88 45 39 46 91 47 85 48 84 49 40 51 72 52 52 53 71 54 53 55
REMARK SMILES IDX 56 56 70 57 89 58 54 59 55 60 69 62 90 63 57 64 41 65 42 66
REMARK SMILES IDX 50 67 43 68 44 69 48 70 51 71 45 72 46 73 49 74 47 75 73 76
REMARK SMILES IDX 74 77 82 78 75 79 76 80 80 81 83 82 77 83 78 84 81 85 79 86
REMARK SMILES IDX 58 87 59 88 67 89 60 90 61 91 65 92 68 93 62 94 63 95 66 96
REMARK SMILES IDX 64 97
REMARK H PARENT 5 17 88 50 56 61
REMARK Flexibility Score: inf
ROOT
ATOM      1  O   UNL A   1      34.421  21.536  26.580  1.00  0.00    -0.377 OA
ENDROOT
BRANCH   1   2
ATOM      2  C   UNL A   1      33.612  20.746  25.725  1.00  0.00     0.188 C 
BRANCH   2   3
ATOM      3  C   UNL A   1      32.534  21.404  24.843  1.00  0.00     0.188 C 
BRANCH   3   4
ATOM      4  O   UNL A   1      31.378  21.866  25.540  1.00  0.00    -0.376 OA
BRANCH   4   5
ATOM      5  C   UNL A   1      31.273  23.284  25.623  1.00  0.00     0.202 C 
BRANCH   5   6
ATOM      6  C   UNL A   1      31.184  23.924  24.240  1.00  0.00     0.261 C 
BRANCH   6   7
ATOM      7  O   UNL A   1      31.684  25.268  24.257  1.00  0.00    -0.460 OA
BRANCH   7   8
ATOM      8  C   UNL A   1      30.997  26.245  23.608  1.00  0.00     0.334 C 
ATOM      9  O   UNL A   1      29.801  26.336  23.460  1.00  0.00    -0.247 OA
BRANCH   8  10
ATOM     10  C   UNL A   1      32.056  27.107  22.994  1.00  0.00     0.042 C 
ATOM     11  C   UNL A   1      33.547  29.047  22.937  1.00  0.00     0.051 C 
ATOM     12  C   UNL A   1      32.204  28.441  23.224  1.00  0.00     0.024 C 
ATOM     13  C   UNL A   1      33.070  26.265  22.253  1.00  0.00     0.053 C 
BRANCH  12  14
ATOM     14  C   UNL A   1      31.225  29.224  24.057  1.00  0.00     0.247 C 
ATOM     15  O   UNL A   1      31.255  29.136  25.287  1.00  0.00    -0.270 OA
ATOM     16  N   UNL A   1      30.402  30.203  23.593  1.00  0.00    -0.349 N 
ATOM     17  H   UNL A   1      30.471  31.001  24.165  1.00  0.00     0.164 HD
BRANCH  16  18
ATOM     18  C   UNL A   1      29.437  30.446  22.495  1.00  0.00     0.088 C 
ATOM     19  C   UNL A   1      28.373  29.399  22.207  1.00  0.00     0.025 C 
ATOM     20  C   UNL A   1      28.557  31.717  22.721  1.00  0.00    -0.015 C 
ATOM     21  C   UNL A   1      27.240  29.711  23.184  1.00  0.00     0.003 C 
ATOM     22  C   UNL A   1      27.457  31.162  23.641  1.00  0.00     0.008 C 
ATOM     23  C   UNL A   1      29.295  32.912  23.333  1.00  0.00     0.013 C 
ATOM     24  C   UNL A   1      27.925  32.212  21.393  1.00  0.00     0.013 C 
ENDBRANCH  16  18
ENDBRANCH  12  14
ENDBRANCH   8  10
ENDBRANCH   7   8
ENDBRANCH   6   7
ENDBRANCH   5   6
ENDBRANCH   4   5
ENDBRANCH   3   4
ENDBRANCH   2   3
ENDBRANCH   1   2
BRANCH   1  25
ATOM     25  C   UNL A   1      35.611  22.110  26.061  1.00  0.00     0.188 C 
BRANCH  25  26
ATOM     26  C   UNL A   1      36.394  21.380  24.952  1.00  0.00     0.188 C 
BRANCH  26  27
ATOM     27  O   UNL A   1      37.760  21.123  25.259  1.00  0.00    -0.376 OA
BRANCH  27  28
ATOM     28  C   UNL A   1      38.233  19.813  24.983  1.00  0.00     0.202 C 
BRANCH  28  29
ATOM     29  C   UNL A   1      39.533  19.456  25.710  1.00  0.00     0.261 C 
BRANCH  29  30
ATOM     30  O   UNL A   1      39.802  20.233  26.886  1.00  0.00    -0.460 OA
BRANCH  30  31
ATOM     31  C   UNL A   1      41.095  20.469  27.197  1.00  0.00     0.338 C 
ATOM     32  O   UNL A   1      42.030  19.692  27.160  1.00  0.00    -0.246 OA
BRANCH  31  33
ATOM     33  C   UNL A   1      41.217  21.917  27.441  1.00  0.00     0.060 A 
ATOM     34  C   UNL A   1      40.468  22.813  26.664  1.00  0.00     0.016 A 
ATOM     35  C   UNL A   1      42.052  22.375  28.460  1.00  0.00     0.016 A 
ATOM     36  C   UNL A   1      40.570  24.183  26.898  1.00  0.00     0.010 A 
ATOM     37  C   UNL A   1      42.176  23.745  28.673  1.00  0.00     0.010 A 
ATOM     38  C   UNL A   1      41.459  24.653  27.875  1.00  0.00    -0.014 A 
BRANCH  38  39
ATOM     39  C   UNL A   1      41.850  26.078  27.918  1.00  0.00     0.031 A 
ATOM     40  C   UNL A   1      43.192  26.443  27.353  1.00  0.00     0.074 A 
ATOM     41  C   UNL A   1      41.075  27.005  28.505  1.00  0.00     0.049 A 
ATOM     42  N   UNL A   1      43.855  27.566  27.436  1.00  0.00    -0.248 NA
ATOM     43  C   UNL A   1      43.886  25.385  26.598  1.00  0.00     0.031 C 
ATOM     44  C   UNL A   1      39.738  26.777  29.044  1.00  0.00     0.029 A 
ATOM     45  N   UNL A   1      41.328  28.329  28.770  1.00  0.00    -0.354 N 
ATOM     46  C   UNL A   1      45.047  27.344  26.761  1.00  0.00     0.074 A 
ATOM     47  C   UNL A   1      45.027  25.979  26.286  1.00  0.00     0.031 C 
ATOM     48  C   UNL A   1      39.295  27.918  29.602  1.00  0.00     0.029 A 
ATOM     49  C   UNL A   1      40.338  28.939  29.498  1.00  0.00     0.049 A 
ATOM     50  H   UNL A   1      42.140  28.795  28.466  1.00  0.00     0.167 HD
ATOM     51  C   UNL A   1      46.071  28.205  26.559  1.00  0.00     0.037 A 
ATOM     52  C   UNL A   1      40.304  30.168  30.050  1.00  0.00     0.037 A 
ATOM     53  C   UNL A   1      46.090  29.555  27.047  1.00  0.00     0.049 A 
ATOM     54  C   UNL A   1      41.494  31.082  29.886  1.00  0.00     0.074 A 
ATOM     55  C   UNL A   1      47.079  30.510  26.905  1.00  0.00     0.029 A 
ATOM     56  N   UNL A   1      45.069  30.136  27.785  1.00  0.00    -0.354 N 
ATOM     57  N   UNL A   1      42.617  30.875  29.241  1.00  0.00    -0.248 NA
ATOM     58  C   UNL A   1      41.414  32.401  30.535  1.00  0.00     0.031 C 
ATOM     59  C   UNL A   1      46.676  31.658  27.594  1.00  0.00     0.029 A 
ATOM     60  C   UNL A   1      45.413  31.434  28.121  1.00  0.00     0.049 A 
ATOM     61  H   UNL A   1      44.227  29.692  28.034  1.00  0.00     0.167 HD
ATOM     62  C   UNL A   1      43.358  32.044  29.372  1.00  0.00     0.074 A 
ATOM     63  C   UNL A   1      42.559  32.958  30.161  1.00  0.00     0.031 C 
ATOM     64  C   UNL A   1      44.586  32.336  28.880  1.00  0.00     0.037 A 
BRANCH  51  65
ATOM     65  C   UNL A   1      47.261  27.693  25.808  1.00  0.00     0.064 A 
ATOM     66  C   UNL A   1      48.370  27.148  26.471  1.00  0.00     0.173 A 
ATOM     67  C   UNL A   1      47.288  27.738  24.406  1.00  0.00     0.173 A 
ATOM     68  F   UNL A   1      48.401  27.103  27.811  1.00  0.00    -0.203 F 
ATOM     69  C   UNL A   1      49.473  26.687  25.758  1.00  0.00     0.198 A 
ATOM     70  C   UNL A   1      48.381  27.251  23.696  1.00  0.00     0.198 A 
ATOM     71  F   UNL A   1      46.253  28.255  23.725  1.00  0.00    -0.203 F 
ATOM     72  F   UNL A   1      50.543  26.213  26.413  1.00  0.00    -0.200 F 
ATOM     73  C   UNL A   1      49.475  26.732  24.371  1.00  0.00     0.200 A 
ATOM     74  F   UNL A   1      48.378  27.289  22.356  1.00  0.00    -0.200 F 
ATOM     75  F   UNL A   1      50.536  26.284  23.687  1.00  0.00    -0.200 F 
ENDBRANCH  51  65
BRANCH  52  76
ATOM     76  C   UNL A   1      39.118  30.604  30.833  1.00  0.00     0.064 A 
ATOM     77  C   UNL A   1      39.052  30.395  32.218  1.00  0.00     0.173 A 
ATOM     78  C   UNL A   1      38.015  31.210  30.212  1.00  0.00     0.173 A 
ATOM     79  F   UNL A   1      40.068  29.792  32.852  1.00  0.00    -0.203 F 
ATOM     80  C   UNL A   1      37.921  30.759  32.948  1.00  0.00     0.198 A 
ATOM     81  C   UNL A   1      36.898  31.598  30.948  1.00  0.00     0.198 A 
ATOM     82  F   UNL A   1      38.024  31.426  28.889  1.00  0.00    -0.203 F 
ATOM     83  F   UNL A   1      37.866  30.503  34.262  1.00  0.00    -0.200 F 
ATOM     84  C   UNL A   1      36.849  31.365  32.314  1.00  0.00     0.200 A 
ATOM     85  F   UNL A   1      35.865  32.190  30.332  1.00  0.00    -0.200 F 
ATOM     86  F   UNL A   1      35.762  31.714  33.016  1.00  0.00    -0.200 F 
ENDBRANCH  52  76
BRANCH  64  87
ATOM     87  C   UNL A   1      45.124  33.716  29.116  1.00  0.00     0.064 A 
ATOM     88  C   UNL A   1      45.954  34.009  30.206  1.00  0.00     0.173 A 
ATOM     89  C   UNL A   1      44.877  34.734  28.182  1.00  0.00     0.173 A 
ATOM     90  F   UNL A   1      46.210  33.072  31.131  1.00  0.00    -0.203 F 
ATOM     91  C   UNL A   1      46.512  35.276  30.357  1.00  0.00     0.198 A 
ATOM     92  C   UNL A   1      45.458  35.991  28.322  1.00  0.00     0.198 A 
ATOM     93  F   UNL A   1      44.097  34.499  27.116  1.00  0.00    -0.203 F 
ATOM     94  F   UNL A   1      47.283  35.544  31.420  1.00  0.00    -0.200 F 
ATOM     95  C   UNL A   1      46.272  36.261  29.410  1.00  0.00     0.200 A 
ATOM     96  F   UNL A   1      45.238  36.936  27.398  1.00  0.00    -0.200 F 
ATOM     97  F   UNL A   1      46.827  37.474  29.547  1.00  0.00    -0.200 F 
ENDBRANCH  64  87
ENDBRANCH  38  39
ENDBRANCH  31  33
ENDBRANCH  30  31
ENDBRANCH  29  30
ENDBRANCH  28  29
ENDBRANCH  27  28
ENDBRANCH  26  27
ENDBRANCH  25  26
ENDBRANCH   1  25
TORSDOF 22
ENDMDL
MODEL 3
REMARK VINA RESULT:      -9.9      3.655      9.298
REMARK SMILES C/C(C(=O)N[C@H]1CCCC1(C)C)=C(\C)C(=O)OCCOCCOCCOCCOC(=O)c1ccc(-c2c3nc(c(-c4c(F)c(F)c(F)c(F)c4F)c4ccc([nH]4)c(-c4c(F)c(F)c(F)c(F)c4F)c4nc(c(-c5c(F)c(F)c(F)c(F)c5F)c5ccc2[nH]5)C=C4)C=C3)cc1
REMARK SMILES IDX 23 1 22 2 21 3 20 4 19 5 18 6 17 7 15 8 16 9 13 10 1 11 2 12
REMARK SMILES IDX 14 13 3 14 4 15 5 16 6 18 7 19 10 20 8 21 9 22 11 23 12 24
REMARK SMILES IDX 24 25 25 26 26 27 27 28 28 29 29 30 30 31 31 32 32 33 33 34
REMARK SMILES IDX 94 35 34 36 93 37 35 38 36 39 37 40 87 41 38 42 92 43 86 44
REMARK SMILES IDX 88 45 39 46 91 47 85 48 84 49 40 51 72 52 52 53 71 54 53 55
REMARK SMILES IDX 56 56 70 57 89 58 54 59 55 60 69 62 90 63 57 64 41 65 42 66
REMARK SMILES IDX 50 67 43 68 44 69 48 70 51 71 45 72 46 73 49 74 47 75 73 76
REMARK SMILES IDX 74 77 82 78 75 79 76 80 80 81 83 82 77 83 78 84 81 85 79 86
REMARK SMILES IDX 58 87 59 88 67 89 60 90 61 91 65 92 68 93 62 94 63 95 66 96
REMARK SMILES IDX 64 97
REMARK H PARENT 5 17 88 50 56 61
REMARK Flexibility Score: inf
ROOT
ATOM      1  O   UNL A   1      34.109  21.130  26.320  1.00  0.00    -0.377 OA
ENDROOT
BRANCH   1   2
ATOM      2  C   UNL A   1      33.500  20.201  25.438  1.00  0.00     0.188 C 
BRANCH   2   3
ATOM      3  C   UNL A   1      32.627  20.693  24.268  1.00  0.00     0.188 C 
BRANCH   3   4
ATOM      4  O   UNL A   1      32.686  22.095  24.013  1.00  0.00    -0.376 OA
BRANCH   4   5
ATOM      5  C   UNL A   1      31.849  22.531  22.946  1.00  0.00     0.202 C 
BRANCH   5   6
ATOM      6  C   UNL A   1      32.075  24.005  22.620  1.00  0.00     0.261 C 
BRANCH   6   7
ATOM      7  O   UNL A   1      30.994  24.815  23.104  1.00  0.00    -0.460 OA
BRANCH   7   8
ATOM      8  C   UNL A   1      31.132  25.477  24.283  1.00  0.00     0.334 C 
ATOM      9  O   UNL A   1      31.731  25.119  25.268  1.00  0.00    -0.247 OA
BRANCH   8  10
ATOM     10  C   UNL A   1      30.255  26.683  24.141  1.00  0.00     0.042 C 
ATOM     11  C   UNL A   1      29.620  28.831  23.154  1.00  0.00     0.051 C 
ATOM     12  C   UNL A   1      30.670  27.897  23.681  1.00  0.00     0.024 C 
ATOM     13  C   UNL A   1      28.805  26.323  24.373  1.00  0.00     0.053 C 
BRANCH  12  14
ATOM     14  C   UNL A   1      32.113  28.183  23.362  1.00  0.00     0.247 C 
ATOM     15  O   UNL A   1      32.636  27.671  22.369  1.00  0.00    -0.270 OA
ATOM     16  N   UNL A   1      32.879  29.131  23.965  1.00  0.00    -0.349 N 
ATOM     17  H   UNL A   1      33.337  29.677  23.286  1.00  0.00     0.164 HD
BRANCH  16  18
ATOM     18  C   UNL A   1      33.239  29.602  25.323  1.00  0.00     0.088 C 
ATOM     19  C   UNL A   1      32.186  30.309  26.159  1.00  0.00     0.025 C 
ATOM     20  C   UNL A   1      33.660  28.444  26.283  1.00  0.00    -0.015 C 
ATOM     21  C   UNL A   1      31.397  29.185  26.830  1.00  0.00     0.003 C 
ATOM     22  C   UNL A   1      32.291  27.937  26.762  1.00  0.00     0.008 C 
ATOM     23  C   UNL A   1      34.506  27.344  25.635  1.00  0.00     0.013 C 
ATOM     24  C   UNL A   1      34.471  28.979  27.495  1.00  0.00     0.013 C 
ENDBRANCH  16  18
ENDBRANCH  12  14
ENDBRANCH   8  10
ENDBRANCH   7   8
ENDBRANCH   6   7
ENDBRANCH   5   6
ENDBRANCH   4   5
ENDBRANCH   3   4
ENDBRANCH   2   3
ENDBRANCH   1   2
BRANCH   1  25
ATOM     25  C   UNL A   1      35.439  21.551  26.062  1.00  0.00     0.188 C 
BRANCH  25  26
ATOM     26  C   UNL A   1      36.299  20.789  25.033  1.00  0.00     0.188 C 
BRANCH  26  27
ATOM     27  O   UNL A   1      37.689  20.748  25.335  1.00  0.00    -0.376 OA
BRANCH  27  28
ATOM     28  C   UNL A   1      38.373  19.551  24.994  1.00  0.00     0.202 C 
BRANCH  28  29
ATOM     29  C   UNL A   1      39.706  19.367  25.725  1.00  0.00     0.261 C 
BRANCH  29  30
ATOM     30  O   UNL A   1      39.845  20.131  26.932  1.00  0.00    -0.460 OA
BRANCH  30  31
ATOM     31  C   UNL A   1      41.096  20.362  27.384  1.00  0.00     0.338 C 
ATOM     32  O   UNL A   1      42.019  19.576  27.474  1.00  0.00    -0.246 OA
BRANCH  31  33
ATOM     33  C   UNL A   1      41.207  21.815  27.607  1.00  0.00     0.060 A 
ATOM     34  C   UNL A   1      40.337  22.684  26.934  1.00  0.00     0.016 A 
ATOM     35  C   UNL A   1      42.155  22.302  28.507  1.00  0.00     0.016 A 
ATOM     36  C   UNL A   1      40.429  24.059  27.149  1.00  0.00     0.010 A 
ATOM     37  C   UNL A   1      42.266  23.676  28.700  1.00  0.00     0.010 A 
ATOM     38  C   UNL A   1      41.425  24.559  28.000  1.00  0.00    -0.014 A 
BRANCH  38  39
ATOM     39  C   UNL A   1      41.777  25.995  27.989  1.00  0.00     0.031 A 
ATOM     40  C   UNL A   1      43.118  26.372  27.430  1.00  0.00     0.074 A 
ATOM     41  C   UNL A   1      40.967  26.925  28.524  1.00  0.00     0.049 A 
ATOM     42  N   UNL A   1      43.749  27.516  27.476  1.00  0.00    -0.248 NA
ATOM     43  C   UNL A   1      43.853  25.303  26.732  1.00  0.00     0.031 C 
ATOM     44  C   UNL A   1      39.628  26.683  29.050  1.00  0.00     0.029 A 
ATOM     45  N   UNL A   1      41.180  28.265  28.736  1.00  0.00    -0.354 N 
ATOM     46  C   UNL A   1      44.957  27.298  26.830  1.00  0.00     0.074 A 
ATOM     47  C   UNL A   1      44.982  25.914  26.413  1.00  0.00     0.031 C 
ATOM     48  C   UNL A   1      39.145  27.833  29.553  1.00  0.00     0.029 A 
ATOM     49  C   UNL A   1      40.162  28.877  29.422  1.00  0.00     0.049 A 
ATOM     50  H   UNL A   1      41.985  28.739  28.425  1.00  0.00     0.167 HD
ATOM     51  C   UNL A   1      45.961  28.178  26.607  1.00  0.00     0.037 A 
ATOM     52  C   UNL A   1      40.087  30.127  29.921  1.00  0.00     0.037 A 
ATOM     53  C   UNL A   1      45.937  29.547  27.038  1.00  0.00     0.049 A 
ATOM     54  C   UNL A   1      41.254  31.066  29.736  1.00  0.00     0.074 A 
ATOM     55  C   UNL A   1      46.902  30.522  26.870  1.00  0.00     0.029 A 
ATOM     56  N   UNL A   1      44.888  30.131  27.734  1.00  0.00    -0.354 N 
ATOM     57  N   UNL A   1      42.393  30.863  29.118  1.00  0.00    -0.248 NA
ATOM     58  C   UNL A   1      41.128  32.408  30.327  1.00  0.00     0.031 C 
ATOM     59  C   UNL A   1      46.457  31.687  27.504  1.00  0.00     0.029 A 
ATOM     60  C   UNL A   1      45.192  31.450  28.019  1.00  0.00     0.049 A 
ATOM     61  H   UNL A   1      44.054  29.674  27.988  1.00  0.00     0.167 HD
ATOM     62  C   UNL A   1      43.099  32.056  29.211  1.00  0.00     0.074 A 
ATOM     63  C   UNL A   1      42.263  32.980  29.948  1.00  0.00     0.031 C 
ATOM     64  C   UNL A   1      44.328  32.360  28.727  1.00  0.00     0.037 A 
BRANCH  51  65
ATOM     65  C   UNL A   1      47.178  27.668  25.897  1.00  0.00     0.064 A 
ATOM     66  C   UNL A   1      48.231  27.055  26.591  1.00  0.00     0.173 A 
ATOM     67  C   UNL A   1      47.286  27.784  24.504  1.00  0.00     0.173 A 
ATOM     68  F   UNL A   1      48.184  26.940  27.927  1.00  0.00    -0.203 F 
ATOM     69  C   UNL A   1      49.359  26.595  25.917  1.00  0.00     0.198 A 
ATOM     70  C   UNL A   1      48.403  27.299  23.830  1.00  0.00     0.198 A 
ATOM     71  F   UNL A   1      46.307  28.367  23.794  1.00  0.00    -0.203 F 
ATOM     72  F   UNL A   1      50.375  26.055  26.605  1.00  0.00    -0.200 F 
ATOM     73  C   UNL A   1      49.441  26.712  24.537  1.00  0.00     0.200 A 
ATOM     74  F   UNL A   1      48.478  27.406  22.496  1.00  0.00    -0.200 F 
ATOM     75  F   UNL A   1      50.527  26.266  23.890  1.00  0.00    -0.200 F 
ENDBRANCH  51  65
BRANCH  52  76
ATOM     76  C   UNL A   1      38.876  30.563  30.665  1.00  0.00     0.064 A 
ATOM     77  C   UNL A   1      37.795  31.157  29.997  1.00  0.00     0.173 A 
ATOM     78  C   UNL A   1      38.784  30.425  32.058  1.00  0.00     0.173 A 
ATOM     79  F   UNL A   1      37.848  31.339  28.670  1.00  0.00    -0.203 F 
ATOM     80  C   UNL A   1      36.677  31.610  30.696  1.00  0.00     0.198 A 
ATOM     81  C   UNL A   1      37.655  30.854  32.752  1.00  0.00     0.198 A 
ATOM     82  F   UNL A   1      39.793  29.871  32.745  1.00  0.00    -0.203 F 
ATOM     83  F   UNL A   1      35.681  32.218  30.038  1.00  0.00    -0.200 F 
ATOM     84  C   UNL A   1      36.606  31.454  32.071  1.00  0.00     0.200 A 
ATOM     85  F   UNL A   1      37.586  30.695  34.080  1.00  0.00    -0.200 F 
ATOM     86  F   UNL A   1      35.532  31.891  32.743  1.00  0.00    -0.200 F 
ENDBRANCH  52  76
BRANCH  64  87
ATOM     87  C   UNL A   1      44.825  33.763  28.912  1.00  0.00     0.064 A 
ATOM     88  C   UNL A   1      45.646  34.120  29.990  1.00  0.00     0.173 A 
ATOM     89  C   UNL A   1      44.548  34.739  27.942  1.00  0.00     0.173 A 
ATOM     90  F   UNL A   1      45.929  33.225  30.948  1.00  0.00    -0.203 F 
ATOM     91  C   UNL A   1      46.165  35.407  30.095  1.00  0.00     0.198 A 
ATOM     92  C   UNL A   1      45.091  36.017  28.036  1.00  0.00     0.198 A 
ATOM     93  F   UNL A   1      43.775  34.443  26.886  1.00  0.00    -0.203 F 
ATOM     94  F   UNL A   1      46.928  35.736  31.147  1.00  0.00    -0.200 F 
ATOM     95  C   UNL A   1      45.897  36.350  29.114  1.00  0.00     0.200 A 
ATOM     96  F   UNL A   1      44.843  36.921  27.079  1.00  0.00    -0.200 F 
ATOM     97  F   UNL A   1      46.416  37.583  29.206  1.00  0.00    -0.200 F 
ENDBRANCH  64  87
ENDBRANCH  38  39
ENDBRANCH  31  33
ENDBRANCH  30  31
ENDBRANCH  29  30
ENDBRANCH  28  29
ENDBRANCH  27  28
ENDBRANCH  26  27
ENDBRANCH  25  26
ENDBRANCH   1  25
TORSDOF 22
ENDMDL
