MODEL 1
REMARK VINA RESULT:     -10.2      0.000      0.000
REMARK SMILES O=C(OCCOCCOCCOCCOC(=O)[C@H]1C[C@](O)(c2ccccc2Cl)[C@@H](c2ccccc2Cl)O1)c1ccc(-c2c3nc(c(-c4c(F)c(F)c(F)c(F)c4F)c4ccc([nH]4)c(-c4c(F)c(F)c(F)c(F)c4F)c4nc(c(-c5c(F)c(F)c(F)c(F)c5F)c5ccc2[nH]5)C=C4)C=C3)cc1
REMARK SMILES IDX 8 1 7 2 6 3 5 4 4 5 3 6 2 7 1 8 38 9 39 10 100 11 40 12
REMARK SMILES IDX 99 13 41 14 42 15 43 16 93 17 44 18 98 19 92 20 94 21 45 22
REMARK SMILES IDX 97 23 91 24 90 25 46 27 78 28 58 29 77 30 59 31 62 32 76 33
REMARK SMILES IDX 95 34 60 35 61 36 75 38 96 39 63 40 47 41 48 42 56 43 49 44
REMARK SMILES IDX 50 45 54 46 57 47 51 48 52 49 55 50 53 51 79 52 80 53 88 54
REMARK SMILES IDX 81 55 82 56 86 57 89 58 83 59 84 60 87 61 85 62 64 63 65 64
REMARK SMILES IDX 73 65 66 66 67 67 71 68 74 69 68 70 69 71 72 72 70 73 9 74
REMARK SMILES IDX 10 75 11 76 12 77 13 78 14 79 15 80 16 81 17 82 18 83 19 84
REMARK SMILES IDX 37 85 20 86 29 87 22 88 23 89 27 90 24 91 26 92 28 93 25 94
REMARK SMILES IDX 21 95 30 97 31 98 35 99 32 100 34 101 36 102 33 103
REMARK H PARENT 94 26 62 37 21 96
REMARK Flexibility Score: inf
ROOT
ATOM      1  C   UNL A   1      39.932  22.777  27.063  1.00  0.00     0.188 C 
ENDROOT
BRANCH   1   2
ATOM      2  C   UNL A   1      40.395  21.401  26.596  1.00  0.00     0.188 C 
BRANCH   2   3
ATOM      3  O   UNL A   1      40.994  20.665  27.667  1.00  0.00    -0.376 OA
BRANCH   3   4
ATOM      4  C   UNL A   1      41.871  19.612  27.264  1.00  0.00     0.202 C 
BRANCH   4   5
ATOM      5  C   UNL A   1      41.892  19.386  25.752  1.00  0.00     0.261 C 
BRANCH   5   6
ATOM      6  O   UNL A   1      43.156  18.895  25.288  1.00  0.00    -0.460 OA
BRANCH   6   7
ATOM      7  C   UNL A   1      44.099  19.545  24.562  1.00  0.00     0.338 C 
ATOM      8  O   UNL A   1      44.526  18.980  23.554  1.00  0.00    -0.246 OA
BRANCH   7   9
ATOM      9  C   UNL A   1      44.651  20.910  24.873  1.00  0.00     0.060 A 
ATOM     10  C   UNL A   1      45.525  21.245  25.913  1.00  0.00     0.016 A 
ATOM     11  C   UNL A   1      44.248  21.948  24.011  1.00  0.00     0.016 A 
ATOM     12  C   UNL A   1      45.917  22.556  26.148  1.00  0.00     0.010 A 
ATOM     13  C   UNL A   1      44.634  23.272  24.233  1.00  0.00     0.010 A 
ATOM     14  C   UNL A   1      45.429  23.578  25.340  1.00  0.00    -0.014 A 
BRANCH  14  15
ATOM     15  C   UNL A   1      45.541  24.958  25.839  1.00  0.00     0.031 A 
ATOM     16  C   UNL A   1      46.872  25.632  25.684  1.00  0.00     0.074 A 
ATOM     17  C   UNL A   1      44.457  25.616  26.278  1.00  0.00     0.049 A 
ATOM     18  N   UNL A   1      47.262  26.812  26.080  1.00  0.00    -0.248 NA
ATOM     19  C   UNL A   1      47.907  24.869  24.962  1.00  0.00     0.031 C 
ATOM     20  C   UNL A   1      43.100  25.072  26.321  1.00  0.00     0.029 A 
ATOM     21  N   UNL A   1      44.326  26.892  26.755  1.00  0.00    -0.354 N 
ATOM     22  C   UNL A   1      48.588  26.918  25.682  1.00  0.00     0.074 A 
ATOM     23  C   UNL A   1      48.943  25.688  25.017  1.00  0.00     0.031 C 
ATOM     24  C   UNL A   1      42.270  26.012  26.804  1.00  0.00     0.029 A 
ATOM     25  C   UNL A   1      43.050  27.195  27.157  1.00  0.00     0.049 A 
ATOM     26  H   UNL A   1      45.075  27.530  26.803  1.00  0.00     0.167 HD
ATOM     27  C   UNL A   1      49.433  27.957  25.870  1.00  0.00     0.037 A 
ATOM     28  C   UNL A   1      42.591  28.296  27.781  1.00  0.00     0.037 A 
ATOM     29  C   UNL A   1      49.045  29.164  26.547  1.00  0.00     0.049 A 
ATOM     30  C   UNL A   1      43.578  29.397  28.080  1.00  0.00     0.074 A 
ATOM     31  C   UNL A   1      49.813  30.266  26.868  1.00  0.00     0.029 A 
ATOM     32  N   UNL A   1      47.759  29.414  27.009  1.00  0.00    -0.354 N 
ATOM     33  N   UNL A   1      44.852  29.474  27.770  1.00  0.00    -0.248 NA
ATOM     34  C   UNL A   1      43.071  30.556  28.825  1.00  0.00     0.031 C 
ATOM     35  C   UNL A   1      49.000  31.164  27.570  1.00  0.00     0.029 A 
ATOM     36  C   UNL A   1      47.713  30.648  27.632  1.00  0.00     0.049 A 
ATOM     37  H   UNL A   1      46.993  28.804  26.908  1.00  0.00     0.167 HD
ATOM     38  C   UNL A   1      45.296  30.693  28.261  1.00  0.00     0.074 A 
ATOM     39  C   UNL A   1      44.146  31.330  28.875  1.00  0.00     0.031 C 
ATOM     40  C   UNL A   1      46.535  31.242  28.218  1.00  0.00     0.037 A 
BRANCH  27  41
ATOM     41  C   UNL A   1      50.851  27.777  25.414  1.00  0.00     0.064 A 
ATOM     42  C   UNL A   1      51.227  27.923  24.070  1.00  0.00     0.173 A 
ATOM     43  C   UNL A   1      51.841  27.395  26.333  1.00  0.00     0.173 A 
ATOM     44  F   UNL A   1      50.314  28.255  23.145  1.00  0.00    -0.203 F 
ATOM     45  C   UNL A   1      52.533  27.660  23.658  1.00  0.00     0.198 A 
ATOM     46  C   UNL A   1      53.151  27.162  25.923  1.00  0.00     0.198 A 
ATOM     47  F   UNL A   1      51.533  27.230  27.628  1.00  0.00    -0.203 F 
ATOM     48  F   UNL A   1      52.853  27.740  22.359  1.00  0.00    -0.200 F 
ATOM     49  C   UNL A   1      53.493  27.283  24.585  1.00  0.00     0.200 A 
ATOM     50  F   UNL A   1      54.077  26.799  26.821  1.00  0.00    -0.200 F 
ATOM     51  F   UNL A   1      54.745  27.019  24.185  1.00  0.00    -0.200 F 
ENDBRANCH  27  41
BRANCH  28  52
ATOM     52  C   UNL A   1      41.167  28.386  28.201  1.00  0.00     0.064 A 
ATOM     53  C   UNL A   1      40.185  28.905  27.347  1.00  0.00     0.173 A 
ATOM     54  C   UNL A   1      40.758  27.963  29.477  1.00  0.00     0.173 A 
ATOM     55  F   UNL A   1      40.522  29.344  26.125  1.00  0.00    -0.203 F 
ATOM     56  C   UNL A   1      38.855  29.013  27.757  1.00  0.00     0.198 A 
ATOM     57  C   UNL A   1      39.424  28.041  29.874  1.00  0.00     0.198 A 
ATOM     58  F   UNL A   1      41.656  27.462  30.338  1.00  0.00    -0.203 F 
ATOM     59  F   UNL A   1      37.945  29.554  26.936  1.00  0.00    -0.200 F 
ATOM     60  C   UNL A   1      38.475  28.574  29.016  1.00  0.00     0.200 A 
ATOM     61  F   UNL A   1      39.062  27.602  31.086  1.00  0.00    -0.200 F 
ATOM     62  F   UNL A   1      37.196  28.671  29.406  1.00  0.00    -0.200 F 
ENDBRANCH  28  52
BRANCH  40  63
ATOM     63  C   UNL A   1      46.695  32.609  28.813  1.00  0.00     0.064 A 
ATOM     64  C   UNL A   1      47.115  32.790  30.137  1.00  0.00     0.173 A 
ATOM     65  C   UNL A   1      46.483  33.748  28.022  1.00  0.00     0.173 A 
ATOM     66  F   UNL A   1      47.316  31.730  30.934  1.00  0.00    -0.203 F 
ATOM     67  C   UNL A   1      47.294  34.068  30.657  1.00  0.00     0.198 A 
ATOM     68  C   UNL A   1      46.696  35.022  28.536  1.00  0.00     0.198 A 
ATOM     69  F   UNL A   1      46.089  33.623  26.745  1.00  0.00    -0.203 F 
ATOM     70  F   UNL A   1      47.652  34.222  31.939  1.00  0.00    -0.200 F 
ATOM     71  C   UNL A   1      47.094  35.182  29.855  1.00  0.00     0.200 A 
ATOM     72  F   UNL A   1      46.519  36.097  27.754  1.00  0.00    -0.200 F 
ATOM     73  F   UNL A   1      47.282  36.411  30.354  1.00  0.00    -0.200 F 
ENDBRANCH  40  63
ENDBRANCH  14  15
ENDBRANCH   7   9
ENDBRANCH   6   7
ENDBRANCH   5   6
ENDBRANCH   4   5
ENDBRANCH   3   4
ENDBRANCH   2   3
ENDBRANCH   1   2
BRANCH   1  74
ATOM     74  O   UNL A   1      38.760  23.255  26.418  1.00  0.00    -0.377 OA
BRANCH  74  75
ATOM     75  C   UNL A   1      38.000  22.296  25.690  1.00  0.00     0.188 C 
BRANCH  75  76
ATOM     76  C   UNL A   1      36.723  22.777  24.962  1.00  0.00     0.188 C 
BRANCH  76  77
ATOM     77  O   UNL A   1      36.097  23.924  25.525  1.00  0.00    -0.376 OA
BRANCH  77  78
ATOM     78  C   UNL A   1      34.828  23.674  26.124  1.00  0.00     0.202 C 
BRANCH  78  79
ATOM     79  C   UNL A   1      33.681  24.451  25.469  1.00  0.00     0.261 C 
BRANCH  79  80
ATOM     80  O   UNL A   1      33.442  25.731  26.089  1.00  0.00    -0.461 OA
BRANCH  80  81
ATOM     81  C   UNL A   1      32.184  26.060  26.482  1.00  0.00     0.335 C 
ATOM     82  O   UNL A   1      31.211  25.319  26.390  1.00  0.00    -0.249 OA
BRANCH  81  83
ATOM     83  C   UNL A   1      32.196  27.452  27.161  1.00  0.00     0.232 C 
ATOM     84  C   UNL A   1      33.486  28.218  26.974  1.00  0.00     0.087 C 
ATOM     85  O   UNL A   1      31.133  28.290  26.715  1.00  0.00    -0.355 OA
ATOM     86  C   UNL A   1      33.136  29.514  26.207  1.00  0.00     0.124 C 
ATOM     87  C   UNL A   1      31.621  29.373  25.896  1.00  0.00     0.187 C 
BRANCH  86  88
ATOM     88  C   UNL A   1      33.684  30.709  27.028  1.00  0.00     0.005 A 
ATOM     89  C   UNL A   1      34.961  30.483  27.624  1.00  0.00     0.008 A 
ATOM     90  C   UNL A   1      33.103  31.964  27.301  1.00  0.00     0.047 A 
ATOM     91  C   UNL A   1      35.623  31.435  28.401  1.00  0.00     0.001 A 
ATOM     92  C   UNL A   1      33.802  32.939  28.043  1.00  0.00     0.021 A 
ATOM     93  Cl  UNL A   1      31.503  32.470  26.897  1.00  0.00    -0.084 Cl
ATOM     94  C   UNL A   1      35.051  32.679  28.591  1.00  0.00     0.002 A 
ENDBRANCH  86  88
BRANCH  86  95
ATOM     95  O   UNL A   1      33.895  29.539  24.983  1.00  0.00    -0.382 OA
ATOM     96  H   UNL A   1      34.803  29.245  25.159  1.00  0.00     0.212 HD
ENDBRANCH  86  95
BRANCH  87  97
ATOM     97  C   UNL A   1      31.080  29.178  24.474  1.00  0.00     0.003 A 
ATOM     98  C   UNL A   1      31.376  28.016  23.735  1.00  0.00     0.008 A 
ATOM     99  C   UNL A   1      30.155  30.073  23.890  1.00  0.00     0.046 A 
ATOM    100  C   UNL A   1      30.728  27.717  22.529  1.00  0.00     0.000 A 
ATOM    101  C   UNL A   1      29.519  29.779  22.673  1.00  0.00     0.021 A 
ATOM    102  Cl  UNL A   1      29.701  31.577  24.619  1.00  0.00    -0.084 Cl
ATOM    103  C   UNL A   1      29.788  28.591  22.004  1.00  0.00     0.002 A 
ENDBRANCH  87  97
ENDBRANCH  81  83
ENDBRANCH  80  81
ENDBRANCH  79  80
ENDBRANCH  78  79
ENDBRANCH  77  78
ENDBRANCH  76  77
ENDBRANCH  75  76
ENDBRANCH  74  75
ENDBRANCH   1  74
TORSDOF 23
ENDMDL
MODEL 2
REMARK VINA RESULT:      -9.3      1.857      7.417
REMARK SMILES O=C(OCCOCCOCCOCCOC(=O)[C@H]1C[C@](O)(c2ccccc2Cl)[C@@H](c2ccccc2Cl)O1)c1ccc(-c2c3nc(c(-c4c(F)c(F)c(F)c(F)c4F)c4ccc([nH]4)c(-c4c(F)c(F)c(F)c(F)c4F)c4nc(c(-c5c(F)c(F)c(F)c(F)c5F)c5ccc2[nH]5)C=C4)C=C3)cc1
REMARK SMILES IDX 8 1 7 2 6 3 5 4 4 5 3 6 2 7 1 8 38 9 39 10 100 11 40 12
REMARK SMILES IDX 99 13 41 14 42 15 43 16 93 17 44 18 98 19 92 20 94 21 45 22
REMARK SMILES IDX 97 23 91 24 90 25 46 27 78 28 58 29 77 30 59 31 62 32 76 33
REMARK SMILES IDX 95 34 60 35 61 36 75 38 96 39 63 40 47 41 48 42 56 43 49 44
REMARK SMILES IDX 50 45 54 46 57 47 51 48 52 49 55 50 53 51 79 52 80 53 88 54
REMARK SMILES IDX 81 55 82 56 86 57 89 58 83 59 84 60 87 61 85 62 64 63 65 64
REMARK SMILES IDX 73 65 66 66 67 67 71 68 74 69 68 70 69 71 72 72 70 73 9 74
REMARK SMILES IDX 10 75 11 76 12 77 13 78 14 79 15 80 16 81 17 82 18 83 19 84
REMARK SMILES IDX 37 85 20 86 29 87 22 88 23 89 27 90 24 91 26 92 28 93 25 94
REMARK SMILES IDX 21 95 30 97 31 98 35 99 32 100 34 101 36 102 33 103
REMARK H PARENT 94 26 62 37 21 96
REMARK Flexibility Score: inf
ROOT
ATOM      1  C   UNL A   1      38.985  23.178  26.571  1.00  0.00     0.188 C 
ENDROOT
BRANCH   1   2
ATOM      2  C   UNL A   1      39.576  21.788  26.362  1.00  0.00     0.188 C 
BRANCH   2   3
ATOM      3  O   UNL A   1      40.309  21.357  27.513  1.00  0.00    -0.376 OA
BRANCH   3   4
ATOM      4  C   UNL A   1      41.665  20.984  27.264  1.00  0.00     0.202 C 
BRANCH   4   5
ATOM      5  C   UNL A   1      42.140  21.331  25.853  1.00  0.00     0.261 C 
BRANCH   5   6
ATOM      6  O   UNL A   1      43.160  20.441  25.382  1.00  0.00    -0.460 OA
BRANCH   6   7
ATOM      7  C   UNL A   1      44.473  20.700  25.169  1.00  0.00     0.338 C 
ATOM      8  O   UNL A   1      45.141  19.825  24.615  1.00  0.00    -0.246 OA
BRANCH   7   9
ATOM      9  C   UNL A   1      45.180  21.978  25.535  1.00  0.00     0.060 A 
ATOM     10  C   UNL A   1      45.546  22.397  26.819  1.00  0.00     0.016 A 
ATOM     11  C   UNL A   1      45.513  22.826  24.460  1.00  0.00     0.016 A 
ATOM     12  C   UNL A   1      46.136  23.634  27.046  1.00  0.00     0.010 A 
ATOM     13  C   UNL A   1      46.107  24.072  24.672  1.00  0.00     0.010 A 
ATOM     14  C   UNL A   1      46.369  24.495  25.978  1.00  0.00    -0.014 A 
BRANCH  14  15
ATOM     15  C   UNL A   1      46.620  25.912  26.284  1.00  0.00     0.031 A 
ATOM     16  C   UNL A   1      45.469  26.706  26.825  1.00  0.00     0.074 A 
ATOM     17  C   UNL A   1      47.861  26.417  26.211  1.00  0.00     0.049 A 
ATOM     18  N   UNL A   1      45.396  27.973  27.126  1.00  0.00    -0.248 NA
ATOM     19  C   UNL A   1      44.226  25.955  27.082  1.00  0.00     0.031 C 
ATOM     20  C   UNL A   1      49.057  25.665  25.831  1.00  0.00     0.029 A 
ATOM     21  N   UNL A   1      48.322  27.679  26.471  1.00  0.00    -0.354 N 
ATOM     22  C   UNL A   1      44.097  28.175  27.576  1.00  0.00     0.074 A 
ATOM     23  C   UNL A   1      43.412  26.906  27.509  1.00  0.00     0.031 C 
ATOM     24  C   UNL A   1      50.120  26.486  25.880  1.00  0.00     0.029 A 
ATOM     25  C   UNL A   1      49.666  27.828  26.234  1.00  0.00     0.049 A 
ATOM     26  H   UNL A   1      47.746  28.408  26.796  1.00  0.00     0.167 HD
ATOM     27  C   UNL A   1      43.532  29.328  27.998  1.00  0.00     0.037 A 
ATOM     28  C   UNL A   1      50.419  28.943  26.264  1.00  0.00     0.037 A 
ATOM     29  C   UNL A   1      44.245  30.575  28.040  1.00  0.00     0.049 A 
ATOM     30  C   UNL A   1      49.740  30.239  26.630  1.00  0.00     0.074 A 
ATOM     31  C   UNL A   1      43.781  31.831  28.379  1.00  0.00     0.029 A 
ATOM     32  N   UNL A   1      45.592  30.709  27.724  1.00  0.00    -0.354 N 
ATOM     33  N   UNL A   1      48.494  30.450  26.988  1.00  0.00    -0.248 NA
ATOM     34  C   UNL A   1      50.564  31.453  26.584  1.00  0.00     0.031 C 
ATOM     35  C   UNL A   1      44.838  32.734  28.220  1.00  0.00     0.029 A 
ATOM     36  C   UNL A   1      45.975  32.033  27.842  1.00  0.00     0.049 A 
ATOM     37  H   UNL A   1      46.186  29.971  27.458  1.00  0.00     0.167 HD
ATOM     38  C   UNL A   1      48.386  31.812  27.229  1.00  0.00     0.074 A 
ATOM     39  C   UNL A   1      49.702  32.375  26.994  1.00  0.00     0.031 C 
ATOM     40  C   UNL A   1      47.305  32.539  27.607  1.00  0.00     0.037 A 
BRANCH  27  41
ATOM     41  C   UNL A   1      42.075  29.287  28.350  1.00  0.00     0.064 A 
ATOM     42  C   UNL A   1      41.069  29.320  27.371  1.00  0.00     0.173 A 
ATOM     43  C   UNL A   1      41.677  29.271  29.696  1.00  0.00     0.173 A 
ATOM     44  F   UNL A   1      41.394  29.370  26.070  1.00  0.00    -0.203 F 
ATOM     45  C   UNL A   1      39.723  29.373  27.728  1.00  0.00     0.198 A 
ATOM     46  C   UNL A   1      40.330  29.294  30.048  1.00  0.00     0.198 A 
ATOM     47  F   UNL A   1      42.597  29.250  30.671  1.00  0.00    -0.203 F 
ATOM     48  F   UNL A   1      38.782  29.473  26.778  1.00  0.00    -0.200 F 
ATOM     49  C   UNL A   1      39.354  29.357  29.065  1.00  0.00     0.200 A 
ATOM     50  F   UNL A   1      39.978  29.277  31.341  1.00  0.00    -0.200 F 
ATOM     51  F   UNL A   1      38.060  29.420  29.406  1.00  0.00    -0.200 F 
ENDBRANCH  27  41
BRANCH  28  52
ATOM     52  C   UNL A   1      51.859  28.891  25.894  1.00  0.00     0.064 A 
ATOM     53  C   UNL A   1      52.858  28.749  26.867  1.00  0.00     0.173 A 
ATOM     54  C   UNL A   1      52.269  28.993  24.554  1.00  0.00     0.173 A 
ATOM     55  F   UNL A   1      52.525  28.668  28.163  1.00  0.00    -0.203 F 
ATOM     56  C   UNL A   1      54.209  28.728  26.516  1.00  0.00     0.198 A 
ATOM     57  C   UNL A   1      53.616  28.940  24.202  1.00  0.00     0.198 A 
ATOM     58  F   UNL A   1      51.356  29.135  23.581  1.00  0.00    -0.203 F 
ATOM     59  F   UNL A   1      55.144  28.636  27.470  1.00  0.00    -0.200 F 
ATOM     60  C   UNL A   1      54.586  28.816  25.184  1.00  0.00     0.200 A 
ATOM     61  F   UNL A   1      53.972  29.010  22.913  1.00  0.00    -0.200 F 
ATOM     62  F   UNL A   1      55.883  28.788  24.848  1.00  0.00    -0.200 F 
ENDBRANCH  28  52
BRANCH  40  63
ATOM     63  C   UNL A   1      47.517  34.007  27.827  1.00  0.00     0.064 A 
ATOM     64  C   UNL A   1      47.930  34.513  29.066  1.00  0.00     0.173 A 
ATOM     65  C   UNL A   1      47.361  34.906  26.762  1.00  0.00     0.173 A 
ATOM     66  F   UNL A   1      48.078  33.691  30.116  1.00  0.00    -0.203 F 
ATOM     67  C   UNL A   1      48.158  35.875  29.238  1.00  0.00     0.198 A 
ATOM     68  C   UNL A   1      47.622  36.262  26.929  1.00  0.00     0.198 A 
ATOM     69  F   UNL A   1      46.975  34.466  25.554  1.00  0.00    -0.203 F 
ATOM     70  F   UNL A   1      48.509  36.346  30.442  1.00  0.00    -0.200 F 
ATOM     71  C   UNL A   1      48.014  36.746  28.168  1.00  0.00     0.200 A 
ATOM     72  F   UNL A   1      47.499  37.099  25.889  1.00  0.00    -0.200 F 
ATOM     73  F   UNL A   1      48.249  38.054  28.332  1.00  0.00    -0.200 F 
ENDBRANCH  40  63
ENDBRANCH  14  15
ENDBRANCH   7   9
ENDBRANCH   6   7
ENDBRANCH   5   6
ENDBRANCH   4   5
ENDBRANCH   3   4
ENDBRANCH   2   3
ENDBRANCH   1   2
BRANCH   1  74
ATOM     74  O   UNL A   1      37.726  23.384  25.948  1.00  0.00    -0.377 OA
BRANCH  74  75
ATOM     75  C   UNL A   1      36.952  22.220  25.681  1.00  0.00     0.188 C 
BRANCH  75  76
ATOM     76  C   UNL A   1      35.421  22.380  25.531  1.00  0.00     0.188 C 
BRANCH  76  77
ATOM     77  O   UNL A   1      34.833  23.398  26.333  1.00  0.00    -0.376 OA
BRANCH  77  78
ATOM     78  C   UNL A   1      34.099  22.920  27.456  1.00  0.00     0.202 C 
BRANCH  78  79
ATOM     79  C   UNL A   1      32.824  22.162  27.074  1.00  0.00     0.261 C 
BRANCH  79  80
ATOM     80  O   UNL A   1      31.930  22.941  26.253  1.00  0.00    -0.461 OA
BRANCH  80  81
ATOM     81  C   UNL A   1      30.715  23.301  26.742  1.00  0.00     0.335 C 
ATOM     82  O   UNL A   1      30.014  22.591  27.455  1.00  0.00    -0.249 OA
BRANCH  81  83
ATOM     83  C   UNL A   1      30.412  24.771  26.358  1.00  0.00     0.232 C 
ATOM     84  C   UNL A   1      31.466  25.757  26.810  1.00  0.00     0.087 C 
ATOM     85  O   UNL A   1      30.236  24.948  24.954  1.00  0.00    -0.355 OA
ATOM     86  C   UNL A   1      32.047  26.414  25.537  1.00  0.00     0.124 C 
ATOM     87  C   UNL A   1      31.337  25.674  24.371  1.00  0.00     0.187 C 
BRANCH  86  88
ATOM     88  C   UNL A   1      31.933  27.950  25.707  1.00  0.00     0.005 A 
ATOM     89  C   UNL A   1      32.513  28.458  26.907  1.00  0.00     0.008 A 
ATOM     90  C   UNL A   1      31.318  28.911  24.879  1.00  0.00     0.047 A 
ATOM     91  C   UNL A   1      32.513  29.813  27.244  1.00  0.00     0.001 A 
ATOM     92  C   UNL A   1      31.368  30.283  25.201  1.00  0.00     0.021 A 
ATOM     93  Cl  UNL A   1      30.367  28.603  23.471  1.00  0.00    -0.084 Cl
ATOM     94  C   UNL A   1      31.959  30.734  26.374  1.00  0.00     0.002 A 
ENDBRANCH  86  88
BRANCH  86  95
ATOM     95  O   UNL A   1      33.465  26.161  25.497  1.00  0.00    -0.382 OA
ATOM     96  H   UNL A   1      33.674  25.404  26.068  1.00  0.00     0.212 HD
ENDBRANCH  86  95
BRANCH  87  97
ATOM     97  C   UNL A   1      32.077  24.730  23.413  1.00  0.00     0.003 A 
ATOM     98  C   UNL A   1      31.910  23.334  23.493  1.00  0.00     0.008 A 
ATOM     99  C   UNL A   1      32.844  25.209  22.326  1.00  0.00     0.046 A 
ATOM    100  C   UNL A   1      32.402  22.470  22.506  1.00  0.00     0.000 A 
ATOM    101  C   UNL A   1      33.350  24.339  21.347  1.00  0.00     0.021 A 
ATOM    102  Cl  UNL A   1      33.202  26.886  22.084  1.00  0.00    -0.084 Cl
ATOM    103  C   UNL A   1      33.109  22.972  21.424  1.00  0.00     0.002 A 
ENDBRANCH  87  97
ENDBRANCH  81  83
ENDBRANCH  80  81
ENDBRANCH  79  80
ENDBRANCH  78  79
ENDBRANCH  77  78
ENDBRANCH  76  77
ENDBRANCH  75  76
ENDBRANCH  74  75
ENDBRANCH   1  74
TORSDOF 23
ENDMDL
MODEL 3
REMARK VINA RESULT:      -9.0      8.090     15.400
REMARK SMILES O=C(OCCOCCOCCOCCOC(=O)[C@H]1C[C@](O)(c2ccccc2Cl)[C@@H](c2ccccc2Cl)O1)c1ccc(-c2c3nc(c(-c4c(F)c(F)c(F)c(F)c4F)c4ccc([nH]4)c(-c4c(F)c(F)c(F)c(F)c4F)c4nc(c(-c5c(F)c(F)c(F)c(F)c5F)c5ccc2[nH]5)C=C4)C=C3)cc1
REMARK SMILES IDX 8 1 7 2 6 3 5 4 4 5 3 6 2 7 1 8 38 9 39 10 100 11 40 12
REMARK SMILES IDX 99 13 41 14 42 15 43 16 93 17 44 18 98 19 92 20 94 21 45 22
REMARK SMILES IDX 97 23 91 24 90 25 46 27 78 28 58 29 77 30 59 31 62 32 76 33
REMARK SMILES IDX 95 34 60 35 61 36 75 38 96 39 63 40 47 41 48 42 56 43 49 44
REMARK SMILES IDX 50 45 54 46 57 47 51 48 52 49 55 50 53 51 79 52 80 53 88 54
REMARK SMILES IDX 81 55 82 56 86 57 89 58 83 59 84 60 87 61 85 62 64 63 65 64
REMARK SMILES IDX 73 65 66 66 67 67 71 68 74 69 68 70 69 71 72 72 70 73 9 74
REMARK SMILES IDX 10 75 11 76 12 77 13 78 14 79 15 80 16 81 17 82 18 83 19 84
REMARK SMILES IDX 37 85 20 86 29 87 22 88 23 89 27 90 24 91 26 92 28 93 25 94
REMARK SMILES IDX 21 95 30 97 31 98 35 99 32 100 34 101 36 102 33 103
REMARK H PARENT 94 26 62 37 21 96
REMARK Flexibility Score: inf
ROOT
ATOM      1  C   UNL A   1      49.849  39.136  27.640  1.00  0.00     0.188 C 
ENDROOT
BRANCH   1   2
ATOM      2  C   UNL A   1      49.946  38.102  28.757  1.00  0.00     0.188 C 
BRANCH   2   3
ATOM      3  O   UNL A   1      48.657  37.579  29.092  1.00  0.00    -0.376 OA
BRANCH   3   4
ATOM      4  C   UNL A   1      48.217  37.856  30.423  1.00  0.00     0.202 C 
BRANCH   4   5
ATOM      5  C   UNL A   1      47.014  38.797  30.479  1.00  0.00     0.261 C 
BRANCH   5   6
ATOM      6  O   UNL A   1      45.802  38.166  30.045  1.00  0.00    -0.460 OA
BRANCH   6   7
ATOM      7  C   UNL A   1      45.160  37.105  30.594  1.00  0.00     0.338 C 
ATOM      8  O   UNL A   1      44.585  37.286  31.668  1.00  0.00    -0.246 OA
BRANCH   7   9
ATOM      9  C   UNL A   1      45.074  35.730  29.989  1.00  0.00     0.060 A 
ATOM     10  C   UNL A   1      44.647  35.407  28.696  1.00  0.00     0.016 A 
ATOM     11  C   UNL A   1      45.481  34.666  30.818  1.00  0.00     0.016 A 
ATOM     12  C   UNL A   1      44.543  34.090  28.266  1.00  0.00     0.010 A 
ATOM     13  C   UNL A   1      45.384  33.338  30.400  1.00  0.00     0.010 A 
ATOM     14  C   UNL A   1      44.861  33.052  29.136  1.00  0.00    -0.014 A 
BRANCH  14  15
ATOM     15  C   UNL A   1      44.378  31.704  28.798  1.00  0.00     0.031 A 
ATOM     16  C   UNL A   1      43.001  31.338  29.265  1.00  0.00     0.074 A 
ATOM     17  C   UNL A   1      45.090  30.906  27.989  1.00  0.00     0.049 A 
ATOM     18  N   UNL A   1      42.354  30.211  29.156  1.00  0.00    -0.248 NA
ATOM     19  C   UNL A   1      42.237  32.405  29.938  1.00  0.00     0.031 C 
ATOM     20  C   UNL A   1      46.374  31.252  27.377  1.00  0.00     0.029 A 
ATOM     21  N   UNL A   1      44.826  29.644  27.528  1.00  0.00    -0.354 N 
ATOM     22  C   UNL A   1      41.126  30.425  29.769  1.00  0.00     0.074 A 
ATOM     23  C   UNL A   1      41.113  31.785  30.252  1.00  0.00     0.031 C 
ATOM     24  C   UNL A   1      46.787  30.221  26.621  1.00  0.00     0.029 A 
ATOM     25  C   UNL A   1      45.828  29.127  26.748  1.00  0.00     0.049 A 
ATOM     26  H   UNL A   1      43.996  29.156  27.737  1.00  0.00     0.167 HD
ATOM     27  C   UNL A   1      40.106  29.550  29.919  1.00  0.00     0.037 A 
ATOM     28  C   UNL A   1      45.959  27.889  26.236  1.00  0.00     0.037 A 
ATOM     29  C   UNL A   1      40.161  28.200  29.432  1.00  0.00     0.049 A 
ATOM     30  C   UNL A   1      44.858  26.895  26.512  1.00  0.00     0.074 A 
ATOM     31  C   UNL A   1      39.233  27.187  29.573  1.00  0.00     0.029 A 
ATOM     32  N   UNL A   1      41.224  27.680  28.704  1.00  0.00    -0.354 N 
ATOM     33  N   UNL A   1      43.725  27.070  27.153  1.00  0.00    -0.248 NA
ATOM     34  C   UNL A   1      45.056  25.531  26.007  1.00  0.00     0.031 C 
ATOM     35  C   UNL A   1      39.759  26.038  28.970  1.00  0.00     0.029 A 
ATOM     36  C   UNL A   1      40.985  26.352  28.402  1.00  0.00     0.049 A 
ATOM     37  H   UNL A   1      42.028  28.183  28.441  1.00  0.00     0.167 HD
ATOM     38  C   UNL A   1      43.066  25.851  27.113  1.00  0.00     0.074 A 
ATOM     39  C   UNL A   1      43.921  24.947  26.367  1.00  0.00     0.031 C 
ATOM     40  C   UNL A   1      41.868  25.499  27.643  1.00  0.00     0.037 A 
BRANCH  27  41
ATOM     41  C   UNL A   1      38.916  30.016  30.704  1.00  0.00     0.064 A 
ATOM     42  C   UNL A   1      37.809  30.626  30.091  1.00  0.00     0.173 A 
ATOM     43  C   UNL A   1      38.907  29.900  32.102  1.00  0.00     0.173 A 
ATOM     44  F   UNL A   1      37.781  30.792  28.760  1.00  0.00    -0.203 F 
ATOM     45  C   UNL A   1      36.757  31.132  30.852  1.00  0.00     0.198 A 
ATOM     46  C   UNL A   1      37.840  30.381  32.857  1.00  0.00     0.198 A 
ATOM     47  F   UNL A   1      39.943  29.335  32.740  1.00  0.00    -0.203 F 
ATOM     48  F   UNL A   1      35.744  31.772  30.251  1.00  0.00    -0.200 F 
ATOM     49  C   UNL A   1      36.772  31.007  32.234  1.00  0.00     0.200 A 
ATOM     50  F   UNL A   1      37.857  30.256  34.191  1.00  0.00    -0.200 F 
ATOM     51  F   UNL A   1      35.765  31.505  32.964  1.00  0.00    -0.200 F 
ENDBRANCH  27  41
BRANCH  28  52
ATOM     52  C   UNL A   1      47.179  27.513  25.473  1.00  0.00     0.064 A 
ATOM     53  C   UNL A   1      47.264  27.712  24.088  1.00  0.00     0.173 A 
ATOM     54  C   UNL A   1      48.287  26.934  26.113  1.00  0.00     0.173 A 
ATOM     55  F   UNL A   1      46.228  28.242  23.422  1.00  0.00    -0.203 F 
ATOM     56  C   UNL A   1      48.401  27.333  23.372  1.00  0.00     0.198 A 
ATOM     57  C   UNL A   1      49.434  26.584  25.403  1.00  0.00     0.198 A 
ATOM     58  F   UNL A   1      48.260  26.715  27.436  1.00  0.00    -0.203 F 
ATOM     59  F   UNL A   1      48.437  27.494  22.044  1.00  0.00    -0.200 F 
ATOM     60  C   UNL A   1      49.487  26.777  24.032  1.00  0.00     0.200 A 
ATOM     61  F   UNL A   1      50.485  26.062  26.048  1.00  0.00    -0.200 F 
ATOM     62  F   UNL A   1      50.581  26.419  23.344  1.00  0.00    -0.200 F 
ENDBRANCH  28  52
BRANCH  40  63
ATOM     63  C   UNL A   1      41.401  24.095  27.397  1.00  0.00     0.064 A 
ATOM     64  C   UNL A   1      42.009  22.998  28.020  1.00  0.00     0.173 A 
ATOM     65  C   UNL A   1      40.291  23.858  26.573  1.00  0.00     0.173 A 
ATOM     66  F   UNL A   1      43.083  23.176  28.805  1.00  0.00    -0.203 F 
ATOM     67  C   UNL A   1      41.536  21.707  27.808  1.00  0.00     0.198 A 
ATOM     68  C   UNL A   1      39.800  22.571  26.391  1.00  0.00     0.198 A 
ATOM     69  F   UNL A   1      39.670  24.880  25.962  1.00  0.00    -0.203 F 
ATOM     70  F   UNL A   1      42.159  20.666  28.377  1.00  0.00    -0.200 F 
ATOM     71  C   UNL A   1      40.427  21.495  27.002  1.00  0.00     0.200 A 
ATOM     72  F   UNL A   1      38.717  22.370  25.626  1.00  0.00    -0.200 F 
ATOM     73  F   UNL A   1      39.964  20.253  26.812  1.00  0.00    -0.200 F 
ENDBRANCH  40  63
ENDBRANCH  14  15
ENDBRANCH   7   9
ENDBRANCH   6   7
ENDBRANCH   5   6
ENDBRANCH   4   5
ENDBRANCH   3   4
ENDBRANCH   2   3
ENDBRANCH   1   2
BRANCH   1  74
ATOM     74  O   UNL A   1      49.498  40.441  28.074  1.00  0.00    -0.377 OA
BRANCH  74  75
ATOM     75  C   UNL A   1      48.245  40.945  27.623  1.00  0.00     0.188 C 
BRANCH  75  76
ATOM     76  C   UNL A   1      47.525  41.999  28.497  1.00  0.00     0.188 C 
BRANCH  76  77
ATOM     77  O   UNL A   1      46.970  43.101  27.788  1.00  0.00    -0.376 OA
BRANCH  77  78
ATOM     78  C   UNL A   1      47.576  44.358  28.075  1.00  0.00     0.202 C 
BRANCH  78  79
ATOM     79  C   UNL A   1      47.326  45.416  26.997  1.00  0.00     0.261 C 
BRANCH  79  80
ATOM     80  O   UNL A   1      46.425  44.966  25.963  1.00  0.00    -0.461 OA
BRANCH  80  81
ATOM     81  C   UNL A   1      46.913  44.688  24.726  1.00  0.00     0.335 C 
ATOM     82  O   UNL A   1      47.922  44.025  24.509  1.00  0.00    -0.249 OA
BRANCH  81  83
ATOM     83  C   UNL A   1      45.944  45.234  23.648  1.00  0.00     0.232 C 
ATOM     84  C   UNL A   1      46.151  44.640  22.273  1.00  0.00     0.087 C 
ATOM     85  O   UNL A   1      44.574  45.044  23.993  1.00  0.00    -0.355 OA
ATOM     86  C   UNL A   1      44.843  43.911  21.893  1.00  0.00     0.124 C 
ATOM     87  C   UNL A   1      43.952  44.047  23.158  1.00  0.00     0.187 C 
BRANCH  86  88
ATOM     88  C   UNL A   1      44.383  44.457  20.518  1.00  0.00     0.005 A 
ATOM     89  C   UNL A   1      45.027  45.664  20.114  1.00  0.00     0.008 A 
ATOM     90  C   UNL A   1      43.406  43.965  19.627  1.00  0.00     0.047 A 
ATOM     91  C   UNL A   1      44.751  46.313  18.909  1.00  0.00     0.001 A 
ATOM     92  C   UNL A   1      43.171  44.599  18.389  1.00  0.00     0.021 A 
ATOM     93  Cl  UNL A   1      42.321  42.652  19.908  1.00  0.00    -0.084 Cl
ATOM     94  C   UNL A   1      43.835  45.765  18.031  1.00  0.00     0.002 A 
ENDBRANCH  86  88
BRANCH  86  95
ATOM     95  O   UNL A   1      45.147  42.524  21.646  1.00  0.00    -0.382 OA
ATOM     96  H   UNL A   1      46.093  42.431  21.447  1.00  0.00     0.212 HD
ENDBRANCH  86  95
BRANCH  87  97
ATOM     97  C   UNL A   1      43.577  42.850  24.042  1.00  0.00     0.003 A 
ATOM     98  C   UNL A   1      44.473  42.346  25.004  1.00  0.00     0.008 A 
ATOM     99  C   UNL A   1      42.279  42.288  24.037  1.00  0.00     0.046 A 
ATOM    100  C   UNL A   1      44.081  41.401  25.962  1.00  0.00     0.000 A 
ATOM    101  C   UNL A   1      41.894  41.328  24.988  1.00  0.00     0.021 A 
ATOM    102  Cl  UNL A   1      41.054  42.738  22.901  1.00  0.00    -0.084 Cl
ATOM    103  C   UNL A   1      42.787  40.902  25.964  1.00  0.00     0.002 A 
ENDBRANCH  87  97
ENDBRANCH  81  83
ENDBRANCH  80  81
ENDBRANCH  79  80
ENDBRANCH  78  79
ENDBRANCH  77  78
ENDBRANCH  76  77
ENDBRANCH  75  76
ENDBRANCH  74  75
ENDBRANCH   1  74
TORSDOF 23
ENDMDL
