MODEL 1
REMARK VINA RESULT:     -10.7      0.000      0.000
REMARK SMILES COc1cc([C@H]2c3c(-c4ccccc4)n[nH]c3C(=O)N2c2ccc(C(=O)OCCOCCOCCOCCOC(=O)c3ccc(-c4c5nc(c(-c6c(F)c(F)c(F)c(F)c6F)c6ccc([nH]6)c(-c6c(F)c(F)c(F)c(F)c6F)c6nc(c(-c7c(F)c(F)c(F)c(F)c7F)c7ccc4[nH]7)C=C6)C=C5)cc3)cc2)ccc1O
REMARK SMILES IDX 32 1 31 2 30 3 29 4 28 5 27 6 25 7 26 8 24 9 21 10 22 11
REMARK SMILES IDX 106 12 23 13 105 14 20 15 6 16 7 17 8 18 17 19 18 20 15 21
REMARK SMILES IDX 16 22 19 23 5 25 3 26 4 27 109 28 108 29 107 30 2 31 1 32
REMARK SMILES IDX 110 33 9 35 10 36 14 37 11 38 13 39 12 40 33 41 34 42 35 43
REMARK SMILES IDX 36 44 37 45 38 46 39 47 40 48 41 49 42 50 43 51 104 52 44 53
REMARK SMILES IDX 103 54 45 55 46 56 47 57 97 58 48 59 102 60 96 61 98 62
REMARK SMILES IDX 49 63 101 64 95 65 94 66 50 68 82 69 62 70 81 71 63 72 66 73
REMARK SMILES IDX 80 74 99 75 64 76 65 77 79 79 100 80 67 81 51 82 52 83 60 84
REMARK SMILES IDX 53 85 54 86 58 87 61 88 55 89 56 90 59 91 57 92 83 93 84 94
REMARK SMILES IDX 92 95 85 96 86 97 90 98 93 99 87 100 88 101 91 102 89 103
REMARK SMILES IDX 68 104 69 105 77 106 70 107 71 108 75 109 78 110 72 111
REMARK SMILES IDX 73 112 76 113 74 114
REMARK H PARENT 16 24 110 34 98 67 66 78
REMARK Flexibility Score: inf
ROOT
ATOM      1  C   UNL A   1      38.866  31.312  31.943  1.00  0.00     0.188 C 
ENDROOT
BRANCH   1   2
ATOM      2  C   UNL A   1      37.802  31.692  30.890  1.00  0.00     0.188 C 
BRANCH   2   3
ATOM      3  O   UNL A   1      36.555  32.171  31.323  1.00  0.00    -0.376 OA
BRANCH   3   4
ATOM      4  C   UNL A   1      35.821  33.173  30.656  1.00  0.00     0.202 C 
BRANCH   4   5
ATOM      5  C   UNL A   1      34.477  32.965  29.940  1.00  0.00     0.261 C 
BRANCH   5   6
ATOM      6  O   UNL A   1      34.416  31.995  28.893  1.00  0.00    -0.460 OA
BRANCH   6   7
ATOM      7  C   UNL A   1      33.466  32.219  27.954  1.00  0.00     0.338 C 
ATOM      8  O   UNL A   1      32.933  33.287  27.701  1.00  0.00    -0.246 OA
BRANCH   7   9
ATOM      9  C   UNL A   1      33.307  31.014  27.103  1.00  0.00     0.060 A 
ATOM     10  C   UNL A   1      33.193  28.824  25.372  1.00  0.00     0.045 A 
ATOM     11  C   UNL A   1      34.288  28.969  26.223  1.00  0.00     0.027 A 
ATOM     12  C   UNL A   1      32.108  29.707  25.477  1.00  0.00     0.027 A 
ATOM     13  C   UNL A   1      34.362  30.088  27.056  1.00  0.00     0.018 A 
ATOM     14  C   UNL A   1      32.145  30.782  26.369  1.00  0.00     0.018 A 
BRANCH  10  15
ATOM     15  N   UNL A   1      33.236  27.893  24.318  1.00  0.00    -0.295 N 
ATOM     16  C   UNL A   1      33.281  26.429  24.620  1.00  0.00     0.156 C 
ATOM     17  C   UNL A   1      33.281  25.887  23.246  1.00  0.00     0.038 A 
ATOM     18  C   UNL A   1      33.368  24.705  22.500  1.00  0.00     0.099 A 
ATOM     19  C   UNL A   1      33.175  26.901  22.338  1.00  0.00     0.129 A 
ATOM     20  C   UNL A   1      33.077  28.173  22.952  1.00  0.00     0.277 C 
ATOM     21  N   UNL A   1      33.361  24.998  21.179  1.00  0.00    -0.174 NA
ATOM     22  N   UNL A   1      33.215  26.348  21.113  1.00  0.00    -0.272 N 
ATOM     23  O   UNL A   1      32.926  29.256  22.391  1.00  0.00    -0.267 OA
ATOM     24  H   UNL A   1      33.147  26.857  20.274  1.00  0.00     0.190 HD
BRANCH  16  25
ATOM     25  C   UNL A   1      32.021  25.920  25.303  1.00  0.00    -0.016 A 
ATOM     26  C   UNL A   1      30.995  24.307  26.858  1.00  0.00     0.160 A 
ATOM     27  C   UNL A   1      32.117  24.840  26.199  1.00  0.00     0.056 A 
ATOM     28  C   UNL A   1      29.748  24.882  26.612  1.00  0.00     0.157 A 
ATOM     29  C   UNL A   1      29.624  25.948  25.719  1.00  0.00     0.050 A 
ATOM     30  C   UNL A   1      30.749  26.475  25.083  1.00  0.00     0.010 A 
BRANCH  26  31
ATOM     31  O   UNL A   1      31.325  23.236  27.639  1.00  0.00    -0.493 OA
ATOM     32  C   UNL A   1      32.520  22.510  27.417  1.00  0.00     0.278 C 
ENDBRANCH  26  31
BRANCH  28  33
ATOM     33  O   UNL A   1      28.577  24.482  27.189  1.00  0.00    -0.504 OA
ATOM     34  H   UNL A   1      27.762  24.659  26.763  1.00  0.00     0.293 HD
ENDBRANCH  28  33
ENDBRANCH  16  25
BRANCH  18  35
ATOM     35  C   UNL A   1      33.469  23.336  22.987  1.00  0.00     0.002 A 
ATOM     36  C   UNL A   1      34.553  22.946  23.783  1.00  0.00     0.010 A 
ATOM     37  C   UNL A   1      32.482  22.394  22.671  1.00  0.00     0.010 A 
ATOM     38  C   UNL A   1      34.629  21.640  24.277  1.00  0.00     0.001 A 
ATOM     39  C   UNL A   1      32.557  21.092  23.168  1.00  0.00     0.001 A 
ATOM     40  C   UNL A   1      33.628  20.717  23.975  1.00  0.00     0.000 A 
ENDBRANCH  18  35
ENDBRANCH  10  15
ENDBRANCH   7   9
ENDBRANCH   6   7
ENDBRANCH   5   6
ENDBRANCH   4   5
ENDBRANCH   3   4
ENDBRANCH   2   3
ENDBRANCH   1   2
BRANCH   1  41
ATOM     41  O   UNL A   1      39.190  32.129  33.044  1.00  0.00    -0.377 OA
BRANCH  41  42
ATOM     42  C   UNL A   1      39.784  33.396  32.881  1.00  0.00     0.188 C 
BRANCH  42  43
ATOM     43  C   UNL A   1      40.530  33.872  31.612  1.00  0.00     0.188 C 
BRANCH  43  44
ATOM     44  O   UNL A   1      39.916  34.616  30.582  1.00  0.00    -0.376 OA
BRANCH  44  45
ATOM     45  C   UNL A   1      40.382  34.851  29.270  1.00  0.00     0.202 C 
BRANCH  45  46
ATOM     46  C   UNL A   1      41.690  35.534  28.912  1.00  0.00     0.261 C 
BRANCH  46  47
ATOM     47  O   UNL A   1      42.761  34.653  28.701  1.00  0.00    -0.460 OA
BRANCH  47  48
ATOM     48  C   UNL A   1      43.273  34.739  27.459  1.00  0.00     0.338 C 
ATOM     49  O   UNL A   1      42.844  35.379  26.515  1.00  0.00    -0.246 OA
BRANCH  48  50
ATOM     50  C   UNL A   1      44.398  33.806  27.391  1.00  0.00     0.060 A 
ATOM     51  C   UNL A   1      44.312  32.820  26.418  1.00  0.00     0.016 A 
ATOM     52  C   UNL A   1      45.089  33.601  28.583  1.00  0.00     0.016 A 
ATOM     53  C   UNL A   1      44.452  31.518  26.846  1.00  0.00     0.010 A 
ATOM     54  C   UNL A   1      45.308  32.309  28.964  1.00  0.00     0.010 A 
ATOM     55  C   UNL A   1      44.780  31.277  28.190  1.00  0.00    -0.014 A 
BRANCH  55  56
ATOM     56  C   UNL A   1      44.976  29.919  28.690  1.00  0.00     0.031 A 
ATOM     57  C   UNL A   1      46.099  29.363  27.883  1.00  0.00     0.074 A 
ATOM     58  C   UNL A   1      44.317  29.353  29.742  1.00  0.00     0.049 A 
ATOM     59  N   UNL A   1      45.961  28.656  26.807  1.00  0.00    -0.248 NA
ATOM     60  C   UNL A   1      47.451  29.963  27.991  1.00  0.00     0.031 C 
ATOM     61  C   UNL A   1      43.282  29.922  30.622  1.00  0.00     0.029 A 
ATOM     62  N   UNL A   1      44.474  28.092  30.293  1.00  0.00    -0.354 N 
ATOM     63  C   UNL A   1      47.261  28.433  26.364  1.00  0.00     0.074 A 
ATOM     64  C   UNL A   1      48.029  29.526  26.868  1.00  0.00     0.031 C 
ATOM     65  C   UNL A   1      43.117  29.146  31.727  1.00  0.00     0.029 A 
ATOM     66  C   UNL A   1      43.926  27.950  31.599  1.00  0.00     0.049 A 
ATOM     67  H   UNL A   1      44.926  27.356  29.823  1.00  0.00     0.167 HD
ATOM     68  C   UNL A   1      47.649  27.146  26.145  1.00  0.00     0.037 A 
ATOM     69  C   UNL A   1      44.123  26.900  32.464  1.00  0.00     0.037 A 
ATOM     70  C   UNL A   1      46.463  26.334  25.951  1.00  0.00     0.049 A 
ATOM     71  C   UNL A   1      44.579  25.755  31.635  1.00  0.00     0.074 A 
ATOM     72  C   UNL A   1      45.395  26.313  25.076  1.00  0.00     0.029 A 
ATOM     73  N   UNL A   1      46.039  25.721  27.095  1.00  0.00    -0.354 N 
ATOM     74  N   UNL A   1      43.815  25.181  30.748  1.00  0.00    -0.248 NA
ATOM     75  C   UNL A   1      46.010  25.694  31.396  1.00  0.00     0.031 C 
ATOM     76  C   UNL A   1      44.258  25.941  25.862  1.00  0.00     0.029 A 
ATOM     77  C   UNL A   1      44.686  25.605  27.145  1.00  0.00     0.049 A 
ATOM     78  H   UNL A   1      46.644  25.399  27.802  1.00  0.00     0.167 HD
ATOM     79  C   UNL A   1      44.598  25.169  29.605  1.00  0.00     0.074 A 
ATOM     80  C   UNL A   1      45.957  25.470  30.080  1.00  0.00     0.031 C 
ATOM     81  C   UNL A   1      44.010  25.256  28.371  1.00  0.00     0.037 A 
BRANCH  68  82
ATOM     82  C   UNL A   1      48.926  26.540  26.749  1.00  0.00     0.064 A 
ATOM     83  C   UNL A   1      49.111  26.666  28.142  1.00  0.00     0.173 A 
ATOM     84  C   UNL A   1      50.088  26.139  26.041  1.00  0.00     0.173 A 
ATOM     85  F   UNL A   1      48.096  27.056  28.928  1.00  0.00    -0.203 F 
ATOM     86  C   UNL A   1      50.360  26.495  28.752  1.00  0.00     0.198 A 
ATOM     87  C   UNL A   1      51.322  25.932  26.658  1.00  0.00     0.198 A 
ATOM     88  F   UNL A   1      50.138  26.008  24.715  1.00  0.00    -0.203 F 
ATOM     89  F   UNL A   1      50.499  26.745  30.060  1.00  0.00    -0.200 F 
ATOM     90  C   UNL A   1      51.466  26.134  28.008  1.00  0.00     0.200 A 
ATOM     91  F   UNL A   1      52.384  25.610  25.906  1.00  0.00    -0.200 F 
ATOM     92  F   UNL A   1      52.672  26.018  28.579  1.00  0.00    -0.200 F 
ENDBRANCH  68  82
BRANCH  69  93
ATOM     93  C   UNL A   1      44.341  26.869  33.949  1.00  0.00     0.064 A 
ATOM     94  C   UNL A   1      43.556  26.076  34.825  1.00  0.00     0.173 A 
ATOM     95  C   UNL A   1      45.540  27.355  34.494  1.00  0.00     0.173 A 
ATOM     96  F   UNL A   1      42.420  25.507  34.392  1.00  0.00    -0.203 F 
ATOM     97  C   UNL A   1      43.963  25.784  36.141  1.00  0.00     0.198 A 
ATOM     98  C   UNL A   1      45.949  27.056  35.799  1.00  0.00     0.198 A 
ATOM     99  F   UNL A   1      46.396  28.048  33.731  1.00  0.00    -0.203 F 
ATOM    100  F   UNL A   1      43.217  24.986  36.921  1.00  0.00    -0.200 F 
ATOM    101  C   UNL A   1      45.168  26.263  36.620  1.00  0.00     0.200 A 
ATOM    102  F   UNL A   1      47.142  27.487  36.232  1.00  0.00    -0.200 F 
ATOM    103  F   UNL A   1      45.598  25.931  37.846  1.00  0.00    -0.200 F 
ENDBRANCH  69  93
BRANCH  81 104
ATOM    104  C   UNL A   1      42.526  25.037  28.283  1.00  0.00     0.064 A 
ATOM    105  C   UNL A   1      41.548  26.048  28.320  1.00  0.00     0.173 A 
ATOM    106  C   UNL A   1      42.093  23.731  28.026  1.00  0.00     0.173 A 
ATOM    107  F   UNL A   1      41.893  27.336  28.456  1.00  0.00    -0.203 F 
ATOM    108  C   UNL A   1      40.194  25.742  28.161  1.00  0.00     0.198 A 
ATOM    109  C   UNL A   1      40.750  23.435  27.831  1.00  0.00     0.198 A 
ATOM    110  F   UNL A   1      42.991  22.739  27.915  1.00  0.00    -0.203 F 
ATOM    111  F   UNL A   1      39.271  26.715  28.213  1.00  0.00    -0.200 F 
ATOM    112  C   UNL A   1      39.799  24.436  27.917  1.00  0.00     0.200 A 
ATOM    113  F   UNL A   1      40.386  22.180  27.534  1.00  0.00    -0.200 F 
ATOM    114  F   UNL A   1      38.502  24.142  27.741  1.00  0.00    -0.200 F 
ENDBRANCH  81 104
ENDBRANCH  55  56
ENDBRANCH  48  50
ENDBRANCH  47  48
ENDBRANCH  46  47
ENDBRANCH  45  46
ENDBRANCH  44  45
ENDBRANCH  43  44
ENDBRANCH  42  43
ENDBRANCH  41  42
ENDBRANCH   1  41
TORSDOF 25
ENDMDL
MODEL 2
REMARK VINA RESULT:     -10.0      3.931      8.801
REMARK SMILES COc1cc([C@H]2c3c(-c4ccccc4)n[nH]c3C(=O)N2c2ccc(C(=O)OCCOCCOCCOCCOC(=O)c3ccc(-c4c5nc(c(-c6c(F)c(F)c(F)c(F)c6F)c6ccc([nH]6)c(-c6c(F)c(F)c(F)c(F)c6F)c6nc(c(-c7c(F)c(F)c(F)c(F)c7F)c7ccc4[nH]7)C=C6)C=C5)cc3)cc2)ccc1O
REMARK SMILES IDX 32 1 31 2 30 3 29 4 28 5 27 6 25 7 26 8 24 9 21 10 22 11
REMARK SMILES IDX 106 12 23 13 105 14 20 15 6 16 7 17 8 18 17 19 18 20 15 21
REMARK SMILES IDX 16 22 19 23 5 25 3 26 4 27 109 28 108 29 107 30 2 31 1 32
REMARK SMILES IDX 110 33 9 35 10 36 14 37 11 38 13 39 12 40 33 41 34 42 35 43
REMARK SMILES IDX 36 44 37 45 38 46 39 47 40 48 41 49 42 50 43 51 104 52 44 53
REMARK SMILES IDX 103 54 45 55 46 56 47 57 97 58 48 59 102 60 96 61 98 62
REMARK SMILES IDX 49 63 101 64 95 65 94 66 50 68 82 69 62 70 81 71 63 72 66 73
REMARK SMILES IDX 80 74 99 75 64 76 65 77 79 79 100 80 67 81 51 82 52 83 60 84
REMARK SMILES IDX 53 85 54 86 58 87 61 88 55 89 56 90 59 91 57 92 83 93 84 94
REMARK SMILES IDX 92 95 85 96 86 97 90 98 93 99 87 100 88 101 91 102 89 103
REMARK SMILES IDX 68 104 69 105 77 106 70 107 71 108 75 109 78 110 72 111
REMARK SMILES IDX 73 112 76 113 74 114
REMARK H PARENT 16 24 110 34 98 67 66 78
REMARK Flexibility Score: inf
ROOT
ATOM      1  C   UNL A   1      40.152  26.780  27.151  1.00  0.00     0.188 C 
ENDROOT
BRANCH   1   2
ATOM      2  C   UNL A   1      40.669  25.890  28.303  1.00  0.00     0.188 C 
BRANCH   2   3
ATOM      3  O   UNL A   1      41.859  25.168  28.124  1.00  0.00    -0.376 OA
BRANCH   3   4
ATOM      4  C   UNL A   1      41.907  23.806  27.762  1.00  0.00     0.202 C 
BRANCH   4   5
ATOM      5  C   UNL A   1      41.030  23.137  26.691  1.00  0.00     0.261 C 
BRANCH   5   6
ATOM      6  O   UNL A   1      39.714  22.723  27.064  1.00  0.00    -0.460 OA
BRANCH   6   7
ATOM      7  C   UNL A   1      39.085  21.928  26.166  1.00  0.00     0.338 C 
ATOM      8  O   UNL A   1      39.505  20.880  25.704  1.00  0.00    -0.246 OA
BRANCH   7   9
ATOM      9  C   UNL A   1      37.690  22.395  25.972  1.00  0.00     0.060 A 
ATOM     10  C   UNL A   1      35.076  23.371  25.825  1.00  0.00     0.045 A 
ATOM     11  C   UNL A   1      36.143  24.268  25.848  1.00  0.00     0.027 A 
ATOM     12  C   UNL A   1      35.327  21.992  25.754  1.00  0.00     0.027 A 
ATOM     13  C   UNL A   1      37.446  23.777  25.966  1.00  0.00     0.018 A 
ATOM     14  C   UNL A   1      36.636  21.501  25.789  1.00  0.00     0.018 A 
BRANCH  10  15
ATOM     15  N   UNL A   1      33.761  23.831  26.019  1.00  0.00    -0.295 N 
ATOM     16  C   UNL A   1      33.268  25.019  25.256  1.00  0.00     0.156 C 
ATOM     17  C   UNL A   1      31.882  25.085  25.760  1.00  0.00     0.038 A 
ATOM     18  C   UNL A   1      30.699  25.835  25.712  1.00  0.00     0.099 A 
ATOM     19  C   UNL A   1      31.636  24.045  26.609  1.00  0.00     0.129 A 
ATOM     20  C   UNL A   1      32.755  23.190  26.759  1.00  0.00     0.277 C 
ATOM     21  N   UNL A   1      29.781  25.290  26.543  1.00  0.00    -0.174 NA
ATOM     22  N   UNL A   1      30.376  24.182  27.057  1.00  0.00    -0.272 N 
ATOM     23  O   UNL A   1      32.812  22.155  27.420  1.00  0.00    -0.267 OA
ATOM     24  H   UNL A   1      29.939  23.557  27.679  1.00  0.00     0.190 HD
BRANCH  16  25
ATOM     25  C   UNL A   1      33.190  24.776  23.757  1.00  0.00    -0.016 A 
ATOM     26  C   UNL A   1      32.824  23.178  21.916  1.00  0.00     0.160 A 
ATOM     27  C   UNL A   1      32.900  23.483  23.287  1.00  0.00     0.056 A 
ATOM     28  C   UNL A   1      33.038  24.207  20.998  1.00  0.00     0.157 A 
ATOM     29  C   UNL A   1      33.337  25.498  21.438  1.00  0.00     0.050 A 
ATOM     30  C   UNL A   1      33.396  25.786  22.802  1.00  0.00     0.010 A 
BRANCH  26  31
ATOM     31  O   UNL A   1      32.579  21.853  21.702  1.00  0.00    -0.493 OA
ATOM     32  C   UNL A   1      32.194  21.000  22.764  1.00  0.00     0.278 C 
ENDBRANCH  26  31
BRANCH  28  33
ATOM     33  O   UNL A   1      32.981  24.066  19.642  1.00  0.00    -0.504 OA
ATOM     34  H   UNL A   1      32.291  24.475  19.157  1.00  0.00     0.293 HD
ENDBRANCH  28  33
ENDBRANCH  16  25
BRANCH  18  35
ATOM     35  C   UNL A   1      30.421  27.032  24.932  1.00  0.00     0.002 A 
ATOM     36  C   UNL A   1      31.175  28.196  25.127  1.00  0.00     0.010 A 
ATOM     37  C   UNL A   1      29.400  27.035  23.972  1.00  0.00     0.010 A 
ATOM     38  C   UNL A   1      30.928  29.333  24.352  1.00  0.00     0.001 A 
ATOM     39  C   UNL A   1      29.158  28.170  23.196  1.00  0.00     0.001 A 
ATOM     40  C   UNL A   1      29.924  29.317  23.383  1.00  0.00     0.000 A 
ENDBRANCH  18  35
ENDBRANCH  10  15
ENDBRANCH   7   9
ENDBRANCH   6   7
ENDBRANCH   5   6
ENDBRANCH   4   5
ENDBRANCH   3   4
ENDBRANCH   2   3
ENDBRANCH   1   2
BRANCH   1  41
ATOM     41  O   UNL A   1      40.019  28.179  27.253  1.00  0.00    -0.377 OA
BRANCH  41  42
ATOM     42  C   UNL A   1      39.554  28.798  28.431  1.00  0.00     0.188 C 
BRANCH  42  43
ATOM     43  C   UNL A   1      38.145  28.603  29.041  1.00  0.00     0.188 C 
BRANCH  43  44
ATOM     44  O   UNL A   1      37.001  29.297  28.593  1.00  0.00    -0.376 OA
BRANCH  44  45
ATOM     45  C   UNL A   1      36.918  30.602  28.061  1.00  0.00     0.202 C 
BRANCH  45  46
ATOM     46  C   UNL A   1      35.999  31.699  28.569  1.00  0.00     0.261 C 
BRANCH  46  47
ATOM     47  O   UNL A   1      35.582  31.532  29.898  1.00  0.00    -0.460 OA
BRANCH  47  48
ATOM     48  C   UNL A   1      34.980  32.626  30.400  1.00  0.00     0.338 C 
ATOM     49  O   UNL A   1      34.008  33.215  29.959  1.00  0.00    -0.246 OA
BRANCH  48  50
ATOM     50  C   UNL A   1      35.790  33.084  31.530  1.00  0.00     0.060 A 
ATOM     51  C   UNL A   1      36.752  34.040  31.240  1.00  0.00     0.016 A 
ATOM     52  C   UNL A   1      35.954  32.169  32.567  1.00  0.00     0.016 A 
ATOM     53  C   UNL A   1      38.044  33.751  31.621  1.00  0.00     0.010 A 
ATOM     54  C   UNL A   1      37.227  31.946  33.007  1.00  0.00     0.010 A 
ATOM     55  C   UNL A   1      38.287  32.584  32.364  1.00  0.00    -0.014 A 
BRANCH  55  56
ATOM     56  C   UNL A   1      39.630  32.245  32.826  1.00  0.00     0.031 A 
ATOM     57  C   UNL A   1      40.137  33.479  33.491  1.00  0.00     0.074 A 
ATOM     58  C   UNL A   1      40.219  31.018  32.735  1.00  0.00     0.049 A 
ATOM     59  N   UNL A   1      40.858  34.389  32.917  1.00  0.00    -0.248 NA
ATOM     60  C   UNL A   1      39.474  33.979  34.718  1.00  0.00     0.031 C 
ATOM     61  C   UNL A   1      39.693  29.759  32.180  1.00  0.00     0.029 A 
ATOM     62  N   UNL A   1      41.467  30.614  33.180  1.00  0.00    -0.354 N 
ATOM     63  C   UNL A   1      41.022  35.371  33.888  1.00  0.00     0.074 A 
ATOM     64  C   UNL A   1      39.891  35.249  34.750  1.00  0.00     0.031 C 
ATOM     65  C   UNL A   1      40.468  28.709  32.565  1.00  0.00     0.029 A 
ATOM     66  C   UNL A   1      41.625  29.204  33.284  1.00  0.00     0.049 A 
ATOM     67  H   UNL A   1      42.184  31.249  33.405  1.00  0.00     0.167 HD
ATOM     68  C   UNL A   1      42.292  35.759  34.194  1.00  0.00     0.037 A 
ATOM     69  C   UNL A   1      42.659  28.535  33.895  1.00  0.00     0.037 A 
ATOM     70  C   UNL A   1      43.160  35.413  33.085  1.00  0.00     0.049 A 
ATOM     71  C   UNL A   1      43.787  29.497  33.982  1.00  0.00     0.074 A 
ATOM     72  C   UNL A   1      43.238  35.716  31.741  1.00  0.00     0.029 A 
ATOM     73  N   UNL A   1      43.784  34.209  33.248  1.00  0.00    -0.354 N 
ATOM     74  N   UNL A   1      44.402  29.956  32.928  1.00  0.00    -0.248 NA
ATOM     75  C   UNL A   1      43.782  30.354  35.154  1.00  0.00     0.031 C 
ATOM     76  C   UNL A   1      43.658  34.509  31.095  1.00  0.00     0.029 A 
ATOM     77  C   UNL A   1      43.964  33.560  32.069  1.00  0.00     0.049 A 
ATOM     78  H   UNL A   1      44.072  33.854  34.121  1.00  0.00     0.167 HD
ATOM     79  C   UNL A   1      44.386  31.329  33.114  1.00  0.00     0.074 A 
ATOM     80  C   UNL A   1      44.018  31.509  34.527  1.00  0.00     0.031 C 
ATOM     81  C   UNL A   1      44.335  32.166  32.032  1.00  0.00     0.037 A 
BRANCH  68  82
ATOM     82  C   UNL A   1      42.832  35.802  35.633  1.00  0.00     0.064 A 
ATOM     83  C   UNL A   1      42.665  34.647  36.425  1.00  0.00     0.173 A 
ATOM     84  C   UNL A   1      43.205  36.960  36.362  1.00  0.00     0.173 A 
ATOM     85  F   UNL A   1      42.296  33.486  35.864  1.00  0.00    -0.203 F 
ATOM     86  C   UNL A   1      42.772  34.673  37.822  1.00  0.00     0.198 A 
ATOM     87  C   UNL A   1      43.348  36.973  37.750  1.00  0.00     0.198 A 
ATOM     88  F   UNL A   1      43.367  38.163  35.809  1.00  0.00    -0.203 F 
ATOM     89  F   UNL A   1      42.484  33.573  38.530  1.00  0.00    -0.200 F 
ATOM     90  C   UNL A   1      43.107  35.838  38.483  1.00  0.00     0.200 A 
ATOM     91  F   UNL A   1      43.647  38.126  38.367  1.00  0.00    -0.200 F 
ATOM     92  F   UNL A   1      43.162  35.879  39.821  1.00  0.00    -0.200 F 
ENDBRANCH  68  82
BRANCH  69  93
ATOM     93  C   UNL A   1      42.669  27.306  34.758  1.00  0.00     0.064 A 
ATOM     94  C   UNL A   1      41.964  27.223  35.985  1.00  0.00     0.173 A 
ATOM     95  C   UNL A   1      43.095  26.078  34.227  1.00  0.00     0.173 A 
ATOM     96  F   UNL A   1      41.456  28.328  36.553  1.00  0.00    -0.203 F 
ATOM     97  C   UNL A   1      41.694  25.993  36.614  1.00  0.00     0.198 A 
ATOM     98  C   UNL A   1      42.818  24.854  34.848  1.00  0.00     0.198 A 
ATOM     99  F   UNL A   1      43.701  26.032  33.033  1.00  0.00    -0.203 F 
ATOM    100  F   UNL A   1      40.977  25.953  37.748  1.00  0.00    -0.200 F 
ATOM    101  C   UNL A   1      42.110  24.808  36.035  1.00  0.00     0.200 A 
ATOM    102  F   UNL A   1      43.185  23.712  34.249  1.00  0.00    -0.200 F 
ATOM    103  F   UNL A   1      41.795  23.628  36.589  1.00  0.00    -0.200 F 
ENDBRANCH  69  93
BRANCH  81 104
ATOM    104  C   UNL A   1      44.625  31.582  30.678  1.00  0.00     0.064 A 
ATOM    105  C   UNL A   1      45.906  31.312  30.163  1.00  0.00     0.173 A 
ATOM    106  C   UNL A   1      43.524  31.168  29.918  1.00  0.00     0.173 A 
ATOM    107  F   UNL A   1      47.007  31.582  30.877  1.00  0.00    -0.203 F 
ATOM    108  C   UNL A   1      46.063  30.702  28.915  1.00  0.00     0.198 A 
ATOM    109  C   UNL A   1      43.683  30.528  28.696  1.00  0.00     0.198 A 
ATOM    110  F   UNL A   1      42.280  31.342  30.394  1.00  0.00    -0.203 F 
ATOM    111  F   UNL A   1      47.291  30.463  28.431  1.00  0.00    -0.200 F 
ATOM    112  C   UNL A   1      44.952  30.313  28.185  1.00  0.00     0.200 A 
ATOM    113  F   UNL A   1      42.604  30.101  28.027  1.00  0.00    -0.200 F 
ATOM    114  F   UNL A   1      45.099  29.708  26.997  1.00  0.00    -0.200 F 
ENDBRANCH  81 104
ENDBRANCH  55  56
ENDBRANCH  48  50
ENDBRANCH  47  48
ENDBRANCH  46  47
ENDBRANCH  45  46
ENDBRANCH  44  45
ENDBRANCH  43  44
ENDBRANCH  42  43
ENDBRANCH  41  42
ENDBRANCH   1  41
TORSDOF 25
ENDMDL
MODEL 3
REMARK VINA RESULT:     -10.0      4.079      9.346
REMARK SMILES COc1cc([C@H]2c3c(-c4ccccc4)n[nH]c3C(=O)N2c2ccc(C(=O)OCCOCCOCCOCCOC(=O)c3ccc(-c4c5nc(c(-c6c(F)c(F)c(F)c(F)c6F)c6ccc([nH]6)c(-c6c(F)c(F)c(F)c(F)c6F)c6nc(c(-c7c(F)c(F)c(F)c(F)c7F)c7ccc4[nH]7)C=C6)C=C5)cc3)cc2)ccc1O
REMARK SMILES IDX 32 1 31 2 30 3 29 4 28 5 27 6 25 7 26 8 24 9 21 10 22 11
REMARK SMILES IDX 106 12 23 13 105 14 20 15 6 16 7 17 8 18 17 19 18 20 15 21
REMARK SMILES IDX 16 22 19 23 5 25 3 26 4 27 109 28 108 29 107 30 2 31 1 32
REMARK SMILES IDX 110 33 9 35 10 36 14 37 11 38 13 39 12 40 33 41 34 42 35 43
REMARK SMILES IDX 36 44 37 45 38 46 39 47 40 48 41 49 42 50 43 51 104 52 44 53
REMARK SMILES IDX 103 54 45 55 46 56 47 57 97 58 48 59 102 60 96 61 98 62
REMARK SMILES IDX 49 63 101 64 95 65 94 66 50 68 82 69 62 70 81 71 63 72 66 73
REMARK SMILES IDX 80 74 99 75 64 76 65 77 79 79 100 80 67 81 51 82 52 83 60 84
REMARK SMILES IDX 53 85 54 86 58 87 61 88 55 89 56 90 59 91 57 92 83 93 84 94
REMARK SMILES IDX 92 95 85 96 86 97 90 98 93 99 87 100 88 101 91 102 89 103
REMARK SMILES IDX 68 104 69 105 77 106 70 107 71 108 75 109 78 110 72 111
REMARK SMILES IDX 73 112 76 113 74 114
REMARK H PARENT 16 24 110 34 98 67 66 78
REMARK Flexibility Score: inf
ROOT
ATOM      1  C   UNL A   1      39.972  26.850  27.129  1.00  0.00     0.188 C 
ENDROOT
BRANCH   1   2
ATOM      2  C   UNL A   1      40.346  25.959  28.334  1.00  0.00     0.188 C 
BRANCH   2   3
ATOM      3  O   UNL A   1      41.625  25.382  28.385  1.00  0.00    -0.376 OA
BRANCH   3   4
ATOM      4  C   UNL A   1      41.865  23.993  28.361  1.00  0.00     0.202 C 
BRANCH   4   5
ATOM      5  C   UNL A   1      41.377  23.024  27.273  1.00  0.00     0.261 C 
BRANCH   5   6
ATOM      6  O   UNL A   1      40.069  22.464  27.410  1.00  0.00    -0.460 OA
BRANCH   6   7
ATOM      7  C   UNL A   1      39.567  21.893  26.289  1.00  0.00     0.338 C 
ATOM      8  O   UNL A   1      40.105  21.038  25.606  1.00  0.00    -0.246 OA
BRANCH   7   9
ATOM      9  C   UNL A   1      38.149  22.295  26.112  1.00  0.00     0.060 A 
ATOM     10  C   UNL A   1      35.484  23.126  26.006  1.00  0.00     0.045 A 
ATOM     11  C   UNL A   1      36.495  24.078  26.140  1.00  0.00     0.027 A 
ATOM     12  C   UNL A   1      35.819  21.778  25.805  1.00  0.00     0.027 A 
ATOM     13  C   UNL A   1      37.822  23.655  26.236  1.00  0.00     0.018 A 
ATOM     14  C   UNL A   1      37.154  21.364  25.820  1.00  0.00     0.018 A 
BRANCH  10  15
ATOM     15  N   UNL A   1      34.141  23.488  26.216  1.00  0.00    -0.295 N 
ATOM     16  C   UNL A   1      33.547  24.624  25.447  1.00  0.00     0.156 C 
ATOM     17  C   UNL A   1      32.167  24.592  25.972  1.00  0.00     0.038 A 
ATOM     18  C   UNL A   1      30.930  25.248  25.935  1.00  0.00     0.099 A 
ATOM     19  C   UNL A   1      32.015  23.547  26.838  1.00  0.00     0.129 A 
ATOM     20  C   UNL A   1      33.199  22.782  26.980  1.00  0.00     0.277 C 
ATOM     21  N   UNL A   1      30.069  24.646  26.788  1.00  0.00    -0.174 NA
ATOM     22  N   UNL A   1      30.755  23.594  27.305  1.00  0.00    -0.272 N 
ATOM     23  O   UNL A   1      33.345  21.763  27.652  1.00  0.00    -0.267 OA
ATOM     24  H   UNL A   1      30.377  22.946  27.941  1.00  0.00     0.190 HD
BRANCH  16  25
ATOM     25  C   UNL A   1      33.464  24.357  23.952  1.00  0.00    -0.016 A 
ATOM     26  C   UNL A   1      33.392  25.277  21.667  1.00  0.00     0.160 A 
ATOM     27  C   UNL A   1      33.478  25.444  23.060  1.00  0.00     0.056 A 
ATOM     28  C   UNL A   1      33.298  23.980  21.161  1.00  0.00     0.157 A 
ATOM     29  C   UNL A   1      33.272  22.884  22.025  1.00  0.00     0.050 A 
ATOM     30  C   UNL A   1      33.371  23.066  23.405  1.00  0.00     0.010 A 
BRANCH  26  31
ATOM     31  O   UNL A   1      33.376  26.474  21.010  1.00  0.00    -0.493 OA
ATOM     32  C   UNL A   1      33.688  27.680  21.682  1.00  0.00     0.278 C 
ENDBRANCH  26  31
BRANCH  28  33
ATOM     33  O   UNL A   1      33.224  23.663  19.836  1.00  0.00    -0.504 OA
ATOM     34  H   UNL A   1      34.008  23.584  19.329  1.00  0.00     0.293 HD
ENDBRANCH  28  33
ENDBRANCH  16  25
BRANCH  18  35
ATOM     35  C   UNL A   1      30.549  26.411  25.145  1.00  0.00     0.002 A 
ATOM     36  C   UNL A   1      29.451  26.349  24.279  1.00  0.00     0.010 A 
ATOM     37  C   UNL A   1      31.271  27.608  25.247  1.00  0.00     0.010 A 
ATOM     38  C   UNL A   1      29.067  27.477  23.548  1.00  0.00     0.001 A 
ATOM     39  C   UNL A   1      30.884  28.734  24.520  1.00  0.00     0.001 A 
ATOM     40  C   UNL A   1      29.779  28.670  23.674  1.00  0.00     0.000 A 
ENDBRANCH  18  35
ENDBRANCH  10  15
ENDBRANCH   7   9
ENDBRANCH   6   7
ENDBRANCH   5   6
ENDBRANCH   4   5
ENDBRANCH   3   4
ENDBRANCH   2   3
ENDBRANCH   1   2
BRANCH   1  41
ATOM     41  O   UNL A   1      39.943  28.257  27.187  1.00  0.00    -0.377 OA
BRANCH  41  42
ATOM     42  C   UNL A   1      39.302  28.946  28.236  1.00  0.00     0.188 C 
BRANCH  42  43
ATOM     43  C   UNL A   1      37.785  28.889  28.541  1.00  0.00     0.188 C 
BRANCH  43  44
ATOM     44  O   UNL A   1      36.835  29.720  27.911  1.00  0.00    -0.376 OA
BRANCH  44  45
ATOM     45  C   UNL A   1      36.840  31.127  27.793  1.00  0.00     0.202 C 
BRANCH  45  46
ATOM     46  C   UNL A   1      35.768  32.057  28.332  1.00  0.00     0.261 C 
BRANCH  46  47
ATOM     47  O   UNL A   1      35.021  31.520  29.392  1.00  0.00    -0.460 OA
BRANCH  47  48
ATOM     48  C   UNL A   1      34.788  32.413  30.373  1.00  0.00     0.338 C 
ATOM     49  O   UNL A   1      34.035  33.371  30.350  1.00  0.00    -0.246 OA
BRANCH  48  50
ATOM     50  C   UNL A   1      35.714  32.106  31.463  1.00  0.00     0.060 A 
ATOM     51  C   UNL A   1      36.330  33.197  32.061  1.00  0.00     0.016 A 
ATOM     52  C   UNL A   1      36.328  30.858  31.404  1.00  0.00     0.016 A 
ATOM     53  C   UNL A   1      37.706  33.172  32.118  1.00  0.00     0.010 A 
ATOM     54  C   UNL A   1      37.685  30.822  31.550  1.00  0.00     0.010 A 
ATOM     55  C   UNL A   1      38.383  32.021  31.681  1.00  0.00    -0.014 A 
BRANCH  55  56
ATOM     56  C   UNL A   1      39.838  31.926  31.752  1.00  0.00     0.031 A 
ATOM     57  C   UNL A   1      40.113  30.628  32.431  1.00  0.00     0.074 A 
ATOM     58  C   UNL A   1      40.723  32.812  31.209  1.00  0.00     0.049 A 
ATOM     59  N   UNL A   1      40.313  30.483  33.701  1.00  0.00    -0.248 NA
ATOM     60  C   UNL A   1      39.722  29.357  31.775  1.00  0.00     0.031 C 
ATOM     61  C   UNL A   1      40.472  34.043  30.441  1.00  0.00     0.029 A 
ATOM     62  N   UNL A   1      42.107  32.770  31.204  1.00  0.00    -0.354 N 
ATOM     63  C   UNL A   1      40.446  29.110  33.881  1.00  0.00     0.074 A 
ATOM     64  C   UNL A   1      39.716  28.512  32.810  1.00  0.00     0.031 C 
ATOM     65  C   UNL A   1      41.611  34.459  29.823  1.00  0.00     0.029 A 
ATOM     66  C   UNL A   1      42.717  33.619  30.238  1.00  0.00     0.049 A 
ATOM     67  H   UNL A   1      42.627  32.201  31.816  1.00  0.00     0.167 HD
ATOM     68  C   UNL A   1      41.564  28.654  34.512  1.00  0.00     0.037 A 
ATOM     69  C   UNL A   1      44.039  33.619  29.860  1.00  0.00     0.037 A 
ATOM     70  C   UNL A   1      42.128  29.738  35.292  1.00  0.00     0.049 A 
ATOM     71  C   UNL A   1      44.787  32.950  30.955  1.00  0.00     0.074 A 
ATOM     72  C   UNL A   1      41.708  30.557  36.320  1.00  0.00     0.029 A 
ATOM     73  N   UNL A   1      43.112  30.418  34.633  1.00  0.00    -0.354 N 
ATOM     74  N   UNL A   1      44.890  33.460  32.150  1.00  0.00    -0.248 NA
ATOM     75  C   UNL A   1      44.865  31.503  30.858  1.00  0.00     0.031 C 
ATOM     76  C   UNL A   1      42.269  31.845  36.045  1.00  0.00     0.029 A 
ATOM     77  C   UNL A   1      43.126  31.738  34.951  1.00  0.00     0.049 A 
ATOM     78  H   UNL A   1      43.740  29.999  34.001  1.00  0.00     0.167 HD
ATOM     79  C   UNL A   1      44.506  32.419  32.981  1.00  0.00     0.074 A 
ATOM     80  C   UNL A   1      44.535  31.225  32.122  1.00  0.00     0.031 C 
ATOM     81  C   UNL A   1      43.881  32.688  34.170  1.00  0.00     0.037 A 
BRANCH  68  82
ATOM     82  C   UNL A   1      42.465  27.551  33.931  1.00  0.00     0.064 A 
ATOM     83  C   UNL A   1      42.911  26.544  34.812  1.00  0.00     0.173 A 
ATOM     84  C   UNL A   1      43.150  27.586  32.690  1.00  0.00     0.173 A 
ATOM     85  F   UNL A   1      42.358  26.411  36.027  1.00  0.00    -0.203 F 
ATOM     86  C   UNL A   1      43.999  25.714  34.514  1.00  0.00     0.198 A 
ATOM     87  C   UNL A   1      44.210  26.733  32.381  1.00  0.00     0.198 A 
ATOM     88  F   UNL A   1      42.914  28.490  31.739  1.00  0.00    -0.203 F 
ATOM     89  F   UNL A   1      44.454  24.858  35.438  1.00  0.00    -0.200 F 
ATOM     90  C   UNL A   1      44.652  25.814  33.301  1.00  0.00     0.200 A 
ATOM     91  F   UNL A   1      44.842  26.872  31.207  1.00  0.00    -0.200 F 
ATOM     92  F   UNL A   1      45.723  25.057  33.031  1.00  0.00    -0.200 F 
ENDBRANCH  68  82
BRANCH  69  93
ATOM     93  C   UNL A   1      44.683  33.772  28.512  1.00  0.00     0.064 A 
ATOM     94  C   UNL A   1      44.351  32.951  27.405  1.00  0.00     0.173 A 
ATOM     95  C   UNL A   1      45.388  34.945  28.199  1.00  0.00     0.173 A 
ATOM     96  F   UNL A   1      43.624  31.837  27.578  1.00  0.00    -0.203 F 
ATOM     97  C   UNL A   1      44.689  33.301  26.083  1.00  0.00     0.198 A 
ATOM     98  C   UNL A   1      45.714  35.297  26.884  1.00  0.00     0.198 A 
ATOM     99  F   UNL A   1      45.682  35.832  29.159  1.00  0.00    -0.203 F 
ATOM    100  F   UNL A   1      44.310  32.523  25.057  1.00  0.00    -0.200 F 
ATOM    101  C   UNL A   1      45.358  34.483  25.825  1.00  0.00     0.200 A 
ATOM    102  F   UNL A   1      46.319  36.469  26.646  1.00  0.00    -0.200 F 
ATOM    103  F   UNL A   1      45.620  34.859  24.565  1.00  0.00    -0.200 F 
ENDBRANCH  69  93
BRANCH  81 104
ATOM    104  C   UNL A   1      43.923  34.100  34.683  1.00  0.00     0.064 A 
ATOM    105  C   UNL A   1      42.948  35.085  34.442  1.00  0.00     0.173 A 
ATOM    106  C   UNL A   1      44.960  34.423  35.567  1.00  0.00     0.173 A 
ATOM    107  F   UNL A   1      41.870  34.818  33.692  1.00  0.00    -0.203 F 
ATOM    108  C   UNL A   1      43.048  36.351  35.024  1.00  0.00     0.198 A 
ATOM    109  C   UNL A   1      45.037  35.669  36.173  1.00  0.00     0.198 A 
ATOM    110  F   UNL A   1      45.881  33.497  35.882  1.00  0.00    -0.203 F 
ATOM    111  F   UNL A   1      42.118  37.285  34.774  1.00  0.00    -0.200 F 
ATOM    112  C   UNL A   1      44.093  36.640  35.887  1.00  0.00     0.200 A 
ATOM    113  F   UNL A   1      46.016  35.917  37.054  1.00  0.00    -0.200 F 
ATOM    114  F   UNL A   1      44.181  37.847  36.465  1.00  0.00    -0.200 F 
ENDBRANCH  81 104
ENDBRANCH  55  56
ENDBRANCH  48  50
ENDBRANCH  47  48
ENDBRANCH  46  47
ENDBRANCH  45  46
ENDBRANCH  44  45
ENDBRANCH  43  44
ENDBRANCH  42  43
ENDBRANCH  41  42
ENDBRANCH   1  41
TORSDOF 25
ENDMDL
