MODEL 1
REMARK VINA RESULT:      -7.9      0.000      0.000
REMARK SMILES CCC[NH+]1CCC([NH2+]CC(C)(C)C(=O)OCCOCCOCCOCCOC(=O)c2ccc(-c3c4nc(c(-c5c(F)c(F)c(F)c(F)c5F)c5ccc([nH]5)c(-c5c(F)c(F)c(F)c(F)c5F)c5nc(c(-c6c(F)c(F)c(F)c(F)c6F)c6ccc3[nH]6)C=C5)C=C4)cc2)CC1
REMARK SMILES IDX 19 1 18 2 17 3 16 4 15 5 13 6 14 7 10 8 11 9 12 10 9 11 8 12
REMARK SMILES IDX 7 15 4 16 5 17 94 18 6 20 93 21 3 22 2 23 1 24 20 25 21 26
REMARK SMILES IDX 22 27 23 28 24 29 25 30 26 31 27 32 28 33 29 34 30 35 31 36
REMARK SMILES IDX 92 37 32 38 91 39 33 40 34 41 35 42 85 43 36 44 90 45 84 46
REMARK SMILES IDX 86 47 37 48 89 49 83 50 82 51 38 53 70 54 50 55 69 56 51 57
REMARK SMILES IDX 54 58 68 59 87 60 52 61 53 62 67 64 88 65 55 66 39 67 40 68
REMARK SMILES IDX 48 69 41 70 42 71 46 72 49 73 43 74 44 75 47 76 45 77 71 78
REMARK SMILES IDX 72 79 80 80 73 81 74 82 78 83 81 84 75 85 76 86 79 87 77 88
REMARK SMILES IDX 56 89 57 90 65 91 58 92 59 93 63 94 66 95 60 96 61 97 64 98
REMARK SMILES IDX 62 99
REMARK H PARENT 8 13 8 14 4 19 86 52 54 63
REMARK Flexibility Score: inf
ROOT
ATOM      1  C   UNL A   1      36.605  33.997  34.084  1.00  0.00     0.188 C 
ENDROOT
BRANCH   1   2
ATOM      2  O   UNL A   1      37.339  32.961  34.729  1.00  0.00    -0.376 OA
BRANCH   2   3
ATOM      3  C   UNL A   1      38.731  32.811  34.534  1.00  0.00     0.202 C 
BRANCH   3   4
ATOM      4  C   UNL A   1      39.594  31.653  35.151  1.00  0.00     0.261 C 
BRANCH   4   5
ATOM      5  O   UNL A   1      40.545  30.798  34.449  1.00  0.00    -0.463 OA
BRANCH   5   6
ATOM      6  C   UNL A   1      40.711  29.547  34.896  1.00  0.00     0.317 C 
ATOM      7  O   UNL A   1      40.496  29.300  36.069  1.00  0.00    -0.251 OA
BRANCH   6   8
ATOM      8  C   UNL A   1      41.153  28.459  33.927  1.00  0.00     0.111 C 
ATOM      9  C   UNL A   1      42.523  28.752  33.311  1.00  0.00     0.029 C 
ATOM     10  C   UNL A   1      40.119  28.423  32.773  1.00  0.00     0.029 C 
BRANCH   8  11
ATOM     11  C   UNL A   1      41.141  27.045  34.668  1.00  0.00     0.279 C 
BRANCH  11  12
ATOM     12  N   UNL A   1      41.759  26.779  36.010  1.00  0.00    -0.343 N 
ATOM     13  H   UNL A   1      41.964  27.676  36.451  1.00  0.00     0.346 HD
ATOM     14  H   UNL A   1      41.083  26.222  36.535  1.00  0.00     0.346 HD
BRANCH  12  15
ATOM     15  C   UNL A   1      43.007  25.990  35.967  1.00  0.00     0.193 C 
ATOM     16  N   UNL A   1      44.927  23.726  35.743  1.00  0.00    -0.335 N 
ATOM     17  C   UNL A   1      44.919  24.643  36.907  1.00  0.00     0.268 C 
ATOM     18  C   UNL A   1      44.276  24.351  34.597  1.00  0.00     0.268 C 
ATOM     19  H   UNL A   1      44.435  22.889  36.056  1.00  0.00     0.348 HD
ATOM     20  C   UNL A   1      43.516  25.259  37.222  1.00  0.00     0.126 C 
ATOM     21  C   UNL A   1      42.901  24.900  34.893  1.00  0.00     0.126 C 
BRANCH  16  22
ATOM     22  C   UNL A   1      46.296  23.364  35.301  1.00  0.00     0.261 C 
BRANCH  22  23
ATOM     23  C   UNL A   1      46.437  21.984  34.671  1.00  0.00     0.058 C 
ATOM     24  C   UNL A   1      45.283  21.063  35.030  1.00  0.00     0.010 C 
ENDBRANCH  22  23
ENDBRANCH  16  22
ENDBRANCH  12  15
ENDBRANCH  11  12
ENDBRANCH   8  11
ENDBRANCH   6   8
ENDBRANCH   5   6
ENDBRANCH   4   5
ENDBRANCH   3   4
ENDBRANCH   2   3
ENDBRANCH   1   2
BRANCH   1  25
ATOM     25  C   UNL A   1      35.102  33.965  34.409  1.00  0.00     0.188 C 
BRANCH  25  26
ATOM     26  O   UNL A   1      34.209  34.053  33.301  1.00  0.00    -0.377 OA
BRANCH  26  27
ATOM     27  C   UNL A   1      34.465  35.049  32.306  1.00  0.00     0.188 C 
BRANCH  27  28
ATOM     28  C   UNL A   1      33.278  35.679  31.538  1.00  0.00     0.188 C 
BRANCH  28  29
ATOM     29  O   UNL A   1      33.315  35.477  30.137  1.00  0.00    -0.376 OA
BRANCH  29  30
ATOM     30  C   UNL A   1      34.336  34.661  29.599  1.00  0.00     0.202 C 
BRANCH  30  31
ATOM     31  C   UNL A   1      33.927  33.398  28.826  1.00  0.00     0.261 C 
BRANCH  31  32
ATOM     32  O   UNL A   1      34.468  32.143  29.280  1.00  0.00    -0.460 OA
BRANCH  32  33
ATOM     33  C   UNL A   1      34.464  31.080  28.445  1.00  0.00     0.338 C 
ATOM     34  O   UNL A   1      33.620  30.797  27.618  1.00  0.00    -0.246 OA
BRANCH  33  35
ATOM     35  C   UNL A   1      35.800  30.440  28.545  1.00  0.00     0.060 A 
ATOM     36  C   UNL A   1      36.176  29.821  29.748  1.00  0.00     0.016 A 
ATOM     37  C   UNL A   1      36.651  30.392  27.439  1.00  0.00     0.016 A 
ATOM     38  C   UNL A   1      37.411  29.180  29.855  1.00  0.00     0.010 A 
ATOM     39  C   UNL A   1      37.906  29.788  27.559  1.00  0.00     0.010 A 
ATOM     40  C   UNL A   1      38.304  29.209  28.778  1.00  0.00    -0.014 A 
BRANCH  40  41
ATOM     41  C   UNL A   1      39.731  28.881  29.008  1.00  0.00     0.031 A 
ATOM     42  C   UNL A   1      40.585  29.925  29.677  1.00  0.00     0.074 A 
ATOM     43  C   UNL A   1      40.261  27.697  28.655  1.00  0.00     0.049 A 
ATOM     44  N   UNL A   1      41.869  29.923  29.923  1.00  0.00    -0.248 NA
ATOM     45  C   UNL A   1      39.887  31.141  30.129  1.00  0.00     0.031 C 
ATOM     46  C   UNL A   1      39.529  26.587  28.051  1.00  0.00     0.029 A 
ATOM     47  N   UNL A   1      41.554  27.241  28.745  1.00  0.00    -0.354 N 
ATOM     48  C   UNL A   1      42.133  31.139  30.539  1.00  0.00     0.074 A 
ATOM     49  C   UNL A   1      40.884  31.862  30.616  1.00  0.00     0.031 C 
ATOM     50  C   UNL A   1      40.391  25.586  27.799  1.00  0.00     0.029 A 
ATOM     51  C   UNL A   1      41.739  25.999  28.190  1.00  0.00     0.049 A 
ATOM     52  H   UNL A   1      42.279  27.756  29.167  1.00  0.00     0.167 HD
ATOM     53  C   UNL A   1      43.314  31.610  31.003  1.00  0.00     0.037 A 
ATOM     54  C   UNL A   1      42.873  25.298  27.990  1.00  0.00     0.037 A 
ATOM     55  C   UNL A   1      44.554  30.887  30.927  1.00  0.00     0.049 A 
ATOM     56  C   UNL A   1      44.191  25.877  28.448  1.00  0.00     0.074 A 
ATOM     57  C   UNL A   1      45.800  31.263  31.396  1.00  0.00     0.029 A 
ATOM     58  N   UNL A   1      44.706  29.642  30.334  1.00  0.00    -0.354 N 
ATOM     59  N   UNL A   1      44.431  27.012  29.059  1.00  0.00    -0.248 NA
ATOM     60  C   UNL A   1      45.396  25.076  28.190  1.00  0.00     0.031 C 
ATOM     61  C   UNL A   1      46.719  30.278  31.024  1.00  0.00     0.029 A 
ATOM     62  C   UNL A   1      46.034  29.253  30.391  1.00  0.00     0.049 A 
ATOM     63  H   UNL A   1      43.978  29.114  29.933  1.00  0.00     0.167 HD
ATOM     64  C   UNL A   1      45.803  27.046  29.283  1.00  0.00     0.074 A 
ATOM     65  C   UNL A   1      46.342  25.810  28.759  1.00  0.00     0.031 C 
ATOM     66  C   UNL A   1      46.552  28.014  29.869  1.00  0.00     0.037 A 
BRANCH  53  67
ATOM     67  C   UNL A   1      43.332  32.989  31.594  1.00  0.00     0.064 A 
ATOM     68  C   UNL A   1      43.280  33.205  32.979  1.00  0.00     0.173 A 
ATOM     69  C   UNL A   1      43.447  34.110  30.757  1.00  0.00     0.173 A 
ATOM     70  F   UNL A   1      43.150  32.169  33.820  1.00  0.00    -0.203 F 
ATOM     71  C   UNL A   1      43.325  34.495  33.503  1.00  0.00     0.198 A 
ATOM     72  C   UNL A   1      43.523  35.394  31.286  1.00  0.00     0.198 A 
ATOM     73  F   UNL A   1      43.499  33.957  29.425  1.00  0.00    -0.203 F 
ATOM     74  F   UNL A   1      43.229  34.682  34.826  1.00  0.00    -0.200 F 
ATOM     75  C   UNL A   1      43.456  35.587  32.657  1.00  0.00     0.200 A 
ATOM     76  F   UNL A   1      43.664  36.446  30.468  1.00  0.00    -0.200 F 
ATOM     77  F   UNL A   1      43.514  36.826  33.165  1.00  0.00    -0.200 F 
ENDBRANCH  53  67
BRANCH  54  78
ATOM     78  C   UNL A   1      42.831  23.985  27.288  1.00  0.00     0.064 A 
ATOM     79  C   UNL A   1      42.473  22.808  27.962  1.00  0.00     0.173 A 
ATOM     80  C   UNL A   1      43.193  23.874  25.936  1.00  0.00     0.173 A 
ATOM     81  F   UNL A   1      42.148  22.853  29.261  1.00  0.00    -0.203 F 
ATOM     82  C   UNL A   1      42.504  21.571  27.319  1.00  0.00     0.198 A 
ATOM     83  C   UNL A   1      43.190  22.642  25.286  1.00  0.00     0.198 A 
ATOM     84  F   UNL A   1      43.550  24.966  25.243  1.00  0.00    -0.203 F 
ATOM     85  F   UNL A   1      42.217  20.456  28.004  1.00  0.00    -0.200 F 
ATOM     86  C   UNL A   1      42.856  21.490  25.981  1.00  0.00     0.200 A 
ATOM     87  F   UNL A   1      43.518  22.570  23.988  1.00  0.00    -0.200 F 
ATOM     88  F   UNL A   1      42.886  20.301  25.364  1.00  0.00    -0.200 F 
ENDBRANCH  54  78
BRANCH  66  89
ATOM     89  C   UNL A   1      48.027  27.762  30.013  1.00  0.00     0.064 A 
ATOM     90  C   UNL A   1      48.560  27.094  31.125  1.00  0.00     0.173 A 
ATOM     91  C   UNL A   1      48.914  28.152  28.996  1.00  0.00     0.173 A 
ATOM     92  F   UNL A   1      47.757  26.708  32.128  1.00  0.00    -0.203 F 
ATOM     93  C   UNL A   1      49.927  26.852  31.228  1.00  0.00     0.198 A 
ATOM     94  C   UNL A   1      50.276  27.877  29.086  1.00  0.00     0.198 A 
ATOM     95  F   UNL A   1      48.457  28.785  27.905  1.00  0.00    -0.203 F 
ATOM     96  F   UNL A   1      50.420  26.259  32.324  1.00  0.00    -0.200 F 
ATOM     97  C   UNL A   1      50.783  27.236  30.205  1.00  0.00     0.200 A 
ATOM     98  F   UNL A   1      51.097  28.231  28.088  1.00  0.00    -0.200 F 
ATOM     99  F   UNL A   1      52.097  26.993  30.302  1.00  0.00    -0.200 F 
ENDBRANCH  66  89
ENDBRANCH  40  41
ENDBRANCH  33  35
ENDBRANCH  32  33
ENDBRANCH  31  32
ENDBRANCH  30  31
ENDBRANCH  29  30
ENDBRANCH  28  29
ENDBRANCH  27  28
ENDBRANCH  26  27
ENDBRANCH  25  26
ENDBRANCH   1  25
TORSDOF 25
ENDMDL
MODEL 2
REMARK VINA RESULT:      -7.9      1.415      2.947
REMARK SMILES CCC[NH+]1CCC([NH2+]CC(C)(C)C(=O)OCCOCCOCCOCCOC(=O)c2ccc(-c3c4nc(c(-c5c(F)c(F)c(F)c(F)c5F)c5ccc([nH]5)c(-c5c(F)c(F)c(F)c(F)c5F)c5nc(c(-c6c(F)c(F)c(F)c(F)c6F)c6ccc3[nH]6)C=C5)C=C4)cc2)CC1
REMARK SMILES IDX 19 1 18 2 17 3 16 4 15 5 13 6 14 7 10 8 11 9 12 10 9 11 8 12
REMARK SMILES IDX 7 15 4 16 5 17 94 18 6 20 93 21 3 22 2 23 1 24 20 25 21 26
REMARK SMILES IDX 22 27 23 28 24 29 25 30 26 31 27 32 28 33 29 34 30 35 31 36
REMARK SMILES IDX 92 37 32 38 91 39 33 40 34 41 35 42 85 43 36 44 90 45 84 46
REMARK SMILES IDX 86 47 37 48 89 49 83 50 82 51 38 53 70 54 50 55 69 56 51 57
REMARK SMILES IDX 54 58 68 59 87 60 52 61 53 62 67 64 88 65 55 66 39 67 40 68
REMARK SMILES IDX 48 69 41 70 42 71 46 72 49 73 43 74 44 75 47 76 45 77 71 78
REMARK SMILES IDX 72 79 80 80 73 81 74 82 78 83 81 84 75 85 76 86 79 87 77 88
REMARK SMILES IDX 56 89 57 90 65 91 58 92 59 93 63 94 66 95 60 96 61 97 64 98
REMARK SMILES IDX 62 99
REMARK H PARENT 8 13 8 14 4 19 86 52 54 63
REMARK Flexibility Score: inf
ROOT
ATOM      1  C   UNL A   1      37.375  32.908  30.316  1.00  0.00     0.188 C 
ENDROOT
BRANCH   1   2
ATOM      2  O   UNL A   1      37.919  34.212  30.496  1.00  0.00    -0.376 OA
BRANCH   2   3
ATOM      3  C   UNL A   1      38.888  34.476  31.491  1.00  0.00     0.202 C 
BRANCH   3   4
ATOM      4  C   UNL A   1      38.756  34.044  32.996  1.00  0.00     0.261 C 
BRANCH   4   5
ATOM      5  O   UNL A   1      38.752  32.681  33.520  1.00  0.00    -0.463 OA
BRANCH   5   6
ATOM      6  C   UNL A   1      37.983  32.423  34.584  1.00  0.00     0.317 C 
ATOM      7  O   UNL A   1      36.773  32.396  34.452  1.00  0.00    -0.251 OA
BRANCH   6   8
ATOM      8  C   UNL A   1      38.637  32.157  35.933  1.00  0.00     0.111 C 
ATOM      9  C   UNL A   1      37.849  31.146  36.771  1.00  0.00     0.029 C 
ATOM     10  C   UNL A   1      38.651  33.497  36.710  1.00  0.00     0.029 C 
BRANCH   8  11
ATOM     11  C   UNL A   1      40.143  31.678  35.713  1.00  0.00     0.279 C 
BRANCH  11  12
ATOM     12  N   UNL A   1      40.634  30.925  34.510  1.00  0.00    -0.343 N 
ATOM     13  H   UNL A   1      39.994  31.108  33.736  1.00  0.00     0.346 HD
ATOM     14  H   UNL A   1      41.583  31.254  34.329  1.00  0.00     0.346 HD
BRANCH  12  15
ATOM     15  C   UNL A   1      40.726  29.463  34.695  1.00  0.00     0.193 C 
ATOM     16  N   UNL A   1      41.787  26.727  35.202  1.00  0.00    -0.335 N 
ATOM     17  C   UNL A   1      41.007  27.060  33.986  1.00  0.00     0.268 C 
ATOM     18  C   UNL A   1      41.531  27.703  36.255  1.00  0.00     0.268 C 
ATOM     19  H   UNL A   1      42.763  26.729  34.905  1.00  0.00     0.348 HD
ATOM     20  C   UNL A   1      41.146  28.550  33.529  1.00  0.00     0.126 C 
ATOM     21  C   UNL A   1      41.714  29.139  35.823  1.00  0.00     0.126 C 
BRANCH  16  22
ATOM     22  C   UNL A   1      41.440  25.401  35.766  1.00  0.00     0.261 C 
BRANCH  22  23
ATOM     23  C   UNL A   1      42.473  24.302  35.541  1.00  0.00     0.058 C 
ATOM     24  C   UNL A   1      43.897  24.808  35.695  1.00  0.00     0.010 C 
ENDBRANCH  22  23
ENDBRANCH  16  22
ENDBRANCH  12  15
ENDBRANCH  11  12
ENDBRANCH   8  11
ENDBRANCH   6   8
ENDBRANCH   5   6
ENDBRANCH   4   5
ENDBRANCH   3   4
ENDBRANCH   2   3
ENDBRANCH   1   2
BRANCH   1  25
ATOM     25  C   UNL A   1      35.953  32.763  30.881  1.00  0.00     0.188 C 
BRANCH  25  26
ATOM     26  O   UNL A   1      35.348  33.948  31.394  1.00  0.00    -0.377 OA
BRANCH  26  27
ATOM     27  C   UNL A   1      34.190  34.457  30.727  1.00  0.00     0.188 C 
BRANCH  27  28
ATOM     28  C   UNL A   1      34.194  34.582  29.185  1.00  0.00     0.188 C 
BRANCH  28  29
ATOM     29  O   UNL A   1      32.987  34.182  28.562  1.00  0.00    -0.376 OA
BRANCH  29  30
ATOM     30  C   UNL A   1      33.019  33.084  27.671  1.00  0.00     0.202 C 
BRANCH  30  31
ATOM     31  C   UNL A   1      34.289  32.221  27.625  1.00  0.00     0.261 C 
BRANCH  31  32
ATOM     32  O   UNL A   1      34.257  30.962  28.324  1.00  0.00    -0.460 OA
BRANCH  32  33
ATOM     33  C   UNL A   1      34.740  29.856  27.718  1.00  0.00     0.338 C 
ATOM     34  O   UNL A   1      34.213  29.212  26.831  1.00  0.00    -0.246 OA
BRANCH  33  35
ATOM     35  C   UNL A   1      36.149  29.695  28.157  1.00  0.00     0.060 A 
ATOM     36  C   UNL A   1      37.187  29.969  27.251  1.00  0.00     0.016 A 
ATOM     37  C   UNL A   1      36.448  29.339  29.474  1.00  0.00     0.016 A 
ATOM     38  C   UNL A   1      38.519  29.860  27.651  1.00  0.00     0.010 A 
ATOM     39  C   UNL A   1      37.782  29.188  29.862  1.00  0.00     0.010 A 
ATOM     40  C   UNL A   1      38.822  29.415  28.942  1.00  0.00    -0.014 A 
BRANCH  40  41
ATOM     41  C   UNL A   1      40.192  28.935  29.243  1.00  0.00     0.031 A 
ATOM     42  C   UNL A   1      41.099  29.858  30.011  1.00  0.00     0.074 A 
ATOM     43  C   UNL A   1      40.623  27.718  28.869  1.00  0.00     0.049 A 
ATOM     44  N   UNL A   1      42.358  29.716  30.335  1.00  0.00    -0.248 NA
ATOM     45  C   UNL A   1      40.497  31.120  30.476  1.00  0.00     0.031 C 
ATOM     46  C   UNL A   1      39.826  26.714  28.170  1.00  0.00     0.029 A 
ATOM     47  N   UNL A   1      41.856  27.129  29.016  1.00  0.00    -0.354 N 
ATOM     48  C   UNL A   1      42.700  30.873  31.022  1.00  0.00     0.074 A 
ATOM     49  C   UNL A   1      41.527  31.716  31.056  1.00  0.00     0.031 C 
ATOM     50  C   UNL A   1      40.599  25.640  27.925  1.00  0.00     0.029 A 
ATOM     51  C   UNL A   1      41.952  25.898  28.416  1.00  0.00     0.049 A 
ATOM     52  H   UNL A   1      42.599  27.550  29.506  1.00  0.00     0.167 HD
ATOM     53  C   UNL A   1      43.889  31.202  31.578  1.00  0.00     0.037 A 
ATOM     54  C   UNL A   1      43.022  25.093  28.254  1.00  0.00     0.037 A 
ATOM     55  C   UNL A   1      45.054  30.359  31.545  1.00  0.00     0.049 A 
ATOM     56  C   UNL A   1      44.359  25.516  28.818  1.00  0.00     0.074 A 
ATOM     57  C   UNL A   1      46.297  30.588  32.105  1.00  0.00     0.029 A 
ATOM     58  N   UNL A   1      45.120  29.131  30.904  1.00  0.00    -0.354 N 
ATOM     59  N   UNL A   1      44.670  26.596  29.495  1.00  0.00    -0.248 NA
ATOM     60  C   UNL A   1      45.492  24.607  28.597  1.00  0.00     0.031 C 
ATOM     61  C   UNL A   1      47.137  29.529  31.745  1.00  0.00     0.029 A 
ATOM     62  C   UNL A   1      46.396  28.606  31.024  1.00  0.00     0.049 A 
ATOM     63  H   UNL A   1      44.371  28.696  30.436  1.00  0.00     0.167 HD
ATOM     64  C   UNL A   1      46.020  26.481  29.803  1.00  0.00     0.074 A 
ATOM     65  C   UNL A   1      46.466  25.218  29.256  1.00  0.00     0.031 C 
ATOM     66  C   UNL A   1      46.822  27.343  30.478  1.00  0.00     0.037 A 
BRANCH  53  67
ATOM     67  C   UNL A   1      44.005  32.547  32.232  1.00  0.00     0.064 A 
ATOM     68  C   UNL A   1      44.238  33.716  31.492  1.00  0.00     0.173 A 
ATOM     69  C   UNL A   1      43.836  32.670  33.619  1.00  0.00     0.173 A 
ATOM     70  F   UNL A   1      44.427  33.651  30.166  1.00  0.00    -0.203 F 
ATOM     71  C   UNL A   1      44.315  34.957  32.122  1.00  0.00     0.198 A 
ATOM     72  C   UNL A   1      43.882  33.915  34.240  1.00  0.00     0.198 A 
ATOM     73  F   UNL A   1      43.612  31.582  34.372  1.00  0.00    -0.203 F 
ATOM     74  F   UNL A   1      44.582  36.055  31.402  1.00  0.00    -0.200 F 
ATOM     75  C   UNL A   1      44.126  35.056  33.492  1.00  0.00     0.200 A 
ATOM     76  F   UNL A   1      43.686  34.009  35.562  1.00  0.00    -0.200 F 
ATOM     77  F   UNL A   1      44.185  36.252  34.093  1.00  0.00    -0.200 F 
ENDBRANCH  53  67
BRANCH  54  78
ATOM     78  C   UNL A   1      42.896  23.820  27.491  1.00  0.00     0.064 A 
ATOM     79  C   UNL A   1      43.211  23.753  26.126  1.00  0.00     0.173 A 
ATOM     80  C   UNL A   1      42.413  22.654  28.104  1.00  0.00     0.173 A 
ATOM     81  F   UNL A   1      43.647  24.846  25.485  1.00  0.00    -0.203 F 
ATOM     82  C   UNL A   1      43.023  22.578  25.399  1.00  0.00     0.198 A 
ATOM     83  C   UNL A   1      42.259  21.470  27.385  1.00  0.00     0.198 A 
ATOM     84  F   UNL A   1      42.091  22.661  29.406  1.00  0.00    -0.203 F 
ATOM     85  F   UNL A   1      43.274  22.560  24.084  1.00  0.00    -0.200 F 
ATOM     86  C   UNL A   1      42.553  21.436  26.030  1.00  0.00     0.200 A 
ATOM     87  F   UNL A   1      41.817  20.366  28.002  1.00  0.00    -0.200 F 
ATOM     88  F   UNL A   1      42.373  20.308  25.332  1.00  0.00    -0.200 F 
ENDBRANCH  54  78
BRANCH  66  89
ATOM     89  C   UNL A   1      48.252  26.936  30.699  1.00  0.00     0.064 A 
ATOM     90  C   UNL A   1      48.633  26.128  31.780  1.00  0.00     0.173 A 
ATOM     91  C   UNL A   1      49.247  27.322  29.787  1.00  0.00     0.173 A 
ATOM     92  F   UNL A   1      47.724  25.740  32.687  1.00  0.00    -0.203 F 
ATOM     93  C   UNL A   1      49.961  25.745  31.956  1.00  0.00     0.198 A 
ATOM     94  C   UNL A   1      50.566  26.908  29.945  1.00  0.00     0.198 A 
ATOM     95  F   UNL A   1      48.935  28.086  28.729  1.00  0.00    -0.203 F 
ATOM     96  F   UNL A   1      50.311  25.016  33.024  1.00  0.00    -0.200 F 
ATOM     97  C   UNL A   1      50.925  26.128  31.033  1.00  0.00     0.200 A 
ATOM     98  F   UNL A   1      51.491  27.262  29.042  1.00  0.00    -0.200 F 
ATOM     99  F   UNL A   1      52.199  25.750  31.198  1.00  0.00    -0.200 F 
ENDBRANCH  66  89
ENDBRANCH  40  41
ENDBRANCH  33  35
ENDBRANCH  32  33
ENDBRANCH  31  32
ENDBRANCH  30  31
ENDBRANCH  29  30
ENDBRANCH  28  29
ENDBRANCH  27  28
ENDBRANCH  26  27
ENDBRANCH  25  26
ENDBRANCH   1  25
TORSDOF 25
ENDMDL
MODEL 3
REMARK VINA RESULT:      -7.8      4.839      8.161
REMARK SMILES CCC[NH+]1CCC([NH2+]CC(C)(C)C(=O)OCCOCCOCCOCCOC(=O)c2ccc(-c3c4nc(c(-c5c(F)c(F)c(F)c(F)c5F)c5ccc([nH]5)c(-c5c(F)c(F)c(F)c(F)c5F)c5nc(c(-c6c(F)c(F)c(F)c(F)c6F)c6ccc3[nH]6)C=C5)C=C4)cc2)CC1
REMARK SMILES IDX 19 1 18 2 17 3 16 4 15 5 13 6 14 7 10 8 11 9 12 10 9 11 8 12
REMARK SMILES IDX 7 15 4 16 5 17 94 18 6 20 93 21 3 22 2 23 1 24 20 25 21 26
REMARK SMILES IDX 22 27 23 28 24 29 25 30 26 31 27 32 28 33 29 34 30 35 31 36
REMARK SMILES IDX 92 37 32 38 91 39 33 40 34 41 35 42 85 43 36 44 90 45 84 46
REMARK SMILES IDX 86 47 37 48 89 49 83 50 82 51 38 53 70 54 50 55 69 56 51 57
REMARK SMILES IDX 54 58 68 59 87 60 52 61 53 62 67 64 88 65 55 66 39 67 40 68
REMARK SMILES IDX 48 69 41 70 42 71 46 72 49 73 43 74 44 75 47 76 45 77 71 78
REMARK SMILES IDX 72 79 80 80 73 81 74 82 78 83 81 84 75 85 76 86 79 87 77 88
REMARK SMILES IDX 56 89 57 90 65 91 58 92 59 93 63 94 66 95 60 96 61 97 64 98
REMARK SMILES IDX 62 99
REMARK H PARENT 8 13 8 14 4 19 86 52 54 63
REMARK Flexibility Score: inf
ROOT
ATOM      1  C   UNL A   1      32.342  29.313  24.964  1.00  0.00     0.188 C 
ENDROOT
BRANCH   1   2
ATOM      2  O   UNL A   1      33.390  29.409  24.005  1.00  0.00    -0.376 OA
BRANCH   2   3
ATOM      3  C   UNL A   1      34.021  28.256  23.483  1.00  0.00     0.202 C 
BRANCH   3   4
ATOM      4  C   UNL A   1      33.278  27.118  22.695  1.00  0.00     0.261 C 
BRANCH   4   5
ATOM      5  O   UNL A   1      33.190  25.709  23.064  1.00  0.00    -0.463 OA
BRANCH   5   6
ATOM      6  C   UNL A   1      33.168  25.403  24.367  1.00  0.00     0.317 C 
ATOM      7  O   UNL A   1      34.190  25.507  25.021  1.00  0.00    -0.251 OA
BRANCH   6   8
ATOM      8  C   UNL A   1      31.864  24.945  25.006  1.00  0.00     0.111 C 
ATOM      9  C   UNL A   1      30.712  25.916  24.735  1.00  0.00     0.029 C 
ATOM     10  C   UNL A   1      32.092  24.906  26.538  1.00  0.00     0.029 C 
BRANCH   8  11
ATOM     11  C   UNL A   1      31.511  23.472  24.505  1.00  0.00     0.279 C 
BRANCH  11  12
ATOM     12  N   UNL A   1      32.244  22.740  23.417  1.00  0.00    -0.343 N 
ATOM     13  H   UNL A   1      31.663  22.751  22.578  1.00  0.00     0.346 HD
ATOM     14  H   UNL A   1      33.134  23.222  23.293  1.00  0.00     0.346 HD
BRANCH  12  15
ATOM     15  C   UNL A   1      32.568  21.334  23.733  1.00  0.00     0.193 C 
ATOM     16  N   UNL A   1      32.367  18.383  24.076  1.00  0.00    -0.335 N 
ATOM     17  C   UNL A   1      32.769  19.282  25.183  1.00  0.00     0.268 C 
ATOM     18  C   UNL A   1      32.577  19.035  22.788  1.00  0.00     0.268 C 
ATOM     19  H   UNL A   1      31.384  18.171  24.244  1.00  0.00     0.348 HD
ATOM     20  C   UNL A   1      32.164  20.722  25.086  1.00  0.00     0.126 C 
ATOM     21  C   UNL A   1      31.949  20.404  22.681  1.00  0.00     0.126 C 
BRANCH  16  22
ATOM     22  C   UNL A   1      33.150  17.123  24.040  1.00  0.00     0.261 C 
BRANCH  22  23
ATOM     23  C   UNL A   1      34.614  17.250  24.441  1.00  0.00     0.058 C 
ATOM     24  C   UNL A   1      35.112  16.036  25.206  1.00  0.00     0.010 C 
ENDBRANCH  22  23
ENDBRANCH  16  22
ENDBRANCH  12  15
ENDBRANCH  11  12
ENDBRANCH   8  11
ENDBRANCH   6   8
ENDBRANCH   5   6
ENDBRANCH   4   5
ENDBRANCH   3   4
ENDBRANCH   2   3
ENDBRANCH   1   2
BRANCH   1  25
ATOM     25  C   UNL A   1      32.851  29.269  26.414  1.00  0.00     0.188 C 
BRANCH  25  26
ATOM     26  O   UNL A   1      33.887  30.188  26.753  1.00  0.00    -0.377 OA
BRANCH  26  27
ATOM     27  C   UNL A   1      33.558  31.291  27.601  1.00  0.00     0.188 C 
BRANCH  27  28
ATOM     28  C   UNL A   1      34.599  31.798  28.629  1.00  0.00     0.188 C 
BRANCH  28  29
ATOM     29  O   UNL A   1      34.428  33.148  29.017  1.00  0.00    -0.376 OA
BRANCH  29  30
ATOM     30  C   UNL A   1      34.336  33.448  30.396  1.00  0.00     0.202 C 
BRANCH  30  31
ATOM     31  C   UNL A   1      34.746  32.364  31.406  1.00  0.00     0.261 C 
BRANCH  31  32
ATOM     32  O   UNL A   1      35.559  32.776  32.520  1.00  0.00    -0.460 OA
BRANCH  32  33
ATOM     33  C   UNL A   1      36.657  33.532  32.295  1.00  0.00     0.338 C 
ATOM     34  O   UNL A   1      36.881  34.649  32.721  1.00  0.00    -0.246 OA
BRANCH  33  35
ATOM     35  C   UNL A   1      37.658  32.664  31.628  1.00  0.00     0.060 A 
ATOM     36  C   UNL A   1      38.490  31.847  32.411  1.00  0.00     0.016 A 
ATOM     37  C   UNL A   1      37.733  32.605  30.234  1.00  0.00     0.016 A 
ATOM     38  C   UNL A   1      39.414  30.995  31.805  1.00  0.00     0.010 A 
ATOM     39  C   UNL A   1      38.689  31.784  29.629  1.00  0.00     0.010 A 
ATOM     40  C   UNL A   1      39.555  31.001  30.413  1.00  0.00    -0.014 A 
BRANCH  40  41
ATOM     41  C   UNL A   1      40.768  30.407  29.802  1.00  0.00     0.031 A 
ATOM     42  C   UNL A   1      41.953  31.310  29.591  1.00  0.00     0.074 A 
ATOM     43  C   UNL A   1      40.836  29.109  29.458  1.00  0.00     0.049 A 
ATOM     44  N   UNL A   1      43.099  31.064  29.011  1.00  0.00    -0.248 NA
ATOM     45  C   UNL A   1      41.822  32.684  30.106  1.00  0.00     0.031 C 
ATOM     46  C   UNL A   1      39.778  28.122  29.660  1.00  0.00     0.029 A 
ATOM     47  N   UNL A   1      41.844  28.403  28.846  1.00  0.00    -0.354 N 
ATOM     48  C   UNL A   1      43.814  32.254  29.077  1.00  0.00     0.074 A 
ATOM     49  C   UNL A   1      42.971  33.226  29.735  1.00  0.00     0.031 C 
ATOM     50  C   UNL A   1      40.184  26.942  29.156  1.00  0.00     0.029 A 
ATOM     51  C   UNL A   1      41.512  27.102  28.564  1.00  0.00     0.049 A 
ATOM     52  H   UNL A   1      42.721  28.795  28.631  1.00  0.00     0.167 HD
ATOM     53  C   UNL A   1      45.065  32.510  28.629  1.00  0.00     0.037 A 
ATOM     54  C   UNL A   1      42.192  26.163  27.875  1.00  0.00     0.037 A 
ATOM     55  C   UNL A   1      45.902  31.540  27.977  1.00  0.00     0.049 A 
ATOM     56  C   UNL A   1      43.556  26.497  27.318  1.00  0.00     0.074 A 
ATOM     57  C   UNL A   1      47.196  31.693  27.514  1.00  0.00     0.029 A 
ATOM     58  N   UNL A   1      45.520  30.239  27.686  1.00  0.00    -0.354 N 
ATOM     59  N   UNL A   1      44.240  27.611  27.411  1.00  0.00    -0.248 NA
ATOM     60  C   UNL A   1      44.243  25.440  26.563  1.00  0.00     0.031 C 
ATOM     61  C   UNL A   1      47.573  30.505  26.880  1.00  0.00     0.029 A 
ATOM     62  C   UNL A   1      46.542  29.588  27.014  1.00  0.00     0.049 A 
ATOM     63  H   UNL A   1      44.653  29.837  27.922  1.00  0.00     0.167 HD
ATOM     64  C   UNL A   1      45.444  27.380  26.754  1.00  0.00     0.074 A 
ATOM     65  C   UNL A   1      45.405  26.013  26.283  1.00  0.00     0.031 C 
ATOM     66  C   UNL A   1      46.488  28.223  26.557  1.00  0.00     0.037 A 
BRANCH  53  67
ATOM     67  C   UNL A   1      45.590  33.907  28.789  1.00  0.00     0.064 A 
ATOM     68  C   UNL A   1      45.386  34.894  27.813  1.00  0.00     0.173 A 
ATOM     69  C   UNL A   1      46.270  34.272  29.960  1.00  0.00     0.173 A 
ATOM     70  F   UNL A   1      44.759  34.592  26.667  1.00  0.00    -0.203 F 
ATOM     71  C   UNL A   1      45.860  36.191  27.999  1.00  0.00     0.198 A 
ATOM     72  C   UNL A   1      46.715  35.575  30.155  1.00  0.00     0.198 A 
ATOM     73  F   UNL A   1      46.493  33.364  30.924  1.00  0.00    -0.203 F 
ATOM     74  F   UNL A   1      45.693  37.107  27.035  1.00  0.00    -0.200 F 
ATOM     75  C   UNL A   1      46.515  36.532  29.173  1.00  0.00     0.200 A 
ATOM     76  F   UNL A   1      47.335  35.906  31.296  1.00  0.00    -0.200 F 
ATOM     77  F   UNL A   1      46.958  37.784  29.355  1.00  0.00    -0.200 F 
ENDBRANCH  53  67
BRANCH  54  78
ATOM     78  C   UNL A   1      41.585  24.825  27.630  1.00  0.00     0.064 A 
ATOM     79  C   UNL A   1      40.513  24.660  26.742  1.00  0.00     0.173 A 
ATOM     80  C   UNL A   1      42.039  23.688  28.317  1.00  0.00     0.173 A 
ATOM     81  F   UNL A   1      40.021  25.719  26.083  1.00  0.00    -0.203 F 
ATOM     82  C   UNL A   1      39.902  23.419  26.570  1.00  0.00     0.198 A 
ATOM     83  C   UNL A   1      41.450  22.440  28.118  1.00  0.00     0.198 A 
ATOM     84  F   UNL A   1      43.059  23.787  29.184  1.00  0.00    -0.203 F 
ATOM     85  F   UNL A   1      38.840  23.304  25.762  1.00  0.00    -0.200 F 
ATOM     86  C   UNL A   1      40.375  22.309  27.254  1.00  0.00     0.200 A 
ATOM     87  F   UNL A   1      41.919  21.368  28.772  1.00  0.00    -0.200 F 
ATOM     88  F   UNL A   1      39.788  21.117  27.089  1.00  0.00    -0.200 F 
ENDBRANCH  54  78
BRANCH  66  89
ATOM     89  C   UNL A   1      47.692  27.684  25.836  1.00  0.00     0.064 A 
ATOM     90  C   UNL A   1      47.778  27.683  24.436  1.00  0.00     0.173 A 
ATOM     91  C   UNL A   1      48.797  27.207  26.560  1.00  0.00     0.173 A 
ATOM     92  F   UNL A   1      46.746  28.118  23.696  1.00  0.00    -0.203 F 
ATOM     93  C   UNL A   1      48.911  27.198  23.787  1.00  0.00     0.198 A 
ATOM     94  C   UNL A   1      49.942  26.757  25.909  1.00  0.00     0.198 A 
ATOM     95  F   UNL A   1      48.773  27.196  27.901  1.00  0.00    -0.203 F 
ATOM     96  F   UNL A   1      48.949  27.159  22.448  1.00  0.00    -0.200 F 
ATOM     97  C   UNL A   1      49.995  26.744  24.524  1.00  0.00     0.200 A 
ATOM     98  F   UNL A   1      50.995  26.337  26.623  1.00  0.00    -0.200 F 
ATOM     99  F   UNL A   1      51.088  26.288  23.899  1.00  0.00    -0.200 F 
ENDBRANCH  66  89
ENDBRANCH  40  41
ENDBRANCH  33  35
ENDBRANCH  32  33
ENDBRANCH  31  32
ENDBRANCH  30  31
ENDBRANCH  29  30
ENDBRANCH  28  29
ENDBRANCH  27  28
ENDBRANCH  26  27
ENDBRANCH  25  26
ENDBRANCH   1  25
TORSDOF 25
ENDMDL
