MODEL 1
REMARK VINA RESULT:     -11.5      0.000      0.000
REMARK SMILES Cn1c(C[NH+]2CCCC2)nnc1[C@@H]1CCCN(c2cccc(C(=O)OCCOCCOCCOCCOC(=O)c3ccc(-c4c5nc(c(-c6c(F)c(F)c(F)c(F)c6F)c6ccc([nH]6)c(-c6c(F)c(F)c(F)c(F)c6F)c6nc(c(-c7c(F)c(F)c(F)c(F)c7F)c7ccc4[nH]7)C=C6)C=C5)cc3)n2)C1
REMARK SMILES IDX 30 1 29 2 28 3 27 4 26 5 25 6 23 7 24 8 22 9 18 10 19 11
REMARK SMILES IDX 103 12 20 13 21 14 17 15 13 16 14 17 104 18 15 19 16 20
REMARK SMILES IDX 12 21 1 22 2 23 3 24 10 25 11 26 4 27 5 28 6 29 9 30 7 32
REMARK SMILES IDX 8 33 31 34 32 35 33 36 34 37 35 38 36 39 37 40 38 41 39 42
REMARK SMILES IDX 40 43 41 44 102 45 42 46 101 47 43 48 44 49 45 50 95 51
REMARK SMILES IDX 46 52 100 53 94 54 96 55 47 56 99 57 93 58 92 59 48 61 80 62
REMARK SMILES IDX 60 63 79 64 61 65 64 66 78 67 97 68 62 69 63 70 77 72 98 73
REMARK SMILES IDX 65 74 49 75 50 76 58 77 51 78 52 79 56 80 59 81 53 82 54 83
REMARK SMILES IDX 57 84 55 85 81 86 82 87 90 88 83 89 84 90 88 91 91 92 85 93
REMARK SMILES IDX 86 94 89 95 87 96 66 97 67 98 75 99 68 100 69 101 73 102
REMARK SMILES IDX 76 103 70 104 71 105 74 106 72 107
REMARK H PARENT 5 31 96 60 64 71
REMARK Flexibility Score: inf
ROOT
ATOM      1  C   UNL A   1      41.954  19.194  26.278  1.00  0.00     0.188 C 
ENDROOT
BRANCH   1   2
ATOM      2  C   UNL A   1      41.489  20.564  26.792  1.00  0.00     0.188 C 
BRANCH   2   3
ATOM      3  O   UNL A   1      40.924  21.497  25.882  1.00  0.00    -0.376 OA
BRANCH   3   4
ATOM      4  C   UNL A   1      39.645  22.029  26.170  1.00  0.00     0.202 C 
BRANCH   4   5
ATOM      5  C   UNL A   1      38.391  21.353  25.581  1.00  0.00     0.261 C 
BRANCH   5   6
ATOM      6  O   UNL A   1      37.722  21.996  24.470  1.00  0.00    -0.459 OA
BRANCH   6   7
ATOM      7  C   UNL A   1      37.039  23.161  24.717  1.00  0.00     0.357 C 
ATOM      8  O   UNL A   1      37.506  24.126  25.301  1.00  0.00    -0.244 OA
BRANCH   7   9
ATOM      9  C   UNL A   1      35.602  23.074  24.230  1.00  0.00     0.150 A 
ATOM     10  C   UNL A   1      33.431  22.207  24.571  1.00  0.00     0.129 A 
ATOM     11  C   UNL A   1      33.007  22.798  23.386  1.00  0.00     0.047 A 
ATOM     12  N   UNL A   1      34.727  22.318  24.966  1.00  0.00    -0.224 NA
ATOM     13  C   UNL A   1      33.918  23.502  22.595  1.00  0.00     0.006 A 
ATOM     14  C   UNL A   1      35.232  23.658  23.027  1.00  0.00     0.036 A 
BRANCH  10  15
ATOM     15  N   UNL A   1      32.519  21.432  25.309  1.00  0.00    -0.356 N 
ATOM     16  C   UNL A   1      31.874  23.081  27.051  1.00  0.00     0.077 C 
ATOM     17  C   UNL A   1      32.932  22.383  27.963  1.00  0.00     0.015 C 
ATOM     18  C   UNL A   1      31.395  22.039  26.035  1.00  0.00     0.129 C 
ATOM     19  C   UNL A   1      33.601  21.056  27.476  1.00  0.00     0.022 C 
ATOM     20  C   UNL A   1      33.151  20.439  26.149  1.00  0.00     0.118 C 
BRANCH  16  21
ATOM     21  C   UNL A   1      32.314  24.370  26.383  1.00  0.00     0.137 A 
ATOM     22  C   UNL A   1      30.048  25.367  25.760  1.00  0.00     0.153 C 
ATOM     23  N   UNL A   1      31.480  25.263  25.738  1.00  0.00    -0.313 N 
ATOM     24  C   UNL A   1      32.288  26.056  24.961  1.00  0.00     0.187 A 
ATOM     25  N   UNL A   1      33.534  25.844  25.335  1.00  0.00    -0.129 NA
ATOM     26  N   UNL A   1      33.546  24.821  26.252  1.00  0.00    -0.135 NA
BRANCH  24  27
ATOM     27  C   UNL A   1      31.797  26.911  23.827  1.00  0.00     0.341 C 
BRANCH  27  28
ATOM     28  N   UNL A   1      32.137  28.348  23.792  1.00  0.00    -0.329 N 
ATOM     29  C   UNL A   1      31.181  29.152  24.542  1.00  0.00     0.262 C 
ATOM     30  C   UNL A   1      32.170  29.010  22.492  1.00  0.00     0.262 C 
ATOM     31  H   UNL A   1      33.081  28.314  24.176  1.00  0.00     0.348 HD
ATOM     32  C   UNL A   1      30.074  29.503  23.551  1.00  0.00     0.067 C 
ATOM     33  C   UNL A   1      30.735  29.419  22.184  1.00  0.00     0.067 C 
ENDBRANCH  27  28
ENDBRANCH  24  27
ENDBRANCH  16  21
ENDBRANCH  10  15
ENDBRANCH   7   9
ENDBRANCH   6   7
ENDBRANCH   5   6
ENDBRANCH   4   5
ENDBRANCH   3   4
ENDBRANCH   2   3
ENDBRANCH   1   2
BRANCH   1  34
ATOM     34  O   UNL A   1      42.782  19.192  25.129  1.00  0.00    -0.377 OA
BRANCH  34  35
ATOM     35  C   UNL A   1      44.125  18.757  25.263  1.00  0.00     0.188 C 
BRANCH  35  36
ATOM     36  C   UNL A   1      45.118  19.246  24.195  1.00  0.00     0.188 C 
BRANCH  36  37
ATOM     37  O   UNL A   1      44.938  20.525  23.589  1.00  0.00    -0.376 OA
BRANCH  37  38
ATOM     38  C   UNL A   1      44.868  21.673  24.418  1.00  0.00     0.202 C 
BRANCH  38  39
ATOM     39  C   UNL A   1      44.349  22.973  23.821  1.00  0.00     0.261 C 
BRANCH  39  40
ATOM     40  O   UNL A   1      43.652  23.695  24.845  1.00  0.00    -0.460 OA
BRANCH  40  41
ATOM     41  C   UNL A   1      44.198  24.886  25.135  1.00  0.00     0.338 C 
ATOM     42  O   UNL A   1      45.217  25.382  24.666  1.00  0.00    -0.246 OA
BRANCH  41  43
ATOM     43  C   UNL A   1      43.245  25.648  25.937  1.00  0.00     0.060 A 
ATOM     44  C   UNL A   1      43.612  26.965  26.225  1.00  0.00     0.016 A 
ATOM     45  C   UNL A   1      42.074  25.086  26.454  1.00  0.00     0.016 A 
ATOM     46  C   UNL A   1      42.853  27.708  27.105  1.00  0.00     0.010 A 
ATOM     47  C   UNL A   1      41.320  25.829  27.364  1.00  0.00     0.010 A 
ATOM     48  C   UNL A   1      41.750  27.115  27.731  1.00  0.00    -0.014 A 
BRANCH  48  49
ATOM     49  C   UNL A   1      41.249  27.790  28.944  1.00  0.00     0.031 A 
ATOM     50  C   UNL A   1      42.042  27.640  30.211  1.00  0.00     0.074 A 
ATOM     51  C   UNL A   1      40.225  28.653  28.853  1.00  0.00     0.049 A 
ATOM     52  N   UNL A   1      41.874  28.222  31.370  1.00  0.00    -0.248 NA
ATOM     53  C   UNL A   1      43.196  26.724  30.162  1.00  0.00     0.031 C 
ATOM     54  C   UNL A   1      39.457  28.923  27.639  1.00  0.00     0.029 A 
ATOM     55  N   UNL A   1      39.681  29.484  29.793  1.00  0.00    -0.354 N 
ATOM     56  C   UNL A   1      42.901  27.751  32.178  1.00  0.00     0.074 A 
ATOM     57  C   UNL A   1      43.667  26.807  31.397  1.00  0.00     0.031 C 
ATOM     58  C   UNL A   1      38.535  29.862  27.909  1.00  0.00     0.029 A 
ATOM     59  C   UNL A   1      38.632  30.231  29.319  1.00  0.00     0.049 A 
ATOM     60  H   UNL A   1      40.009  29.541  30.720  1.00  0.00     0.167 HD
ATOM     61  C   UNL A   1      43.185  28.092  33.456  1.00  0.00     0.037 A 
ATOM     62  C   UNL A   1      37.834  31.098  29.969  1.00  0.00     0.037 A 
ATOM     63  C   UNL A   1      42.409  29.034  34.218  1.00  0.00     0.049 A 
ATOM     64  C   UNL A   1      38.117  31.385  31.420  1.00  0.00     0.074 A 
ATOM     65  C   UNL A   1      42.585  29.439  35.528  1.00  0.00     0.029 A 
ATOM     66  N   UNL A   1      41.302  29.716  33.731  1.00  0.00    -0.354 N 
ATOM     67  N   UNL A   1      39.083  30.931  32.184  1.00  0.00    -0.248 NA
ATOM     68  C   UNL A   1      37.203  32.313  32.098  1.00  0.00     0.031 C 
ATOM     69  C   UNL A   1      41.549  30.321  35.852  1.00  0.00     0.029 A 
ATOM     70  C   UNL A   1      40.768  30.519  34.724  1.00  0.00     0.049 A 
ATOM     71  H   UNL A   1      40.949  29.639  32.815  1.00  0.00     0.167 HD
ATOM     72  C   UNL A   1      38.910  31.536  33.422  1.00  0.00     0.074 A 
ATOM     73  C   UNL A   1      37.762  32.412  33.295  1.00  0.00     0.031 C 
ATOM     74  C   UNL A   1      39.623  31.380  34.565  1.00  0.00     0.037 A 
BRANCH  61  75
ATOM     75  C   UNL A   1      44.354  27.423  34.117  1.00  0.00     0.064 A 
ATOM     76  C   UNL A   1      44.251  26.147  34.694  1.00  0.00     0.173 A 
ATOM     77  C   UNL A   1      45.609  28.051  34.140  1.00  0.00     0.173 A 
ATOM     78  F   UNL A   1      43.070  25.511  34.720  1.00  0.00    -0.203 F 
ATOM     79  C   UNL A   1      45.357  25.534  35.280  1.00  0.00     0.198 A 
ATOM     80  C   UNL A   1      46.717  27.423  34.698  1.00  0.00     0.198 A 
ATOM     81  F   UNL A   1      45.761  29.273  33.607  1.00  0.00    -0.203 F 
ATOM     82  F   UNL A   1      45.226  24.333  35.860  1.00  0.00    -0.200 F 
ATOM     83  C   UNL A   1      46.591  26.167  35.272  1.00  0.00     0.200 A 
ATOM     84  F   UNL A   1      47.912  28.032  34.680  1.00  0.00    -0.200 F 
ATOM     85  F   UNL A   1      47.656  25.569  35.822  1.00  0.00    -0.200 F 
ENDBRANCH  61  75
BRANCH  62  86
ATOM     86  C   UNL A   1      36.678  31.718  29.269  1.00  0.00     0.064 A 
ATOM     87  C   UNL A   1      36.654  33.085  28.959  1.00  0.00     0.173 A 
ATOM     88  C   UNL A   1      35.549  30.956  28.932  1.00  0.00     0.173 A 
ATOM     89  F   UNL A   1      37.698  33.863  29.277  1.00  0.00    -0.203 F 
ATOM     90  C   UNL A   1      35.532  33.670  28.373  1.00  0.00     0.198 A 
ATOM     91  C   UNL A   1      34.444  31.533  28.312  1.00  0.00     0.198 A 
ATOM     92  F   UNL A   1      35.518  29.643  29.204  1.00  0.00    -0.203 F 
ATOM     93  F   UNL A   1      35.509  34.991  28.150  1.00  0.00    -0.200 F 
ATOM     94  C   UNL A   1      34.430  32.893  28.046  1.00  0.00     0.200 A 
ATOM     95  F   UNL A   1      33.390  30.775  27.984  1.00  0.00    -0.200 F 
ATOM     96  F   UNL A   1      33.351  33.458  27.487  1.00  0.00    -0.200 F 
ENDBRANCH  62  86
BRANCH  74  97
ATOM     97  C   UNL A   1      39.198  32.202  35.749  1.00  0.00     0.064 A 
ATOM     98  C   UNL A   1      39.631  33.525  35.923  1.00  0.00     0.173 A 
ATOM     99  C   UNL A   1      38.339  31.659  36.718  1.00  0.00     0.173 A 
ATOM    100  F   UNL A   1      40.462  34.086  35.030  1.00  0.00    -0.203 F 
ATOM    101  C   UNL A   1      39.261  34.257  37.046  1.00  0.00     0.198 A 
ATOM    102  C   UNL A   1      37.936  32.410  37.819  1.00  0.00     0.198 A 
ATOM    103  F   UNL A   1      37.883  30.404  36.593  1.00  0.00    -0.203 F 
ATOM    104  F   UNL A   1      39.747  35.492  37.228  1.00  0.00    -0.200 F 
ATOM    105  C   UNL A   1      38.409  33.702  37.989  1.00  0.00     0.200 A 
ATOM    106  F   UNL A   1      37.097  31.878  38.719  1.00  0.00    -0.200 F 
ATOM    107  F   UNL A   1      38.053  34.408  39.071  1.00  0.00    -0.200 F 
ENDBRANCH  74  97
ENDBRANCH  48  49
ENDBRANCH  41  43
ENDBRANCH  40  41
ENDBRANCH  39  40
ENDBRANCH  38  39
ENDBRANCH  37  38
ENDBRANCH  36  37
ENDBRANCH  35  36
ENDBRANCH  34  35
ENDBRANCH   1  34
TORSDOF 24
ENDMDL
MODEL 2
REMARK VINA RESULT:     -11.2      5.190     10.681
REMARK SMILES Cn1c(C[NH+]2CCCC2)nnc1[C@@H]1CCCN(c2cccc(C(=O)OCCOCCOCCOCCOC(=O)c3ccc(-c4c5nc(c(-c6c(F)c(F)c(F)c(F)c6F)c6ccc([nH]6)c(-c6c(F)c(F)c(F)c(F)c6F)c6nc(c(-c7c(F)c(F)c(F)c(F)c7F)c7ccc4[nH]7)C=C6)C=C5)cc3)n2)C1
REMARK SMILES IDX 30 1 29 2 28 3 27 4 26 5 25 6 23 7 24 8 22 9 18 10 19 11
REMARK SMILES IDX 103 12 20 13 21 14 17 15 13 16 14 17 104 18 15 19 16 20
REMARK SMILES IDX 12 21 1 22 2 23 3 24 10 25 11 26 4 27 5 28 6 29 9 30 7 32
REMARK SMILES IDX 8 33 31 34 32 35 33 36 34 37 35 38 36 39 37 40 38 41 39 42
REMARK SMILES IDX 40 43 41 44 102 45 42 46 101 47 43 48 44 49 45 50 95 51
REMARK SMILES IDX 46 52 100 53 94 54 96 55 47 56 99 57 93 58 92 59 48 61 80 62
REMARK SMILES IDX 60 63 79 64 61 65 64 66 78 67 97 68 62 69 63 70 77 72 98 73
REMARK SMILES IDX 65 74 49 75 50 76 58 77 51 78 52 79 56 80 59 81 53 82 54 83
REMARK SMILES IDX 57 84 55 85 81 86 82 87 90 88 83 89 84 90 88 91 91 92 85 93
REMARK SMILES IDX 86 94 89 95 87 96 66 97 67 98 75 99 68 100 69 101 73 102
REMARK SMILES IDX 76 103 70 104 71 105 74 106 72 107
REMARK H PARENT 5 31 96 60 64 71
REMARK Flexibility Score: inf
ROOT
ATOM      1  C   UNL A   1      34.930  34.747  28.281  1.00  0.00     0.188 C 
ENDROOT
BRANCH   1   2
ATOM      2  C   UNL A   1      34.176  33.419  28.122  1.00  0.00     0.188 C 
BRANCH   2   3
ATOM      3  O   UNL A   1      34.826  32.316  27.507  1.00  0.00    -0.376 OA
BRANCH   3   4
ATOM      4  C   UNL A   1      34.240  31.034  27.632  1.00  0.00     0.202 C 
BRANCH   4   5
ATOM      5  C   UNL A   1      35.112  29.777  27.434  1.00  0.00     0.261 C 
BRANCH   5   6
ATOM      6  O   UNL A   1      34.452  28.493  27.337  1.00  0.00    -0.459 OA
BRANCH   6   7
ATOM      7  C   UNL A   1      33.793  28.195  26.169  1.00  0.00     0.357 C 
ATOM      8  O   UNL A   1      33.587  28.994  25.269  1.00  0.00    -0.244 OA
BRANCH   7   9
ATOM      9  C   UNL A   1      33.293  26.761  26.166  1.00  0.00     0.150 A 
ATOM     10  C   UNL A   1      33.652  24.527  25.486  1.00  0.00     0.129 A 
ATOM     11  C   UNL A   1      32.432  24.159  26.043  1.00  0.00     0.047 A 
ATOM     12  N   UNL A   1      34.057  25.824  25.519  1.00  0.00    -0.224 NA
ATOM     13  C   UNL A   1      31.617  25.128  26.633  1.00  0.00     0.006 A 
ATOM     14  C   UNL A   1      32.056  26.446  26.711  1.00  0.00     0.036 A 
BRANCH  10  15
ATOM     15  N   UNL A   1      34.418  23.551  24.822  1.00  0.00    -0.356 N 
ATOM     16  C   UNL A   1      33.672  23.945  22.487  1.00  0.00     0.077 C 
ATOM     17  C   UNL A   1      32.679  22.760  22.708  1.00  0.00     0.015 C 
ATOM     18  C   UNL A   1      34.857  23.725  23.432  1.00  0.00     0.129 C 
ATOM     19  C   UNL A   1      32.794  21.904  24.011  1.00  0.00     0.022 C 
ATOM     20  C   UNL A   1      33.921  22.205  25.003  1.00  0.00     0.118 C 
BRANCH  16  21
ATOM     21  C   UNL A   1      33.089  25.339  22.617  1.00  0.00     0.137 A 
ATOM     22  C   UNL A   1      30.669  24.778  23.202  1.00  0.00     0.153 C 
ATOM     23  N   UNL A   1      31.753  25.634  22.812  1.00  0.00    -0.313 N 
ATOM     24  C   UNL A   1      31.597  26.960  22.488  1.00  0.00     0.187 A 
ATOM     25  N   UNL A   1      32.800  27.489  22.386  1.00  0.00    -0.129 NA
ATOM     26  N   UNL A   1      33.730  26.487  22.508  1.00  0.00    -0.135 NA
BRANCH  24  27
ATOM     27  C   UNL A   1      30.273  27.611  22.203  1.00  0.00     0.341 C 
BRANCH  27  28
ATOM     28  N   UNL A   1      29.629  28.445  23.238  1.00  0.00    -0.329 N 
ATOM     29  C   UNL A   1      28.187  28.522  23.055  1.00  0.00     0.262 C 
ATOM     30  C   UNL A   1      30.022  29.848  23.325  1.00  0.00     0.262 C 
ATOM     31  H   UNL A   1      29.942  27.956  24.076  1.00  0.00     0.348 HD
ATOM     32  C   UNL A   1      27.954  29.703  22.116  1.00  0.00     0.067 C 
ATOM     33  C   UNL A   1      29.173  30.593  22.302  1.00  0.00     0.067 C 
ENDBRANCH  27  28
ENDBRANCH  24  27
ENDBRANCH  16  21
ENDBRANCH  10  15
ENDBRANCH   7   9
ENDBRANCH   6   7
ENDBRANCH   5   6
ENDBRANCH   4   5
ENDBRANCH   3   4
ENDBRANCH   2   3
ENDBRANCH   1   2
BRANCH   1  34
ATOM     34  O   UNL A   1      34.141  35.913  28.435  1.00  0.00    -0.377 OA
BRANCH  34  35
ATOM     35  C   UNL A   1      32.905  35.808  29.124  1.00  0.00     0.188 C 
BRANCH  35  36
ATOM     36  C   UNL A   1      32.938  36.051  30.642  1.00  0.00     0.188 C 
BRANCH  36  37
ATOM     37  O   UNL A   1      33.046  34.945  31.536  1.00  0.00    -0.376 OA
BRANCH  37  38
ATOM     38  C   UNL A   1      34.323  34.377  31.773  1.00  0.00     0.202 C 
BRANCH  38  39
ATOM     39  C   UNL A   1      34.451  33.280  32.819  1.00  0.00     0.261 C 
BRANCH  39  40
ATOM     40  O   UNL A   1      35.193  32.193  32.248  1.00  0.00    -0.460 OA
BRANCH  40  41
ATOM     41  C   UNL A   1      36.315  31.892  32.919  1.00  0.00     0.338 C 
ATOM     42  O   UNL A   1      36.536  32.029  34.117  1.00  0.00    -0.246 OA
BRANCH  41  43
ATOM     43  C   UNL A   1      37.188  31.122  32.037  1.00  0.00     0.060 A 
ATOM     44  C   UNL A   1      38.115  30.294  32.675  1.00  0.00     0.016 A 
ATOM     45  C   UNL A   1      37.159  31.252  30.645  1.00  0.00     0.016 A 
ATOM     46  C   UNL A   1      39.082  29.653  31.929  1.00  0.00     0.010 A 
ATOM     47  C   UNL A   1      38.154  30.623  29.894  1.00  0.00     0.010 A 
ATOM     48  C   UNL A   1      39.147  29.876  30.549  1.00  0.00    -0.014 A 
BRANCH  48  49
ATOM     49  C   UNL A   1      40.418  29.521  29.890  1.00  0.00     0.031 A 
ATOM     50  C   UNL A   1      40.519  28.171  29.237  1.00  0.00     0.074 A 
ATOM     51  C   UNL A   1      41.369  30.453  29.727  1.00  0.00     0.049 A 
ATOM     52  N   UNL A   1      41.480  27.673  28.503  1.00  0.00    -0.248 NA
ATOM     53  C   UNL A   1      39.373  27.263  29.420  1.00  0.00     0.031 C 
ATOM     54  C   UNL A   1      41.311  31.816  30.253  1.00  0.00     0.029 A 
ATOM     55  N   UNL A   1      42.553  30.402  29.043  1.00  0.00    -0.354 N 
ATOM     56  C   UNL A   1      41.048  26.406  28.132  1.00  0.00     0.074 A 
ATOM     57  C   UNL A   1      39.761  26.190  28.749  1.00  0.00     0.031 C 
ATOM     58  C   UNL A   1      42.417  32.476  29.870  1.00  0.00     0.029 A 
ATOM     59  C   UNL A   1      43.268  31.571  29.102  1.00  0.00     0.049 A 
ATOM     60  H   UNL A   1      42.863  29.603  28.556  1.00  0.00     0.167 HD
ATOM     61  C   UNL A   1      41.672  25.510  27.332  1.00  0.00     0.037 A 
ATOM     62  C   UNL A   1      44.483  31.859  28.602  1.00  0.00     0.037 A 
ATOM     63  C   UNL A   1      42.956  25.743  26.727  1.00  0.00     0.049 A 
ATOM     64  C   UNL A   1      45.196  30.805  27.795  1.00  0.00     0.074 A 
ATOM     65  C   UNL A   1      43.697  24.901  25.920  1.00  0.00     0.029 A 
ATOM     66  N   UNL A   1      43.691  26.912  26.871  1.00  0.00    -0.354 N 
ATOM     67  N   UNL A   1      44.790  29.605  27.454  1.00  0.00    -0.248 NA
ATOM     68  C   UNL A   1      46.532  31.151  27.295  1.00  0.00     0.031 C 
ATOM     69  C   UNL A   1      44.907  25.537  25.624  1.00  0.00     0.029 A 
ATOM     70  C   UNL A   1      44.892  26.803  26.189  1.00  0.00     0.049 A 
ATOM     71  H   UNL A   1      43.402  27.703  27.384  1.00  0.00     0.167 HD
ATOM     72  C   UNL A   1      45.807  29.062  26.680  1.00  0.00     0.074 A 
ATOM     73  C   UNL A   1      46.835  30.078  26.578  1.00  0.00     0.031 C 
ATOM     74  C   UNL A   1      45.895  27.834  26.109  1.00  0.00     0.037 A 
BRANCH  61  75
ATOM     75  C   UNL A   1      40.995  24.192  27.095  1.00  0.00     0.064 A 
ATOM     76  C   UNL A   1      41.465  23.001  27.671  1.00  0.00     0.173 A 
ATOM     77  C   UNL A   1      39.833  24.125  26.310  1.00  0.00     0.173 A 
ATOM     78  F   UNL A   1      42.583  23.005  28.411  1.00  0.00    -0.203 F 
ATOM     79  C   UNL A   1      40.804  21.792  27.457  1.00  0.00     0.198 A 
ATOM     80  C   UNL A   1      39.160  22.921  26.124  1.00  0.00     0.198 A 
ATOM     81  F   UNL A   1      39.345  25.232  25.732  1.00  0.00    -0.203 F 
ATOM     82  F   UNL A   1      41.294  20.662  27.984  1.00  0.00    -0.200 F 
ATOM     83  C   UNL A   1      39.647  21.756  26.694  1.00  0.00     0.200 A 
ATOM     84  F   UNL A   1      38.036  22.890  25.395  1.00  0.00    -0.200 F 
ATOM     85  F   UNL A   1      39.006  20.595  26.502  1.00  0.00    -0.200 F 
ENDBRANCH  61  75
BRANCH  62  86
ATOM     86  C   UNL A   1      45.115  33.175  28.884  1.00  0.00     0.064 A 
ATOM     87  C   UNL A   1      44.952  34.268  28.022  1.00  0.00     0.173 A 
ATOM     88  C   UNL A   1      45.935  33.352  30.009  1.00  0.00     0.173 A 
ATOM     89  F   UNL A   1      44.195  34.148  26.922  1.00  0.00    -0.203 F 
ATOM     90  C   UNL A   1      45.612  35.474  28.256  1.00  0.00     0.198 A 
ATOM     91  C   UNL A   1      46.564  34.568  30.263  1.00  0.00     0.198 A 
ATOM     92  F   UNL A   1      46.126  32.339  30.868  1.00  0.00    -0.203 F 
ATOM     93  F   UNL A   1      45.493  36.480  27.380  1.00  0.00    -0.200 F 
ATOM     94  C   UNL A   1      46.414  35.624  29.379  1.00  0.00     0.200 A 
ATOM     95  F   UNL A   1      47.324  34.712  31.357  1.00  0.00    -0.200 F 
ATOM     96  F   UNL A   1      47.052  36.781  29.599  1.00  0.00    -0.200 F 
ENDBRANCH  62  86
BRANCH  74  97
ATOM     97  C   UNL A   1      47.129  27.546  25.301  1.00  0.00     0.064 A 
ATOM     98  C   UNL A   1      47.171  27.764  23.916  1.00  0.00     0.173 A 
ATOM     99  C   UNL A   1      48.286  27.053  25.924  1.00  0.00     0.173 A 
ATOM    100  F   UNL A   1      46.087  28.225  23.271  1.00  0.00    -0.203 F 
ATOM    101  C   UNL A   1      48.308  27.454  23.177  1.00  0.00     0.198 A 
ATOM    102  C   UNL A   1      49.436  26.783  25.187  1.00  0.00     0.198 A 
ATOM    103  F   UNL A   1      48.305  26.840  27.247  1.00  0.00    -0.203 F 
ATOM    104  F   UNL A   1      48.299  27.600  21.845  1.00  0.00    -0.200 F 
ATOM    105  C   UNL A   1      49.441  26.970  23.813  1.00  0.00     0.200 A 
ATOM    106  F   UNL A   1      50.536  26.335  25.807  1.00  0.00    -0.200 F 
ATOM    107  F   UNL A   1      50.535  26.670  23.100  1.00  0.00    -0.200 F 
ENDBRANCH  74  97
ENDBRANCH  48  49
ENDBRANCH  41  43
ENDBRANCH  40  41
ENDBRANCH  39  40
ENDBRANCH  38  39
ENDBRANCH  37  38
ENDBRANCH  36  37
ENDBRANCH  35  36
ENDBRANCH  34  35
ENDBRANCH   1  34
TORSDOF 24
ENDMDL
MODEL 3
REMARK VINA RESULT:     -11.2      5.113     10.554
REMARK SMILES Cn1c(C[NH+]2CCCC2)nnc1[C@@H]1CCCN(c2cccc(C(=O)OCCOCCOCCOCCOC(=O)c3ccc(-c4c5nc(c(-c6c(F)c(F)c(F)c(F)c6F)c6ccc([nH]6)c(-c6c(F)c(F)c(F)c(F)c6F)c6nc(c(-c7c(F)c(F)c(F)c(F)c7F)c7ccc4[nH]7)C=C6)C=C5)cc3)n2)C1
REMARK SMILES IDX 30 1 29 2 28 3 27 4 26 5 25 6 23 7 24 8 22 9 18 10 19 11
REMARK SMILES IDX 103 12 20 13 21 14 17 15 13 16 14 17 104 18 15 19 16 20
REMARK SMILES IDX 12 21 1 22 2 23 3 24 10 25 11 26 4 27 5 28 6 29 9 30 7 32
REMARK SMILES IDX 8 33 31 34 32 35 33 36 34 37 35 38 36 39 37 40 38 41 39 42
REMARK SMILES IDX 40 43 41 44 102 45 42 46 101 47 43 48 44 49 45 50 95 51
REMARK SMILES IDX 46 52 100 53 94 54 96 55 47 56 99 57 93 58 92 59 48 61 80 62
REMARK SMILES IDX 60 63 79 64 61 65 64 66 78 67 97 68 62 69 63 70 77 72 98 73
REMARK SMILES IDX 65 74 49 75 50 76 58 77 51 78 52 79 56 80 59 81 53 82 54 83
REMARK SMILES IDX 57 84 55 85 81 86 82 87 90 88 83 89 84 90 88 91 91 92 85 93
REMARK SMILES IDX 86 94 89 95 87 96 66 97 67 98 75 99 68 100 69 101 73 102
REMARK SMILES IDX 76 103 70 104 71 105 74 106 72 107
REMARK H PARENT 5 31 96 60 64 71
REMARK Flexibility Score: inf
ROOT
ATOM      1  C   UNL A   1      34.913  33.786  28.185  1.00  0.00     0.188 C 
ENDROOT
BRANCH   1   2
ATOM      2  C   UNL A   1      33.703  32.883  27.904  1.00  0.00     0.188 C 
BRANCH   2   3
ATOM      3  O   UNL A   1      33.912  31.573  27.396  1.00  0.00    -0.376 OA
BRANCH   3   4
ATOM      4  C   UNL A   1      35.032  30.843  27.857  1.00  0.00     0.202 C 
BRANCH   4   5
ATOM      5  C   UNL A   1      35.201  29.367  27.444  1.00  0.00     0.261 C 
BRANCH   5   6
ATOM      6  O   UNL A   1      34.009  28.568  27.249  1.00  0.00    -0.459 OA
BRANCH   6   7
ATOM      7  C   UNL A   1      33.781  28.050  25.998  1.00  0.00     0.357 C 
ATOM      8  O   UNL A   1      33.856  28.689  24.960  1.00  0.00    -0.244 OA
BRANCH   7   9
ATOM      9  C   UNL A   1      33.357  26.593  26.072  1.00  0.00     0.150 A 
ATOM     10  C   UNL A   1      33.762  24.364  25.401  1.00  0.00     0.129 A 
ATOM     11  C   UNL A   1      32.623  23.949  26.085  1.00  0.00     0.047 A 
ATOM     12  N   UNL A   1      34.100  25.680  25.370  1.00  0.00    -0.224 NA
ATOM     13  C   UNL A   1      31.822  24.891  26.735  1.00  0.00     0.006 A 
ATOM     14  C   UNL A   1      32.198  26.231  26.744  1.00  0.00     0.036 A 
BRANCH  10  15
ATOM     15  N   UNL A   1      34.507  23.412  24.682  1.00  0.00    -0.356 N 
ATOM     16  C   UNL A   1      33.561  23.761  22.412  1.00  0.00     0.077 C 
ATOM     17  C   UNL A   1      32.634  22.542  22.718  1.00  0.00     0.015 C 
ATOM     18  C   UNL A   1      34.826  23.591  23.260  1.00  0.00     0.129 C 
ATOM     19  C   UNL A   1      32.884  21.700  24.012  1.00  0.00     0.022 C 
ATOM     20  C   UNL A   1      34.075  22.050  24.909  1.00  0.00     0.118 C 
BRANCH  16  21
ATOM     21  C   UNL A   1      32.940  25.134  22.583  1.00  0.00     0.137 A 
ATOM     22  C   UNL A   1      30.588  24.489  23.337  1.00  0.00     0.153 C 
ATOM     23  N   UNL A   1      31.611  25.381  22.871  1.00  0.00    -0.313 N 
ATOM     24  C   UNL A   1      31.386  26.700  22.559  1.00  0.00     0.187 A 
ATOM     25  N   UNL A   1      32.559  27.272  22.373  1.00  0.00    -0.129 NA
ATOM     26  N   UNL A   1      33.531  26.303  22.429  1.00  0.00    -0.135 NA
BRANCH  24  27
ATOM     27  C   UNL A   1      30.023  27.303  22.368  1.00  0.00     0.341 C 
BRANCH  27  28
ATOM     28  N   UNL A   1      29.549  28.352  23.294  1.00  0.00    -0.329 N 
ATOM     29  C   UNL A   1      28.145  28.672  23.080  1.00  0.00     0.262 C 
ATOM     30  C   UNL A   1      30.195  29.659  23.233  1.00  0.00     0.262 C 
ATOM     31  H   UNL A   1      29.770  27.909  24.186  1.00  0.00     0.348 HD
ATOM     32  C   UNL A   1      28.131  29.764  22.013  1.00  0.00     0.067 C 
ATOM     33  C   UNL A   1      29.494  30.430  22.121  1.00  0.00     0.067 C 
ENDBRANCH  27  28
ENDBRANCH  24  27
ENDBRANCH  16  21
ENDBRANCH  10  15
ENDBRANCH   7   9
ENDBRANCH   6   7
ENDBRANCH   5   6
ENDBRANCH   4   5
ENDBRANCH   3   4
ENDBRANCH   2   3
ENDBRANCH   1   2
BRANCH   1  34
ATOM     34  O   UNL A   1      34.683  34.923  28.998  1.00  0.00    -0.377 OA
BRANCH  34  35
ATOM     35  C   UNL A   1      33.351  35.228  29.376  1.00  0.00     0.188 C 
BRANCH  35  36
ATOM     36  C   UNL A   1      33.146  35.782  30.795  1.00  0.00     0.188 C 
BRANCH  36  37
ATOM     37  O   UNL A   1      34.140  35.563  31.794  1.00  0.00    -0.376 OA
BRANCH  37  38
ATOM     38  C   UNL A   1      33.858  34.672  32.860  1.00  0.00     0.202 C 
BRANCH  38  39
ATOM     39  C   UNL A   1      34.418  33.259  32.796  1.00  0.00     0.261 C 
BRANCH  39  40
ATOM     40  O   UNL A   1      35.821  33.340  32.512  1.00  0.00    -0.460 OA
BRANCH  40  41
ATOM     41  C   UNL A   1      36.575  32.529  33.268  1.00  0.00     0.338 C 
ATOM     42  O   UNL A   1      36.534  32.378  34.485  1.00  0.00    -0.246 OA
BRANCH  41  43
ATOM     43  C   UNL A   1      37.317  31.632  32.387  1.00  0.00     0.060 A 
ATOM     44  C   UNL A   1      38.456  31.042  32.941  1.00  0.00     0.016 A 
ATOM     45  C   UNL A   1      36.965  31.425  31.049  1.00  0.00     0.016 A 
ATOM     46  C   UNL A   1      39.304  30.309  32.138  1.00  0.00     0.010 A 
ATOM     47  C   UNL A   1      37.836  30.704  30.232  1.00  0.00     0.010 A 
ATOM     48  C   UNL A   1      39.033  30.202  30.769  1.00  0.00    -0.014 A 
BRANCH  48  49
ATOM     49  C   UNL A   1      40.159  29.786  29.912  1.00  0.00     0.031 A 
ATOM     50  C   UNL A   1      41.296  30.751  29.726  1.00  0.00     0.074 A 
ATOM     51  C   UNL A   1      40.236  28.519  29.477  1.00  0.00     0.049 A 
ATOM     52  N   UNL A   1      42.442  30.579  29.119  1.00  0.00    -0.248 NA
ATOM     53  C   UNL A   1      41.128  32.089  30.321  1.00  0.00     0.031 C 
ATOM     54  C   UNL A   1      39.216  27.493  29.690  1.00  0.00     0.029 A 
ATOM     55  N   UNL A   1      41.231  27.874  28.796  1.00  0.00    -0.354 N 
ATOM     56  C   UNL A   1      43.129  31.777  29.270  1.00  0.00     0.074 A 
ATOM     57  C   UNL A   1      42.264  32.684  29.988  1.00  0.00     0.031 C 
ATOM     58  C   UNL A   1      39.641  26.340  29.147  1.00  0.00     0.029 A 
ATOM     59  C   UNL A   1      40.944  26.560  28.525  1.00  0.00     0.049 A 
ATOM     60  H   UNL A   1      42.072  28.310  28.525  1.00  0.00     0.167 HD
ATOM     61  C   UNL A   1      44.380  32.083  28.855  1.00  0.00     0.037 A 
ATOM     62  C   UNL A   1      41.656  25.651  27.834  1.00  0.00     0.037 A 
ATOM     63  C   UNL A   1      45.226  31.166  28.139  1.00  0.00     0.049 A 
ATOM     64  C   UNL A   1      43.006  26.052  27.300  1.00  0.00     0.074 A 
ATOM     65  C   UNL A   1      46.501  31.371  27.645  1.00  0.00     0.029 A 
ATOM     66  N   UNL A   1      44.873  29.863  27.812  1.00  0.00    -0.354 N 
ATOM     67  N   UNL A   1      43.649  27.188  27.436  1.00  0.00    -0.248 NA
ATOM     68  C   UNL A   1      43.735  25.040  26.526  1.00  0.00     0.031 C 
ATOM     69  C   UNL A   1      46.896  30.213  26.968  1.00  0.00     0.029 A 
ATOM     70  C   UNL A   1      45.896  29.261  27.098  1.00  0.00     0.049 A 
ATOM     71  H   UNL A   1      44.020  29.432  28.051  1.00  0.00     0.167 HD
ATOM     72  C   UNL A   1      44.866  27.020  26.788  1.00  0.00     0.074 A 
ATOM     73  C   UNL A   1      44.880  25.661  26.286  1.00  0.00     0.031 C 
ATOM     74  C   UNL A   1      45.879  27.905  26.611  1.00  0.00     0.037 A 
BRANCH  61  75
ATOM     75  C   UNL A   1      44.892  33.466  29.132  1.00  0.00     0.064 A 
ATOM     76  C   UNL A   1      44.658  34.534  28.252  1.00  0.00     0.173 A 
ATOM     77  C   UNL A   1      45.595  33.735  30.317  1.00  0.00     0.173 A 
ATOM     78  F   UNL A   1      44.012  34.328  27.095  1.00  0.00    -0.203 F 
ATOM     79  C   UNL A   1      45.121  35.817  28.543  1.00  0.00     0.198 A 
ATOM     80  C   UNL A   1      46.028  35.023  30.617  1.00  0.00     0.198 A 
ATOM     81  F   UNL A   1      45.849  32.749  31.189  1.00  0.00    -0.203 F 
ATOM     82  F   UNL A   1      44.922  36.813  27.670  1.00  0.00    -0.200 F 
ATOM     83  C   UNL A   1      45.796  36.061  29.730  1.00  0.00     0.200 A 
ATOM     84  F   UNL A   1      46.671  35.259  31.770  1.00  0.00    -0.200 F 
ATOM     85  F   UNL A   1      46.228  37.298  30.014  1.00  0.00    -0.200 F 
ENDBRANCH  61  75
BRANCH  62  86
ATOM     86  C   UNL A   1      41.092  24.300  27.573  1.00  0.00     0.064 A 
ATOM     87  C   UNL A   1      41.640  23.150  28.154  1.00  0.00     0.173 A 
ATOM     88  C   UNL A   1      40.008  24.132  26.696  1.00  0.00     0.173 A 
ATOM     89  F   UNL A   1      42.689  23.253  28.984  1.00  0.00    -0.203 F 
ATOM     90  C   UNL A   1      41.152  21.882  27.841  1.00  0.00     0.198 A 
ATOM     91  C   UNL A   1      39.496  22.868  26.413  1.00  0.00     0.198 A 
ATOM     92  F   UNL A   1      39.443  25.199  26.112  1.00  0.00    -0.203 F 
ATOM     93  F   UNL A   1      41.739  20.794  28.358  1.00  0.00    -0.200 F 
ATOM     94  C   UNL A   1      40.077  21.743  26.974  1.00  0.00     0.200 A 
ATOM     95  F   UNL A   1      38.448  22.742  25.588  1.00  0.00    -0.200 F 
ATOM     96  F   UNL A   1      39.612  20.524  26.670  1.00  0.00    -0.200 F 
ENDBRANCH  62  86
BRANCH  74  97
ATOM     97  C   UNL A   1      47.092  27.412  25.875  1.00  0.00     0.064 A 
ATOM     98  C   UNL A   1      48.139  26.753  26.537  1.00  0.00     0.173 A 
ATOM     99  C   UNL A   1      47.204  27.595  24.488  1.00  0.00     0.173 A 
ATOM    100  F   UNL A   1      48.085  26.563  27.865  1.00  0.00    -0.203 F 
ATOM    101  C   UNL A   1      49.274  26.340  25.847  1.00  0.00     0.198 A 
ATOM    102  C   UNL A   1      48.322  27.143  23.794  1.00  0.00     0.198 A 
ATOM    103  F   UNL A   1      46.226  28.206  23.804  1.00  0.00    -0.203 F 
ATOM    104  F   UNL A   1      50.293  25.780  26.513  1.00  0.00    -0.200 F 
ATOM    105  C   UNL A   1      49.362  26.529  24.476  1.00  0.00     0.200 A 
ATOM    106  F   UNL A   1      48.397  27.308  22.466  1.00  0.00    -0.200 F 
ATOM    107  F   UNL A   1      50.456  26.131  23.812  1.00  0.00    -0.200 F 
ENDBRANCH  74  97
ENDBRANCH  48  49
ENDBRANCH  41  43
ENDBRANCH  40  41
ENDBRANCH  39  40
ENDBRANCH  38  39
ENDBRANCH  37  38
ENDBRANCH  36  37
ENDBRANCH  35  36
ENDBRANCH  34  35
ENDBRANCH   1  34
TORSDOF 24
ENDMDL
