MODEL 1
REMARK VINA RESULT:     -11.1      0.000      0.000
REMARK SMILES O=C(OCCOCCOCCOCCOC(=O)c1ccc(-c2c3nc(c(-c4c(F)c(F)c(F)c(F)c4F)c4ccc([nH]4)c(-c4c(F)c(F)c(F)c(F)c4F)c4nc(c(-c5c(F)c(F)c(F)c(F)c5F)c5ccc2[nH]5)C=C4)C=C3)cc1)C1=Cc2c(ccc(Cl)c2-c2ccccc2)O[C@H]1C(F)(F)F
REMARK SMILES IDX 10 1 9 2 8 3 7 4 6 5 5 6 4 7 3 8 2 9 1 10 81 11 82 12 97 13
REMARK SMILES IDX 83 14 96 15 84 16 89 17 85 18 87 19 86 20 88 21 98 22 99 23
REMARK SMILES IDX 100 24 101 25 90 26 91 27 95 28 92 29 94 30 93 31 11 32
REMARK SMILES IDX 12 33 13 34 14 35 15 36 16 37 17 38 18 39 19 40 80 41 20 42
REMARK SMILES IDX 79 43 21 44 22 45 23 46 73 47 24 48 78 49 72 50 74 51 25 52
REMARK SMILES IDX 77 53 71 54 70 55 26 57 58 58 38 59 57 60 39 61 42 62 56 63
REMARK SMILES IDX 75 64 40 65 41 66 55 68 76 69 43 70 27 71 28 72 36 73 29 74
REMARK SMILES IDX 30 75 34 76 37 77 31 78 32 79 35 80 33 81 59 82 60 83 68 84
REMARK SMILES IDX 61 85 62 86 66 87 69 88 63 89 64 90 67 91 65 92 44 93 45 94
REMARK SMILES IDX 53 95 46 96 47 97 51 98 54 99 48 100 49 101 52 102 50 103
REMARK H PARENT 74 56 42 67
REMARK Flexibility Score: inf
ROOT
ATOM      1  C   UNL A   1      43.293  38.203  29.275  1.00  0.00     0.188 C 
ENDROOT
BRANCH   1   2
ATOM      2  O   UNL A   1      42.155  38.567  28.362  1.00  0.00    -0.377 OA
BRANCH   2   3
ATOM      3  C   UNL A   1      41.379  39.218  26.659  1.00  0.00     0.188 C 
BRANCH   3   4
ATOM      4  C   UNL A   1      41.705  40.487  25.635  1.00  0.00     0.188 C 
BRANCH   4   5
ATOM      5  O   UNL A   1      43.026  40.933  25.356  1.00  0.00    -0.376 OA
BRANCH   5   6
ATOM      6  C   UNL A   1      43.273  42.247  24.900  1.00  0.00     0.202 C 
BRANCH   6   7
ATOM      7  C   UNL A   1      42.652  42.754  23.591  1.00  0.00     0.261 C 
BRANCH   7   8
ATOM      8  O   UNL A   1      43.507  42.442  22.458  1.00  0.00    -0.460 OA
BRANCH   8   9
ATOM      9  C   UNL A   1      43.637  43.133  21.300  1.00  0.00     0.338 C 
ATOM     10  O   UNL A   1      42.671  43.278  20.557  1.00  0.00    -0.246 OA
BRANCH   9  11
ATOM     11  C   UNL A   1      44.899  43.815  20.952  1.00  0.00     0.087 C 
ATOM     12  C   UNL A   1      44.986  44.838  20.099  1.00  0.00     0.028 C 
ATOM     13  C   UNL A   1      45.972  43.804  22.022  1.00  0.00     0.316 C 
ATOM     14  C   UNL A   1      46.277  44.987  19.453  1.00  0.00     0.027 A 
ATOM     15  O   UNL A   1      47.307  44.070  21.473  1.00  0.00    -0.475 OA
ATOM     16  C   UNL A   1      47.394  44.554  20.189  1.00  0.00     0.128 A 
ATOM     17  C   UNL A   1      46.352  45.495  18.134  1.00  0.00     0.011 A 
ATOM     18  C   UNL A   1      48.645  44.599  19.603  1.00  0.00     0.049 A 
ATOM     19  C   UNL A   1      47.641  45.500  17.565  1.00  0.00     0.049 A 
ATOM     20  C   UNL A   1      48.764  45.051  18.288  1.00  0.00     0.025 A 
ATOM     21  Cl  UNL A   1      47.977  46.106  15.978  1.00  0.00    -0.084 Cl
BRANCH  13  22
ATOM     22  C   UNL A   1      45.602  44.800  23.159  1.00  0.00     0.430 C 
ATOM     23  F   UNL A   1      45.587  44.204  24.383  1.00  0.00    -0.167 F 
ATOM     24  F   UNL A   1      46.472  45.830  23.236  1.00  0.00    -0.167 F 
ATOM     25  F   UNL A   1      44.364  45.324  22.992  1.00  0.00    -0.167 F 
ENDBRANCH  13  22
BRANCH  17  26
ATOM     26  C   UNL A   1      45.139  46.041  17.437  1.00  0.00    -0.016 A 
ATOM     27  C   UNL A   1      44.754  47.812  17.516  1.00  0.00     0.009 A 
ATOM     28  C   UNL A   1      43.876  44.908  16.767  1.00  0.00     0.009 A 
ATOM     29  C   UNL A   1      43.118  48.435  17.076  1.00  0.00     0.001 A 
ATOM     30  C   UNL A   1      42.226  45.532  16.298  1.00  0.00     0.001 A 
ATOM     31  C   UNL A   1      41.861  47.306  16.443  1.00  0.00     0.000 A 
ENDBRANCH  17  26
ENDBRANCH   9  11
ENDBRANCH   8   9
ENDBRANCH   7   8
ENDBRANCH   6   7
ENDBRANCH   5   6
ENDBRANCH   4   5
ENDBRANCH   3   4
ENDBRANCH   2   3
ENDBRANCH   1   2
BRANCH   1  32
ATOM     32  C   UNL A   1      43.972  39.238  30.225  1.00  0.00     0.188 C 
BRANCH  32  33
ATOM     33  O   UNL A   1      45.304  39.135  30.713  1.00  0.00    -0.376 OA
BRANCH  33  34
ATOM     34  C   UNL A   1      46.465  39.559  30.028  1.00  0.00     0.202 C 
BRANCH  34  35
ATOM     35  C   UNL A   1      47.643  38.638  29.666  1.00  0.00     0.261 C 
BRANCH  35  36
ATOM     36  O   UNL A   1      47.311  37.275  29.422  1.00  0.00    -0.460 OA
BRANCH  36  37
ATOM     37  C   UNL A   1      46.786  37.017  28.206  1.00  0.00     0.338 C 
ATOM     38  O   UNL A   1      47.048  37.580  27.156  1.00  0.00    -0.246 OA
BRANCH  37  39
ATOM     39  C   UNL A   1      45.999  35.768  28.294  1.00  0.00     0.060 A 
ATOM     40  C   UNL A   1      46.333  34.892  29.333  1.00  0.00     0.016 A 
ATOM     41  C   UNL A   1      44.926  35.478  27.442  1.00  0.00     0.016 A 
ATOM     42  C   UNL A   1      45.631  33.708  29.504  1.00  0.00     0.010 A 
ATOM     43  C   UNL A   1      44.240  34.266  27.587  1.00  0.00     0.010 A 
ATOM     44  C   UNL A   1      44.631  33.357  28.587  1.00  0.00    -0.014 A 
BRANCH  44  45
ATOM     45  C   UNL A   1      44.300  31.916  28.487  1.00  0.00     0.031 A 
ATOM     46  C   UNL A   1      42.997  31.479  29.103  1.00  0.00     0.074 A 
ATOM     47  C   UNL A   1      45.037  31.057  27.762  1.00  0.00     0.049 A 
ATOM     48  N   UNL A   1      42.396  30.320  29.055  1.00  0.00    -0.248 NA
ATOM     49  C   UNL A   1      42.263  32.504  29.867  1.00  0.00     0.031 C 
ATOM     50  C   UNL A   1      46.288  31.376  27.079  1.00  0.00     0.029 A 
ATOM     51  N   UNL A   1      44.818  29.735  27.469  1.00  0.00    -0.354 N 
ATOM     52  C   UNL A   1      41.208  30.488  29.753  1.00  0.00     0.074 A 
ATOM     53  C   UNL A   1      41.193  31.840  30.263  1.00  0.00     0.031 C 
ATOM     54  C   UNL A   1      46.730  30.274  26.447  1.00  0.00     0.029 A 
ATOM     55  C   UNL A   1      45.799  29.172  26.692  1.00  0.00     0.049 A 
ATOM     56  H   UNL A   1      44.030  29.236  27.786  1.00  0.00     0.167 HD
ATOM     57  C   UNL A   1      40.202  29.604  29.938  1.00  0.00     0.037 A 
ATOM     58  C   UNL A   1      45.925  27.908  26.242  1.00  0.00     0.037 A 
ATOM     59  C   UNL A   1      40.230  28.250  29.462  1.00  0.00     0.049 A 
ATOM     60  C   UNL A   1      44.831  26.908  26.544  1.00  0.00     0.074 A 
ATOM     61  C   UNL A   1      39.285  27.255  29.632  1.00  0.00     0.029 A 
ATOM     62  N   UNL A   1      41.269  27.700  28.726  1.00  0.00    -0.354 N 
ATOM     63  N   UNL A   1      43.703  27.078  27.191  1.00  0.00    -0.248 NA
ATOM     64  C   UNL A   1      45.026  25.541  26.038  1.00  0.00     0.031 C 
ATOM     65  C   UNL A   1      39.774  26.087  29.040  1.00  0.00     0.029 A 
ATOM     66  C   UNL A   1      40.996  26.371  28.450  1.00  0.00     0.049 A 
ATOM     67  H   UNL A   1      42.079  28.183  28.444  1.00  0.00     0.167 HD
ATOM     68  C   UNL A   1      43.045  25.854  27.147  1.00  0.00     0.074 A 
ATOM     69  C   UNL A   1      43.890  24.957  26.387  1.00  0.00     0.031 C 
ATOM     70  C   UNL A   1      41.852  25.499  27.686  1.00  0.00     0.037 A 
BRANCH  57  71
ATOM     71  C   UNL A   1      39.009  30.078  30.712  1.00  0.00     0.064 A 
ATOM     72  C   UNL A   1      37.912  30.678  30.074  1.00  0.00     0.173 A 
ATOM     73  C   UNL A   1      38.963  29.938  32.105  1.00  0.00     0.173 A 
ATOM     74  F   UNL A   1      37.920  30.861  28.744  1.00  0.00    -0.203 F 
ATOM     75  C   UNL A   1      36.821  31.138  30.806  1.00  0.00     0.198 A 
ATOM     76  C   UNL A   1      37.858  30.373  32.832  1.00  0.00     0.198 A 
ATOM     77  F   UNL A   1      39.991  29.381  32.764  1.00  0.00    -0.203 F 
ATOM     78  F   UNL A   1      35.807  31.754  30.183  1.00  0.00    -0.200 F 
ATOM     79  C   UNL A   1      36.792  30.978  32.184  1.00  0.00     0.200 A 
ATOM     80  F   UNL A   1      37.829  30.213  34.162  1.00  0.00    -0.200 F 
ATOM     81  F   UNL A   1      35.741  31.418  32.888  1.00  0.00    -0.200 F 
ENDBRANCH  57  71
BRANCH  58  82
ATOM     82  C   UNL A   1      47.134  27.497  25.478  1.00  0.00     0.064 A 
ATOM     83  C   UNL A   1      48.263  26.969  26.119  1.00  0.00     0.173 A 
ATOM     84  C   UNL A   1      47.203  27.680  24.089  1.00  0.00     0.173 A 
ATOM     85  F   UNL A   1      48.262  26.800  27.450  1.00  0.00    -0.203 F 
ATOM     86  C   UNL A   1      49.424  26.670  25.406  1.00  0.00     0.198 A 
ATOM     87  C   UNL A   1      48.351  27.350  23.372  1.00  0.00     0.198 A 
ATOM     88  F   UNL A   1      46.154  28.187  23.425  1.00  0.00    -0.203 F 
ATOM     89  F   UNL A   1      50.511  26.229  26.053  1.00  0.00    -0.200 F 
ATOM     90  C   UNL A   1      49.466  26.858  24.033  1.00  0.00     0.200 A 
ATOM     91  F   UNL A   1      48.384  27.525  22.044  1.00  0.00    -0.200 F 
ATOM     92  F   UNL A   1      50.583  26.578  23.349  1.00  0.00    -0.200 F 
ENDBRANCH  58  82
BRANCH  70  93
ATOM     93  C   UNL A   1      41.376  24.095  27.447  1.00  0.00     0.064 A 
ATOM     94  C   UNL A   1      41.970  22.994  28.084  1.00  0.00     0.173 A 
ATOM     95  C   UNL A   1      40.289  23.849  26.593  1.00  0.00     0.173 A 
ATOM     96  F   UNL A   1      43.017  23.173  28.903  1.00  0.00    -0.203 F 
ATOM     97  C   UNL A   1      41.519  21.699  27.844  1.00  0.00     0.198 A 
ATOM     98  C   UNL A   1      39.818  22.557  26.383  1.00  0.00     0.198 A 
ATOM     99  F   UNL A   1      39.675  24.867  25.969  1.00  0.00    -0.203 F 
ATOM    100  F   UNL A   1      42.141  20.659  28.417  1.00  0.00    -0.200 F 
ATOM    101  C   UNL A   1      40.440  21.482  26.999  1.00  0.00     0.200 A 
ATOM    102  F   UNL A   1      38.764  22.350  25.583  1.00  0.00    -0.200 F 
ATOM    103  F   UNL A   1      40.006  20.235  26.773  1.00  0.00    -0.200 F 
ENDBRANCH  70  93
ENDBRANCH  44  45
ENDBRANCH  37  39
ENDBRANCH  36  37
ENDBRANCH  35  36
ENDBRANCH  34  35
ENDBRANCH  33  34
ENDBRANCH  32  33
ENDBRANCH   1  32
TORSDOF 22
ENDMDL
MODEL 2
REMARK VINA RESULT:     -10.5      9.424     15.311
REMARK SMILES O=C(OCCOCCOCCOCCOC(=O)c1ccc(-c2c3nc(c(-c4c(F)c(F)c(F)c(F)c4F)c4ccc([nH]4)c(-c4c(F)c(F)c(F)c(F)c4F)c4nc(c(-c5c(F)c(F)c(F)c(F)c5F)c5ccc2[nH]5)C=C4)C=C3)cc1)C1=Cc2c(ccc(Cl)c2-c2ccccc2)O[C@H]1C(F)(F)F
REMARK SMILES IDX 10 1 9 2 8 3 7 4 6 5 5 6 4 7 3 8 2 9 1 10 81 11 82 12 97 13
REMARK SMILES IDX 83 14 96 15 84 16 89 17 85 18 87 19 86 20 88 21 98 22 99 23
REMARK SMILES IDX 100 24 101 25 90 26 91 27 95 28 92 29 94 30 93 31 11 32
REMARK SMILES IDX 12 33 13 34 14 35 15 36 16 37 17 38 18 39 19 40 80 41 20 42
REMARK SMILES IDX 79 43 21 44 22 45 23 46 73 47 24 48 78 49 72 50 74 51 25 52
REMARK SMILES IDX 77 53 71 54 70 55 26 57 58 58 38 59 57 60 39 61 42 62 56 63
REMARK SMILES IDX 75 64 40 65 41 66 55 68 76 69 43 70 27 71 28 72 36 73 29 74
REMARK SMILES IDX 30 75 34 76 37 77 31 78 32 79 35 80 33 81 59 82 60 83 68 84
REMARK SMILES IDX 61 85 62 86 66 87 69 88 63 89 64 90 67 91 65 92 44 93 45 94
REMARK SMILES IDX 53 95 46 96 47 97 51 98 54 99 48 100 49 101 52 102 50 103
REMARK H PARENT 74 56 42 67
REMARK Flexibility Score: inf
ROOT
ATOM      1  C   UNL A   1      36.901  32.756  32.260  1.00  0.00     0.188 C 
ENDROOT
BRANCH   1   2
ATOM      2  O   UNL A   1      37.879  32.433  33.355  1.00  0.00    -0.377 OA
BRANCH   2   3
ATOM      3  C   UNL A   1      39.541  31.634  34.077  1.00  0.00     0.188 C 
BRANCH   3   4
ATOM      4  C   UNL A   1      40.053  30.083  34.392  1.00  0.00     0.188 C 
BRANCH   4   5
ATOM      5  O   UNL A   1      40.671  29.261  33.410  1.00  0.00    -0.376 OA
BRANCH   5   6
ATOM      6  C   UNL A   1      41.939  28.680  33.637  1.00  0.00     0.202 C 
BRANCH   6   7
ATOM      7  C   UNL A   1      42.391  27.448  32.840  1.00  0.00     0.261 C 
BRANCH   7   8
ATOM      8  O   UNL A   1      43.300  26.630  33.625  1.00  0.00    -0.460 OA
BRANCH   8   9
ATOM      9  C   UNL A   1      44.169  25.691  33.180  1.00  0.00     0.338 C 
ATOM     10  O   UNL A   1      44.142  25.333  32.007  1.00  0.00    -0.246 OA
BRANCH   9  11
ATOM     11  C   UNL A   1      45.233  25.156  34.053  1.00  0.00     0.087 C 
ATOM     12  C   UNL A   1      45.695  25.781  35.138  1.00  0.00     0.028 C 
ATOM     13  C   UNL A   1      45.344  23.646  34.109  1.00  0.00     0.316 C 
ATOM     14  C   UNL A   1      47.055  25.436  35.510  1.00  0.00     0.027 A 
ATOM     15  O   UNL A   1      46.656  23.202  34.596  1.00  0.00    -0.475 OA
ATOM     16  C   UNL A   1      47.478  24.136  35.182  1.00  0.00     0.128 A 
ATOM     17  C   UNL A   1      47.887  26.405  36.120  1.00  0.00     0.011 A 
ATOM     18  C   UNL A   1      48.785  23.768  35.440  1.00  0.00     0.049 A 
ATOM     19  C   UNL A   1      49.217  25.997  36.344  1.00  0.00     0.049 A 
ATOM     20  C   UNL A   1      49.656  24.703  36.000  1.00  0.00     0.025 A 
ATOM     21  Cl  UNL A   1      50.404  27.003  37.107  1.00  0.00    -0.084 Cl
BRANCH  13  22
ATOM     22  C   UNL A   1      44.180  23.057  34.959  1.00  0.00     0.430 C 
ATOM     23  F   UNL A   1      43.077  23.855  34.946  1.00  0.00    -0.167 F 
ATOM     24  F   UNL A   1      43.790  21.842  34.516  1.00  0.00    -0.167 F 
ATOM     25  F   UNL A   1      44.520  22.925  36.264  1.00  0.00    -0.167 F 
ENDBRANCH  13  22
BRANCH  17  26
ATOM     26  C   UNL A   1      47.349  27.741  36.545  1.00  0.00    -0.016 A 
ATOM     27  C   UNL A   1      46.478  27.919  38.126  1.00  0.00     0.009 A 
ATOM     28  C   UNL A   1      47.287  29.126  35.359  1.00  0.00     0.009 A 
ATOM     29  C   UNL A   1      45.458  29.367  38.474  1.00  0.00     0.001 A 
ATOM     30  C   UNL A   1      46.276  30.605  35.713  1.00  0.00     0.001 A 
ATOM     31  C   UNL A   1      45.374  30.721  37.285  1.00  0.00     0.000 A 
ENDBRANCH  17  26
ENDBRANCH   9  11
ENDBRANCH   8   9
ENDBRANCH   7   8
ENDBRANCH   6   7
ENDBRANCH   5   6
ENDBRANCH   4   5
ENDBRANCH   3   4
ENDBRANCH   2   3
ENDBRANCH   1   2
BRANCH   1  32
ATOM     32  C   UNL A   1      35.828  33.880  32.395  1.00  0.00     0.188 C 
BRANCH  32  33
ATOM     33  O   UNL A   1      35.214  34.549  31.299  1.00  0.00    -0.376 OA
BRANCH  33  34
ATOM     34  C   UNL A   1      34.400  33.940  30.317  1.00  0.00     0.202 C 
BRANCH  34  35
ATOM     35  C   UNL A   1      34.930  33.033  29.193  1.00  0.00     0.261 C 
BRANCH  35  36
ATOM     36  O   UNL A   1      34.772  31.633  29.400  1.00  0.00    -0.460 OA
BRANCH  36  37
ATOM     37  C   UNL A   1      34.987  30.860  28.316  1.00  0.00     0.338 C 
ATOM     38  O   UNL A   1      34.315  30.815  27.298  1.00  0.00    -0.246 OA
BRANCH  37  39
ATOM     39  C   UNL A   1      36.318  30.230  28.449  1.00  0.00     0.060 A 
ATOM     40  C   UNL A   1      36.595  29.611  29.674  1.00  0.00     0.016 A 
ATOM     41  C   UNL A   1      37.248  30.177  27.402  1.00  0.00     0.016 A 
ATOM     42  C   UNL A   1      37.811  28.974  29.876  1.00  0.00     0.010 A 
ATOM     43  C   UNL A   1      38.491  29.570  27.617  1.00  0.00     0.010 A 
ATOM     44  C   UNL A   1      38.791  29.015  28.876  1.00  0.00    -0.014 A 
BRANCH  44  45
ATOM     45  C   UNL A   1      40.192  28.813  29.311  1.00  0.00     0.031 A 
ATOM     46  C   UNL A   1      40.855  27.534  28.875  1.00  0.00     0.074 A 
ATOM     47  C   UNL A   1      40.897  29.772  29.935  1.00  0.00     0.049 A 
ATOM     48  N   UNL A   1      42.100  27.151  28.998  1.00  0.00    -0.248 NA
ATOM     49  C   UNL A   1      39.993  26.555  28.188  1.00  0.00     0.031 C 
ATOM     50  C   UNL A   1      40.378  31.068  30.362  1.00  0.00     0.029 A 
ATOM     51  N   UNL A   1      42.219  29.799  30.302  1.00  0.00    -0.354 N 
ATOM     52  C   UNL A   1      42.170  25.910  28.380  1.00  0.00     0.074 A 
ATOM     53  C   UNL A   1      40.839  25.574  27.930  1.00  0.00     0.031 C 
ATOM     54  C   UNL A   1      41.373  31.766  30.938  1.00  0.00     0.029 A 
ATOM     55  C   UNL A   1      42.594  30.960  30.930  1.00  0.00     0.049 A 
ATOM     56  H   UNL A   1      42.841  29.055  30.130  1.00  0.00     0.167 HD
ATOM     57  C   UNL A   1      43.252  25.124  28.181  1.00  0.00     0.037 A 
ATOM     58  C   UNL A   1      43.787  31.316  31.444  1.00  0.00     0.037 A 
ATOM     59  C   UNL A   1      44.569  25.440  28.657  1.00  0.00     0.049 A 
ATOM     60  C   UNL A   1      44.962  30.377  31.295  1.00  0.00     0.074 A 
ATOM     61  C   UNL A   1      45.728  24.694  28.551  1.00  0.00     0.029 A 
ATOM     62  N   UNL A   1      44.896  26.601  29.340  1.00  0.00    -0.354 N 
ATOM     63  N   UNL A   1      45.027  29.212  30.696  1.00  0.00    -0.248 NA
ATOM     64  C   UNL A   1      46.238  30.813  31.884  1.00  0.00     0.031 C 
ATOM     65  C   UNL A   1      46.748  25.381  29.213  1.00  0.00     0.029 A 
ATOM     66  C   UNL A   1      46.238  26.583  29.679  1.00  0.00     0.049 A 
ATOM     67  H   UNL A   1      44.268  27.328  29.553  1.00  0.00     0.167 HD
ATOM     68  C   UNL A   1      46.346  28.790  30.812  1.00  0.00     0.074 A 
ATOM     69  C   UNL A   1      47.054  29.837  31.517  1.00  0.00     0.031 C 
ATOM     70  C   UNL A   1      46.923  27.641  30.378  1.00  0.00     0.037 A 
BRANCH  57  71
ATOM     71  C   UNL A   1      43.035  23.838  27.442  1.00  0.00     0.064 A 
ATOM     72  C   UNL A   1      42.539  22.695  28.089  1.00  0.00     0.173 A 
ATOM     73  C   UNL A   1      43.329  23.744  26.075  1.00  0.00     0.173 A 
ATOM     74  F   UNL A   1      42.270  22.725  29.404  1.00  0.00    -0.203 F 
ATOM     75  C   UNL A   1      42.367  21.499  27.398  1.00  0.00     0.198 A 
ATOM     76  C   UNL A   1      43.127  22.555  25.380  1.00  0.00     0.198 A 
ATOM     77  F   UNL A   1      43.815  24.805  25.413  1.00  0.00    -0.203 F 
ATOM     78  F   UNL A   1      41.942  20.406  28.046  1.00  0.00    -0.200 F 
ATOM     79  C   UNL A   1      42.653  21.433  26.042  1.00  0.00     0.200 A 
ATOM     80  F   UNL A   1      43.399  22.493  24.069  1.00  0.00    -0.200 F 
ATOM     81  F   UNL A   1      42.483  20.283  25.376  1.00  0.00    -0.200 F 
ENDBRANCH  57  71
BRANCH  58  82
ATOM     82  C   UNL A   1      43.940  32.608  32.169  1.00  0.00     0.064 A 
ATOM     83  C   UNL A   1      44.355  33.774  31.511  1.00  0.00     0.173 A 
ATOM     84  C   UNL A   1      43.729  32.684  33.554  1.00  0.00     0.173 A 
ATOM     85  F   UNL A   1      44.600  33.749  30.192  1.00  0.00    -0.203 F 
ATOM     86  C   UNL A   1      44.582  34.957  32.214  1.00  0.00     0.198 A 
ATOM     87  C   UNL A   1      43.923  33.875  34.250  1.00  0.00     0.198 A 
ATOM     88  F   UNL A   1      43.338  31.597  34.235  1.00  0.00    -0.203 F 
ATOM     89  F   UNL A   1      45.041  36.039  31.571  1.00  0.00    -0.200 F 
ATOM     90  C   UNL A   1      44.362  35.008  33.582  1.00  0.00     0.200 A 
ATOM     91  F   UNL A   1      43.701  33.921  35.571  1.00  0.00    -0.200 F 
ATOM     92  F   UNL A   1      44.587  36.142  34.259  1.00  0.00    -0.200 F 
ENDBRANCH  58  82
BRANCH  70  93
ATOM     93  C   UNL A   1      48.395  27.472  30.625  1.00  0.00     0.064 A 
ATOM     94  C   UNL A   1      49.354  27.883  29.687  1.00  0.00     0.173 A 
ATOM     95  C   UNL A   1      48.853  26.918  31.832  1.00  0.00     0.173 A 
ATOM     96  F   UNL A   1      48.969  28.410  28.515  1.00  0.00    -0.203 F 
ATOM     97  C   UNL A   1      50.714  27.711  29.931  1.00  0.00     0.198 A 
ATOM     98  C   UNL A   1      50.213  26.781  32.087  1.00  0.00     0.198 A 
ATOM     99  F   UNL A   1      47.979  26.521  32.769  1.00  0.00    -0.203 F 
ATOM    100  F   UNL A   1      51.609  28.057  28.996  1.00  0.00    -0.200 F 
ATOM    101  C   UNL A   1      51.143  27.166  31.133  1.00  0.00     0.200 A 
ATOM    102  F   UNL A   1      50.627  26.273  33.256  1.00  0.00    -0.200 F 
ATOM    103  F   UNL A   1      52.452  27.005  31.367  1.00  0.00    -0.200 F 
ENDBRANCH  70  93
ENDBRANCH  44  45
ENDBRANCH  37  39
ENDBRANCH  36  37
ENDBRANCH  35  36
ENDBRANCH  34  35
ENDBRANCH  33  34
ENDBRANCH  32  33
ENDBRANCH   1  32
TORSDOF 22
ENDMDL
MODEL 3
REMARK VINA RESULT:     -10.3     10.250     14.507
REMARK SMILES O=C(OCCOCCOCCOCCOC(=O)c1ccc(-c2c3nc(c(-c4c(F)c(F)c(F)c(F)c4F)c4ccc([nH]4)c(-c4c(F)c(F)c(F)c(F)c4F)c4nc(c(-c5c(F)c(F)c(F)c(F)c5F)c5ccc2[nH]5)C=C4)C=C3)cc1)C1=Cc2c(ccc(Cl)c2-c2ccccc2)O[C@H]1C(F)(F)F
REMARK SMILES IDX 10 1 9 2 8 3 7 4 6 5 5 6 4 7 3 8 2 9 1 10 81 11 82 12 97 13
REMARK SMILES IDX 83 14 96 15 84 16 89 17 85 18 87 19 86 20 88 21 98 22 99 23
REMARK SMILES IDX 100 24 101 25 90 26 91 27 95 28 92 29 94 30 93 31 11 32
REMARK SMILES IDX 12 33 13 34 14 35 15 36 16 37 17 38 18 39 19 40 80 41 20 42
REMARK SMILES IDX 79 43 21 44 22 45 23 46 73 47 24 48 78 49 72 50 74 51 25 52
REMARK SMILES IDX 77 53 71 54 70 55 26 57 58 58 38 59 57 60 39 61 42 62 56 63
REMARK SMILES IDX 75 64 40 65 41 66 55 68 76 69 43 70 27 71 28 72 36 73 29 74
REMARK SMILES IDX 30 75 34 76 37 77 31 78 32 79 35 80 33 81 59 82 60 83 68 84
REMARK SMILES IDX 61 85 62 86 66 87 69 88 63 89 64 90 67 91 65 92 44 93 45 94
REMARK SMILES IDX 53 95 46 96 47 97 51 98 54 99 48 100 49 101 52 102 50 103
REMARK H PARENT 74 56 42 67
REMARK Flexibility Score: inf
ROOT
ATOM      1  C   UNL A   1      35.530  33.288  28.020  1.00  0.00     0.188 C 
ENDROOT
BRANCH   1   2
ATOM      2  O   UNL A   1      35.936  31.854  27.819  1.00  0.00    -0.377 OA
BRANCH   2   3
ATOM      3  C   UNL A   1      35.591  29.906  27.710  1.00  0.00     0.188 C 
BRANCH   3   4
ATOM      4  C   UNL A   1      34.253  28.971  27.391  1.00  0.00     0.188 C 
BRANCH   4   5
ATOM      5  O   UNL A   1      34.052  28.311  26.148  1.00  0.00    -0.376 OA
BRANCH   5   6
ATOM      6  C   UNL A   1      33.357  27.084  26.076  1.00  0.00     0.202 C 
BRANCH   6   7
ATOM      7  C   UNL A   1      33.627  26.094  24.934  1.00  0.00     0.261 C 
BRANCH   7   8
ATOM      8  O   UNL A   1      34.960  25.529  25.043  1.00  0.00    -0.460 OA
BRANCH   8   9
ATOM      9  C   UNL A   1      35.463  24.450  24.395  1.00  0.00     0.338 C 
ATOM     10  O   UNL A   1      35.280  24.316  23.189  1.00  0.00    -0.246 OA
BRANCH   9  11
ATOM     11  C   UNL A   1      36.327  23.474  25.087  1.00  0.00     0.087 C 
ATOM     12  C   UNL A   1      37.246  23.801  25.997  1.00  0.00     0.028 C 
ATOM     13  C   UNL A   1      35.746  22.085  25.260  1.00  0.00     0.316 C 
ATOM     14  C   UNL A   1      38.344  22.860  26.125  1.00  0.00     0.027 A 
ATOM     15  O   UNL A   1      36.782  21.077  25.518  1.00  0.00    -0.475 OA
ATOM     16  C   UNL A   1      38.045  21.516  25.841  1.00  0.00     0.128 A 
ATOM     17  C   UNL A   1      39.636  23.325  26.466  1.00  0.00     0.011 A 
ATOM     18  C   UNL A   1      39.061  20.579  25.871  1.00  0.00     0.049 A 
ATOM     19  C   UNL A   1      40.647  22.343  26.461  1.00  0.00     0.049 A 
ATOM     20  C   UNL A   1      40.361  20.996  26.159  1.00  0.00     0.025 A 
ATOM     21  Cl  UNL A   1      42.296  22.674  26.878  1.00  0.00    -0.084 Cl
BRANCH  13  22
ATOM     22  C   UNL A   1      34.658  22.097  26.373  1.00  0.00     0.430 C 
ATOM     23  F   UNL A   1      33.399  21.994  25.865  1.00  0.00    -0.167 F 
ATOM     24  F   UNL A   1      34.812  21.078  27.247  1.00  0.00    -0.167 F 
ATOM     25  F   UNL A   1      34.672  23.250  27.084  1.00  0.00    -0.167 F 
ENDBRANCH  13  22
BRANCH  17  26
ATOM     26  C   UNL A   1      39.873  24.753  26.863  1.00  0.00    -0.016 A 
ATOM     27  C   UNL A   1      38.972  25.480  28.259  1.00  0.00     0.009 A 
ATOM     28  C   UNL A   1      40.828  25.863  25.774  1.00  0.00     0.009 A 
ATOM     29  C   UNL A   1      38.899  27.268  28.497  1.00  0.00     0.001 A 
ATOM     30  C   UNL A   1      40.778  27.671  26.020  1.00  0.00     0.001 A 
ATOM     31  C   UNL A   1      39.818  28.364  27.399  1.00  0.00     0.000 A 
ENDBRANCH  17  26
ENDBRANCH   9  11
ENDBRANCH   8   9
ENDBRANCH   7   8
ENDBRANCH   6   7
ENDBRANCH   5   6
ENDBRANCH   4   5
ENDBRANCH   3   4
ENDBRANCH   2   3
ENDBRANCH   1   2
BRANCH   1  32
ATOM     32  C   UNL A   1      35.101  33.854  29.409  1.00  0.00     0.188 C 
BRANCH  32  33
ATOM     33  O   UNL A   1      34.370  33.126  30.388  1.00  0.00    -0.376 OA
BRANCH  33  34
ATOM     34  C   UNL A   1      34.928  32.452  31.497  1.00  0.00     0.202 C 
BRANCH  34  35
ATOM     35  C   UNL A   1      36.439  32.299  31.748  1.00  0.00     0.261 C 
BRANCH  35  36
ATOM     36  O   UNL A   1      37.061  31.184  31.119  1.00  0.00    -0.460 OA
BRANCH  36  37
ATOM     37  C   UNL A   1      37.477  30.208  31.952  1.00  0.00     0.338 C 
ATOM     38  O   UNL A   1      36.813  29.626  32.795  1.00  0.00    -0.246 OA
BRANCH  37  39
ATOM     39  C   UNL A   1      38.826  29.775  31.527  1.00  0.00     0.060 A 
ATOM     40  C   UNL A   1      39.265  28.537  32.012  1.00  0.00     0.016 A 
ATOM     41  C   UNL A   1      39.619  30.507  30.634  1.00  0.00     0.016 A 
ATOM     42  C   UNL A   1      40.508  28.042  31.644  1.00  0.00     0.010 A 
ATOM     43  C   UNL A   1      40.890  30.029  30.293  1.00  0.00     0.010 A 
ATOM     44  C   UNL A   1      41.354  28.820  30.843  1.00  0.00    -0.014 A 
BRANCH  44  45
ATOM     45  C   UNL A   1      42.802  28.518  30.920  1.00  0.00     0.031 A 
ATOM     46  C   UNL A   1      43.535  29.034  32.131  1.00  0.00     0.074 A 
ATOM     47  C   UNL A   1      43.416  27.706  30.043  1.00  0.00     0.049 A 
ATOM     48  N   UNL A   1      44.763  28.814  32.523  1.00  0.00    -0.248 NA
ATOM     49  C   UNL A   1      42.764  29.907  33.034  1.00  0.00     0.031 C 
ATOM     50  C   UNL A   1      42.798  27.108  28.863  1.00  0.00     0.029 A 
ATOM     51  N   UNL A   1      44.704  27.233  30.029  1.00  0.00    -0.354 N 
ATOM     52  C   UNL A   1      44.896  29.495  33.725  1.00  0.00     0.074 A 
ATOM     53  C   UNL A   1      43.649  30.180  33.976  1.00  0.00     0.031 C 
ATOM     54  C   UNL A   1      43.712  26.346  28.234  1.00  0.00     0.029 A 
ATOM     55  C   UNL A   1      44.979  26.415  28.962  1.00  0.00     0.049 A 
ATOM     56  H   UNL A   1      45.368  27.459  30.720  1.00  0.00     0.167 HD
ATOM     57  C   UNL A   1      45.956  29.532  34.564  1.00  0.00     0.037 A 
ATOM     58  C   UNL A   1      46.130  25.805  28.618  1.00  0.00     0.037 A 
ATOM     59  C   UNL A   1      47.208  28.880  34.300  1.00  0.00     0.049 A 
ATOM     60  C   UNL A   1      47.334  25.939  29.523  1.00  0.00     0.074 A 
ATOM     61  C   UNL A   1      48.363  28.889  35.060  1.00  0.00     0.029 A 
ATOM     62  N   UNL A   1      47.466  28.107  33.179  1.00  0.00    -0.354 N 
ATOM     63  N   UNL A   1      47.449  26.571  30.667  1.00  0.00    -0.248 NA
ATOM     64  C   UNL A   1      48.565  25.261  29.092  1.00  0.00     0.031 C 
ATOM     65  C   UNL A   1      49.338  28.161  34.373  1.00  0.00     0.029 A 
ATOM     66  C   UNL A   1      48.772  27.648  33.216  1.00  0.00     0.049 A 
ATOM     67  H   UNL A   1      46.819  27.915  32.463  1.00  0.00     0.167 HD
ATOM     68  C   UNL A   1      48.749  26.346  31.103  1.00  0.00     0.074 A 
ATOM     69  C   UNL A   1      49.376  25.497  30.113  1.00  0.00     0.031 C 
ATOM     70  C   UNL A   1      49.373  26.799  32.219  1.00  0.00     0.037 A 
BRANCH  57  71
ATOM     71  C   UNL A   1      45.802  30.329  35.824  1.00  0.00     0.064 A 
ATOM     72  C   UNL A   1      45.452  29.719  37.039  1.00  0.00     0.173 A 
ATOM     73  C   UNL A   1      46.001  31.716  35.818  1.00  0.00     0.173 A 
ATOM     74  F   UNL A   1      45.222  28.398  37.091  1.00  0.00    -0.203 F 
ATOM     75  C   UNL A   1      45.286  30.474  38.197  1.00  0.00     0.198 A 
ATOM     76  C   UNL A   1      45.864  32.464  36.984  1.00  0.00     0.198 A 
ATOM     77  F   UNL A   1      46.327  32.348  34.680  1.00  0.00    -0.203 F 
ATOM     78  F   UNL A   1      44.900  29.879  39.335  1.00  0.00    -0.200 F 
ATOM     79  C   UNL A   1      45.500  31.844  38.171  1.00  0.00     0.200 A 
ATOM     80  F   UNL A   1      46.075  33.786  36.959  1.00  0.00    -0.200 F 
ATOM     81  F   UNL A   1      45.344  32.569  39.286  1.00  0.00    -0.200 F 
ENDBRANCH  57  71
BRANCH  58  82
ATOM     82  C   UNL A   1      46.221  25.027  27.352  1.00  0.00     0.064 A 
ATOM     83  C   UNL A   1      45.766  23.703  27.269  1.00  0.00     0.173 A 
ATOM     84  C   UNL A   1      46.822  25.579  26.210  1.00  0.00     0.173 A 
ATOM     85  F   UNL A   1      45.211  23.116  28.340  1.00  0.00    -0.203 F 
ATOM     86  C   UNL A   1      45.937  22.953  26.105  1.00  0.00     0.198 A 
ATOM     87  C   UNL A   1      46.962  24.840  25.038  1.00  0.00     0.198 A 
ATOM     88  F   UNL A   1      47.281  26.839  26.235  1.00  0.00    -0.203 F 
ATOM     89  F   UNL A   1      45.553  21.670  26.075  1.00  0.00    -0.200 F 
ATOM     90  C   UNL A   1      46.531  23.523  24.990  1.00  0.00     0.200 A 
ATOM     91  F   UNL A   1      47.529  25.398  23.959  1.00  0.00    -0.200 F 
ATOM     92  F   UNL A   1      46.702  22.801  23.875  1.00  0.00    -0.200 F 
ENDBRANCH  58  82
BRANCH  70  93
ATOM     93  C   UNL A   1      50.792  26.361  32.444  1.00  0.00     0.064 A 
ATOM     94  C   UNL A   1      51.881  27.169  32.084  1.00  0.00     0.173 A 
ATOM     95  C   UNL A   1      51.065  25.128  33.058  1.00  0.00     0.173 A 
ATOM     96  F   UNL A   1      51.674  28.353  31.487  1.00  0.00    -0.203 F 
ATOM     97  C   UNL A   1      53.189  26.743  32.295  1.00  0.00     0.198 A 
ATOM     98  C   UNL A   1      52.373  24.721  33.299  1.00  0.00     0.198 A 
ATOM     99  F   UNL A   1      50.061  24.322  33.435  1.00  0.00    -0.203 F 
ATOM    100  F   UNL A   1      54.214  27.506  31.889  1.00  0.00    -0.200 F 
ATOM    101  C   UNL A   1      53.435  25.523  32.907  1.00  0.00     0.200 A 
ATOM    102  F   UNL A   1      52.609  23.551  33.908  1.00  0.00    -0.200 F 
ATOM    103  F   UNL A   1      54.695  25.116  33.112  1.00  0.00    -0.200 F 
ENDBRANCH  70  93
ENDBRANCH  44  45
ENDBRANCH  37  39
ENDBRANCH  36  37
ENDBRANCH  35  36
ENDBRANCH  34  35
ENDBRANCH  33  34
ENDBRANCH  32  33
ENDBRANCH   1  32
TORSDOF 22
ENDMDL
