MODEL 1
REMARK VINA RESULT:     -10.2      0.000      0.000
REMARK SMILES O=C(OCCOCCOCCOCCOC(=O)[C@@H]1C[C@@H]1c1ccc(Br)cc1)c1ccc(-c2c3nc(c(-c4c(F)c(F)c(F)c(F)c4F)c4ccc([nH]4)c(-c4c(F)c(F)c(F)c(F)c4F)c4nc(c(-c5c(F)c(F)c(F)c(F)c5F)c5ccc2[nH]5)C=C4)C=C3)cc1
REMARK SMILES IDX 8 1 7 2 6 3 5 4 4 5 3 6 2 7 1 8 28 9 29 10 90 11 30 12 89 13
REMARK SMILES IDX 31 14 32 15 33 16 83 17 34 18 88 19 82 20 84 21 35 22 87 23
REMARK SMILES IDX 81 24 80 25 36 27 68 28 48 29 67 30 49 31 52 32 66 33 85 34
REMARK SMILES IDX 50 35 51 36 65 38 86 39 53 40 37 41 38 42 46 43 39 44 40 45
REMARK SMILES IDX 44 46 47 47 41 48 42 49 45 50 43 51 69 52 70 53 78 54 71 55
REMARK SMILES IDX 72 56 76 57 79 58 73 59 74 60 77 61 75 62 54 63 55 64 63 65
REMARK SMILES IDX 56 66 57 67 61 68 64 69 58 70 59 71 62 72 60 73 9 74 10 75
REMARK SMILES IDX 11 76 12 77 13 78 14 79 15 80 16 81 17 82 18 83 19 84 20 85
REMARK SMILES IDX 21 86 22 87 27 88 23 89 26 90 24 91 25 92
REMARK H PARENT 84 26 52 37
REMARK Flexibility Score: inf
ROOT
ATOM      1  C   UNL A   1      33.758  21.881  27.705  1.00  0.00     0.188 C 
ENDROOT
BRANCH   1   2
ATOM      2  C   UNL A   1      33.763  21.128  26.376  1.00  0.00     0.188 C 
BRANCH   2   3
ATOM      3  O   UNL A   1      34.959  21.414  25.649  1.00  0.00    -0.376 OA
BRANCH   3   4
ATOM      4  C   UNL A   1      35.569  20.310  24.981  1.00  0.00     0.202 C 
BRANCH   4   5
ATOM      5  C   UNL A   1      37.098  20.314  24.994  1.00  0.00     0.261 C 
BRANCH   5   6
ATOM      6  O   UNL A   1      37.658  21.422  25.711  1.00  0.00    -0.460 OA
BRANCH   6   7
ATOM      7  C   UNL A   1      38.937  21.603  26.125  1.00  0.00     0.338 C 
ATOM      8  O   UNL A   1      39.662  20.610  26.186  1.00  0.00    -0.246 OA
BRANCH   7   9
ATOM      9  C   UNL A   1      39.527  22.914  26.556  1.00  0.00     0.060 A 
ATOM     10  C   UNL A   1      39.120  24.181  26.134  1.00  0.00     0.016 A 
ATOM     11  C   UNL A   1      40.540  22.853  27.531  1.00  0.00     0.016 A 
ATOM     12  C   UNL A   1      39.678  25.343  26.639  1.00  0.00     0.010 A 
ATOM     13  C   UNL A   1      41.132  24.016  28.033  1.00  0.00     0.010 A 
ATOM     14  C   UNL A   1      40.705  25.262  27.567  1.00  0.00    -0.014 A 
BRANCH  14  15
ATOM     15  C   UNL A   1      41.456  26.494  27.839  1.00  0.00     0.031 A 
ATOM     16  C   UNL A   1      40.769  27.537  28.661  1.00  0.00     0.074 A 
ATOM     17  C   UNL A   1      42.749  26.586  27.492  1.00  0.00     0.049 A 
ATOM     18  N   UNL A   1      41.151  28.747  28.957  1.00  0.00    -0.248 NA
ATOM     19  C   UNL A   1      39.469  27.155  29.248  1.00  0.00     0.031 C 
ATOM     20  C   UNL A   1      43.529  25.524  26.853  1.00  0.00     0.029 A 
ATOM     21  N   UNL A   1      43.641  27.612  27.647  1.00  0.00    -0.354 N 
ATOM     22  C   UNL A   1      40.121  29.284  29.717  1.00  0.00     0.074 A 
ATOM     23  C   UNL A   1      39.106  28.268  29.860  1.00  0.00     0.031 C 
ATOM     24  C   UNL A   1      44.784  25.961  26.658  1.00  0.00     0.029 A 
ATOM     25  C   UNL A   1      44.866  27.354  27.083  1.00  0.00     0.049 A 
ATOM     26  H   UNL A   1      43.425  28.450  28.115  1.00  0.00     0.167 HD
ATOM     27  C   UNL A   1      40.038  30.533  30.223  1.00  0.00     0.037 A 
ATOM     28  C   UNL A   1      45.901  28.190  26.882  1.00  0.00     0.037 A 
ATOM     29  C   UNL A   1      41.086  31.501  30.059  1.00  0.00     0.049 A 
ATOM     30  C   UNL A   1      45.739  29.614  27.353  1.00  0.00     0.074 A 
ATOM     31  C   UNL A   1      41.126  32.817  30.475  1.00  0.00     0.029 A 
ATOM     32  N   UNL A   1      42.290  31.240  29.414  1.00  0.00    -0.354 N 
ATOM     33  N   UNL A   1      44.738  30.159  28.008  1.00  0.00    -0.248 NA
ATOM     34  C   UNL A   1      46.827  30.545  27.038  1.00  0.00     0.031 C 
ATOM     35  C   UNL A   1      42.331  33.368  30.027  1.00  0.00     0.029 A 
ATOM     36  C   UNL A   1      43.068  32.381  29.386  1.00  0.00     0.049 A 
ATOM     37  H   UNL A   1      42.550  30.370  29.035  1.00  0.00     0.167 HD
ATOM     38  C   UNL A   1      45.080  31.489  28.196  1.00  0.00     0.074 A 
ATOM     39  C   UNL A   1      46.393  31.662  27.604  1.00  0.00     0.031 C 
ATOM     40  C   UNL A   1      44.377  32.486  28.792  1.00  0.00     0.037 A 
BRANCH  27  41
ATOM     41  C   UNL A   1      38.751  30.928  30.882  1.00  0.00     0.064 A 
ATOM     42  C   UNL A   1      37.645  31.396  30.158  1.00  0.00     0.173 A 
ATOM     43  C   UNL A   1      38.642  30.870  32.280  1.00  0.00     0.173 A 
ATOM     44  F   UNL A   1      37.708  31.506  28.822  1.00  0.00    -0.203 F 
ATOM     45  C   UNL A   1      36.487  31.814  30.812  1.00  0.00     0.198 A 
ATOM     46  C   UNL A   1      37.475  31.262  32.927  1.00  0.00     0.198 A 
ATOM     47  F   UNL A   1      39.677  30.447  33.021  1.00  0.00    -0.203 F 
ATOM     48  F   UNL A   1      35.464  32.314  30.105  1.00  0.00    -0.200 F 
ATOM     49  C   UNL A   1      36.401  31.742  32.194  1.00  0.00     0.200 A 
ATOM     50  F   UNL A   1      37.396  31.191  34.264  1.00  0.00    -0.200 F 
ATOM     51  F   UNL A   1      35.288  32.149  32.821  1.00  0.00    -0.200 F 
ENDBRANCH  27  41
BRANCH  28  52
ATOM     52  C   UNL A   1      47.107  27.741  26.133  1.00  0.00     0.064 A 
ATOM     53  C   UNL A   1      47.163  27.795  24.734  1.00  0.00     0.173 A 
ATOM     54  C   UNL A   1      48.223  27.213  26.804  1.00  0.00     0.173 A 
ATOM     55  F   UNL A   1      46.118  28.269  24.039  1.00  0.00    -0.203 F 
ATOM     56  C   UNL A   1      48.274  27.319  24.036  1.00  0.00     0.198 A 
ATOM     57  C   UNL A   1      49.346  26.771  26.108  1.00  0.00     0.198 A 
ATOM     58  F   UNL A   1      48.227  27.127  28.143  1.00  0.00    -0.203 F 
ATOM     59  F   UNL A   1      48.276  27.331  22.696  1.00  0.00    -0.200 F 
ATOM     60  C   UNL A   1      49.367  26.813  24.724  1.00  0.00     0.200 A 
ATOM     61  F   UNL A   1      50.405  26.295  26.780  1.00  0.00    -0.200 F 
ATOM     62  F   UNL A   1      50.431  26.352  24.053  1.00  0.00    -0.200 F 
ENDBRANCH  28  52
BRANCH  40  63
ATOM     63  C   UNL A   1      45.033  33.830  28.852  1.00  0.00     0.064 A 
ATOM     64  C   UNL A   1      44.817  34.794  27.858  1.00  0.00     0.173 A 
ATOM     65  C   UNL A   1      45.814  34.181  29.963  1.00  0.00     0.173 A 
ATOM     66  F   UNL A   1      44.090  34.494  26.772  1.00  0.00    -0.203 F 
ATOM     67  C   UNL A   1      45.375  36.062  27.969  1.00  0.00     0.198 A 
ATOM     68  C   UNL A   1      46.340  35.462  30.085  1.00  0.00     0.198 A 
ATOM     69  F   UNL A   1      46.036  33.293  30.943  1.00  0.00    -0.203 F 
ATOM     70  F   UNL A   1      45.190  36.959  26.990  1.00  0.00    -0.200 F 
ATOM     71  C   UNL A   1      46.125  36.400  29.086  1.00  0.00     0.200 A 
ATOM     72  F   UNL A   1      47.047  35.792  31.176  1.00  0.00    -0.200 F 
ATOM     73  F   UNL A   1      46.641  37.630  29.201  1.00  0.00    -0.200 F 
ENDBRANCH  40  63
ENDBRANCH  14  15
ENDBRANCH   7   9
ENDBRANCH   6   7
ENDBRANCH   5   6
ENDBRANCH   4   5
ENDBRANCH   3   4
ENDBRANCH   2   3
ENDBRANCH   1   2
BRANCH   1  74
ATOM     74  O   UNL A   1      32.565  22.600  27.989  1.00  0.00    -0.377 OA
BRANCH  74  75
ATOM     75  C   UNL A   1      32.143  23.538  27.009  1.00  0.00     0.188 C 
BRANCH  75  76
ATOM     76  C   UNL A   1      30.722  23.395  26.411  1.00  0.00     0.188 C 
BRANCH  76  77
ATOM     77  O   UNL A   1      30.657  23.207  25.016  1.00  0.00    -0.376 OA
BRANCH  77  78
ATOM     78  C   UNL A   1      31.669  23.755  24.189  1.00  0.00     0.202 C 
BRANCH  78  79
ATOM     79  C   UNL A   1      31.867  25.265  23.922  1.00  0.00     0.261 C 
BRANCH  79  80
ATOM     80  O   UNL A   1      30.843  25.947  23.183  1.00  0.00    -0.463 OA
BRANCH  80  81
ATOM     81  C   UNL A   1      29.945  26.698  23.856  1.00  0.00     0.309 C 
ATOM     82  O   UNL A   1      29.291  26.318  24.818  1.00  0.00    -0.252 OA
BRANCH  81  83
ATOM     83  C   UNL A   1      29.721  28.040  23.245  1.00  0.00     0.107 C 
ATOM     84  C   UNL A   1      30.651  28.846  22.373  1.00  0.00     0.025 C 
ATOM     85  C   UNL A   1      30.404  29.293  23.792  1.00  0.00     0.034 C 
BRANCH  85  86
ATOM     86  C   UNL A   1      31.612  29.303  24.716  1.00  0.00    -0.044 A 
ATOM     87  C   UNL A   1      31.488  29.674  26.072  1.00  0.00     0.005 A 
ATOM     88  C   UNL A   1      32.890  28.922  24.280  1.00  0.00     0.005 A 
ATOM     89  C   UNL A   1      32.587  29.685  26.939  1.00  0.00     0.016 A 
ATOM     90  C   UNL A   1      33.999  28.947  25.133  1.00  0.00     0.016 A 
ATOM     91  C   UNL A   1      33.842  29.326  26.461  1.00  0.00     0.017 A 
ATOM     92  Br  UNL A   1      35.332  29.332  27.621  1.00  0.00    -0.051 Br
ENDBRANCH  85  86
ENDBRANCH  81  83
ENDBRANCH  80  81
ENDBRANCH  79  80
ENDBRANCH  78  79
ENDBRANCH  77  78
ENDBRANCH  76  77
ENDBRANCH  75  76
ENDBRANCH  74  75
ENDBRANCH   1  74
TORSDOF 21
ENDMDL
MODEL 2
REMARK VINA RESULT:     -10.1      3.725      8.703
REMARK SMILES O=C(OCCOCCOCCOCCOC(=O)[C@@H]1C[C@@H]1c1ccc(Br)cc1)c1ccc(-c2c3nc(c(-c4c(F)c(F)c(F)c(F)c4F)c4ccc([nH]4)c(-c4c(F)c(F)c(F)c(F)c4F)c4nc(c(-c5c(F)c(F)c(F)c(F)c5F)c5ccc2[nH]5)C=C4)C=C3)cc1
REMARK SMILES IDX 8 1 7 2 6 3 5 4 4 5 3 6 2 7 1 8 28 9 29 10 90 11 30 12 89 13
REMARK SMILES IDX 31 14 32 15 33 16 83 17 34 18 88 19 82 20 84 21 35 22 87 23
REMARK SMILES IDX 81 24 80 25 36 27 68 28 48 29 67 30 49 31 52 32 66 33 85 34
REMARK SMILES IDX 50 35 51 36 65 38 86 39 53 40 37 41 38 42 46 43 39 44 40 45
REMARK SMILES IDX 44 46 47 47 41 48 42 49 45 50 43 51 69 52 70 53 78 54 71 55
REMARK SMILES IDX 72 56 76 57 79 58 73 59 74 60 77 61 75 62 54 63 55 64 63 65
REMARK SMILES IDX 56 66 57 67 61 68 64 69 58 70 59 71 62 72 60 73 9 74 10 75
REMARK SMILES IDX 11 76 12 77 13 78 14 79 15 80 16 81 17 82 18 83 19 84 20 85
REMARK SMILES IDX 21 86 22 87 27 88 23 89 26 90 24 91 25 92
REMARK H PARENT 84 26 52 37
REMARK Flexibility Score: inf
ROOT
ATOM      1  C   UNL A   1      33.141  36.093  29.546  1.00  0.00     0.188 C 
ENDROOT
BRANCH   1   2
ATOM      2  C   UNL A   1      32.850  36.394  31.015  1.00  0.00     0.188 C 
BRANCH   2   3
ATOM      3  O   UNL A   1      32.741  35.178  31.758  1.00  0.00    -0.376 OA
BRANCH   3   4
ATOM      4  C   UNL A   1      33.842  34.858  32.608  1.00  0.00     0.202 C 
BRANCH   4   5
ATOM      5  C   UNL A   1      35.126  34.466  31.878  1.00  0.00     0.261 C 
BRANCH   5   6
ATOM      6  O   UNL A   1      35.254  33.054  31.667  1.00  0.00    -0.460 OA
BRANCH   6   7
ATOM      7  C   UNL A   1      36.076  32.175  32.290  1.00  0.00     0.338 C 
ATOM      8  O   UNL A   1      35.897  31.980  33.493  1.00  0.00    -0.246 OA
BRANCH   7   9
ATOM      9  C   UNL A   1      37.219  31.451  31.639  1.00  0.00     0.060 A 
ATOM     10  C   UNL A   1      38.179  30.672  32.288  1.00  0.00     0.016 A 
ATOM     11  C   UNL A   1      37.280  31.514  30.235  1.00  0.00     0.016 A 
ATOM     12  C   UNL A   1      39.161  29.983  31.598  1.00  0.00     0.010 A 
ATOM     13  C   UNL A   1      38.280  30.843  29.524  1.00  0.00     0.010 A 
ATOM     14  C   UNL A   1      39.231  30.091  30.217  1.00  0.00    -0.014 A 
BRANCH  14  15
ATOM     15  C   UNL A   1      40.452  29.594  29.571  1.00  0.00     0.031 A 
ATOM     16  C   UNL A   1      41.602  30.545  29.473  1.00  0.00     0.074 A 
ATOM     17  C   UNL A   1      40.559  28.297  29.241  1.00  0.00     0.049 A 
ATOM     18  N   UNL A   1      42.745  30.407  28.863  1.00  0.00    -0.248 NA
ATOM     19  C   UNL A   1      41.445  31.833  30.176  1.00  0.00     0.031 C 
ATOM     20  C   UNL A   1      39.538  27.276  29.486  1.00  0.00     0.029 A 
ATOM     21  N   UNL A   1      41.584  27.612  28.648  1.00  0.00    -0.354 N 
ATOM     22  C   UNL A   1      43.418  31.604  29.066  1.00  0.00     0.074 A 
ATOM     23  C   UNL A   1      42.573  32.452  29.872  1.00  0.00     0.031 C 
ATOM     24  C   UNL A   1      39.986  26.094  29.033  1.00  0.00     0.029 A 
ATOM     25  C   UNL A   1      41.283  26.296  28.397  1.00  0.00     0.049 A 
ATOM     26  H   UNL A   1      42.451  28.021  28.424  1.00  0.00     0.167 HD
ATOM     27  C   UNL A   1      44.631  31.955  28.589  1.00  0.00     0.037 A 
ATOM     28  C   UNL A   1      41.965  25.392  27.671  1.00  0.00     0.037 A 
ATOM     29  C   UNL A   1      45.436  31.064  27.800  1.00  0.00     0.049 A 
ATOM     30  C   UNL A   1      43.263  25.844  27.050  1.00  0.00     0.074 A 
ATOM     31  C   UNL A   1      46.662  31.295  27.210  1.00  0.00     0.029 A 
ATOM     32  N   UNL A   1      45.073  29.758  27.492  1.00  0.00    -0.354 N 
ATOM     33  N   UNL A   1      43.878  26.999  27.170  1.00  0.00    -0.248 NA
ATOM     34  C   UNL A   1      43.949  24.888  26.175  1.00  0.00     0.031 C 
ATOM     35  C   UNL A   1      47.012  30.145  26.494  1.00  0.00     0.029 A 
ATOM     36  C   UNL A   1      46.034  29.178  26.688  1.00  0.00     0.049 A 
ATOM     37  H   UNL A   1      44.252  29.312  27.802  1.00  0.00     0.167 HD
ATOM     38  C   UNL A   1      45.027  26.906  26.400  1.00  0.00     0.074 A 
ATOM     39  C   UNL A   1      45.034  25.569  25.835  1.00  0.00     0.031 C 
ATOM     40  C   UNL A   1      45.989  27.834  26.167  1.00  0.00     0.037 A 
BRANCH  27  41
ATOM     41  C   UNL A   1      45.082  33.366  28.817  1.00  0.00     0.064 A 
ATOM     42  C   UNL A   1      45.852  33.742  29.927  1.00  0.00     0.173 A 
ATOM     43  C   UNL A   1      44.698  34.371  27.915  1.00  0.00     0.173 A 
ATOM     44  F   UNL A   1      46.216  32.828  30.839  1.00  0.00    -0.203 F 
ATOM     45  C   UNL A   1      46.199  35.076  30.138  1.00  0.00     0.198 A 
ATOM     46  C   UNL A   1      45.069  35.697  28.115  1.00  0.00     0.198 A 
ATOM     47  F   UNL A   1      43.947  34.068  26.846  1.00  0.00    -0.203 F 
ATOM     48  F   UNL A   1      46.884  35.422  31.238  1.00  0.00    -0.200 F 
ATOM     49  C   UNL A   1      45.812  36.051  29.230  1.00  0.00     0.200 A 
ATOM     50  F   UNL A   1      44.693  36.635  27.235  1.00  0.00    -0.200 F 
ATOM     51  F   UNL A   1      46.143  37.333  29.438  1.00  0.00    -0.200 F 
ENDBRANCH  27  41
BRANCH  28  52
ATOM     52  C   UNL A   1      41.399  24.039  27.414  1.00  0.00     0.064 A 
ATOM     53  C   UNL A   1      42.009  22.881  27.916  1.00  0.00     0.173 A 
ATOM     54  C   UNL A   1      40.246  23.872  26.628  1.00  0.00     0.173 A 
ATOM     55  F   UNL A   1      43.125  22.978  28.654  1.00  0.00    -0.203 F 
ATOM     56  C   UNL A   1      41.505  21.613  27.622  1.00  0.00     0.198 A 
ATOM     57  C   UNL A   1      39.723  22.608  26.365  1.00  0.00     0.198 A 
ATOM     58  F   UNL A   1      39.621  24.941  26.113  1.00  0.00    -0.203 F 
ATOM     59  F   UNL A   1      42.143  20.522  28.067  1.00  0.00    -0.200 F 
ATOM     60  C   UNL A   1      40.359  21.478  26.852  1.00  0.00     0.200 A 
ATOM     61  F   UNL A   1      38.607  22.485  25.632  1.00  0.00    -0.200 F 
ATOM     62  F   UNL A   1      39.878  20.260  26.567  1.00  0.00    -0.200 F 
ENDBRANCH  28  52
BRANCH  40  63
ATOM     63  C   UNL A   1      47.130  27.419  25.291  1.00  0.00     0.064 A 
ATOM     64  C   UNL A   1      47.183  27.784  23.939  1.00  0.00     0.173 A 
ATOM     65  C   UNL A   1      48.218  26.722  25.837  1.00  0.00     0.173 A 
ATOM     66  F   UNL A   1      46.157  28.436  23.374  1.00  0.00    -0.203 F 
ATOM     67  C   UNL A   1      48.285  27.452  23.159  1.00  0.00     0.198 A 
ATOM     68  C   UNL A   1      49.332  26.424  25.061  1.00  0.00     0.198 A 
ATOM     69  F   UNL A   1      48.213  26.363  27.129  1.00  0.00    -0.203 F 
ATOM     70  F   UNL A   1      48.303  27.776  21.858  1.00  0.00    -0.200 F 
ATOM     71  C   UNL A   1      49.363  26.784  23.722  1.00  0.00     0.200 A 
ATOM     72  F   UNL A   1      50.381  25.797  25.613  1.00  0.00    -0.200 F 
ATOM     73  F   UNL A   1      50.433  26.487  22.974  1.00  0.00    -0.200 F 
ENDBRANCH  40  63
ENDBRANCH  14  15
ENDBRANCH   7   9
ENDBRANCH   6   7
ENDBRANCH   5   6
ENDBRANCH   4   5
ENDBRANCH   3   4
ENDBRANCH   2   3
ENDBRANCH   1   2
BRANCH   1  74
ATOM     74  O   UNL A   1      32.789  34.785  29.116  1.00  0.00    -0.377 OA
BRANCH  74  75
ATOM     75  C   UNL A   1      33.805  34.040  28.460  1.00  0.00     0.188 C 
BRANCH  75  76
ATOM     76  C   UNL A   1      33.399  32.771  27.671  1.00  0.00     0.188 C 
BRANCH  76  77
ATOM     77  O   UNL A   1      34.270  31.668  27.788  1.00  0.00    -0.376 OA
BRANCH  77  78
ATOM     78  C   UNL A   1      33.988  30.478  27.072  1.00  0.00     0.202 C 
BRANCH  78  79
ATOM     79  C   UNL A   1      32.710  29.626  27.248  1.00  0.00     0.261 C 
BRANCH  79  80
ATOM     80  O   UNL A   1      32.879  28.222  27.495  1.00  0.00    -0.463 OA
BRANCH  80  81
ATOM     81  C   UNL A   1      32.072  27.347  26.855  1.00  0.00     0.309 C 
ATOM     82  O   UNL A   1      30.971  26.988  27.251  1.00  0.00    -0.252 OA
BRANCH  81  83
ATOM     83  C   UNL A   1      32.697  26.745  25.643  1.00  0.00     0.107 C 
ATOM     84  C   UNL A   1      33.442  27.433  24.526  1.00  0.00     0.025 C 
ATOM     85  C   UNL A   1      32.062  26.888  24.259  1.00  0.00     0.034 C 
BRANCH  85  86
ATOM     86  C   UNL A   1      30.996  27.907  23.883  1.00  0.00    -0.044 A 
ATOM     87  C   UNL A   1      31.170  29.279  24.165  1.00  0.00     0.005 A 
ATOM     88  C   UNL A   1      29.815  27.544  23.220  1.00  0.00     0.005 A 
ATOM     89  C   UNL A   1      30.204  30.233  23.823  1.00  0.00     0.016 A 
ATOM     90  C   UNL A   1      28.834  28.486  22.891  1.00  0.00     0.016 A 
ATOM     91  C   UNL A   1      29.034  29.827  23.191  1.00  0.00     0.017 A 
ATOM     92  Br  UNL A   1      27.724  31.103  22.720  1.00  0.00    -0.051 Br
ENDBRANCH  85  86
ENDBRANCH  81  83
ENDBRANCH  80  81
ENDBRANCH  79  80
ENDBRANCH  78  79
ENDBRANCH  77  78
ENDBRANCH  76  77
ENDBRANCH  75  76
ENDBRANCH  74  75
ENDBRANCH   1  74
TORSDOF 21
ENDMDL
MODEL 3
REMARK VINA RESULT:      -9.9      3.016      8.821
REMARK SMILES O=C(OCCOCCOCCOCCOC(=O)[C@@H]1C[C@@H]1c1ccc(Br)cc1)c1ccc(-c2c3nc(c(-c4c(F)c(F)c(F)c(F)c4F)c4ccc([nH]4)c(-c4c(F)c(F)c(F)c(F)c4F)c4nc(c(-c5c(F)c(F)c(F)c(F)c5F)c5ccc2[nH]5)C=C4)C=C3)cc1
REMARK SMILES IDX 8 1 7 2 6 3 5 4 4 5 3 6 2 7 1 8 28 9 29 10 90 11 30 12 89 13
REMARK SMILES IDX 31 14 32 15 33 16 83 17 34 18 88 19 82 20 84 21 35 22 87 23
REMARK SMILES IDX 81 24 80 25 36 27 68 28 48 29 67 30 49 31 52 32 66 33 85 34
REMARK SMILES IDX 50 35 51 36 65 38 86 39 53 40 37 41 38 42 46 43 39 44 40 45
REMARK SMILES IDX 44 46 47 47 41 48 42 49 45 50 43 51 69 52 70 53 78 54 71 55
REMARK SMILES IDX 72 56 76 57 79 58 73 59 74 60 77 61 75 62 54 63 55 64 63 65
REMARK SMILES IDX 56 66 57 67 61 68 64 69 58 70 59 71 62 72 60 73 9 74 10 75
REMARK SMILES IDX 11 76 12 77 13 78 14 79 15 80 16 81 17 82 18 83 19 84 20 85
REMARK SMILES IDX 21 86 22 87 27 88 23 89 26 90 24 91 25 92
REMARK H PARENT 84 26 52 37
REMARK Flexibility Score: inf
ROOT
ATOM      1  C   UNL A   1      40.571  21.807  27.037  1.00  0.00     0.188 C 
ENDROOT
BRANCH   1   2
ATOM      2  C   UNL A   1      41.610  21.116  26.158  1.00  0.00     0.188 C 
BRANCH   2   3
ATOM      3  O   UNL A   1      42.162  19.986  26.837  1.00  0.00    -0.376 OA
BRANCH   3   4
ATOM      4  C   UNL A   1      42.179  18.758  26.110  1.00  0.00     0.202 C 
BRANCH   4   5
ATOM      5  C   UNL A   1      43.567  18.158  25.890  1.00  0.00     0.261 C 
BRANCH   5   6
ATOM      6  O   UNL A   1      44.117  18.452  24.599  1.00  0.00    -0.460 OA
BRANCH   6   7
ATOM      7  C   UNL A   1      45.002  19.419  24.255  1.00  0.00     0.338 C 
ATOM      8  O   UNL A   1      45.970  19.090  23.569  1.00  0.00    -0.246 OA
BRANCH   7   9
ATOM      9  C   UNL A   1      44.918  20.856  24.682  1.00  0.00     0.060 A 
ATOM     10  C   UNL A   1      44.374  21.906  23.941  1.00  0.00     0.016 A 
ATOM     11  C   UNL A   1      45.373  21.150  25.981  1.00  0.00     0.016 A 
ATOM     12  C   UNL A   1      44.277  23.193  24.444  1.00  0.00     0.010 A 
ATOM     13  C   UNL A   1      45.305  22.449  26.495  1.00  0.00     0.010 A 
ATOM     14  C   UNL A   1      44.769  23.472  25.709  1.00  0.00    -0.014 A 
BRANCH  14  15
ATOM     15  C   UNL A   1      44.915  24.888  26.069  1.00  0.00     0.031 A 
ATOM     16  C   UNL A   1      46.244  25.521  25.805  1.00  0.00     0.074 A 
ATOM     17  C   UNL A   1      43.845  25.597  26.464  1.00  0.00     0.049 A 
ATOM     18  N   UNL A   1      46.677  26.708  26.121  1.00  0.00    -0.248 NA
ATOM     19  C   UNL A   1      47.221  24.700  25.063  1.00  0.00     0.031 C 
ATOM     20  C   UNL A   1      42.479  25.079  26.561  1.00  0.00     0.029 A 
ATOM     21  N   UNL A   1      43.736  26.908  26.837  1.00  0.00    -0.354 N 
ATOM     22  C   UNL A   1      47.987  26.757  25.664  1.00  0.00     0.074 A 
ATOM     23  C   UNL A   1      48.277  25.494  25.028  1.00  0.00     0.031 C 
ATOM     24  C   UNL A   1      41.668  26.064  26.981  1.00  0.00     0.029 A 
ATOM     25  C   UNL A   1      42.474  27.248  27.258  1.00  0.00     0.049 A 
ATOM     26  H   UNL A   1      44.486  27.544  26.806  1.00  0.00     0.167 HD
ATOM     27  C   UNL A   1      48.866  27.773  25.796  1.00  0.00     0.037 A 
ATOM     28  C   UNL A   1      42.054  28.375  27.861  1.00  0.00     0.037 A 
ATOM     29  C   UNL A   1      48.518  29.015  26.429  1.00  0.00     0.049 A 
ATOM     30  C   UNL A   1      43.083  29.451  28.104  1.00  0.00     0.074 A 
ATOM     31  C   UNL A   1      49.313  30.115  26.677  1.00  0.00     0.029 A 
ATOM     32  N   UNL A   1      47.250  29.307  26.919  1.00  0.00    -0.354 N 
ATOM     33  N   UNL A   1      44.347  29.482  27.744  1.00  0.00    -0.248 NA
ATOM     34  C   UNL A   1      42.644  30.632  28.854  1.00  0.00     0.031 C 
ATOM     35  C   UNL A   1      48.539  31.050  27.372  1.00  0.00     0.029 A 
ATOM     36  C   UNL A   1      47.247  30.558  27.503  1.00  0.00     0.049 A 
ATOM     37  H   UNL A   1      46.470  28.710  26.858  1.00  0.00     0.167 HD
ATOM     38  C   UNL A   1      44.850  30.687  28.210  1.00  0.00     0.074 A 
ATOM     39  C   UNL A   1      43.746  31.368  28.860  1.00  0.00     0.031 C 
ATOM     40  C   UNL A   1      46.108  31.189  28.124  1.00  0.00     0.037 A 
BRANCH  27  41
ATOM     41  C   UNL A   1      50.277  27.529  25.353  1.00  0.00     0.064 A 
ATOM     42  C   UNL A   1      51.299  27.180  26.248  1.00  0.00     0.173 A 
ATOM     43  C   UNL A   1      50.616  27.687  24.000  1.00  0.00     0.173 A 
ATOM     44  F   UNL A   1      51.038  27.052  27.557  1.00  0.00    -0.203 F 
ATOM     45  C   UNL A   1      52.613  27.024  25.807  1.00  0.00     0.198 A 
ATOM     46  C   UNL A   1      51.922  27.503  23.560  1.00  0.00     0.198 A 
ATOM     47  F   UNL A   1      49.679  28.037  23.106  1.00  0.00    -0.203 F 
ATOM     48  F   UNL A   1      53.585  26.750  26.688  1.00  0.00    -0.200 F 
ATOM     49  C   UNL A   1      52.922  27.179  24.464  1.00  0.00     0.200 A 
ATOM     50  F   UNL A   1      52.217  27.655  22.261  1.00  0.00    -0.200 F 
ATOM     51  F   UNL A   1      54.186  27.033  24.043  1.00  0.00    -0.200 F 
ENDBRANCH  27  41
BRANCH  28  52
ATOM     52  C   UNL A   1      40.656  28.498  28.356  1.00  0.00     0.064 A 
ATOM     53  C   UNL A   1      39.630  29.000  27.542  1.00  0.00     0.173 A 
ATOM     54  C   UNL A   1      40.318  28.144  29.673  1.00  0.00     0.173 A 
ATOM     55  F   UNL A   1      39.898  29.374  26.282  1.00  0.00    -0.203 F 
ATOM     56  C   UNL A   1      38.334  29.165  28.032  1.00  0.00     0.198 A 
ATOM     57  C   UNL A   1      39.016  28.277  30.151  1.00  0.00     0.198 A 
ATOM     58  F   UNL A   1      41.257  27.665  30.504  1.00  0.00    -0.203 F 
ATOM     59  F   UNL A   1      37.388  29.702  27.249  1.00  0.00    -0.200 F 
ATOM     60  C   UNL A   1      38.027  28.799  29.333  1.00  0.00     0.200 A 
ATOM     61  F   UNL A   1      38.723  27.908  31.406  1.00  0.00    -0.200 F 
ATOM     62  F   UNL A   1      36.783  28.962  29.805  1.00  0.00    -0.200 F 
ENDBRANCH  28  52
BRANCH  40  63
ATOM     63  C   UNL A   1      46.337  32.543  28.720  1.00  0.00     0.064 A 
ATOM     64  C   UNL A   1      46.788  32.694  30.038  1.00  0.00     0.173 A 
ATOM     65  C   UNL A   1      46.183  33.693  27.932  1.00  0.00     0.173 A 
ATOM     66  F   UNL A   1      46.933  31.622  30.830  1.00  0.00    -0.203 F 
ATOM     67  C   UNL A   1      47.065  33.956  30.551  1.00  0.00     0.198 A 
ATOM     68  C   UNL A   1      46.495  34.949  28.439  1.00  0.00     0.198 A 
ATOM     69  F   UNL A   1      45.764  33.592  26.661  1.00  0.00    -0.203 F 
ATOM     70  F   UNL A   1      47.460  34.086  31.825  1.00  0.00    -0.200 F 
ATOM     71  C   UNL A   1      46.931  35.080  29.749  1.00  0.00     0.200 A 
ATOM     72  F   UNL A   1      46.384  36.031  27.655  1.00  0.00    -0.200 F 
ATOM     73  F   UNL A   1      47.221  36.292  30.238  1.00  0.00    -0.200 F 
ENDBRANCH  40  63
ENDBRANCH  14  15
ENDBRANCH   7   9
ENDBRANCH   6   7
ENDBRANCH   5   6
ENDBRANCH   4   5
ENDBRANCH   3   4
ENDBRANCH   2   3
ENDBRANCH   1   2
BRANCH   1  74
ATOM     74  O   UNL A   1      39.325  22.074  26.406  1.00  0.00    -0.377 OA
BRANCH  74  75
ATOM     75  C   UNL A   1      38.844  23.407  26.495  1.00  0.00     0.188 C 
BRANCH  75  76
ATOM     76  C   UNL A   1      37.424  23.717  25.963  1.00  0.00     0.188 C 
BRANCH  76  77
ATOM     77  O   UNL A   1      36.611  22.600  25.684  1.00  0.00    -0.376 OA
BRANCH  77  78
ATOM     78  C   UNL A   1      36.404  22.206  24.338  1.00  0.00     0.202 C 
BRANCH  78  79
ATOM     79  C   UNL A   1      35.483  22.941  23.337  1.00  0.00     0.261 C 
BRANCH  79  80
ATOM     80  O   UNL A   1      35.036  24.258  23.693  1.00  0.00    -0.463 OA
BRANCH  80  81
ATOM     81  C   UNL A   1      33.864  24.704  23.191  1.00  0.00     0.309 C 
ATOM     82  O   UNL A   1      33.685  25.058  22.033  1.00  0.00    -0.252 OA
BRANCH  81  83
ATOM     83  C   UNL A   1      32.795  24.845  24.221  1.00  0.00     0.107 C 
ATOM     84  C   UNL A   1      32.760  24.294  25.625  1.00  0.00     0.025 C 
ATOM     85  C   UNL A   1      31.865  23.685  24.575  1.00  0.00     0.034 C 
BRANCH  85  86
ATOM     86  C   UNL A   1      32.119  22.223  24.239  1.00  0.00    -0.044 A 
ATOM     87  C   UNL A   1      31.924  21.733  22.930  1.00  0.00     0.005 A 
ATOM     88  C   UNL A   1      32.580  21.305  25.194  1.00  0.00     0.005 A 
ATOM     89  C   UNL A   1      32.155  20.392  22.600  1.00  0.00     0.016 A 
ATOM     90  C   UNL A   1      32.797  19.959  24.880  1.00  0.00     0.016 A 
ATOM     91  C   UNL A   1      32.586  19.509  23.583  1.00  0.00     0.017 A 
ATOM     92  Br  UNL A   1      32.907  17.698  23.151  1.00  0.00    -0.051 Br
ENDBRANCH  85  86
ENDBRANCH  81  83
ENDBRANCH  80  81
ENDBRANCH  79  80
ENDBRANCH  78  79
ENDBRANCH  77  78
ENDBRANCH  76  77
ENDBRANCH  75  76
ENDBRANCH  74  75
ENDBRANCH   1  74
TORSDOF 21
ENDMDL
