MODEL 1
REMARK VINA RESULT:      -9.2      0.000      0.000
REMARK SMILES Cc1ccc(N2C(=O)/C(=C\c3ccccc3O[C@H](C)C(=O)OCCOCCOCCOCCOC(=O)c3ccc(-c4c5nc(c(-c6c(F)c(F)c(F)c(F)c6F)c6ccc([nH]6)c(-c6c(F)c(F)c(F)c(F)c6F)c6nc(c(-c7c(F)c(F)c(F)c(F)c7F)c7ccc4[nH]7)C=C6)C=C5)cc3)SC2=S)c(C)c1
REMARK SMILES IDX 27 1 26 2 25 3 24 4 23 5 22 6 20 7 21 8 18 9 19 10 17 11
REMARK SMILES IDX 16 12 11 13 12 14 13 15 15 16 14 17 10 18 6 19 7 20 101 21
REMARK SMILES IDX 8 22 9 23 100 24 102 25 5 26 1 27 2 28 3 29 105 30 4 31
REMARK SMILES IDX 103 32 104 33 28 34 29 35 30 36 31 37 32 38 33 39 34 40
REMARK SMILES IDX 35 41 36 42 37 43 38 44 99 45 39 46 98 47 40 48 41 49 42 50
REMARK SMILES IDX 92 51 43 52 97 53 91 54 93 55 44 56 96 57 90 58 89 59 45 61
REMARK SMILES IDX 77 62 57 63 76 64 58 65 61 66 75 67 94 68 59 69 60 70 74 72
REMARK SMILES IDX 95 73 62 74 46 75 47 76 55 77 48 78 49 79 53 80 56 81 50 82
REMARK SMILES IDX 51 83 54 84 52 85 78 86 79 87 87 88 80 89 81 90 85 91 88 92
REMARK SMILES IDX 82 93 83 94 86 95 84 96 63 97 64 98 72 99 65 100 66 101
REMARK SMILES IDX 70 102 73 103 67 104 68 105 71 106 69 107
REMARK H PARENT 93 60 61 71
REMARK Flexibility Score: inf
ROOT
ATOM      1  C   UNL A   1      33.252  36.878  30.353  1.00  0.00     0.188 C 
ENDROOT
BRANCH   1   2
ATOM      2  C   UNL A   1      33.131  35.800  29.268  1.00  0.00     0.188 C 
BRANCH   2   3
ATOM      3  O   UNL A   1      33.262  34.422  29.586  1.00  0.00    -0.376 OA
BRANCH   3   4
ATOM      4  C   UNL A   1      34.212  33.964  30.540  1.00  0.00     0.202 C 
BRANCH   4   5
ATOM      5  C   UNL A   1      34.981  32.650  30.343  1.00  0.00     0.261 C 
BRANCH   5   6
ATOM      6  O   UNL A   1      35.081  32.213  28.979  1.00  0.00    -0.461 OA
BRANCH   6   7
ATOM      7  C   UNL A   1      36.142  31.432  28.662  1.00  0.00     0.347 C 
ATOM      8  O   UNL A   1      37.217  31.879  28.265  1.00  0.00    -0.248 OA
BRANCH   7   9
ATOM      9  C   UNL A   1      35.862  29.929  28.788  1.00  0.00     0.279 C 
ATOM     10  C   UNL A   1      35.185  29.204  27.626  1.00  0.00     0.066 C 
BRANCH   9  11
ATOM     11  O   UNL A   1      37.194  29.464  28.930  1.00  0.00    -0.478 OA
BRANCH  11  12
ATOM     12  C   UNL A   1      37.726  29.251  30.166  1.00  0.00     0.127 A 
ATOM     13  C   UNL A   1      39.091  28.920  30.126  1.00  0.00     0.018 A 
ATOM     14  C   UNL A   1      39.690  28.394  31.269  1.00  0.00     0.012 A 
ATOM     15  C   UNL A   1      38.965  28.324  32.464  1.00  0.00     0.001 A 
ATOM     16  C   UNL A   1      37.041  29.292  31.378  1.00  0.00     0.047 A 
ATOM     17  C   UNL A   1      37.662  28.820  32.529  1.00  0.00     0.004 A 
BRANCH  13  18
ATOM     18  C   UNL A   1      39.848  29.141  28.877  1.00  0.00     0.033 C 
ATOM     19  N   UNL A   1      41.084  25.975  27.445  1.00  0.00    -0.261 N 
ATOM     20  C   UNL A   1      40.306  26.669  28.371  1.00  0.00     0.270 C 
ATOM     21  C   UNL A   1      41.825  26.749  26.565  1.00  0.00     0.152 C 
ATOM     22  O   UNL A   1      39.605  26.164  29.240  1.00  0.00    -0.268 OA
ATOM     23  C   UNL A   1      40.422  28.153  28.161  1.00  0.00     0.081 C 
ATOM     24  S   UNL A   1      41.498  28.464  26.851  1.00  0.00    -0.054 SA
ATOM     25  S   UNL A   1      42.803  26.288  25.285  1.00  0.00    -0.051 S 
BRANCH  19  26
ATOM     26  C   UNL A   1      41.083  24.540  27.464  1.00  0.00     0.054 A 
ATOM     27  C   UNL A   1      41.080  20.209  27.735  1.00  0.00     0.044 C 
ATOM     28  C   UNL A   1      41.102  21.707  27.646  1.00  0.00    -0.051 A 
ATOM     29  C   UNL A   1      42.179  22.452  28.122  1.00  0.00     0.005 A 
ATOM     30  C   UNL A   1      40.019  22.381  27.076  1.00  0.00     0.009 A 
ATOM     31  C   UNL A   1      42.165  23.851  28.040  1.00  0.00     0.027 A 
ATOM     32  C   UNL A   1      40.000  23.785  26.959  1.00  0.00    -0.027 A 
ATOM     33  C   UNL A   1      38.797  24.383  26.276  1.00  0.00     0.046 C 
ENDBRANCH  19  26
ENDBRANCH  13  18
ENDBRANCH  11  12
ENDBRANCH   9  11
ENDBRANCH   7   9
ENDBRANCH   6   7
ENDBRANCH   5   6
ENDBRANCH   4   5
ENDBRANCH   3   4
ENDBRANCH   2   3
ENDBRANCH   1   2
BRANCH   1  34
ATOM     34  O   UNL A   1      32.275  36.795  31.368  1.00  0.00    -0.377 OA
BRANCH  34  35
ATOM     35  C   UNL A   1      32.721  36.683  32.712  1.00  0.00     0.188 C 
BRANCH  35  36
ATOM     36  C   UNL A   1      34.240  36.616  32.951  1.00  0.00     0.188 C 
BRANCH  36  37
ATOM     37  O   UNL A   1      34.614  35.765  34.025  1.00  0.00    -0.376 OA
BRANCH  37  38
ATOM     38  C   UNL A   1      35.591  34.760  33.785  1.00  0.00     0.202 C 
BRANCH  38  39
ATOM     39  C   UNL A   1      36.015  33.872  34.969  1.00  0.00     0.261 C 
BRANCH  39  40
ATOM     40  O   UNL A   1      36.679  32.637  34.649  1.00  0.00    -0.460 OA
BRANCH  40  41
ATOM     41  C   UNL A   1      37.641  32.181  35.475  1.00  0.00     0.338 C 
ATOM     42  O   UNL A   1      37.504  31.742  36.604  1.00  0.00    -0.246 OA
BRANCH  41  43
ATOM     43  C   UNL A   1      38.894  32.109  34.697  1.00  0.00     0.060 A 
ATOM     44  C   UNL A   1      38.829  31.991  33.301  1.00  0.00     0.016 A 
ATOM     45  C   UNL A   1      40.129  32.160  35.346  1.00  0.00     0.016 A 
ATOM     46  C   UNL A   1      40.001  31.892  32.551  1.00  0.00     0.010 A 
ATOM     47  C   UNL A   1      41.300  32.032  34.598  1.00  0.00     0.010 A 
ATOM     48  C   UNL A   1      41.240  31.864  33.202  1.00  0.00    -0.014 A 
BRANCH  48  49
ATOM     49  C   UNL A   1      42.459  31.430  32.480  1.00  0.00     0.031 A 
ATOM     50  C   UNL A   1      43.070  32.393  31.501  1.00  0.00     0.074 A 
ATOM     51  C   UNL A   1      42.992  30.210  32.658  1.00  0.00     0.049 A 
ATOM     52  N   UNL A   1      44.019  32.202  30.624  1.00  0.00    -0.248 NA
ATOM     53  C   UNL A   1      42.520  33.759  31.509  1.00  0.00     0.031 C 
ATOM     54  C   UNL A   1      42.530  29.216  33.622  1.00  0.00     0.029 A 
ATOM     55  N   UNL A   1      44.031  29.593  32.005  1.00  0.00    -0.354 N 
ATOM     56  C   UNL A   1      44.165  33.415  29.962  1.00  0.00     0.074 A 
ATOM     57  C   UNL A   1      43.195  34.328  30.522  1.00  0.00     0.031 C 
ATOM     58  C   UNL A   1      43.265  28.099  33.479  1.00  0.00     0.029 A 
ATOM     59  C   UNL A   1      44.212  28.284  32.380  1.00  0.00     0.049 A 
ATOM     60  H   UNL A   1      44.591  30.045  31.334  1.00  0.00     0.167 HD
ATOM     61  C   UNL A   1      45.032  33.733  28.973  1.00  0.00     0.037 A 
ATOM     62  C   UNL A   1      45.020  27.338  31.862  1.00  0.00     0.037 A 
ATOM     63  C   UNL A   1      45.991  32.815  28.421  1.00  0.00     0.049 A 
ATOM     64  C   UNL A   1      45.915  27.688  30.695  1.00  0.00     0.074 A 
ATOM     65  C   UNL A   1      46.921  33.038  27.421  1.00  0.00     0.029 A 
ATOM     66  N   UNL A   1      46.133  31.493  28.816  1.00  0.00    -0.354 N 
ATOM     67  N   UNL A   1      46.054  28.834  30.073  1.00  0.00    -0.248 NA
ATOM     68  C   UNL A   1      46.760  26.613  30.157  1.00  0.00     0.031 C 
ATOM     69  C   UNL A   1      47.582  31.833  27.168  1.00  0.00     0.029 A 
ATOM     70  C   UNL A   1      47.118  30.880  28.063  1.00  0.00     0.049 A 
ATOM     71  H   UNL A   1      45.611  31.056  29.528  1.00  0.00     0.167 HD
ATOM     72  C   UNL A   1      47.032  28.631  29.106  1.00  0.00     0.074 A 
ATOM     73  C   UNL A   1      47.448  27.249  29.218  1.00  0.00     0.031 C 
ATOM     74  C   UNL A   1      47.544  29.512  28.212  1.00  0.00     0.037 A 
BRANCH  61  75
ATOM     75  C   UNL A   1      44.953  35.118  28.398  1.00  0.00     0.064 A 
ATOM     76  C   UNL A   1      45.915  36.097  28.686  1.00  0.00     0.173 A 
ATOM     77  C   UNL A   1      43.912  35.458  27.521  1.00  0.00     0.173 A 
ATOM     78  F   UNL A   1      46.922  35.829  29.531  1.00  0.00    -0.203 F 
ATOM     79  C   UNL A   1      45.821  37.375  28.139  1.00  0.00     0.198 A 
ATOM     80  C   UNL A   1      43.841  36.725  26.949  1.00  0.00     0.198 A 
ATOM     81  F   UNL A   1      42.966  34.559  27.211  1.00  0.00    -0.203 F 
ATOM     82  F   UNL A   1      46.721  38.312  28.472  1.00  0.00    -0.200 F 
ATOM     83  C   UNL A   1      44.790  37.685  27.266  1.00  0.00     0.200 A 
ATOM     84  F   UNL A   1      42.852  37.018  26.094  1.00  0.00    -0.200 F 
ATOM     85  F   UNL A   1      44.706  38.912  26.734  1.00  0.00    -0.200 F 
ENDBRANCH  61  75
BRANCH  62  86
ATOM     86  C   UNL A   1      45.008  25.958  32.419  1.00  0.00     0.064 A 
ATOM     87  C   UNL A   1      44.294  24.930  31.789  1.00  0.00     0.173 A 
ATOM     88  C   UNL A   1      45.686  25.644  33.606  1.00  0.00     0.173 A 
ATOM     89  F   UNL A   1      43.605  25.184  30.666  1.00  0.00    -0.203 F 
ATOM     90  C   UNL A   1      44.243  23.647  32.334  1.00  0.00     0.198 A 
ATOM     91  C   UNL A   1      45.662  24.354  34.133  1.00  0.00     0.198 A 
ATOM     92  F   UNL A   1      46.381  26.592  34.254  1.00  0.00    -0.203 F 
ATOM     93  F   UNL A   1      43.509  22.698  31.738  1.00  0.00    -0.200 F 
ATOM     94  C   UNL A   1      44.932  23.359  33.502  1.00  0.00     0.200 A 
ATOM     95  F   UNL A   1      46.339  24.078  35.256  1.00  0.00    -0.200 F 
ATOM     96  F   UNL A   1      44.884  22.126  34.024  1.00  0.00    -0.200 F 
ENDBRANCH  62  86
BRANCH  74  97
ATOM     97  C   UNL A   1      48.668  29.049  27.330  1.00  0.00     0.064 A 
ATOM     98  C   UNL A   1      50.006  29.089  27.744  1.00  0.00     0.173 A 
ATOM     99  C   UNL A   1      48.383  28.464  26.085  1.00  0.00     0.173 A 
ATOM    100  F   UNL A   1      50.333  29.648  28.919  1.00  0.00    -0.203 F 
ATOM    101  C   UNL A   1      51.018  28.568  26.941  1.00  0.00     0.198 A 
ATOM    102  C   UNL A   1      49.392  27.915  25.300  1.00  0.00     0.198 A 
ATOM    103  F   UNL A   1      47.116  28.392  25.647  1.00  0.00    -0.203 F 
ATOM    104  F   UNL A   1      52.295  28.642  27.342  1.00  0.00    -0.200 F 
ATOM    105  C   UNL A   1      50.709  27.970  25.727  1.00  0.00     0.200 A 
ATOM    106  F   UNL A   1      49.088  27.321  24.139  1.00  0.00    -0.200 F 
ATOM    107  F   UNL A   1      51.683  27.447  24.968  1.00  0.00    -0.200 F 
ENDBRANCH  74  97
ENDBRANCH  48  49
ENDBRANCH  41  43
ENDBRANCH  40  41
ENDBRANCH  39  40
ENDBRANCH  38  39
ENDBRANCH  37  38
ENDBRANCH  36  37
ENDBRANCH  35  36
ENDBRANCH  34  35
ENDBRANCH   1  34
TORSDOF 24
ENDMDL
MODEL 2
REMARK VINA RESULT:      -9.0      1.250      6.792
REMARK SMILES Cc1ccc(N2C(=O)/C(=C\c3ccccc3O[C@H](C)C(=O)OCCOCCOCCOCCOC(=O)c3ccc(-c4c5nc(c(-c6c(F)c(F)c(F)c(F)c6F)c6ccc([nH]6)c(-c6c(F)c(F)c(F)c(F)c6F)c6nc(c(-c7c(F)c(F)c(F)c(F)c7F)c7ccc4[nH]7)C=C6)C=C5)cc3)SC2=S)c(C)c1
REMARK SMILES IDX 27 1 26 2 25 3 24 4 23 5 22 6 20 7 21 8 18 9 19 10 17 11
REMARK SMILES IDX 16 12 11 13 12 14 13 15 15 16 14 17 10 18 6 19 7 20 101 21
REMARK SMILES IDX 8 22 9 23 100 24 102 25 5 26 1 27 2 28 3 29 105 30 4 31
REMARK SMILES IDX 103 32 104 33 28 34 29 35 30 36 31 37 32 38 33 39 34 40
REMARK SMILES IDX 35 41 36 42 37 43 38 44 99 45 39 46 98 47 40 48 41 49 42 50
REMARK SMILES IDX 92 51 43 52 97 53 91 54 93 55 44 56 96 57 90 58 89 59 45 61
REMARK SMILES IDX 77 62 57 63 76 64 58 65 61 66 75 67 94 68 59 69 60 70 74 72
REMARK SMILES IDX 95 73 62 74 46 75 47 76 55 77 48 78 49 79 53 80 56 81 50 82
REMARK SMILES IDX 51 83 54 84 52 85 78 86 79 87 87 88 80 89 81 90 85 91 88 92
REMARK SMILES IDX 82 93 83 94 86 95 84 96 63 97 64 98 72 99 65 100 66 101
REMARK SMILES IDX 70 102 73 103 67 104 68 105 71 106 69 107
REMARK H PARENT 93 60 61 71
REMARK Flexibility Score: inf
ROOT
ATOM      1  C   UNL A   1      33.276  36.851  30.308  1.00  0.00     0.188 C 
ENDROOT
BRANCH   1   2
ATOM      2  C   UNL A   1      33.093  35.772  29.232  1.00  0.00     0.188 C 
BRANCH   2   3
ATOM      3  O   UNL A   1      33.196  34.393  29.552  1.00  0.00    -0.376 OA
BRANCH   3   4
ATOM      4  C   UNL A   1      34.097  33.924  30.549  1.00  0.00     0.202 C 
BRANCH   4   5
ATOM      5  C   UNL A   1      34.942  32.660  30.339  1.00  0.00     0.261 C 
BRANCH   5   6
ATOM      6  O   UNL A   1      35.099  32.264  28.968  1.00  0.00    -0.461 OA
BRANCH   6   7
ATOM      7  C   UNL A   1      36.169  31.488  28.672  1.00  0.00     0.347 C 
ATOM      8  O   UNL A   1      37.267  31.942  28.355  1.00  0.00    -0.248 OA
BRANCH   7   9
ATOM      9  C   UNL A   1      35.872  29.983  28.713  1.00  0.00     0.279 C 
ATOM     10  C   UNL A   1      35.231  29.325  27.492  1.00  0.00     0.066 C 
BRANCH   9  11
ATOM     11  O   UNL A   1      37.193  29.498  28.879  1.00  0.00    -0.478 OA
BRANCH  11  12
ATOM     12  C   UNL A   1      37.674  29.205  30.120  1.00  0.00     0.127 A 
ATOM     13  C   UNL A   1      39.025  28.821  30.108  1.00  0.00     0.018 A 
ATOM     14  C   UNL A   1      39.563  28.217  31.244  1.00  0.00     0.012 A 
ATOM     15  C   UNL A   1      38.795  28.119  32.409  1.00  0.00     0.001 A 
ATOM     16  C   UNL A   1      36.949  29.216  31.309  1.00  0.00     0.047 A 
ATOM     17  C   UNL A   1      37.511  28.664  32.456  1.00  0.00     0.004 A 
BRANCH  13  18
ATOM     18  C   UNL A   1      39.833  29.070  28.897  1.00  0.00     0.033 C 
ATOM     19  N   UNL A   1      41.142  25.938  27.455  1.00  0.00    -0.261 N 
ATOM     20  C   UNL A   1      40.324  26.610  28.361  1.00  0.00     0.270 C 
ATOM     21  C   UNL A   1      41.916  26.733  26.623  1.00  0.00     0.152 C 
ATOM     22  O   UNL A   1      39.588  26.085  29.189  1.00  0.00    -0.268 OA
ATOM     23  C   UNL A   1      40.442  28.099  28.186  1.00  0.00     0.081 C 
ATOM     24  S   UNL A   1      41.570  28.440  26.929  1.00  0.00    -0.054 SA
ATOM     25  S   UNL A   1      42.949  26.302  25.376  1.00  0.00    -0.051 S 
BRANCH  19  26
ATOM     26  C   UNL A   1      41.147  24.503  27.444  1.00  0.00     0.054 A 
ATOM     27  C   UNL A   1      41.155  20.168  27.627  1.00  0.00     0.044 C 
ATOM     28  C   UNL A   1      41.173  21.667  27.569  1.00  0.00    -0.051 A 
ATOM     29  C   UNL A   1      42.232  22.406  28.093  1.00  0.00     0.005 A 
ATOM     30  C   UNL A   1      40.104  22.349  26.982  1.00  0.00     0.009 A 
ATOM     31  C   UNL A   1      42.215  23.806  28.039  1.00  0.00     0.027 A 
ATOM     32  C   UNL A   1      40.082  23.755  26.892  1.00  0.00    -0.027 A 
ATOM     33  C   UNL A   1      38.898  24.363  26.186  1.00  0.00     0.046 C 
ENDBRANCH  19  26
ENDBRANCH  13  18
ENDBRANCH  11  12
ENDBRANCH   9  11
ENDBRANCH   7   9
ENDBRANCH   6   7
ENDBRANCH   5   6
ENDBRANCH   4   5
ENDBRANCH   3   4
ENDBRANCH   2   3
ENDBRANCH   1   2
BRANCH   1  34
ATOM     34  O   UNL A   1      32.347  36.779  31.369  1.00  0.00    -0.377 OA
BRANCH  34  35
ATOM     35  C   UNL A   1      32.855  36.656  32.689  1.00  0.00     0.188 C 
BRANCH  35  36
ATOM     36  C   UNL A   1      34.385  36.609  32.858  1.00  0.00     0.188 C 
BRANCH  36  37
ATOM     37  O   UNL A   1      34.822  35.697  33.856  1.00  0.00    -0.376 OA
BRANCH  37  38
ATOM     38  C   UNL A   1      35.881  34.802  33.540  1.00  0.00     0.202 C 
BRANCH  38  39
ATOM     39  C   UNL A   1      36.346  33.824  34.634  1.00  0.00     0.261 C 
BRANCH  39  40
ATOM     40  O   UNL A   1      37.022  32.633  34.196  1.00  0.00    -0.460 OA
BRANCH  40  41
ATOM     41  C   UNL A   1      37.953  32.079  34.997  1.00  0.00     0.338 C 
ATOM     42  O   UNL A   1      37.802  31.653  36.128  1.00  0.00    -0.246 OA
BRANCH  41  43
ATOM     43  C   UNL A   1      39.173  31.884  34.187  1.00  0.00     0.060 A 
ATOM     44  C   UNL A   1      39.071  31.859  32.788  1.00  0.00     0.016 A 
ATOM     45  C   UNL A   1      40.413  31.729  34.809  1.00  0.00     0.016 A 
ATOM     46  C   UNL A   1      40.206  31.646  32.006  1.00  0.00     0.010 A 
ATOM     47  C   UNL A   1      41.544  31.489  34.027  1.00  0.00     0.010 A 
ATOM     48  C   UNL A   1      41.440  31.412  32.626  1.00  0.00    -0.014 A 
BRANCH  48  49
ATOM     49  C   UNL A   1      42.577  30.861  31.853  1.00  0.00     0.031 A 
ATOM     50  C   UNL A   1      43.097  29.507  32.247  1.00  0.00     0.074 A 
ATOM     51  C   UNL A   1      43.155  31.548  30.854  1.00  0.00     0.049 A 
ATOM     52  N   UNL A   1      44.175  28.881  31.857  1.00  0.00    -0.248 NA
ATOM     53  C   UNL A   1      42.289  28.764  33.230  1.00  0.00     0.031 C 
ATOM     54  C   UNL A   1      42.701  32.836  30.338  1.00  0.00     0.029 A 
ATOM     55  N   UNL A   1      44.274  31.260  30.112  1.00  0.00    -0.354 N 
ATOM     56  C   UNL A   1      44.187  27.684  32.561  1.00  0.00     0.074 A 
ATOM     57  C   UNL A   1      43.022  27.678  33.417  1.00  0.00     0.031 C 
ATOM     58  C   UNL A   1      43.553  33.244  29.381  1.00  0.00     0.029 A 
ATOM     59  C   UNL A   1      44.636  32.270  29.254  1.00  0.00     0.049 A 
ATOM     60  H   UNL A   1      44.769  30.413  30.188  1.00  0.00     0.167 HD
ATOM     61  C   UNL A   1      45.093  26.680  32.498  1.00  0.00     0.037 A 
ATOM     62  C   UNL A   1      45.739  32.405  28.491  1.00  0.00     0.037 A 
ATOM     63  C   UNL A   1      46.252  26.698  31.646  1.00  0.00     0.049 A 
ATOM     64  C   UNL A   1      46.786  31.315  28.505  1.00  0.00     0.074 A 
ATOM     65  C   UNL A   1      47.229  25.731  31.500  1.00  0.00     0.029 A 
ATOM     66  N   UNL A   1      46.592  27.745  30.803  1.00  0.00    -0.354 N 
ATOM     67  N   UNL A   1      46.795  30.184  29.168  1.00  0.00    -0.248 NA
ATOM     68  C   UNL A   1      47.977  31.523  27.670  1.00  0.00     0.031 C 
ATOM     69  C   UNL A   1      48.195  26.220  30.617  1.00  0.00     0.029 A 
ATOM     70  C   UNL A   1      47.779  27.460  30.153  1.00  0.00     0.049 A 
ATOM     71  H   UNL A   1      46.067  28.571  30.685  1.00  0.00     0.167 HD
ATOM     72  C   UNL A   1      47.962  29.527  28.794  1.00  0.00     0.074 A 
ATOM     73  C   UNL A   1      48.641  30.389  27.851  1.00  0.00     0.031 C 
ATOM     74  C   UNL A   1      48.424  28.316  29.190  1.00  0.00     0.037 A 
BRANCH  61  75
ATOM     75  C   UNL A   1      44.890  25.501  33.405  1.00  0.00     0.064 A 
ATOM     76  C   UNL A   1      45.329  25.505  34.737  1.00  0.00     0.173 A 
ATOM     77  C   UNL A   1      44.219  24.360  32.938  1.00  0.00     0.173 A 
ATOM     78  F   UNL A   1      45.990  26.564  35.228  1.00  0.00    -0.203 F 
ATOM     79  C   UNL A   1      45.128  24.399  35.560  1.00  0.00     0.198 A 
ATOM     80  C   UNL A   1      43.990  23.271  33.774  1.00  0.00     0.198 A 
ATOM     81  F   UNL A   1      43.778  24.304  31.673  1.00  0.00    -0.203 F 
ATOM     82  F   UNL A   1      45.604  24.404  36.813  1.00  0.00    -0.200 F 
ATOM     83  C   UNL A   1      44.452  23.288  35.081  1.00  0.00     0.200 A 
ATOM     84  F   UNL A   1      43.324  22.204  33.313  1.00  0.00    -0.200 F 
ATOM     85  F   UNL A   1      44.253  22.228  35.876  1.00  0.00    -0.200 F 
ENDBRANCH  61  75
BRANCH  62  86
ATOM     86  C   UNL A   1      45.931  33.628  27.665  1.00  0.00     0.064 A 
ATOM     87  C   UNL A   1      46.519  34.780  28.206  1.00  0.00     0.173 A 
ATOM     88  C   UNL A   1      45.508  33.681  26.329  1.00  0.00     0.173 A 
ATOM     89  F   UNL A   1      46.915  34.791  29.487  1.00  0.00    -0.203 F 
ATOM     90  C   UNL A   1      46.657  35.943  27.448  1.00  0.00     0.198 A 
ATOM     91  C   UNL A   1      45.677  34.833  25.562  1.00  0.00     0.198 A 
ATOM     92  F   UNL A   1      44.934  32.609  25.763  1.00  0.00    -0.203 F 
ATOM     93  F   UNL A   1      47.174  37.045  28.007  1.00  0.00    -0.200 F 
ATOM     94  C   UNL A   1      46.242  35.965  26.126  1.00  0.00     0.200 A 
ATOM     95  F   UNL A   1      45.284  34.846  24.281  1.00  0.00    -0.200 F 
ATOM     96  F   UNL A   1      46.378  37.083  25.398  1.00  0.00    -0.200 F 
ENDBRANCH  62  86
BRANCH  74  97
ATOM     97  C   UNL A   1      49.684  27.799  28.556  1.00  0.00     0.064 A 
ATOM     98  C   UNL A   1      50.944  27.989  29.139  1.00  0.00     0.173 A 
ATOM     99  C   UNL A   1      49.609  27.014  27.394  1.00  0.00     0.173 A 
ATOM    100  F   UNL A   1      51.071  28.740  30.243  1.00  0.00    -0.203 F 
ATOM    101  C   UNL A   1      52.084  27.420  28.576  1.00  0.00     0.198 A 
ATOM    102  C   UNL A   1      50.745  26.420  26.853  1.00  0.00     0.198 A 
ATOM    103  F   UNL A   1      48.424  26.794  26.802  1.00  0.00    -0.203 F 
ATOM    104  F   UNL A   1      53.284  27.637  29.132  1.00  0.00    -0.200 F 
ATOM    105  C   UNL A   1      51.982  26.625  27.442  1.00  0.00     0.200 A 
ATOM    106  F   UNL A   1      50.639  25.637  25.770  1.00  0.00    -0.200 F 
ATOM    107  F   UNL A   1      53.077  26.058  26.918  1.00  0.00    -0.200 F 
ENDBRANCH  74  97
ENDBRANCH  48  49
ENDBRANCH  41  43
ENDBRANCH  40  41
ENDBRANCH  39  40
ENDBRANCH  38  39
ENDBRANCH  37  38
ENDBRANCH  36  37
ENDBRANCH  35  36
ENDBRANCH  34  35
ENDBRANCH   1  34
TORSDOF 24
ENDMDL
MODEL 3
REMARK VINA RESULT:      -8.7      5.120     11.310
REMARK SMILES Cc1ccc(N2C(=O)/C(=C\c3ccccc3O[C@H](C)C(=O)OCCOCCOCCOCCOC(=O)c3ccc(-c4c5nc(c(-c6c(F)c(F)c(F)c(F)c6F)c6ccc([nH]6)c(-c6c(F)c(F)c(F)c(F)c6F)c6nc(c(-c7c(F)c(F)c(F)c(F)c7F)c7ccc4[nH]7)C=C6)C=C5)cc3)SC2=S)c(C)c1
REMARK SMILES IDX 27 1 26 2 25 3 24 4 23 5 22 6 20 7 21 8 18 9 19 10 17 11
REMARK SMILES IDX 16 12 11 13 12 14 13 15 15 16 14 17 10 18 6 19 7 20 101 21
REMARK SMILES IDX 8 22 9 23 100 24 102 25 5 26 1 27 2 28 3 29 105 30 4 31
REMARK SMILES IDX 103 32 104 33 28 34 29 35 30 36 31 37 32 38 33 39 34 40
REMARK SMILES IDX 35 41 36 42 37 43 38 44 99 45 39 46 98 47 40 48 41 49 42 50
REMARK SMILES IDX 92 51 43 52 97 53 91 54 93 55 44 56 96 57 90 58 89 59 45 61
REMARK SMILES IDX 77 62 57 63 76 64 58 65 61 66 75 67 94 68 59 69 60 70 74 72
REMARK SMILES IDX 95 73 62 74 46 75 47 76 55 77 48 78 49 79 53 80 56 81 50 82
REMARK SMILES IDX 51 83 54 84 52 85 78 86 79 87 87 88 80 89 81 90 85 91 88 92
REMARK SMILES IDX 82 93 83 94 86 95 84 96 63 97 64 98 72 99 65 100 66 101
REMARK SMILES IDX 70 102 73 103 67 104 68 105 71 106 69 107
REMARK H PARENT 93 60 61 71
REMARK Flexibility Score: inf
ROOT
ATOM      1  C   UNL A   1      37.962  19.499  24.646  1.00  0.00     0.188 C 
ENDROOT
BRANCH   1   2
ATOM      2  C   UNL A   1      36.890  18.479  25.055  1.00  0.00     0.188 C 
BRANCH   2   3
ATOM      3  O   UNL A   1      35.531  18.656  24.685  1.00  0.00    -0.376 OA
BRANCH   3   4
ATOM      4  C   UNL A   1      34.689  17.549  24.387  1.00  0.00     0.202 C 
BRANCH   4   5
ATOM      5  C   UNL A   1      33.178  17.593  24.652  1.00  0.00     0.261 C 
BRANCH   5   6
ATOM      6  O   UNL A   1      32.740  18.708  25.443  1.00  0.00    -0.461 OA
BRANCH   6   7
ATOM      7  C   UNL A   1      32.493  19.867  24.785  1.00  0.00     0.347 C 
ATOM      8  O   UNL A   1      32.215  19.919  23.588  1.00  0.00    -0.248 OA
BRANCH   7   9
ATOM      9  C   UNL A   1      32.647  21.119  25.658  1.00  0.00     0.279 C 
ATOM     10  C   UNL A   1      33.551  21.053  26.888  1.00  0.00     0.066 C 
BRANCH   9  11
ATOM     11  O   UNL A   1      33.211  21.994  24.697  1.00  0.00    -0.478 OA
BRANCH  11  12
ATOM     12  C   UNL A   1      34.516  22.378  24.789  1.00  0.00     0.127 A 
ATOM     13  C   UNL A   1      34.948  23.124  23.680  1.00  0.00     0.018 A 
ATOM     14  C   UNL A   1      36.314  23.329  23.497  1.00  0.00     0.012 A 
ATOM     15  C   UNL A   1      37.218  22.903  24.476  1.00  0.00     0.001 A 
ATOM     16  C   UNL A   1      35.399  22.058  25.817  1.00  0.00     0.047 A 
ATOM     17  C   UNL A   1      36.756  22.317  25.656  1.00  0.00     0.004 A 
BRANCH  13  18
ATOM     18  C   UNL A   1      33.943  23.670  22.745  1.00  0.00     0.033 C 
ATOM     19  N   UNL A   1      32.523  26.849  23.962  1.00  0.00    -0.261 N 
ATOM     20  C   UNL A   1      33.456  25.818  24.060  1.00  0.00     0.270 C 
ATOM     21  C   UNL A   1      31.596  26.741  22.937  1.00  0.00     0.152 C 
ATOM     22  O   UNL A   1      34.335  25.724  24.909  1.00  0.00    -0.268 OA
ATOM     23  C   UNL A   1      33.260  24.814  22.958  1.00  0.00     0.081 C 
ATOM     24  S   UNL A   1      31.929  25.294  21.975  1.00  0.00    -0.054 SA
ATOM     25  S   UNL A   1      30.387  27.799  22.461  1.00  0.00    -0.051 S 
BRANCH  19  26
ATOM     26  C   UNL A   1      32.566  27.926  24.910  1.00  0.00     0.054 A 
ATOM     27  C   UNL A   1      32.606  31.308  27.627  1.00  0.00     0.044 C 
ATOM     28  C   UNL A   1      32.610  30.147  26.678  1.00  0.00    -0.051 A 
ATOM     29  C   UNL A   1      33.361  30.165  25.504  1.00  0.00     0.005 A 
ATOM     30  C   UNL A   1      31.840  29.016  26.966  1.00  0.00     0.009 A 
ATOM     31  C   UNL A   1      33.332  29.071  24.628  1.00  0.00     0.027 A 
ATOM     32  C   UNL A   1      31.822  27.896  26.111  1.00  0.00    -0.027 A 
ATOM     33  C   UNL A   1      30.995  26.721  26.565  1.00  0.00     0.046 C 
ENDBRANCH  19  26
ENDBRANCH  13  18
ENDBRANCH  11  12
ENDBRANCH   9  11
ENDBRANCH   7   9
ENDBRANCH   6   7
ENDBRANCH   5   6
ENDBRANCH   4   5
ENDBRANCH   3   4
ENDBRANCH   2   3
ENDBRANCH   1   2
BRANCH   1  34
ATOM     34  O   UNL A   1      39.251  19.224  25.153  1.00  0.00    -0.377 OA
BRANCH  34  35
ATOM     35  C   UNL A   1      39.766  20.084  26.159  1.00  0.00     0.188 C 
BRANCH  35  36
ATOM     36  C   UNL A   1      41.223  20.558  26.008  1.00  0.00     0.188 C 
BRANCH  36  37
ATOM     37  O   UNL A   1      42.149  19.819  26.792  1.00  0.00    -0.376 OA
BRANCH  37  38
ATOM     38  C   UNL A   1      42.439  18.479  26.414  1.00  0.00     0.202 C 
BRANCH  38  39
ATOM     39  C   UNL A   1      43.824  18.186  25.808  1.00  0.00     0.261 C 
BRANCH  39  40
ATOM     40  O   UNL A   1      44.056  18.646  24.465  1.00  0.00    -0.460 OA
BRANCH  40  41
ATOM     41  C   UNL A   1      45.184  19.330  24.197  1.00  0.00     0.338 C 
ATOM     42  O   UNL A   1      46.140  18.959  23.537  1.00  0.00    -0.246 OA
BRANCH  41  43
ATOM     43  C   UNL A   1      44.986  20.714  24.673  1.00  0.00     0.060 A 
ATOM     44  C   UNL A   1      44.453  21.671  23.797  1.00  0.00     0.016 A 
ATOM     45  C   UNL A   1      45.323  21.063  25.982  1.00  0.00     0.016 A 
ATOM     46  C   UNL A   1      44.285  22.990  24.218  1.00  0.00     0.010 A 
ATOM     47  C   UNL A   1      45.181  22.389  26.394  1.00  0.00     0.010 A 
ATOM     48  C   UNL A   1      44.693  23.364  25.504  1.00  0.00    -0.014 A 
BRANCH  48  49
ATOM     49  C   UNL A   1      44.839  24.795  25.861  1.00  0.00     0.031 A 
ATOM     50  C   UNL A   1      46.208  25.405  25.752  1.00  0.00     0.074 A 
ATOM     51  C   UNL A   1      43.801  25.525  26.301  1.00  0.00     0.049 A 
ATOM     52  N   UNL A   1      46.639  26.568  26.162  1.00  0.00    -0.248 NA
ATOM     53  C   UNL A   1      47.235  24.577  25.096  1.00  0.00     0.031 C 
ATOM     54  C   UNL A   1      42.418  25.066  26.388  1.00  0.00     0.029 A 
ATOM     55  N   UNL A   1      43.763  26.811  26.784  1.00  0.00    -0.354 N 
ATOM     56  C   UNL A   1      47.989  26.603  25.836  1.00  0.00     0.074 A 
ATOM     57  C   UNL A   1      48.311  25.339  25.213  1.00  0.00     0.031 C 
ATOM     58  C   UNL A   1      41.669  26.046  26.923  1.00  0.00     0.029 A 
ATOM     59  C   UNL A   1      42.529  27.180  27.260  1.00  0.00     0.049 A 
ATOM     60  H   UNL A   1      44.545  27.409  26.788  1.00  0.00     0.167 HD
ATOM     61  C   UNL A   1      48.878  27.602  26.041  1.00  0.00     0.037 A 
ATOM     62  C   UNL A   1      42.154  28.288  27.930  1.00  0.00     0.037 A 
ATOM     63  C   UNL A   1      48.547  28.854  26.666  1.00  0.00     0.049 A 
ATOM     64  C   UNL A   1      43.183  29.352  28.232  1.00  0.00     0.074 A 
ATOM     65  C   UNL A   1      49.370  29.937  26.915  1.00  0.00     0.029 A 
ATOM     66  N   UNL A   1      47.289  29.184  27.149  1.00  0.00    -0.354 N 
ATOM     67  N   UNL A   1      44.457  29.385  27.921  1.00  0.00    -0.248 NA
ATOM     68  C   UNL A   1      42.725  30.530  28.983  1.00  0.00     0.031 C 
ATOM     69  C   UNL A   1      48.626  30.897  27.608  1.00  0.00     0.029 A 
ATOM     70  C   UNL A   1      47.320  30.444  27.720  1.00  0.00     0.049 A 
ATOM     71  H   UNL A   1      46.492  28.607  27.093  1.00  0.00     0.167 HD
ATOM     72  C   UNL A   1      44.937  30.601  28.393  1.00  0.00     0.074 A 
ATOM     73  C   UNL A   1      43.820  31.276  29.019  1.00  0.00     0.031 C 
ATOM     74  C   UNL A   1      46.189  31.115  28.308  1.00  0.00     0.037 A 
BRANCH  61  75
ATOM     75  C   UNL A   1      50.300  27.364  25.625  1.00  0.00     0.064 A 
ATOM     76  C   UNL A   1      51.249  26.821  26.503  1.00  0.00     0.173 A 
ATOM     77  C   UNL A   1      50.712  27.660  24.316  1.00  0.00     0.173 A 
ATOM     78  F   UNL A   1      50.914  26.536  27.771  1.00  0.00    -0.203 F 
ATOM     79  C   UNL A   1      52.564  26.608  26.095  1.00  0.00     0.198 A 
ATOM     80  C   UNL A   1      52.017  27.413  23.901  1.00  0.00     0.198 A 
ATOM     81  F   UNL A   1      49.844  28.180  23.435  1.00  0.00    -0.203 F 
ATOM     82  F   UNL A   1      53.468  26.139  26.968  1.00  0.00    -0.200 F 
ATOM     83  C   UNL A   1      52.944  26.896  24.793  1.00  0.00     0.200 A 
ATOM     84  F   UNL A   1      52.378  27.678  22.638  1.00  0.00    -0.200 F 
ATOM     85  F   UNL A   1      54.207  26.683  24.400  1.00  0.00    -0.200 F 
ENDBRANCH  61  75
BRANCH  62  86
ATOM     86  C   UNL A   1      40.746  28.444  28.388  1.00  0.00     0.064 A 
ATOM     87  C   UNL A   1      39.768  28.987  27.545  1.00  0.00     0.173 A 
ATOM     88  C   UNL A   1      40.356  28.077  29.685  1.00  0.00     0.173 A 
ATOM     89  F   UNL A   1      40.096  29.379  26.304  1.00  0.00    -0.203 F 
ATOM     90  C   UNL A   1      38.459  29.177  27.987  1.00  0.00     0.198 A 
ATOM     91  C   UNL A   1      39.040  28.237  30.115  1.00  0.00     0.198 A 
ATOM     92  F   UNL A   1      41.254  27.557  30.535  1.00  0.00    -0.203 F 
ATOM     93  F   UNL A   1      37.558  29.748  27.176  1.00  0.00    -0.200 F 
ATOM     94  C   UNL A   1      38.095  28.796  29.269  1.00  0.00     0.200 A 
ATOM     95  F   UNL A   1      38.691  27.856  31.351  1.00  0.00    -0.200 F 
ATOM     96  F   UNL A   1      36.837  28.977  29.692  1.00  0.00    -0.200 F 
ENDBRANCH  62  86
BRANCH  74  97
ATOM     97  C   UNL A   1      46.418  32.505  28.829  1.00  0.00     0.064 A 
ATOM     98  C   UNL A   1      46.912  32.747  30.118  1.00  0.00     0.173 A 
ATOM     99  C   UNL A   1      46.230  33.609  27.980  1.00  0.00     0.173 A 
ATOM    100  F   UNL A   1      47.098  31.729  30.971  1.00  0.00    -0.203 F 
ATOM    101  C   UNL A   1      47.201  34.042  30.540  1.00  0.00     0.198 A 
ATOM    102  C   UNL A   1      46.551  34.898  28.394  1.00  0.00     0.198 A 
ATOM    103  F   UNL A   1      45.767  33.430  26.732  1.00  0.00    -0.203 F 
ATOM    104  F   UNL A   1      47.646  34.254  31.787  1.00  0.00    -0.200 F 
ATOM    105  C   UNL A   1      47.034  35.114  29.675  1.00  0.00     0.200 A 
ATOM    106  F   UNL A   1      46.406  35.927  27.549  1.00  0.00    -0.200 F 
ATOM    107  F   UNL A   1      47.337  36.356  30.076  1.00  0.00    -0.200 F 
ENDBRANCH  74  97
ENDBRANCH  48  49
ENDBRANCH  41  43
ENDBRANCH  40  41
ENDBRANCH  39  40
ENDBRANCH  38  39
ENDBRANCH  37  38
ENDBRANCH  36  37
ENDBRANCH  35  36
ENDBRANCH  34  35
ENDBRANCH   1  34
TORSDOF 24
ENDMDL
