MODEL 1
REMARK VINA RESULT:      -8.8      0.000      0.000
REMARK SMILES CCC[N@@H+](C)CC[C@@H]1CCC[C@]1([NH2+]C)C(=O)OCCOCCOCCOCCOC(=O)c1ccc(-c2c3nc(c(-c4c(F)c(F)c(F)c(F)c4F)c4ccc([nH]4)c(-c4c(F)c(F)c(F)c(F)c4F)c4nc(c(-c5c(F)c(F)c(F)c(F)c5F)c5ccc2[nH]5)C=C4)C=C3)cc1
REMARK SMILES IDX 21 1 20 2 19 3 18 4 17 5 15 6 16 7 12 8 8 9 9 10 10 11 11 12
REMARK SMILES IDX 7 13 6 14 4 15 5 16 3 18 2 19 1 20 13 21 14 22 22 25 23 26
REMARK SMILES IDX 24 27 25 28 26 29 27 30 28 31 29 32 30 33 31 34 32 35 33 36
REMARK SMILES IDX 94 37 34 38 93 39 35 40 36 41 37 42 87 43 38 44 92 45 86 46
REMARK SMILES IDX 88 47 39 48 91 49 85 50 84 51 40 53 72 54 52 55 71 56 53 57
REMARK SMILES IDX 56 58 70 59 89 60 54 61 55 62 69 64 90 65 57 66 41 67 42 68
REMARK SMILES IDX 50 69 43 70 44 71 48 72 51 73 45 74 46 75 49 76 47 77 73 78
REMARK SMILES IDX 74 79 82 80 75 81 76 82 80 83 83 84 77 85 78 86 81 87 79 88
REMARK SMILES IDX 58 89 59 90 67 91 60 92 61 93 65 94 68 95 62 96 63 97 66 98
REMARK SMILES IDX 64 99
REMARK H PARENT 4 17 13 23 13 24 88 52 56 63
REMARK Flexibility Score: inf
ROOT
ATOM      1  C   UNL A   1      37.470  22.212  25.639  1.00  0.00     0.188 C 
ENDROOT
BRANCH   1   2
ATOM      2  O   UNL A   1      36.588  21.186  25.225  1.00  0.00    -0.376 OA
BRANCH   2   3
ATOM      3  C   UNL A   1      35.205  21.497  25.039  1.00  0.00     0.202 C 
BRANCH   3   4
ATOM      4  C   UNL A   1      34.867  22.757  24.191  1.00  0.00     0.261 C 
BRANCH   4   5
ATOM      5  O   UNL A   1      33.573  22.781  23.481  1.00  0.00    -0.459 OA
BRANCH   5   6
ATOM      6  C   UNL A   1      32.536  23.450  24.090  1.00  0.00     0.368 C 
ATOM      7  O   UNL A   1      31.652  22.818  24.674  1.00  0.00    -0.245 OA
BRANCH   6   8
ATOM      8  C   UNL A   1      32.409  25.078  23.854  1.00  0.00     0.197 C 
ATOM      9  C   UNL A   1      31.231  25.978  23.206  1.00  0.00     0.068 C 
ATOM     10  C   UNL A   1      31.501  26.187  21.699  1.00  0.00     0.011 C 
ATOM     11  C   UNL A   1      32.857  25.580  21.429  1.00  0.00     0.008 C 
ATOM     12  C   UNL A   1      33.527  25.430  22.791  1.00  0.00     0.081 C 
BRANCH   9  13
ATOM     13  C   UNL A   1      29.722  25.949  23.526  1.00  0.00     0.072 C 
BRANCH  13  14
ATOM     14  C   UNL A   1      28.931  27.275  23.598  1.00  0.00     0.262 C 
BRANCH  14  15
ATOM     15  N   UNL A   1      29.556  28.423  22.957  1.00  0.00    -0.337 N 
ATOM     16  C   UNL A   1      30.487  29.004  23.939  1.00  0.00     0.332 C 
ATOM     17  H   UNL A   1      30.091  28.145  22.135  1.00  0.00     0.347 HD
BRANCH  15  18
ATOM     18  C   UNL A   1      28.586  29.352  22.361  1.00  0.00     0.261 C 
BRANCH  18  19
ATOM     19  C   UNL A   1      29.033  30.590  21.568  1.00  0.00     0.058 C 
ATOM     20  C   UNL A   1      28.651  31.933  22.141  1.00  0.00     0.010 C 
ENDBRANCH  18  19
ENDBRANCH  15  18
ENDBRANCH  14  15
ENDBRANCH  13  14
ENDBRANCH   9  13
BRANCH   8  21
ATOM     21  N   UNL A   1      32.733  25.731  25.170  1.00  0.00    -0.334 N 
ATOM     22  C   UNL A   1      34.089  26.261  25.267  1.00  0.00     0.331 C 
ATOM     23  H   UNL A   1      32.609  25.038  25.907  1.00  0.00     0.347 HD
ATOM     24  H   UNL A   1      32.104  26.529  25.259  1.00  0.00     0.347 HD
ENDBRANCH   8  21
ENDBRANCH   6   8
ENDBRANCH   5   6
ENDBRANCH   4   5
ENDBRANCH   3   4
ENDBRANCH   2   3
ENDBRANCH   1   2
BRANCH   1  25
ATOM     25  C   UNL A   1      38.891  21.831  26.070  1.00  0.00     0.188 C 
BRANCH  25  26
ATOM     26  O   UNL A   1      39.821  22.813  26.474  1.00  0.00    -0.377 OA
BRANCH  26  27
ATOM     27  C   UNL A   1      40.623  22.457  27.576  1.00  0.00     0.188 C 
BRANCH  27  28
ATOM     28  C   UNL A   1      41.819  21.541  27.270  1.00  0.00     0.188 C 
BRANCH  28  29
ATOM     29  O   UNL A   1      41.618  20.168  27.593  1.00  0.00    -0.376 OA
BRANCH  29  30
ATOM     30  C   UNL A   1      41.560  19.281  26.464  1.00  0.00     0.202 C 
BRANCH  30  31
ATOM     31  C   UNL A   1      42.903  18.907  25.793  1.00  0.00     0.261 C 
BRANCH  31  32
ATOM     32  O   UNL A   1      43.261  19.703  24.656  1.00  0.00    -0.460 OA
BRANCH  32  33
ATOM     33  C   UNL A   1      44.580  19.760  24.367  1.00  0.00     0.338 C 
ATOM     34  O   UNL A   1      45.255  18.928  23.808  1.00  0.00    -0.246 OA
BRANCH  33  35
ATOM     35  C   UNL A   1      45.047  21.114  24.711  1.00  0.00     0.060 A 
ATOM     36  C   UNL A   1      45.511  21.340  26.010  1.00  0.00     0.016 A 
ATOM     37  C   UNL A   1      44.960  22.157  23.787  1.00  0.00     0.016 A 
ATOM     38  C   UNL A   1      45.897  22.616  26.396  1.00  0.00     0.010 A 
ATOM     39  C   UNL A   1      45.304  23.452  24.189  1.00  0.00     0.010 A 
ATOM     40  C   UNL A   1      45.743  23.683  25.504  1.00  0.00    -0.014 A 
BRANCH  40  41
ATOM     41  C   UNL A   1      45.784  25.047  26.070  1.00  0.00     0.031 A 
ATOM     42  C   UNL A   1      47.099  25.774  26.025  1.00  0.00     0.074 A 
ATOM     43  C   UNL A   1      44.664  25.657  26.491  1.00  0.00     0.049 A 
ATOM     44  N   UNL A   1      47.389  26.995  26.393  1.00  0.00    -0.248 NA
ATOM     45  C   UNL A   1      48.238  25.029  25.461  1.00  0.00     0.031 C 
ATOM     46  C   UNL A   1      43.327  25.070  26.485  1.00  0.00     0.029 A 
ATOM     47  N   UNL A   1      44.478  26.921  26.989  1.00  0.00    -0.354 N 
ATOM     48  C   UNL A   1      48.733  27.166  26.086  1.00  0.00     0.074 A 
ATOM     49  C   UNL A   1      49.212  25.921  25.533  1.00  0.00     0.031 C 
ATOM     50  C   UNL A   1      42.454  25.972  26.969  1.00  0.00     0.029 A 
ATOM     51  C   UNL A   1      43.178  27.186  27.341  1.00  0.00     0.049 A 
ATOM     52  H   UNL A   1      45.207  27.576  27.085  1.00  0.00     0.167 HD
ATOM     53  C   UNL A   1      49.494  28.273  26.243  1.00  0.00     0.037 A 
ATOM     54  C   UNL A   1      42.651  28.284  27.919  1.00  0.00     0.037 A 
ATOM     55  C   UNL A   1      49.015  29.494  26.829  1.00  0.00     0.049 A 
ATOM     56  C   UNL A   1      43.560  29.454  28.212  1.00  0.00     0.074 A 
ATOM     57  C   UNL A   1      49.711  30.659  27.092  1.00  0.00     0.029 A 
ATOM     58  N   UNL A   1      47.709  29.699  27.253  1.00  0.00    -0.354 N 
ATOM     59  N   UNL A   1      44.831  29.611  27.928  1.00  0.00    -0.248 NA
ATOM     60  C   UNL A   1      42.958  30.600  28.907  1.00  0.00     0.031 C 
ATOM     61  C   UNL A   1      48.838  31.553  27.720  1.00  0.00     0.029 A 
ATOM     62  C   UNL A   1      47.584  30.966  27.793  1.00  0.00     0.049 A 
ATOM     63  H   UNL A   1      46.982  29.041  27.179  1.00  0.00     0.167 HD
ATOM     64  C   UNL A   1      45.168  30.884  28.370  1.00  0.00     0.074 A 
ATOM     65  C   UNL A   1      43.964  31.461  28.930  1.00  0.00     0.031 C 
ATOM     66  C   UNL A   1      46.364  31.522  28.321  1.00  0.00     0.037 A 
BRANCH  53  67
ATOM     67  C   UNL A   1      50.927  28.192  25.809  1.00  0.00     0.064 A 
ATOM     68  C   UNL A   1      51.295  28.320  24.460  1.00  0.00     0.173 A 
ATOM     69  C   UNL A   1      51.947  28.003  26.752  1.00  0.00     0.173 A 
ATOM     70  F   UNL A   1      50.354  28.479  23.517  1.00  0.00    -0.203 F 
ATOM     71  C   UNL A   1      52.629  28.246  24.072  1.00  0.00     0.198 A 
ATOM     72  C   UNL A   1      53.283  27.958  26.363  1.00  0.00     0.198 A 
ATOM     73  F   UNL A   1      51.649  27.869  28.053  1.00  0.00    -0.203 F 
ATOM     74  F   UNL A   1      52.954  28.329  22.774  1.00  0.00    -0.200 F 
ATOM     75  C   UNL A   1      53.623  28.074  25.024  1.00  0.00     0.200 A 
ATOM     76  F   UNL A   1      54.242  27.800  27.285  1.00  0.00    -0.200 F 
ATOM     77  F   UNL A   1      54.908  28.012  24.650  1.00  0.00    -0.200 F 
ENDBRANCH  53  67
BRANCH  54  78
ATOM     78  C   UNL A   1      41.210  28.332  28.286  1.00  0.00     0.064 A 
ATOM     79  C   UNL A   1      40.258  28.901  27.429  1.00  0.00     0.173 A 
ATOM     80  C   UNL A   1      40.764  27.867  29.534  1.00  0.00     0.173 A 
ATOM     81  F   UNL A   1      40.635  29.384  26.236  1.00  0.00    -0.203 F 
ATOM     82  C   UNL A   1      38.926  29.035  27.818  1.00  0.00     0.198 A 
ATOM     83  C   UNL A   1      39.426  27.971  29.908  1.00  0.00     0.198 A 
ATOM     84  F   UNL A   1      41.631  27.319  30.397  1.00  0.00    -0.203 F 
ATOM     85  F   UNL A   1      38.052  29.646  27.006  1.00  0.00    -0.200 F 
ATOM     86  C   UNL A   1      38.510  28.568  29.055  1.00  0.00     0.200 A 
ATOM     87  F   UNL A   1      39.028  27.510  31.101  1.00  0.00    -0.200 F 
ATOM     88  F   UNL A   1      37.233  28.708  29.434  1.00  0.00    -0.200 F 
ENDBRANCH  54  78
BRANCH  66  89
ATOM     89  C   UNL A   1      46.416  32.933  28.833  1.00  0.00     0.064 A 
ATOM     90  C   UNL A   1      46.656  33.221  30.184  1.00  0.00     0.173 A 
ATOM     91  C   UNL A   1      46.269  34.011  27.946  1.00  0.00     0.173 A 
ATOM     92  F   UNL A   1      46.791  32.226  31.073  1.00  0.00    -0.203 F 
ATOM     93  C   UNL A   1      46.718  34.538  30.632  1.00  0.00     0.198 A 
ATOM     94  C   UNL A   1      46.367  35.325  28.392  1.00  0.00     0.198 A 
ATOM     95  F   UNL A   1      46.049  33.788  26.641  1.00  0.00    -0.203 F 
ATOM     96  F   UNL A   1      46.896  34.790  31.937  1.00  0.00    -0.200 F 
ATOM     97  C   UNL A   1      46.581  35.587  29.736  1.00  0.00     0.200 A 
ATOM     98  F   UNL A   1      46.254  36.337  27.521  1.00  0.00    -0.200 F 
ATOM     99  F   UNL A   1      46.653  36.853  30.169  1.00  0.00    -0.200 F 
ENDBRANCH  66  89
ENDBRANCH  40  41
ENDBRANCH  33  35
ENDBRANCH  32  33
ENDBRANCH  31  32
ENDBRANCH  30  31
ENDBRANCH  29  30
ENDBRANCH  28  29
ENDBRANCH  27  28
ENDBRANCH  26  27
ENDBRANCH  25  26
ENDBRANCH   1  25
TORSDOF 26
ENDMDL
MODEL 2
REMARK VINA RESULT:      -8.4      0.820      2.256
REMARK SMILES CCC[N@@H+](C)CC[C@@H]1CCC[C@]1([NH2+]C)C(=O)OCCOCCOCCOCCOC(=O)c1ccc(-c2c3nc(c(-c4c(F)c(F)c(F)c(F)c4F)c4ccc([nH]4)c(-c4c(F)c(F)c(F)c(F)c4F)c4nc(c(-c5c(F)c(F)c(F)c(F)c5F)c5ccc2[nH]5)C=C4)C=C3)cc1
REMARK SMILES IDX 21 1 20 2 19 3 18 4 17 5 15 6 16 7 12 8 8 9 9 10 10 11 11 12
REMARK SMILES IDX 7 13 6 14 4 15 5 16 3 18 2 19 1 20 13 21 14 22 22 25 23 26
REMARK SMILES IDX 24 27 25 28 26 29 27 30 28 31 29 32 30 33 31 34 32 35 33 36
REMARK SMILES IDX 94 37 34 38 93 39 35 40 36 41 37 42 87 43 38 44 92 45 86 46
REMARK SMILES IDX 88 47 39 48 91 49 85 50 84 51 40 53 72 54 52 55 71 56 53 57
REMARK SMILES IDX 56 58 70 59 89 60 54 61 55 62 69 64 90 65 57 66 41 67 42 68
REMARK SMILES IDX 50 69 43 70 44 71 48 72 51 73 45 74 46 75 49 76 47 77 73 78
REMARK SMILES IDX 74 79 82 80 75 81 76 82 80 83 83 84 77 85 78 86 81 87 79 88
REMARK SMILES IDX 58 89 59 90 67 91 60 92 61 93 65 94 68 95 62 96 63 97 66 98
REMARK SMILES IDX 64 99
REMARK H PARENT 4 17 13 23 13 24 88 52 56 63
REMARK Flexibility Score: inf
ROOT
ATOM      1  C   UNL A   1      37.160  22.613  25.749  1.00  0.00     0.188 C 
ENDROOT
BRANCH   1   2
ATOM      2  O   UNL A   1      36.143  22.156  24.879  1.00  0.00    -0.376 OA
BRANCH   2   3
ATOM      3  C   UNL A   1      34.776  22.356  25.249  1.00  0.00     0.202 C 
BRANCH   3   4
ATOM      4  C   UNL A   1      34.447  23.617  26.100  1.00  0.00     0.261 C 
BRANCH   4   5
ATOM      5  O   UNL A   1      33.061  24.123  26.071  1.00  0.00    -0.459 OA
BRANCH   5   6
ATOM      6  C   UNL A   1      32.872  25.405  25.608  1.00  0.00     0.368 C 
ATOM      7  O   UNL A   1      33.315  26.364  26.244  1.00  0.00    -0.245 OA
BRANCH   6   8
ATOM      8  C   UNL A   1      31.885  25.628  24.303  1.00  0.00     0.197 C 
ATOM      9  C   UNL A   1      31.059  26.923  23.793  1.00  0.00     0.068 C 
ATOM     10  C   UNL A   1      29.626  26.888  24.365  1.00  0.00     0.011 C 
ATOM     11  C   UNL A   1      29.492  25.565  25.081  1.00  0.00     0.008 C 
ATOM     12  C   UNL A   1      30.634  24.694  24.567  1.00  0.00     0.081 C 
BRANCH   9  13
ATOM     13  C   UNL A   1      31.572  28.365  23.598  1.00  0.00     0.072 C 
BRANCH  13  14
ATOM     14  C   UNL A   1      30.699  29.554  24.058  1.00  0.00     0.262 C 
BRANCH  14  15
ATOM     15  N   UNL A   1      29.495  29.798  23.277  1.00  0.00    -0.337 N 
ATOM     16  C   UNL A   1      29.906  29.839  21.863  1.00  0.00     0.332 C 
ATOM     17  H   UNL A   1      28.818  29.043  23.391  1.00  0.00     0.347 HD
BRANCH  15  18
ATOM     18  C   UNL A   1      28.717  30.949  23.756  1.00  0.00     0.261 C 
BRANCH  18  19
ATOM     19  C   UNL A   1      27.866  31.804  22.803  1.00  0.00     0.058 C 
ATOM     20  C   UNL A   1      28.586  32.898  22.054  1.00  0.00     0.010 C 
ENDBRANCH  18  19
ENDBRANCH  15  18
ENDBRANCH  14  15
ENDBRANCH  13  14
ENDBRANCH   9  13
BRANCH   8  21
ATOM     21  N   UNL A   1      32.643  25.137  23.100  1.00  0.00    -0.334 N 
ATOM     22  C   UNL A   1      33.908  25.821  22.858  1.00  0.00     0.331 C 
ATOM     23  H   UNL A   1      32.051  25.262  22.279  1.00  0.00     0.347 HD
ATOM     24  H   UNL A   1      32.873  24.160  23.284  1.00  0.00     0.347 HD
ENDBRANCH   8  21
ENDBRANCH   6   8
ENDBRANCH   5   6
ENDBRANCH   4   5
ENDBRANCH   3   4
ENDBRANCH   2   3
ENDBRANCH   1   2
BRANCH   1  25
ATOM     25  C   UNL A   1      38.440  21.779  25.887  1.00  0.00     0.188 C 
BRANCH  25  26
ATOM     26  O   UNL A   1      39.715  22.369  25.755  1.00  0.00    -0.377 OA
BRANCH  26  27
ATOM     27  C   UNL A   1      40.434  22.512  26.958  1.00  0.00     0.188 C 
BRANCH  27  28
ATOM     28  C   UNL A   1      41.617  21.550  27.155  1.00  0.00     0.188 C 
BRANCH  28  29
ATOM     29  O   UNL A   1      41.250  20.211  27.478  1.00  0.00    -0.376 OA
BRANCH  29  30
ATOM     30  C   UNL A   1      41.445  19.257  26.422  1.00  0.00     0.202 C 
BRANCH  30  31
ATOM     31  C   UNL A   1      42.891  19.057  25.912  1.00  0.00     0.261 C 
BRANCH  31  32
ATOM     32  O   UNL A   1      43.218  19.763  24.708  1.00  0.00    -0.460 OA
BRANCH  32  33
ATOM     33  C   UNL A   1      44.529  19.796  24.381  1.00  0.00     0.338 C 
ATOM     34  O   UNL A   1      45.171  18.955  23.797  1.00  0.00    -0.246 OA
BRANCH  33  35
ATOM     35  C   UNL A   1      45.032  21.139  24.719  1.00  0.00     0.060 A 
ATOM     36  C   UNL A   1      45.505  21.358  26.016  1.00  0.00     0.016 A 
ATOM     37  C   UNL A   1      44.971  22.181  23.791  1.00  0.00     0.016 A 
ATOM     38  C   UNL A   1      45.924  22.625  26.395  1.00  0.00     0.010 A 
ATOM     39  C   UNL A   1      45.349  23.467  24.186  1.00  0.00     0.010 A 
ATOM     40  C   UNL A   1      45.797  23.692  25.500  1.00  0.00    -0.014 A 
BRANCH  40  41
ATOM     41  C   UNL A   1      45.875  25.056  26.060  1.00  0.00     0.031 A 
ATOM     42  C   UNL A   1      47.205  25.755  25.996  1.00  0.00     0.074 A 
ATOM     43  C   UNL A   1      44.774  25.693  26.493  1.00  0.00     0.049 A 
ATOM     44  N   UNL A   1      47.527  26.970  26.356  1.00  0.00    -0.248 NA
ATOM     45  C   UNL A   1      48.320  24.983  25.420  1.00  0.00     0.031 C 
ATOM     46  C   UNL A   1      43.425  25.134  26.507  1.00  0.00     0.029 A 
ATOM     47  N   UNL A   1      44.622  26.961  26.989  1.00  0.00    -0.354 N 
ATOM     48  C   UNL A   1      48.869  27.111  26.030  1.00  0.00     0.074 A 
ATOM     49  C   UNL A   1      49.314  25.854  25.476  1.00  0.00     0.031 C 
ATOM     50  C   UNL A   1      42.578  26.057  26.998  1.00  0.00     0.029 A 
ATOM     51  C   UNL A   1      43.332  27.256  27.357  1.00  0.00     0.049 A 
ATOM     52  H   UNL A   1      45.366  27.601  27.074  1.00  0.00     0.167 HD
ATOM     53  C   UNL A   1      49.656  28.201  26.174  1.00  0.00     0.037 A 
ATOM     54  C   UNL A   1      42.838  28.367  27.937  1.00  0.00     0.037 A 
ATOM     55  C   UNL A   1      49.211  29.434  26.762  1.00  0.00     0.049 A 
ATOM     56  C   UNL A   1      43.775  29.518  28.214  1.00  0.00     0.074 A 
ATOM     57  C   UNL A   1      49.937  30.585  27.011  1.00  0.00     0.029 A 
ATOM     58  N   UNL A   1      47.916  29.669  27.201  1.00  0.00    -0.354 N 
ATOM     59  N   UNL A   1      45.046  29.647  27.913  1.00  0.00    -0.248 NA
ATOM     60  C   UNL A   1      43.207  30.680  28.912  1.00  0.00     0.031 C 
ATOM     61  C   UNL A   1      49.091  31.500  27.647  1.00  0.00     0.029 A 
ATOM     62  C   UNL A   1      47.826  30.941  27.738  1.00  0.00     0.049 A 
ATOM     63  H   UNL A   1      47.174  29.027  27.140  1.00  0.00     0.167 HD
ATOM     64  C   UNL A   1      45.416  30.914  28.347  1.00  0.00     0.074 A 
ATOM     65  C   UNL A   1      44.232  31.518  28.920  1.00  0.00     0.031 C 
ATOM     66  C   UNL A   1      46.625  31.525  28.280  1.00  0.00     0.037 A 
BRANCH  53  67
ATOM     67  C   UNL A   1      51.082  28.088  25.722  1.00  0.00     0.064 A 
ATOM     68  C   UNL A   1      52.122  27.830  26.629  1.00  0.00     0.173 A 
ATOM     69  C   UNL A   1      51.412  28.221  24.366  1.00  0.00     0.173 A 
ATOM     70  F   UNL A   1      51.862  27.719  27.940  1.00  0.00    -0.203 F 
ATOM     71  C   UNL A   1      53.440  27.725  26.195  1.00  0.00     0.198 A 
ATOM     72  C   UNL A   1      52.727  28.086  23.932  1.00  0.00     0.198 A 
ATOM     73  F   UNL A   1      50.456  28.473  23.459  1.00  0.00    -0.203 F 
ATOM     74  F   UNL A   1      54.423  27.521  27.084  1.00  0.00    -0.200 F 
ATOM     75  C   UNL A   1      53.741  27.845  24.847  1.00  0.00     0.200 A 
ATOM     76  F   UNL A   1      53.015  28.194  22.627  1.00  0.00    -0.200 F 
ATOM     77  F   UNL A   1      55.010  27.734  24.429  1.00  0.00    -0.200 F 
ENDBRANCH  53  67
BRANCH  54  78
ATOM     78  C   UNL A   1      41.402  28.448  28.322  1.00  0.00     0.064 A 
ATOM     79  C   UNL A   1      40.948  27.949  29.551  1.00  0.00     0.173 A 
ATOM     80  C   UNL A   1      40.443  28.967  27.438  1.00  0.00     0.173 A 
ATOM     81  F   UNL A   1      41.820  27.417  30.421  1.00  0.00    -0.203 F 
ATOM     82  C   UNL A   1      39.591  27.934  29.867  1.00  0.00     0.198 A 
ATOM     83  C   UNL A   1      39.089  28.983  27.769  1.00  0.00     0.198 A 
ATOM     84  F   UNL A   1      40.818  29.452  26.246  1.00  0.00    -0.203 F 
ATOM     85  F   UNL A   1      39.179  27.388  31.019  1.00  0.00    -0.200 F 
ATOM     86  C   UNL A   1      38.663  28.453  28.977  1.00  0.00     0.200 A 
ATOM     87  F   UNL A   1      38.198  29.494  26.910  1.00  0.00    -0.200 F 
ATOM     88  F   UNL A   1      37.357  28.428  29.276  1.00  0.00    -0.200 F 
ENDBRANCH  54  78
BRANCH  66  89
ATOM     89  C   UNL A   1      46.714  32.936  28.786  1.00  0.00     0.064 A 
ATOM     90  C   UNL A   1      46.452  34.036  27.957  1.00  0.00     0.173 A 
ATOM     91  C   UNL A   1      47.020  33.184  30.133  1.00  0.00     0.173 A 
ATOM     92  F   UNL A   1      46.167  33.852  26.659  1.00  0.00    -0.203 F 
ATOM     93  C   UNL A   1      46.522  35.335  28.453  1.00  0.00     0.198 A 
ATOM     94  C   UNL A   1      47.053  34.482  30.633  1.00  0.00     0.198 A 
ATOM     95  F   UNL A   1      47.267  32.165  30.970  1.00  0.00    -0.203 F 
ATOM     96  F   UNL A   1      46.319  36.375  27.631  1.00  0.00    -0.200 F 
ATOM     97  C   UNL A   1      46.814  35.557  29.790  1.00  0.00     0.200 A 
ATOM     98  F   UNL A   1      47.317  34.693  31.930  1.00  0.00    -0.200 F 
ATOM     99  F   UNL A   1      46.870  36.808  30.267  1.00  0.00    -0.200 F 
ENDBRANCH  66  89
ENDBRANCH  40  41
ENDBRANCH  33  35
ENDBRANCH  32  33
ENDBRANCH  31  32
ENDBRANCH  30  31
ENDBRANCH  29  30
ENDBRANCH  28  29
ENDBRANCH  27  28
ENDBRANCH  26  27
ENDBRANCH  25  26
ENDBRANCH   1  25
TORSDOF 26
ENDMDL
MODEL 3
REMARK VINA RESULT:      -8.0      8.392     13.513
REMARK SMILES CCC[N@@H+](C)CC[C@@H]1CCC[C@]1([NH2+]C)C(=O)OCCOCCOCCOCCOC(=O)c1ccc(-c2c3nc(c(-c4c(F)c(F)c(F)c(F)c4F)c4ccc([nH]4)c(-c4c(F)c(F)c(F)c(F)c4F)c4nc(c(-c5c(F)c(F)c(F)c(F)c5F)c5ccc2[nH]5)C=C4)C=C3)cc1
REMARK SMILES IDX 21 1 20 2 19 3 18 4 17 5 15 6 16 7 12 8 8 9 9 10 10 11 11 12
REMARK SMILES IDX 7 13 6 14 4 15 5 16 3 18 2 19 1 20 13 21 14 22 22 25 23 26
REMARK SMILES IDX 24 27 25 28 26 29 27 30 28 31 29 32 30 33 31 34 32 35 33 36
REMARK SMILES IDX 94 37 34 38 93 39 35 40 36 41 37 42 87 43 38 44 92 45 86 46
REMARK SMILES IDX 88 47 39 48 91 49 85 50 84 51 40 53 72 54 52 55 71 56 53 57
REMARK SMILES IDX 56 58 70 59 89 60 54 61 55 62 69 64 90 65 57 66 41 67 42 68
REMARK SMILES IDX 50 69 43 70 44 71 48 72 51 73 45 74 46 75 49 76 47 77 73 78
REMARK SMILES IDX 74 79 82 80 75 81 76 82 80 83 83 84 77 85 78 86 81 87 79 88
REMARK SMILES IDX 58 89 59 90 67 91 60 92 61 93 65 94 68 95 62 96 63 97 66 98
REMARK SMILES IDX 64 99
REMARK H PARENT 4 17 13 23 13 24 88 52 56 63
REMARK Flexibility Score: inf
ROOT
ATOM      1  C   UNL A   1      33.836  30.840  27.561  1.00  0.00     0.188 C 
ENDROOT
BRANCH   1   2
ATOM      2  O   UNL A   1      32.534  30.440  27.176  1.00  0.00    -0.376 OA
BRANCH   2   3
ATOM      3  C   UNL A   1      32.356  29.156  26.572  1.00  0.00     0.202 C 
BRANCH   3   4
ATOM      4  C   UNL A   1      31.792  28.019  27.472  1.00  0.00     0.261 C 
BRANCH   4   5
ATOM      5  O   UNL A   1      30.994  26.960  26.822  1.00  0.00    -0.459 OA
BRANCH   5   6
ATOM      6  C   UNL A   1      31.671  25.842  26.390  1.00  0.00     0.368 C 
ATOM      7  O   UNL A   1      32.901  25.858  26.308  1.00  0.00    -0.245 OA
BRANCH   6   8
ATOM      8  C   UNL A   1      30.792  24.571  25.810  1.00  0.00     0.197 C 
ATOM      9  C   UNL A   1      31.244  23.202  25.077  1.00  0.00     0.068 C 
ATOM     10  C   UNL A   1      31.221  23.396  23.545  1.00  0.00     0.011 C 
ATOM     11  C   UNL A   1      30.641  24.770  23.306  1.00  0.00     0.008 C 
ATOM     12  C   UNL A   1      29.951  25.165  24.608  1.00  0.00     0.081 C 
BRANCH   9  13
ATOM     13  C   UNL A   1      32.327  22.196  25.517  1.00  0.00     0.072 C 
BRANCH  13  14
ATOM     14  C   UNL A   1      32.181  20.703  25.146  1.00  0.00     0.262 C 
BRANCH  14  15
ATOM     15  N   UNL A   1      33.171  19.805  25.722  1.00  0.00    -0.337 N 
ATOM     16  C   UNL A   1      34.474  20.185  25.150  1.00  0.00     0.332 C 
ATOM     17  H   UNL A   1      33.225  19.910  26.735  1.00  0.00     0.347 HD
BRANCH  15  18
ATOM     18  C   UNL A   1      32.804  18.387  25.605  1.00  0.00     0.261 C 
BRANCH  18  19
ATOM     19  C   UNL A   1      33.330  17.508  24.459  1.00  0.00     0.058 C 
ATOM     20  C   UNL A   1      33.194  16.015  24.637  1.00  0.00     0.010 C 
ENDBRANCH  18  19
ENDBRANCH  15  18
ENDBRANCH  14  15
ENDBRANCH  13  14
ENDBRANCH   9  13
BRANCH   8  21
ATOM     21  N   UNL A   1      29.867  24.146  26.917  1.00  0.00    -0.334 N 
ATOM     22  C   UNL A   1      29.489  22.736  26.886  1.00  0.00     0.331 C 
ATOM     23  H   UNL A   1      29.016  24.704  26.852  1.00  0.00     0.347 HD
ATOM     24  H   UNL A   1      30.375  24.289  27.789  1.00  0.00     0.347 HD
ENDBRANCH   8  21
ENDBRANCH   6   8
ENDBRANCH   5   6
ENDBRANCH   4   5
ENDBRANCH   3   4
ENDBRANCH   2   3
ENDBRANCH   1   2
BRANCH   1  25
ATOM     25  C   UNL A   1      34.889  29.758  27.827  1.00  0.00     0.188 C 
BRANCH  25  26
ATOM     26  O   UNL A   1      36.246  29.960  27.496  1.00  0.00    -0.377 OA
BRANCH  26  27
ATOM     27  C   UNL A   1      36.903  30.952  28.251  1.00  0.00     0.188 C 
BRANCH  27  28
ATOM     28  C   UNL A   1      37.612  30.467  29.526  1.00  0.00     0.188 C 
BRANCH  28  29
ATOM     29  O   UNL A   1      37.429  31.302  30.666  1.00  0.00    -0.376 OA
BRANCH  29  30
ATOM     30  C   UNL A   1      36.198  31.096  31.377  1.00  0.00     0.202 C 
BRANCH  30  31
ATOM     31  C   UNL A   1      35.075  32.137  31.158  1.00  0.00     0.261 C 
BRANCH  31  32
ATOM     32  O   UNL A   1      34.660  32.846  32.333  1.00  0.00    -0.460 OA
BRANCH  32  33
ATOM     33  C   UNL A   1      35.104  34.118  32.443  1.00  0.00     0.338 C 
ATOM     34  O   UNL A   1      34.627  35.115  31.955  1.00  0.00    -0.246 OA
BRANCH  33  35
ATOM     35  C   UNL A   1      36.207  34.115  33.418  1.00  0.00     0.060 A 
ATOM     36  C   UNL A   1      37.467  34.541  32.988  1.00  0.00     0.016 A 
ATOM     37  C   UNL A   1      36.015  33.634  34.715  1.00  0.00     0.016 A 
ATOM     38  C   UNL A   1      38.548  34.491  33.856  1.00  0.00     0.010 A 
ATOM     39  C   UNL A   1      37.113  33.539  35.575  1.00  0.00     0.010 A 
ATOM     40  C   UNL A   1      38.386  33.940  35.132  1.00  0.00    -0.014 A 
BRANCH  40  41
ATOM     41  C   UNL A   1      39.610  33.546  35.858  1.00  0.00     0.031 A 
ATOM     42  C   UNL A   1      40.142  34.504  36.887  1.00  0.00     0.074 A 
ATOM     43  C   UNL A   1      40.151  32.328  35.695  1.00  0.00     0.049 A 
ATOM     44  N   UNL A   1      41.155  34.374  37.703  1.00  0.00    -0.248 NA
ATOM     45  C   UNL A   1      39.410  35.775  37.035  1.00  0.00     0.031 C 
ATOM     46  C   UNL A   1      39.653  31.294  34.792  1.00  0.00     0.029 A 
ATOM     47  N   UNL A   1      41.235  31.752  36.305  1.00  0.00    -0.354 N 
ATOM     48  C   UNL A   1      41.167  35.532  38.469  1.00  0.00     0.074 A 
ATOM     49  C   UNL A   1      40.085  36.369  38.005  1.00  0.00     0.031 C 
ATOM     50  C   UNL A   1      40.438  30.207  34.899  1.00  0.00     0.029 A 
ATOM     51  C   UNL A   1      41.507  30.482  35.858  1.00  0.00     0.049 A 
ATOM     52  H   UNL A   1      41.769  32.204  36.998  1.00  0.00     0.167 HD
ATOM     53  C   UNL A   1      42.004  35.860  39.479  1.00  0.00     0.037 A 
ATOM     54  C   UNL A   1      42.522  29.657  36.180  1.00  0.00     0.037 A 
ATOM     55  C   UNL A   1      43.101  35.035  39.906  1.00  0.00     0.049 A 
ATOM     56  C   UNL A   1      43.525  30.112  37.213  1.00  0.00     0.074 A 
ATOM     57  C   UNL A   1      44.049  35.292  40.879  1.00  0.00     0.029 A 
ATOM     58  N   UNL A   1      43.397  33.789  39.372  1.00  0.00    -0.354 N 
ATOM     59  N   UNL A   1      43.539  31.209  37.931  1.00  0.00    -0.248 NA
ATOM     60  C   UNL A   1      44.653  29.209  37.481  1.00  0.00     0.031 C 
ATOM     61  C   UNL A   1      44.948  34.221  40.900  1.00  0.00     0.029 A 
ATOM     62  C   UNL A   1      44.526  33.272  39.982  1.00  0.00     0.049 A 
ATOM     63  H   UNL A   1      42.881  33.340  38.665  1.00  0.00     0.167 HD
ATOM     64  C   UNL A   1      44.649  31.111  38.761  1.00  0.00     0.074 A 
ATOM     65  C   UNL A   1      45.276  29.839  38.466  1.00  0.00     0.031 C 
ATOM     66  C   UNL A   1      45.112  31.991  39.684  1.00  0.00     0.037 A 
BRANCH  53  67
ATOM     67  C   UNL A   1      41.785  37.179  40.158  1.00  0.00     0.064 A 
ATOM     68  C   UNL A   1      41.024  37.283  41.333  1.00  0.00     0.173 A 
ATOM     69  C   UNL A   1      42.355  38.350  39.640  1.00  0.00     0.173 A 
ATOM     70  F   UNL A   1      40.437  36.196  41.855  1.00  0.00    -0.203 F 
ATOM     71  C   UNL A   1      40.829  38.514  41.954  1.00  0.00     0.198 A 
ATOM     72  C   UNL A   1      42.183  39.574  40.279  1.00  0.00     0.198 A 
ATOM     73  F   UNL A   1      43.086  38.306  38.516  1.00  0.00    -0.203 F 
ATOM     74  F   UNL A   1      40.064  38.597  43.051  1.00  0.00    -0.200 F 
ATOM     75  C   UNL A   1      41.416  39.657  41.431  1.00  0.00     0.200 A 
ATOM     76  F   UNL A   1      42.757  40.677  39.777  1.00  0.00    -0.200 F 
ATOM     77  F   UNL A   1      41.237  40.840  42.035  1.00  0.00    -0.200 F 
ENDBRANCH  53  67
BRANCH  54  78
ATOM     78  C   UNL A   1      42.667  28.335  35.512  1.00  0.00     0.064 A 
ATOM     79  C   UNL A   1      41.983  27.203  35.976  1.00  0.00     0.173 A 
ATOM     80  C   UNL A   1      43.548  28.163  34.432  1.00  0.00     0.173 A 
ATOM     81  F   UNL A   1      41.149  27.307  37.022  1.00  0.00    -0.203 F 
ATOM     82  C   UNL A   1      42.198  25.947  35.412  1.00  0.00     0.198 A 
ATOM     83  C   UNL A   1      43.738  26.912  33.846  1.00  0.00     0.198 A 
ATOM     84  F   UNL A   1      44.235  29.208  33.949  1.00  0.00    -0.203 F 
ATOM     85  F   UNL A   1      41.582  24.872  35.921  1.00  0.00    -0.200 F 
ATOM     86  C   UNL A   1      43.073  25.803  34.346  1.00  0.00     0.200 A 
ATOM     87  F   UNL A   1      44.577  26.780  32.811  1.00  0.00    -0.200 F 
ATOM     88  F   UNL A   1      43.289  24.593  33.811  1.00  0.00    -0.200 F 
ENDBRANCH  54  78
BRANCH  66  89
ATOM     89  C   UNL A   1      46.319  31.584  40.479  1.00  0.00     0.064 A 
ATOM     90  C   UNL A   1      46.208  30.842  41.664  1.00  0.00     0.173 A 
ATOM     91  C   UNL A   1      47.607  31.903  40.021  1.00  0.00     0.173 A 
ATOM     92  F   UNL A   1      45.000  30.522  42.150  1.00  0.00    -0.203 F 
ATOM     93  C   UNL A   1      47.343  30.460  42.375  1.00  0.00     0.198 A 
ATOM     94  C   UNL A   1      48.739  31.489  40.716  1.00  0.00     0.198 A 
ATOM     95  F   UNL A   1      47.767  32.602  38.887  1.00  0.00    -0.203 F 
ATOM     96  F   UNL A   1      47.211  29.796  43.533  1.00  0.00    -0.200 F 
ATOM     97  C   UNL A   1      48.605  30.776  41.897  1.00  0.00     0.200 A 
ATOM     98  F   UNL A   1      49.958  31.780  40.242  1.00  0.00    -0.200 F 
ATOM     99  F   UNL A   1      49.695  30.397  42.578  1.00  0.00    -0.200 F 
ENDBRANCH  66  89
ENDBRANCH  40  41
ENDBRANCH  33  35
ENDBRANCH  32  33
ENDBRANCH  31  32
ENDBRANCH  30  31
ENDBRANCH  29  30
ENDBRANCH  28  29
ENDBRANCH  27  28
ENDBRANCH  26  27
ENDBRANCH  25  26
ENDBRANCH   1  25
TORSDOF 26
ENDMDL
