MODEL 1
REMARK VINA RESULT:     -10.1      0.000      0.000
REMARK SMILES CCCCCCNC(=O)Nc1cccc(-c2ccc([C@@H](C)C(=O)OCCOCCOCCOCCOC(=O)c3ccc(-c4c5nc(c(-c6c(F)c(F)c(F)c(F)c6F)c6ccc([nH]6)c(-c6c(F)c(F)c(F)c(F)c6F)c6nc(c(-c7c(F)c(F)c(F)c(F)c7F)c7ccc4[nH]7)C=C6)C=C5)cc3)cc2F)c1
REMARK SMILES IDX 27 1 26 2 25 3 24 4 22 5 23 6 20 7 21 8 19 9 16 10 17 11
REMARK SMILES IDX 103 12 18 13 102 14 104 15 15 16 11 17 12 18 105 19 13 20
REMARK SMILES IDX 14 21 10 22 7 23 8 24 9 26 6 28 5 29 4 30 3 31 2 32 1 33
REMARK SMILES IDX 28 34 29 35 30 36 31 37 32 38 33 39 34 40 35 41 36 42 37 43
REMARK SMILES IDX 38 44 39 45 40 46 101 47 41 48 100 49 42 50 43 51 44 52
REMARK SMILES IDX 94 53 45 54 99 55 93 56 95 57 46 58 98 59 92 60 91 61 47 63
REMARK SMILES IDX 79 64 59 65 78 66 60 67 63 68 77 69 96 70 61 71 62 72 76 74
REMARK SMILES IDX 97 75 64 76 48 77 49 78 57 79 50 80 51 81 55 82 58 83 52 84
REMARK SMILES IDX 53 85 56 86 54 87 80 88 81 89 89 90 82 91 83 92 87 93 90 94
REMARK SMILES IDX 84 95 85 96 88 97 86 98 65 99 66 100 74 101 67 102 68 103
REMARK SMILES IDX 72 104 75 105 69 106 70 107 73 108 71 109
REMARK H PARENT 7 25 10 27 95 62 63 73
REMARK Flexibility Score: inf
ROOT
ATOM      1  O   UNL A   1      28.994  27.924  23.301  1.00  0.00    -0.376 OA
ENDROOT
BRANCH   1   2
ATOM      2  C   UNL A   1      28.957  26.632  23.889  1.00  0.00     0.202 C 
BRANCH   2   3
ATOM      3  C   UNL A   1      29.948  26.378  25.021  1.00  0.00     0.261 C 
BRANCH   3   4
ATOM      4  O   UNL A   1      30.798  27.497  25.327  1.00  0.00    -0.463 OA
BRANCH   4   5
ATOM      5  C   UNL A   1      31.542  27.351  26.455  1.00  0.00     0.313 C 
ATOM      6  O   UNL A   1      31.196  27.738  27.567  1.00  0.00    -0.252 OA
BRANCH   5   7
ATOM      7  C   UNL A   1      32.928  26.795  26.208  1.00  0.00     0.126 C 
ATOM      8  C   UNL A   1      33.680  27.785  25.317  1.00  0.00     0.025 C 
BRANCH   7   9
ATOM      9  C   UNL A   1      33.081  25.356  25.730  1.00  0.00    -0.031 A 
ATOM     10  C   UNL A   1      32.928  22.735  24.564  1.00  0.00     0.018 A 
ATOM     11  C   UNL A   1      32.576  22.973  25.905  1.00  0.00     0.012 A 
ATOM     12  C   UNL A   1      33.434  23.830  23.854  1.00  0.00     0.131 A 
ATOM     13  C   UNL A   1      32.659  24.253  26.484  1.00  0.00     0.005 A 
ATOM     14  C   UNL A   1      33.514  25.110  24.417  1.00  0.00     0.044 A 
ATOM     15  F   UNL A   1      33.812  23.689  22.574  1.00  0.00    -0.206 F 
BRANCH  10  16
ATOM     16  C   UNL A   1      32.769  21.397  23.945  1.00  0.00    -0.013 A 
ATOM     17  C   UNL A   1      32.787  18.957  24.138  1.00  0.00     0.043 A 
ATOM     18  C   UNL A   1      32.304  18.816  22.839  1.00  0.00     0.026 A 
ATOM     19  C   UNL A   1      33.104  20.226  24.648  1.00  0.00     0.035 A 
ATOM     20  C   UNL A   1      31.971  19.963  22.120  1.00  0.00     0.003 A 
ATOM     21  C   UNL A   1      32.179  21.234  22.676  1.00  0.00     0.009 A 
BRANCH  17  22
ATOM     22  N   UNL A   1      32.708  17.845  24.990  1.00  0.00    -0.308 N 
ATOM     23  N   UNL A   1      34.942  17.042  24.841  1.00  0.00    -0.338 N 
ATOM     24  C   UNL A   1      33.633  16.857  25.174  1.00  0.00     0.319 C 
ATOM     25  H   UNL A   1      35.520  16.250  24.925  1.00  0.00     0.165 HD
ATOM     26  O   UNL A   1      33.312  15.815  25.749  1.00  0.00    -0.249 OA
ATOM     27  H   UNL A   1      31.882  17.767  25.522  1.00  0.00     0.171 HD
BRANCH  23  28
ATOM     28  C   UNL A   1      35.596  18.253  24.377  1.00  0.00     0.117 C 
BRANCH  28  29
ATOM     29  C   UNL A   1      36.879  18.659  25.063  1.00  0.00     0.021 C 
BRANCH  29  30
ATOM     30  C   UNL A   1      37.257  20.104  24.826  1.00  0.00     0.002 C 
BRANCH  30  31
ATOM     31  C   UNL A   1      36.458  21.212  25.507  1.00  0.00    -0.000 C 
BRANCH  31  32
ATOM     32  C   UNL A   1      36.675  22.603  24.922  1.00  0.00    -0.003 C 
ATOM     33  C   UNL A   1      36.795  22.589  23.411  1.00  0.00     0.004 C 
ENDBRANCH  31  32
ENDBRANCH  30  31
ENDBRANCH  29  30
ENDBRANCH  28  29
ENDBRANCH  23  28
ENDBRANCH  17  22
ENDBRANCH  10  16
ENDBRANCH   7   9
ENDBRANCH   5   7
ENDBRANCH   4   5
ENDBRANCH   3   4
ENDBRANCH   2   3
ENDBRANCH   1   2
BRANCH   1  34
ATOM     34  C   UNL A   1      27.776  28.597  22.968  1.00  0.00     0.188 C 
BRANCH  34  35
ATOM     35  C   UNL A   1      27.831  30.068  22.527  1.00  0.00     0.188 C 
BRANCH  35  36
ATOM     36  O   UNL A   1      29.001  30.781  22.921  1.00  0.00    -0.377 OA
BRANCH  36  37
ATOM     37  C   UNL A   1      28.770  32.099  23.413  1.00  0.00     0.188 C 
BRANCH  37  38
ATOM     38  C   UNL A   1      29.810  32.464  24.447  1.00  0.00     0.188 C 
BRANCH  38  39
ATOM     39  O   UNL A   1      30.418  31.342  25.074  1.00  0.00    -0.376 OA
BRANCH  39  40
ATOM     40  C   UNL A   1      31.192  31.722  26.220  1.00  0.00     0.202 C 
BRANCH  40  41
ATOM     41  C   UNL A   1      32.466  30.887  26.447  1.00  0.00     0.261 C 
BRANCH  41  42
ATOM     42  O   UNL A   1      33.262  31.135  27.634  1.00  0.00    -0.460 OA
BRANCH  42  43
ATOM     43  C   UNL A   1      34.314  31.995  27.657  1.00  0.00     0.338 C 
ATOM     44  O   UNL A   1      34.305  33.177  27.419  1.00  0.00    -0.246 OA
BRANCH  43  45
ATOM     45  C   UNL A   1      35.452  31.248  28.279  1.00  0.00     0.060 A 
ATOM     46  C   UNL A   1      35.373  29.864  28.503  1.00  0.00     0.016 A 
ATOM     47  C   UNL A   1      36.651  31.903  28.524  1.00  0.00     0.016 A 
ATOM     48  C   UNL A   1      36.502  29.134  28.940  1.00  0.00     0.010 A 
ATOM     49  C   UNL A   1      37.783  31.163  28.886  1.00  0.00     0.010 A 
ATOM     50  C   UNL A   1      37.732  29.771  29.138  1.00  0.00    -0.014 A 
BRANCH  50  51
ATOM     51  C   UNL A   1      38.941  29.121  29.762  1.00  0.00     0.031 A 
ATOM     52  C   UNL A   1      39.464  29.732  31.046  1.00  0.00     0.074 A 
ATOM     53  C   UNL A   1      39.654  28.102  29.230  1.00  0.00     0.049 A 
ATOM     54  N   UNL A   1      40.624  29.596  31.638  1.00  0.00    -0.248 NA
ATOM     55  C   UNL A   1      38.564  30.689  31.712  1.00  0.00     0.031 C 
ATOM     56  C   UNL A   1      39.324  27.346  28.029  1.00  0.00     0.029 A 
ATOM     57  N   UNL A   1      40.859  27.555  29.632  1.00  0.00    -0.354 N 
ATOM     58  C   UNL A   1      40.609  30.506  32.688  1.00  0.00     0.074 A 
ATOM     59  C   UNL A   1      39.385  31.266  32.570  1.00  0.00     0.031 C 
ATOM     60  C   UNL A   1      40.325  26.490  27.747  1.00  0.00     0.029 A 
ATOM     61  C   UNL A   1      41.367  26.615  28.763  1.00  0.00     0.049 A 
ATOM     62  H   UNL A   1      41.312  27.815  30.466  1.00  0.00     0.167 HD
ATOM     63  C   UNL A   1      41.480  30.659  33.711  1.00  0.00     0.037 A 
ATOM     64  C   UNL A   1      42.533  25.931  28.779  1.00  0.00     0.037 A 
ATOM     65  C   UNL A   1      42.622  29.820  33.939  1.00  0.00     0.049 A 
ATOM     66  C   UNL A   1      43.492  26.088  29.937  1.00  0.00     0.074 A 
ATOM     67  C   UNL A   1      43.477  29.809  35.025  1.00  0.00     0.029 A 
ATOM     68  N   UNL A   1      43.047  28.823  33.079  1.00  0.00    -0.354 N 
ATOM     69  N   UNL A   1      43.422  26.892  30.969  1.00  0.00    -0.248 NA
ATOM     70  C   UNL A   1      44.673  25.207  29.952  1.00  0.00     0.031 C 
ATOM     71  C   UNL A   1      44.437  28.815  34.814  1.00  0.00     0.029 A 
ATOM     72  C   UNL A   1      44.157  28.189  33.611  1.00  0.00     0.049 A 
ATOM     73  H   UNL A   1      42.625  28.598  32.219  1.00  0.00     0.167 HD
ATOM     74  C   UNL A   1      44.503  26.567  31.782  1.00  0.00     0.074 A 
ATOM     75  C   UNL A   1      45.226  25.506  31.119  1.00  0.00     0.031 C 
ATOM     76  C   UNL A   1      44.849  27.097  32.980  1.00  0.00     0.037 A 
BRANCH  63  77
ATOM     77  C   UNL A   1      41.182  31.748  34.699  1.00  0.00     0.064 A 
ATOM     78  C   UNL A   1      40.361  31.524  35.815  1.00  0.00     0.173 A 
ATOM     79  C   UNL A   1      41.700  33.036  34.511  1.00  0.00     0.173 A 
ATOM     80  F   UNL A   1      39.831  30.309  36.031  1.00  0.00    -0.203 F 
ATOM     81  C   UNL A   1      40.009  32.566  36.665  1.00  0.00     0.198 A 
ATOM     82  C   UNL A   1      41.382  34.067  35.391  1.00  0.00     0.198 A 
ATOM     83  F   UNL A   1      42.502  33.301  33.468  1.00  0.00    -0.203 F 
ATOM     84  F   UNL A   1      39.143  32.347  37.665  1.00  0.00    -0.200 F 
ATOM     85  C   UNL A   1      40.523  33.835  36.456  1.00  0.00     0.200 A 
ATOM     86  F   UNL A   1      41.893  35.291  35.199  1.00  0.00    -0.200 F 
ATOM     87  F   UNL A   1      40.178  34.841  37.272  1.00  0.00    -0.200 F 
ENDBRANCH  63  77
BRANCH  64  88
ATOM     88  C   UNL A   1      42.863  24.970  27.690  1.00  0.00     0.064 A 
ATOM     89  C   UNL A   1      42.496  23.620  27.788  1.00  0.00     0.173 A 
ATOM     90  C   UNL A   1      43.617  25.361  26.575  1.00  0.00     0.173 A 
ATOM     91  F   UNL A   1      41.807  23.191  28.856  1.00  0.00    -0.203 F 
ATOM     92  C   UNL A   1      42.895  22.691  26.828  1.00  0.00     0.198 A 
ATOM     93  C   UNL A   1      43.997  24.435  25.603  1.00  0.00     0.198 A 
ATOM     94  F   UNL A   1      44.004  26.637  26.438  1.00  0.00    -0.203 F 
ATOM     95  F   UNL A   1      42.581  21.397  26.979  1.00  0.00    -0.200 F 
ATOM     96  C   UNL A   1      43.645  23.100  25.736  1.00  0.00     0.200 A 
ATOM     97  F   UNL A   1      44.724  24.830  24.549  1.00  0.00    -0.200 F 
ATOM     98  F   UNL A   1      44.041  22.204  24.821  1.00  0.00    -0.200 F 
ENDBRANCH  64  88
BRANCH  76  99
ATOM     99  C   UNL A   1      46.008  26.493  33.718  1.00  0.00     0.064 A 
ATOM    100  C   UNL A   1      47.305  27.017  33.624  1.00  0.00     0.173 A 
ATOM    101  C   UNL A   1      45.796  25.424  34.605  1.00  0.00     0.173 A 
ATOM    102  F   UNL A   1      47.562  28.030  32.783  1.00  0.00    -0.203 F 
ATOM    103  C   UNL A   1      48.348  26.488  34.380  1.00  0.00     0.198 A 
ATOM    104  C   UNL A   1      46.835  24.914  35.379  1.00  0.00     0.198 A 
ATOM    105  F   UNL A   1      44.573  24.889  34.738  1.00  0.00    -0.203 F 
ATOM    106  F   UNL A   1      49.585  26.987  34.253  1.00  0.00    -0.200 F 
ATOM    107  C   UNL A   1      48.110  25.446  35.265  1.00  0.00     0.200 A 
ATOM    108  F   UNL A   1      46.599  23.918  36.243  1.00  0.00    -0.200 F 
ATOM    109  F   UNL A   1      49.111  24.952  36.006  1.00  0.00    -0.200 F 
ENDBRANCH  76  99
ENDBRANCH  50  51
ENDBRANCH  43  45
ENDBRANCH  42  43
ENDBRANCH  41  42
ENDBRANCH  40  41
ENDBRANCH  39  40
ENDBRANCH  38  39
ENDBRANCH  37  38
ENDBRANCH  36  37
ENDBRANCH  35  36
ENDBRANCH  34  35
ENDBRANCH   1  34
TORSDOF 28
ENDMDL
MODEL 2
REMARK VINA RESULT:      -9.2      5.875      7.606
REMARK SMILES CCCCCCNC(=O)Nc1cccc(-c2ccc([C@@H](C)C(=O)OCCOCCOCCOCCOC(=O)c3ccc(-c4c5nc(c(-c6c(F)c(F)c(F)c(F)c6F)c6ccc([nH]6)c(-c6c(F)c(F)c(F)c(F)c6F)c6nc(c(-c7c(F)c(F)c(F)c(F)c7F)c7ccc4[nH]7)C=C6)C=C5)cc3)cc2F)c1
REMARK SMILES IDX 27 1 26 2 25 3 24 4 22 5 23 6 20 7 21 8 19 9 16 10 17 11
REMARK SMILES IDX 103 12 18 13 102 14 104 15 15 16 11 17 12 18 105 19 13 20
REMARK SMILES IDX 14 21 10 22 7 23 8 24 9 26 6 28 5 29 4 30 3 31 2 32 1 33
REMARK SMILES IDX 28 34 29 35 30 36 31 37 32 38 33 39 34 40 35 41 36 42 37 43
REMARK SMILES IDX 38 44 39 45 40 46 101 47 41 48 100 49 42 50 43 51 44 52
REMARK SMILES IDX 94 53 45 54 99 55 93 56 95 57 46 58 98 59 92 60 91 61 47 63
REMARK SMILES IDX 79 64 59 65 78 66 60 67 63 68 77 69 96 70 61 71 62 72 76 74
REMARK SMILES IDX 97 75 64 76 48 77 49 78 57 79 50 80 51 81 55 82 58 83 52 84
REMARK SMILES IDX 53 85 56 86 54 87 80 88 81 89 89 90 82 91 83 92 87 93 90 94
REMARK SMILES IDX 84 95 85 96 88 97 86 98 65 99 66 100 74 101 67 102 68 103
REMARK SMILES IDX 72 104 75 105 69 106 70 107 73 108 71 109
REMARK H PARENT 7 25 10 27 95 62 63 73
REMARK Flexibility Score: inf
ROOT
ATOM      1  O   UNL A   1      31.606  30.694  26.284  1.00  0.00    -0.376 OA
ENDROOT
BRANCH   1   2
ATOM      2  C   UNL A   1      31.054  30.373  25.016  1.00  0.00     0.202 C 
BRANCH   2   3
ATOM      3  C   UNL A   1      30.121  31.412  24.403  1.00  0.00     0.261 C 
BRANCH   3   4
ATOM      4  O   UNL A   1      28.821  30.907  24.052  1.00  0.00    -0.463 OA
BRANCH   4   5
ATOM      5  C   UNL A   1      28.712  30.465  22.772  1.00  0.00     0.313 C 
ATOM      6  O   UNL A   1      28.830  31.178  21.780  1.00  0.00    -0.252 OA
BRANCH   5   7
ATOM      7  C   UNL A   1      28.276  29.019  22.657  1.00  0.00     0.126 C 
ATOM      8  C   UNL A   1      26.968  28.860  23.433  1.00  0.00     0.025 C 
BRANCH   7   9
ATOM      9  C   UNL A   1      29.274  27.911  22.974  1.00  0.00    -0.031 A 
ATOM     10  C   UNL A   1      31.053  25.658  23.087  1.00  0.00     0.018 A 
ATOM     11  C   UNL A   1      29.797  25.647  23.721  1.00  0.00     0.012 A 
ATOM     12  C   UNL A   1      31.421  26.859  22.468  1.00  0.00     0.131 A 
ATOM     13  C   UNL A   1      28.926  26.751  23.677  1.00  0.00     0.005 A 
ATOM     14  C   UNL A   1      30.559  27.962  22.411  1.00  0.00     0.044 A 
ATOM     15  F   UNL A   1      32.610  26.966  21.855  1.00  0.00    -0.206 F 
BRANCH  10  16
ATOM     16  C   UNL A   1      31.931  24.464  23.080  1.00  0.00    -0.013 A 
ATOM     17  C   UNL A   1      32.401  22.175  23.807  1.00  0.00     0.043 A 
ATOM     18  C   UNL A   1      33.499  22.093  22.955  1.00  0.00     0.026 A 
ATOM     19  C   UNL A   1      31.686  23.376  23.937  1.00  0.00     0.035 A 
ATOM     20  C   UNL A   1      33.766  23.162  22.102  1.00  0.00     0.003 A 
ATOM     21  C   UNL A   1      32.977  24.321  22.148  1.00  0.00     0.009 A 
BRANCH  17  22
ATOM     22  N   UNL A   1      31.886  20.978  24.330  1.00  0.00    -0.308 N 
ATOM     23  N   UNL A   1      33.628  20.393  25.838  1.00  0.00    -0.338 N 
ATOM     24  C   UNL A   1      32.519  20.061  25.118  1.00  0.00     0.319 C 
ATOM     25  H   UNL A   1      34.070  19.650  26.309  1.00  0.00     0.165 HD
ATOM     26  O   UNL A   1      32.027  18.941  25.274  1.00  0.00    -0.249 OA
ATOM     27  H   UNL A   1      30.950  20.775  24.097  1.00  0.00     0.171 HD
BRANCH  23  28
ATOM     28  C   UNL A   1      34.245  21.698  26.002  1.00  0.00     0.117 C 
BRANCH  28  29
ATOM     29  C   UNL A   1      33.851  22.508  27.214  1.00  0.00     0.021 C 
BRANCH  29  30
ATOM     30  C   UNL A   1      33.560  23.958  26.899  1.00  0.00     0.002 C 
BRANCH  30  31
ATOM     31  C   UNL A   1      34.376  24.674  25.825  1.00  0.00    -0.000 C 
BRANCH  31  32
ATOM     32  C   UNL A   1      34.025  26.145  25.636  1.00  0.00    -0.003 C 
ATOM     33  C   UNL A   1      32.634  26.482  26.135  1.00  0.00     0.004 C 
ENDBRANCH  31  32
ENDBRANCH  30  31
ENDBRANCH  29  30
ENDBRANCH  28  29
ENDBRANCH  23  28
ENDBRANCH  17  22
ENDBRANCH  10  16
ENDBRANCH   7   9
ENDBRANCH   5   7
ENDBRANCH   4   5
ENDBRANCH   3   4
ENDBRANCH   2   3
ENDBRANCH   1   2
BRANCH   1  34
ATOM     34  C   UNL A   1      31.504  32.026  26.797  1.00  0.00     0.188 C 
BRANCH  34  35
ATOM     35  C   UNL A   1      32.707  32.641  27.528  1.00  0.00     0.188 C 
BRANCH  35  36
ATOM     36  O   UNL A   1      32.529  33.982  27.976  1.00  0.00    -0.377 OA
BRANCH  36  37
ATOM     37  C   UNL A   1      33.718  34.639  28.409  1.00  0.00     0.188 C 
BRANCH  37  38
ATOM     38  C   UNL A   1      33.685  34.855  29.905  1.00  0.00     0.188 C 
BRANCH  38  39
ATOM     39  O   UNL A   1      33.967  33.684  30.662  1.00  0.00    -0.376 OA
BRANCH  39  40
ATOM     40  C   UNL A   1      35.177  33.046  30.232  1.00  0.00     0.202 C 
BRANCH  40  41
ATOM     41  C   UNL A   1      35.038  31.546  29.907  1.00  0.00     0.261 C 
BRANCH  41  42
ATOM     42  O   UNL A   1      36.188  30.683  30.092  1.00  0.00    -0.460 OA
BRANCH  42  43
ATOM     43  C   UNL A   1      36.860  30.579  31.269  1.00  0.00     0.338 C 
ATOM     44  O   UNL A   1      36.478  30.066  32.291  1.00  0.00    -0.246 OA
BRANCH  43  45
ATOM     45  C   UNL A   1      38.267  31.004  30.988  1.00  0.00     0.060 A 
ATOM     46  C   UNL A   1      39.091  31.501  32.010  1.00  0.00     0.016 A 
ATOM     47  C   UNL A   1      38.810  30.787  29.729  1.00  0.00     0.016 A 
ATOM     48  C   UNL A   1      40.463  31.751  31.780  1.00  0.00     0.010 A 
ATOM     49  C   UNL A   1      40.184  30.968  29.528  1.00  0.00     0.010 A 
ATOM     50  C   UNL A   1      41.037  31.486  30.531  1.00  0.00    -0.014 A 
BRANCH  50  51
ATOM     51  C   UNL A   1      42.440  31.875  30.134  1.00  0.00     0.031 A 
ATOM     52  C   UNL A   1      42.662  33.316  29.722  1.00  0.00     0.074 A 
ATOM     53  C   UNL A   1      43.492  31.033  30.025  1.00  0.00     0.049 A 
ATOM     54  N   UNL A   1      43.650  33.865  29.061  1.00  0.00    -0.248 NA
ATOM     55  C   UNL A   1      41.571  34.250  30.048  1.00  0.00     0.031 C 
ATOM     56  C   UNL A   1      43.519  29.623  30.393  1.00  0.00     0.029 A 
ATOM     57  N   UNL A   1      44.758  31.254  29.513  1.00  0.00    -0.354 N 
ATOM     58  C   UNL A   1      43.253  35.176  28.831  1.00  0.00     0.074 A 
ATOM     59  C   UNL A   1      41.895  35.296  29.311  1.00  0.00     0.031 C 
ATOM     60  C   UNL A   1      44.701  29.086  30.034  1.00  0.00     0.029 A 
ATOM     61  C   UNL A   1      45.535  30.121  29.426  1.00  0.00     0.049 A 
ATOM     62  H   UNL A   1      45.075  32.144  29.236  1.00  0.00     0.167 HD
ATOM     63  C   UNL A   1      43.962  36.220  28.343  1.00  0.00     0.037 A 
ATOM     64  C   UNL A   1      46.774  29.932  28.921  1.00  0.00     0.037 A 
ATOM     65  C   UNL A   1      45.354  36.168  28.001  1.00  0.00     0.049 A 
ATOM     66  C   UNL A   1      47.571  31.106  28.398  1.00  0.00     0.074 A 
ATOM     67  C   UNL A   1      46.188  37.208  27.636  1.00  0.00     0.029 A 
ATOM     68  N   UNL A   1      46.124  35.018  28.013  1.00  0.00    -0.354 N 
ATOM     69  N   UNL A   1      47.212  32.359  28.267  1.00  0.00    -0.248 NA
ATOM     70  C   UNL A   1      48.963  30.843  27.992  1.00  0.00     0.031 C 
ATOM     71  C   UNL A   1      47.464  36.684  27.406  1.00  0.00     0.029 A 
ATOM     72  C   UNL A   1      47.427  35.324  27.660  1.00  0.00     0.049 A 
ATOM     73  H   UNL A   1      45.794  34.119  28.240  1.00  0.00     0.167 HD
ATOM     74  C   UNL A   1      48.346  33.038  27.834  1.00  0.00     0.074 A 
ATOM     75  C   UNL A   1      49.402  32.061  27.705  1.00  0.00     0.031 C 
ATOM     76  C   UNL A   1      48.494  34.362  27.582  1.00  0.00     0.037 A 
BRANCH  63  77
ATOM     77  C   UNL A   1      43.239  37.528  28.213  1.00  0.00     0.064 A 
ATOM     78  C   UNL A   1      43.286  38.498  29.227  1.00  0.00     0.173 A 
ATOM     79  C   UNL A   1      42.469  37.803  27.075  1.00  0.00     0.173 A 
ATOM     80  F   UNL A   1      44.000  38.276  30.342  1.00  0.00    -0.203 F 
ATOM     81  C   UNL A   1      42.530  39.662  29.140  1.00  0.00     0.198 A 
ATOM     82  C   UNL A   1      41.749  38.990  26.971  1.00  0.00     0.198 A 
ATOM     83  F   UNL A   1      42.401  36.916  26.070  1.00  0.00    -0.203 F 
ATOM     84  F   UNL A   1      42.514  40.524  30.165  1.00  0.00    -0.200 F 
ATOM     85  C   UNL A   1      41.766  39.909  28.011  1.00  0.00     0.200 A 
ATOM     86  F   UNL A   1      41.025  39.237  25.872  1.00  0.00    -0.200 F 
ATOM     87  F   UNL A   1      41.032  41.028  27.930  1.00  0.00    -0.200 F 
ENDBRANCH  63  77
BRANCH  64  88
ATOM     88  C   UNL A   1      47.397  28.579  28.925  1.00  0.00     0.064 A 
ATOM     89  C   UNL A   1      48.181  28.152  30.007  1.00  0.00     0.173 A 
ATOM     90  C   UNL A   1      47.288  27.721  27.822  1.00  0.00     0.173 A 
ATOM     91  F   UNL A   1      48.346  28.955  31.069  1.00  0.00    -0.203 F 
ATOM     92  C   UNL A   1      48.857  26.934  29.974  1.00  0.00     0.198 A 
ATOM     93  C   UNL A   1      47.948  26.492  27.798  1.00  0.00     0.198 A 
ATOM     94  F   UNL A   1      46.560  28.085  26.756  1.00  0.00    -0.203 F 
ATOM     95  F   UNL A   1      49.648  26.581  30.996  1.00  0.00    -0.200 F 
ATOM     96  C   UNL A   1      48.739  26.104  28.869  1.00  0.00     0.200 A 
ATOM     97  F   UNL A   1      47.835  25.691  26.729  1.00  0.00    -0.200 F 
ATOM     98  F   UNL A   1      49.402  24.940  28.831  1.00  0.00    -0.200 F 
ENDBRANCH  64  88
BRANCH  76  99
ATOM     99  C   UNL A   1      49.861  34.872  27.229  1.00  0.00     0.064 A 
ATOM    100  C   UNL A   1      50.291  34.986  25.900  1.00  0.00     0.173 A 
ATOM    101  C   UNL A   1      50.720  35.336  28.239  1.00  0.00     0.173 A 
ATOM    102  F   UNL A   1      49.513  34.546  24.899  1.00  0.00    -0.203 F 
ATOM    103  C   UNL A   1      51.534  35.537  25.594  1.00  0.00     0.198 A 
ATOM    104  C   UNL A   1      51.950  35.911  27.929  1.00  0.00     0.198 A 
ATOM    105  F   UNL A   1      50.354  35.256  29.527  1.00  0.00    -0.203 F 
ATOM    106  F   UNL A   1      51.936  35.611  24.319  1.00  0.00    -0.200 F 
ATOM    107  C   UNL A   1      52.356  36.008  26.607  1.00  0.00     0.200 A 
ATOM    108  F   UNL A   1      52.735  36.378  28.908  1.00  0.00    -0.200 F 
ATOM    109  F   UNL A   1      53.543  36.556  26.309  1.00  0.00    -0.200 F 
ENDBRANCH  76  99
ENDBRANCH  50  51
ENDBRANCH  43  45
ENDBRANCH  42  43
ENDBRANCH  41  42
ENDBRANCH  40  41
ENDBRANCH  39  40
ENDBRANCH  38  39
ENDBRANCH  37  38
ENDBRANCH  36  37
ENDBRANCH  35  36
ENDBRANCH  34  35
ENDBRANCH   1  34
TORSDOF 28
ENDMDL
MODEL 3
REMARK VINA RESULT:      -8.9      1.073      2.216
REMARK SMILES CCCCCCNC(=O)Nc1cccc(-c2ccc([C@@H](C)C(=O)OCCOCCOCCOCCOC(=O)c3ccc(-c4c5nc(c(-c6c(F)c(F)c(F)c(F)c6F)c6ccc([nH]6)c(-c6c(F)c(F)c(F)c(F)c6F)c6nc(c(-c7c(F)c(F)c(F)c(F)c7F)c7ccc4[nH]7)C=C6)C=C5)cc3)cc2F)c1
REMARK SMILES IDX 27 1 26 2 25 3 24 4 22 5 23 6 20 7 21 8 19 9 16 10 17 11
REMARK SMILES IDX 103 12 18 13 102 14 104 15 15 16 11 17 12 18 105 19 13 20
REMARK SMILES IDX 14 21 10 22 7 23 8 24 9 26 6 28 5 29 4 30 3 31 2 32 1 33
REMARK SMILES IDX 28 34 29 35 30 36 31 37 32 38 33 39 34 40 35 41 36 42 37 43
REMARK SMILES IDX 38 44 39 45 40 46 101 47 41 48 100 49 42 50 43 51 44 52
REMARK SMILES IDX 94 53 45 54 99 55 93 56 95 57 46 58 98 59 92 60 91 61 47 63
REMARK SMILES IDX 79 64 59 65 78 66 60 67 63 68 77 69 96 70 61 71 62 72 76 74
REMARK SMILES IDX 97 75 64 76 48 77 49 78 57 79 50 80 51 81 55 82 58 83 52 84
REMARK SMILES IDX 53 85 56 86 54 87 80 88 81 89 89 90 82 91 83 92 87 93 90 94
REMARK SMILES IDX 84 95 85 96 88 97 86 98 65 99 66 100 74 101 67 102 68 103
REMARK SMILES IDX 72 104 75 105 69 106 70 107 73 108 71 109
REMARK H PARENT 7 25 10 27 95 62 63 73
REMARK Flexibility Score: inf
ROOT
ATOM      1  O   UNL A   1      28.606  27.934  23.105  1.00  0.00    -0.376 OA
ENDROOT
BRANCH   1   2
ATOM      2  C   UNL A   1      28.638  26.798  23.956  1.00  0.00     0.202 C 
BRANCH   2   3
ATOM      3  C   UNL A   1      29.838  26.690  24.891  1.00  0.00     0.261 C 
BRANCH   3   4
ATOM      4  O   UNL A   1      30.868  27.664  24.650  1.00  0.00    -0.463 OA
BRANCH   4   5
ATOM      5  C   UNL A   1      32.086  27.339  25.158  1.00  0.00     0.313 C 
ATOM      6  O   UNL A   1      32.366  27.361  26.353  1.00  0.00    -0.252 OA
BRANCH   5   7
ATOM      7  C   UNL A   1      33.143  27.084  24.104  1.00  0.00     0.126 C 
ATOM      8  C   UNL A   1      32.468  27.167  22.734  1.00  0.00     0.025 C 
BRANCH   7   9
ATOM      9  C   UNL A   1      34.044  25.862  24.231  1.00  0.00    -0.031 A 
ATOM     10  C   UNL A   1      35.300  23.299  24.561  1.00  0.00     0.018 A 
ATOM     11  C   UNL A   1      35.334  24.280  25.570  1.00  0.00     0.012 A 
ATOM     12  C   UNL A   1      34.691  23.674  23.357  1.00  0.00     0.131 A 
ATOM     13  C   UNL A   1      34.730  25.540  25.409  1.00  0.00     0.005 A 
ATOM     14  C   UNL A   1      34.078  24.922  23.189  1.00  0.00     0.044 A 
ATOM     15  F   UNL A   1      34.629  22.807  22.334  1.00  0.00    -0.206 F 
BRANCH  10  16
ATOM     16  C   UNL A   1      35.878  21.950  24.769  1.00  0.00    -0.013 A 
ATOM     17  C   UNL A   1      35.658  19.514  24.688  1.00  0.00     0.043 A 
ATOM     18  C   UNL A   1      37.007  19.348  24.990  1.00  0.00     0.026 A 
ATOM     19  C   UNL A   1      35.083  20.795  24.672  1.00  0.00     0.035 A 
ATOM     20  C   UNL A   1      37.814  20.479  25.098  1.00  0.00     0.003 A 
ATOM     21  C   UNL A   1      37.261  21.761  24.964  1.00  0.00     0.009 A 
BRANCH  17  22
ATOM     22  N   UNL A   1      34.963  18.414  24.163  1.00  0.00    -0.308 N 
ATOM     23  N   UNL A   1      33.149  18.292  25.695  1.00  0.00    -0.338 N 
ATOM     24  C   UNL A   1      33.920  17.731  24.720  1.00  0.00     0.319 C 
ATOM     25  H   UNL A   1      32.475  17.699  26.101  1.00  0.00     0.165 HD
ATOM     26  O   UNL A   1      33.593  16.632  24.268  1.00  0.00    -0.249 OA
ATOM     27  H   UNL A   1      35.267  18.093  23.283  1.00  0.00     0.171 HD
BRANCH  23  28
ATOM     28  C   UNL A   1      33.190  19.647  26.216  1.00  0.00     0.117 C 
BRANCH  28  29
ATOM     29  C   UNL A   1      32.220  20.647  25.632  1.00  0.00     0.021 C 
BRANCH  29  30
ATOM     30  C   UNL A   1      32.345  22.028  26.236  1.00  0.00     0.002 C 
BRANCH  30  31
ATOM     31  C   UNL A   1      31.799  23.234  25.477  1.00  0.00    -0.000 C 
BRANCH  31  32
ATOM     32  C   UNL A   1      30.842  22.891  24.341  1.00  0.00    -0.003 C 
ATOM     33  C   UNL A   1      30.787  23.969  23.278  1.00  0.00     0.004 C 
ENDBRANCH  31  32
ENDBRANCH  30  31
ENDBRANCH  29  30
ENDBRANCH  28  29
ENDBRANCH  23  28
ENDBRANCH  17  22
ENDBRANCH  10  16
ENDBRANCH   7   9
ENDBRANCH   5   7
ENDBRANCH   4   5
ENDBRANCH   3   4
ENDBRANCH   2   3
ENDBRANCH   1   2
BRANCH   1  34
ATOM     34  C   UNL A   1      27.471  28.805  23.110  1.00  0.00     0.188 C 
BRANCH  34  35
ATOM     35  C   UNL A   1      27.621  30.233  22.565  1.00  0.00     0.188 C 
BRANCH  35  36
ATOM     36  O   UNL A   1      28.861  30.871  22.857  1.00  0.00    -0.377 OA
BRANCH  36  37
ATOM     37  C   UNL A   1      28.775  32.268  23.129  1.00  0.00     0.188 C 
BRANCH  37  38
ATOM     38  C   UNL A   1      29.764  32.658  24.203  1.00  0.00     0.188 C 
BRANCH  38  39
ATOM     39  O   UNL A   1      30.202  31.569  25.005  1.00  0.00    -0.376 OA
BRANCH  39  40
ATOM     40  C   UNL A   1      30.941  32.010  26.153  1.00  0.00     0.202 C 
BRANCH  40  41
ATOM     41  C   UNL A   1      32.181  31.161  26.491  1.00  0.00     0.261 C 
BRANCH  41  42
ATOM     42  O   UNL A   1      32.959  31.499  27.667  1.00  0.00    -0.460 OA
BRANCH  42  43
ATOM     43  C   UNL A   1      34.037  32.327  27.632  1.00  0.00     0.338 C 
ATOM     44  O   UNL A   1      34.061  33.493  27.327  1.00  0.00    -0.246 OA
BRANCH  43  45
ATOM     45  C   UNL A   1      35.158  31.581  28.286  1.00  0.00     0.060 A 
ATOM     46  C   UNL A   1      35.085  30.193  28.485  1.00  0.00     0.016 A 
ATOM     47  C   UNL A   1      36.340  32.244  28.585  1.00  0.00     0.016 A 
ATOM     48  C   UNL A   1      36.204  29.467  28.954  1.00  0.00     0.010 A 
ATOM     49  C   UNL A   1      37.465  31.509  28.979  1.00  0.00     0.010 A 
ATOM     50  C   UNL A   1      37.419  30.114  29.208  1.00  0.00    -0.014 A 
BRANCH  50  51
ATOM     51  C   UNL A   1      38.611  29.466  29.868  1.00  0.00     0.031 A 
ATOM     52  C   UNL A   1      39.001  29.981  31.239  1.00  0.00     0.074 A 
ATOM     53  C   UNL A   1      39.415  28.534  29.307  1.00  0.00     0.049 A 
ATOM     54  N   UNL A   1      40.118  29.845  31.908  1.00  0.00    -0.248 NA
ATOM     55  C   UNL A   1      38.003  30.830  31.911  1.00  0.00     0.031 C 
ATOM     56  C   UNL A   1      39.218  27.876  28.022  1.00  0.00     0.029 A 
ATOM     57  N   UNL A   1      40.613  28.009  29.755  1.00  0.00    -0.354 N 
ATOM     58  C   UNL A   1      39.975  30.653  33.028  1.00  0.00     0.074 A 
ATOM     59  C   UNL A   1      38.725  31.363  32.880  1.00  0.00     0.031 C 
ATOM     60  C   UNL A   1      40.281  27.097  27.747  1.00  0.00     0.029 A 
ATOM     61  C   UNL A   1      41.235  27.178  28.851  1.00  0.00     0.049 A 
ATOM     62  H   UNL A   1      40.988  28.212  30.642  1.00  0.00     0.167 HD
ATOM     63  C   UNL A   1      40.757  30.751  34.128  1.00  0.00     0.037 A 
ATOM     64  C   UNL A   1      42.431  26.550  28.901  1.00  0.00     0.037 A 
ATOM     65  C   UNL A   1      41.921  29.949  34.372  1.00  0.00     0.049 A 
ATOM     66  C   UNL A   1      43.290  26.644  30.142  1.00  0.00     0.074 A 
ATOM     67  C   UNL A   1      42.690  29.878  35.519  1.00  0.00     0.029 A 
ATOM     68  N   UNL A   1      42.463  29.055  33.465  1.00  0.00    -0.354 N 
ATOM     69  N   UNL A   1      43.100  27.346  31.231  1.00  0.00    -0.248 NA
ATOM     70  C   UNL A   1      44.513  25.821  30.173  1.00  0.00     0.031 C 
ATOM     71  C   UNL A   1      43.716  28.953  35.299  1.00  0.00     0.029 A 
ATOM     72  C   UNL A   1      43.562  28.428  34.027  1.00  0.00     0.049 A 
ATOM     73  H   UNL A   1      42.120  28.891  32.558  1.00  0.00     0.167 HD
ATOM     74  C   UNL A   1      44.131  26.998  32.096  1.00  0.00     0.074 A 
ATOM     75  C   UNL A   1      44.959  26.037  31.403  1.00  0.00     0.031 C 
ATOM     76  C   UNL A   1      44.357  27.431  33.361  1.00  0.00     0.037 A 
BRANCH  63  77
ATOM     77  C   UNL A   1      40.327  31.730  35.180  1.00  0.00     0.064 A 
ATOM     78  C   UNL A   1      39.325  31.415  36.113  1.00  0.00     0.173 A 
ATOM     79  C   UNL A   1      40.902  33.007  35.238  1.00  0.00     0.173 A 
ATOM     80  F   UNL A   1      38.736  30.210  36.089  1.00  0.00    -0.203 F 
ATOM     81  C   UNL A   1      38.864  32.367  37.016  1.00  0.00     0.198 A 
ATOM     82  C   UNL A   1      40.469  33.941  36.174  1.00  0.00     0.198 A 
ATOM     83  F   UNL A   1      41.873  33.354  34.379  1.00  0.00    -0.203 F 
ATOM     84  F   UNL A   1      37.840  32.073  37.828  1.00  0.00    -0.200 F 
ATOM     85  C   UNL A   1      39.439  33.626  37.049  1.00  0.00     0.200 A 
ATOM     86  F   UNL A   1      41.037  35.154  36.219  1.00  0.00    -0.200 F 
ATOM     87  F   UNL A   1      38.989  34.545  37.916  1.00  0.00    -0.200 F 
ENDBRANCH  63  77
BRANCH  64  88
ATOM     88  C   UNL A   1      42.895  25.709  27.762  1.00  0.00     0.064 A 
ATOM     89  C   UNL A   1      43.770  26.228  26.796  1.00  0.00     0.173 A 
ATOM     90  C   UNL A   1      42.414  24.406  27.572  1.00  0.00     0.173 A 
ATOM     91  F   UNL A   1      44.226  27.484  26.915  1.00  0.00    -0.203 F 
ATOM     92  C   UNL A   1      44.123  25.488  25.668  1.00  0.00     0.198 A 
ATOM     93  C   UNL A   1      42.785  23.659  26.454  1.00  0.00     0.198 A 
ATOM     94  F   UNL A   1      41.566  23.867  28.459  1.00  0.00    -0.203 F 
ATOM     95  F   UNL A   1      44.912  26.033  24.732  1.00  0.00    -0.200 F 
ATOM     96  C   UNL A   1      43.630  24.203  25.499  1.00  0.00     0.200 A 
ATOM     97  F   UNL A   1      42.307  22.417  26.290  1.00  0.00    -0.200 F 
ATOM     98  F   UNL A   1      43.958  23.498  24.407  1.00  0.00    -0.200 F 
ENDBRANCH  64  88
BRANCH  76  99
ATOM     99  C   UNL A   1      45.487  26.817  34.134  1.00  0.00     0.064 A 
ATOM    100  C   UNL A   1      46.749  27.421  34.212  1.00  0.00     0.173 A 
ATOM    101  C   UNL A   1      45.272  25.646  34.880  1.00  0.00     0.173 A 
ATOM    102  F   UNL A   1      47.009  28.534  33.509  1.00  0.00    -0.203 F 
ATOM    103  C   UNL A   1      47.758  26.872  35.001  1.00  0.00     0.198 A 
ATOM    104  C   UNL A   1      46.274  25.115  35.688  1.00  0.00     0.198 A 
ATOM    105  F   UNL A   1      44.081  25.031  34.845  1.00  0.00    -0.203 F 
ATOM    106  F   UNL A   1      48.965  27.451  35.040  1.00  0.00    -0.200 F 
ATOM    107  C   UNL A   1      47.516  25.727  35.746  1.00  0.00     0.200 A 
ATOM    108  F   UNL A   1      46.033  24.018  36.418  1.00  0.00    -0.200 F 
ATOM    109  F   UNL A   1      48.482  25.212  36.520  1.00  0.00    -0.200 F 
ENDBRANCH  76  99
ENDBRANCH  50  51
ENDBRANCH  43  45
ENDBRANCH  42  43
ENDBRANCH  41  42
ENDBRANCH  40  41
ENDBRANCH  39  40
ENDBRANCH  38  39
ENDBRANCH  37  38
ENDBRANCH  36  37
ENDBRANCH  35  36
ENDBRANCH  34  35
ENDBRANCH   1  34
TORSDOF 28
ENDMDL
