MODEL 1
REMARK VINA RESULT:     -11.8      0.000      0.000
REMARK SMILES O=C(Nc1ccccc1C(=O)OCCOCCOCCOCCOC(=O)c1ccc(-c2c3nc(c(-c4c(F)c(F)c(F)c(F)c4F)c4ccc([nH]4)c(-c4c(F)c(F)c(F)c(F)c4F)c4nc(c(-c5c(F)c(F)c(F)c(F)c5F)c5ccc2[nH]5)C=C4)C=C3)cc1)c1ccc(N2C(=O)[C@H]3CC=CC[C@H]3C2=O)cc1
REMARK SMILES IDX 17 1 16 2 15 3 14 4 13 5 12 6 10 7 11 8 9 9 4 10 5 11 6 12
REMARK SMILES IDX 8 13 7 14 3 15 1 16 2 17 90 19 91 20 106 21 92 22 105 23
REMARK SMILES IDX 93 24 94 25 95 26 103 27 96 28 97 29 102 30 104 31 98 32
REMARK SMILES IDX 101 33 99 34 100 35 18 36 19 37 20 38 21 39 22 40 23 41
REMARK SMILES IDX 24 42 25 43 26 44 27 45 28 46 89 47 29 48 88 49 30 50 31 51
REMARK SMILES IDX 32 52 82 53 33 54 87 55 81 56 83 57 34 58 86 59 80 60 79 61
REMARK SMILES IDX 35 63 67 64 47 65 66 66 48 67 51 68 65 69 84 70 49 71 50 72
REMARK SMILES IDX 64 74 85 75 52 76 36 77 37 78 45 79 38 80 39 81 43 82 46 83
REMARK SMILES IDX 40 84 41 85 44 86 42 87 68 88 69 89 77 90 70 91 71 92 75 93
REMARK SMILES IDX 78 94 72 95 73 96 76 97 74 98 53 99 54 100 62 101 55 102
REMARK SMILES IDX 56 103 60 104 63 105 57 106 58 107 61 108 59 109
REMARK H PARENT 3 18 83 62 51 73
REMARK Flexibility Score: inf
ROOT
ATOM      1  C   UNL A   1      35.490  34.109  28.365  1.00  0.00     0.188 C 
ENDROOT
BRANCH   1   2
ATOM      2  C   UNL A   1      35.439  32.609  27.987  1.00  0.00     0.188 C 
BRANCH   2   3
ATOM      3  O   UNL A   1      34.201  31.986  28.256  1.00  0.00    -0.376 OA
BRANCH   3   4
ATOM      4  C   UNL A   1      33.637  31.070  27.346  1.00  0.00     0.202 C 
BRANCH   4   5
ATOM      5  C   UNL A   1      32.123  31.036  27.166  1.00  0.00     0.261 C 
BRANCH   5   6
ATOM      6  O   UNL A   1      31.587  30.335  26.039  1.00  0.00    -0.460 OA
BRANCH   6   7
ATOM      7  C   UNL A   1      31.965  29.050  25.865  1.00  0.00     0.340 C 
ATOM      8  O   UNL A   1      31.881  28.157  26.692  1.00  0.00    -0.246 OA
BRANCH   7   9
ATOM      9  C   UNL A   1      32.321  28.799  24.440  1.00  0.00     0.083 A 
ATOM     10  C   UNL A   1      31.464  28.342  23.415  1.00  0.00     0.056 A 
ATOM     11  C   UNL A   1      32.051  27.947  22.195  1.00  0.00     0.027 A 
ATOM     12  C   UNL A   1      33.423  28.075  21.960  1.00  0.00     0.002 A 
ATOM     13  C   UNL A   1      33.705  28.924  24.186  1.00  0.00     0.018 A 
ATOM     14  C   UNL A   1      34.250  28.576  22.954  1.00  0.00     0.001 A 
BRANCH  10  15
ATOM     15  N   UNL A   1      30.054  28.217  23.428  1.00  0.00    -0.321 N 
ATOM     16  O   UNL A   1      27.999  27.290  23.393  1.00  0.00    -0.269 OA
ATOM     17  C   UNL A   1      29.194  27.166  23.657  1.00  0.00     0.255 C 
ATOM     18  H   UNL A   1      29.588  29.063  23.233  1.00  0.00     0.170 HD
BRANCH  17  19
ATOM     19  C   UNL A   1      29.669  25.897  24.245  1.00  0.00     0.040 A 
ATOM     20  C   UNL A   1      29.660  25.663  25.624  1.00  0.00     0.016 A 
ATOM     21  C   UNL A   1      30.275  24.986  23.381  1.00  0.00     0.016 A 
ATOM     22  C   UNL A   1      30.460  24.646  26.154  1.00  0.00     0.027 A 
ATOM     23  C   UNL A   1      31.095  23.996  23.914  1.00  0.00     0.027 A 
ATOM     24  C   UNL A   1      31.264  23.886  25.300  1.00  0.00     0.052 A 
BRANCH  24  25
ATOM     25  N   UNL A   1      32.303  23.077  25.798  1.00  0.00    -0.250 N 
ATOM     26  C   UNL A   1      32.307  21.710  25.745  1.00  0.00     0.238 C 
ATOM     27  C   UNL A   1      33.432  23.584  26.397  1.00  0.00     0.238 C 
ATOM     28  O   UNL A   1      31.395  20.962  25.420  1.00  0.00    -0.274 OA
ATOM     29  C   UNL A   1      33.712  21.238  26.033  1.00  0.00     0.096 C 
ATOM     30  C   UNL A   1      34.377  22.447  26.701  1.00  0.00     0.096 C 
ATOM     31  O   UNL A   1      33.688  24.748  26.685  1.00  0.00    -0.274 OA
ATOM     32  C   UNL A   1      34.359  20.802  24.707  1.00  0.00     0.041 C 
ATOM     33  C   UNL A   1      35.750  22.832  26.143  1.00  0.00     0.041 C 
ATOM     34  C   UNL A   1      35.029  21.929  23.970  1.00  0.00    -0.030 C 
ATOM     35  C   UNL A   1      35.707  22.870  24.641  1.00  0.00    -0.030 C 
ENDBRANCH  24  25
ENDBRANCH  17  19
ENDBRANCH  10  15
ENDBRANCH   7   9
ENDBRANCH   6   7
ENDBRANCH   5   6
ENDBRANCH   4   5
ENDBRANCH   3   4
ENDBRANCH   2   3
ENDBRANCH   1   2
BRANCH   1  36
ATOM     36  O   UNL A   1      34.463  34.987  27.921  1.00  0.00    -0.377 OA
BRANCH  36  37
ATOM     37  C   UNL A   1      33.790  35.737  28.918  1.00  0.00     0.188 C 
BRANCH  37  38
ATOM     38  C   UNL A   1      33.590  34.966  30.240  1.00  0.00     0.188 C 
BRANCH  38  39
ATOM     39  O   UNL A   1      34.301  35.328  31.412  1.00  0.00    -0.376 OA
BRANCH  39  40
ATOM     40  C   UNL A   1      34.022  34.739  32.669  1.00  0.00     0.202 C 
BRANCH  40  41
ATOM     41  C   UNL A   1      33.983  33.218  32.925  1.00  0.00     0.261 C 
BRANCH  41  42
ATOM     42  O   UNL A   1      35.008  32.403  32.354  1.00  0.00    -0.460 OA
BRANCH  42  43
ATOM     43  C   UNL A   1      36.126  32.248  33.090  1.00  0.00     0.338 C 
ATOM     44  O   UNL A   1      36.306  32.575  34.252  1.00  0.00    -0.246 OA
BRANCH  43  45
ATOM     45  C   UNL A   1      37.081  31.454  32.292  1.00  0.00     0.060 A 
ATOM     46  C   UNL A   1      37.948  30.568  32.948  1.00  0.00     0.016 A 
ATOM     47  C   UNL A   1      37.129  31.596  30.905  1.00  0.00     0.016 A 
ATOM     48  C   UNL A   1      38.886  29.840  32.223  1.00  0.00     0.010 A 
ATOM     49  C   UNL A   1      38.099  30.900  30.183  1.00  0.00     0.010 A 
ATOM     50  C   UNL A   1      39.003  30.050  30.846  1.00  0.00    -0.014 A 
BRANCH  50  51
ATOM     51  C   UNL A   1      40.221  29.584  30.149  1.00  0.00     0.031 A 
ATOM     52  C   UNL A   1      41.338  30.571  29.956  1.00  0.00     0.074 A 
ATOM     53  C   UNL A   1      40.342  28.318  29.718  1.00  0.00     0.049 A 
ATOM     54  N   UNL A   1      42.466  30.438  29.307  1.00  0.00    -0.248 NA
ATOM     55  C   UNL A   1      41.154  31.896  30.574  1.00  0.00     0.031 C 
ATOM     56  C   UNL A   1      39.349  27.261  29.903  1.00  0.00     0.029 A 
ATOM     57  N   UNL A   1      41.355  27.712  29.019  1.00  0.00    -0.354 N 
ATOM     58  C   UNL A   1      43.109  31.664  29.420  1.00  0.00     0.074 A 
ATOM     59  C   UNL A   1      42.245  32.535  30.183  1.00  0.00     0.031 C 
ATOM     60  C   UNL A   1      39.794  26.140  29.310  1.00  0.00     0.029 A 
ATOM     61  C   UNL A   1      41.081  26.412  28.672  1.00  0.00     0.049 A 
ATOM     62  H   UNL A   1      42.198  28.166  28.789  1.00  0.00     0.167 HD
ATOM     63  C   UNL A   1      44.314  32.026  28.924  1.00  0.00     0.037 A 
ATOM     64  C   UNL A   1      41.781  25.560  27.898  1.00  0.00     0.037 A 
ATOM     65  C   UNL A   1      45.173  31.146  28.179  1.00  0.00     0.049 A 
ATOM     66  C   UNL A   1      43.089  26.018  27.299  1.00  0.00     0.074 A 
ATOM     67  C   UNL A   1      46.435  31.402  27.670  1.00  0.00     0.029 A 
ATOM     68  N   UNL A   1      44.854  29.844  27.827  1.00  0.00    -0.354 N 
ATOM     69  N   UNL A   1      43.713  27.164  27.438  1.00  0.00    -0.248 NA
ATOM     70  C   UNL A   1      43.793  25.060  26.434  1.00  0.00     0.031 C 
ATOM     71  C   UNL A   1      46.846  30.280  26.948  1.00  0.00     0.029 A 
ATOM     72  C   UNL A   1      45.877  29.297  27.071  1.00  0.00     0.049 A 
ATOM     73  H   UNL A   1      44.023  29.378  28.075  1.00  0.00     0.167 HD
ATOM     74  C   UNL A   1      44.896  27.047  26.716  1.00  0.00     0.074 A 
ATOM     75  C   UNL A   1      44.909  25.716  26.151  1.00  0.00     0.031 C 
ATOM     76  C   UNL A   1      45.883  27.960  26.535  1.00  0.00     0.037 A 
BRANCH  63  77
ATOM     77  C   UNL A   1      44.762  33.443  29.130  1.00  0.00     0.064 A 
ATOM     78  C   UNL A   1      44.391  34.477  28.259  1.00  0.00     0.173 A 
ATOM     79  C   UNL A   1      45.530  33.777  30.257  1.00  0.00     0.173 A 
ATOM     80  F   UNL A   1      43.672  34.209  27.159  1.00  0.00    -0.203 F 
ATOM     81  C   UNL A   1      44.782  35.791  28.503  1.00  0.00     0.198 A 
ATOM     82  C   UNL A   1      45.891  35.095  30.515  1.00  0.00     0.198 A 
ATOM     83  F   UNL A   1      45.913  32.824  31.121  1.00  0.00    -0.203 F 
ATOM     84  F   UNL A   1      44.446  36.760  27.639  1.00  0.00    -0.200 F 
ATOM     85  C   UNL A   1      45.521  36.101  29.636  1.00  0.00     0.200 A 
ATOM     86  F   UNL A   1      46.592  35.393  31.617  1.00  0.00    -0.200 F 
ATOM     87  F   UNL A   1      45.879  37.370  29.879  1.00  0.00    -0.200 F 
ENDBRANCH  63  77
BRANCH  64  88
ATOM     88  C   UNL A   1      41.256  24.198  27.607  1.00  0.00     0.064 A 
ATOM     89  C   UNL A   1      41.846  23.059  28.174  1.00  0.00     0.173 A 
ATOM     90  C   UNL A   1      40.200  24.001  26.704  1.00  0.00     0.173 A 
ATOM     91  F   UNL A   1      42.878  23.191  29.022  1.00  0.00    -0.203 F 
ATOM     92  C   UNL A   1      41.427  21.778  27.822  1.00  0.00     0.198 A 
ATOM     93  C   UNL A   1      39.757  22.720  26.380  1.00  0.00     0.198 A 
ATOM     94  F   UNL A   1      39.603  25.053  26.126  1.00  0.00    -0.203 F 
ATOM     95  F   UNL A   1      42.060  20.708  28.321  1.00  0.00    -0.200 F 
ATOM     96  C   UNL A   1      40.380  21.610  26.928  1.00  0.00     0.200 A 
ATOM     97  F   UNL A   1      38.741  22.561  25.522  1.00  0.00    -0.200 F 
ATOM     98  F   UNL A   1      39.988  20.377  26.578  1.00  0.00    -0.200 F 
ENDBRANCH  64  88
BRANCH  76  99
ATOM     99  C   UNL A   1      47.089  27.533  25.747  1.00  0.00     0.064 A 
ATOM    100  C   UNL A   1      48.175  26.878  26.346  1.00  0.00     0.173 A 
ATOM    101  C   UNL A   1      47.136  27.745  24.359  1.00  0.00     0.173 A 
ATOM    102  F   UNL A   1      48.186  26.661  27.670  1.00  0.00    -0.203 F 
ATOM    103  C   UNL A   1      49.275  26.479  25.591  1.00  0.00     0.198 A 
ATOM    104  C   UNL A   1      48.220  27.310  23.602  1.00  0.00     0.198 A 
ATOM    105  F   UNL A   1      46.118  28.356  23.733  1.00  0.00    -0.203 F 
ATOM    106  F   UNL A   1      50.326  25.906  26.193  1.00  0.00    -0.200 F 
ATOM    107  C   UNL A   1      49.293  26.687  24.219  1.00  0.00     0.200 A 
ATOM    108  F   UNL A   1      48.224  27.493  22.275  1.00  0.00    -0.200 F 
ATOM    109  F   UNL A   1      50.348  26.292  23.494  1.00  0.00    -0.200 F 
ENDBRANCH  76  99
ENDBRANCH  50  51
ENDBRANCH  43  45
ENDBRANCH  42  43
ENDBRANCH  41  42
ENDBRANCH  40  41
ENDBRANCH  39  40
ENDBRANCH  38  39
ENDBRANCH  37  38
ENDBRANCH  36  37
ENDBRANCH   1  36
TORSDOF 23
ENDMDL
MODEL 2
REMARK VINA RESULT:     -11.0      3.506      8.708
REMARK SMILES O=C(Nc1ccccc1C(=O)OCCOCCOCCOCCOC(=O)c1ccc(-c2c3nc(c(-c4c(F)c(F)c(F)c(F)c4F)c4ccc([nH]4)c(-c4c(F)c(F)c(F)c(F)c4F)c4nc(c(-c5c(F)c(F)c(F)c(F)c5F)c5ccc2[nH]5)C=C4)C=C3)cc1)c1ccc(N2C(=O)[C@H]3CC=CC[C@H]3C2=O)cc1
REMARK SMILES IDX 17 1 16 2 15 3 14 4 13 5 12 6 10 7 11 8 9 9 4 10 5 11 6 12
REMARK SMILES IDX 8 13 7 14 3 15 1 16 2 17 90 19 91 20 106 21 92 22 105 23
REMARK SMILES IDX 93 24 94 25 95 26 103 27 96 28 97 29 102 30 104 31 98 32
REMARK SMILES IDX 101 33 99 34 100 35 18 36 19 37 20 38 21 39 22 40 23 41
REMARK SMILES IDX 24 42 25 43 26 44 27 45 28 46 89 47 29 48 88 49 30 50 31 51
REMARK SMILES IDX 32 52 82 53 33 54 87 55 81 56 83 57 34 58 86 59 80 60 79 61
REMARK SMILES IDX 35 63 67 64 47 65 66 66 48 67 51 68 65 69 84 70 49 71 50 72
REMARK SMILES IDX 64 74 85 75 52 76 36 77 37 78 45 79 38 80 39 81 43 82 46 83
REMARK SMILES IDX 40 84 41 85 44 86 42 87 68 88 69 89 77 90 70 91 71 92 75 93
REMARK SMILES IDX 78 94 72 95 73 96 76 97 74 98 53 99 54 100 62 101 55 102
REMARK SMILES IDX 56 103 60 104 63 105 57 106 58 107 61 108 59 109
REMARK H PARENT 3 18 83 62 51 73
REMARK Flexibility Score: inf
ROOT
ATOM      1  C   UNL A   1      37.137  22.021  24.233  1.00  0.00     0.188 C 
ENDROOT
BRANCH   1   2
ATOM      2  C   UNL A   1      36.756  23.381  23.600  1.00  0.00     0.188 C 
BRANCH   2   3
ATOM      3  O   UNL A   1      35.612  23.335  22.772  1.00  0.00    -0.376 OA
BRANCH   3   4
ATOM      4  C   UNL A   1      34.442  24.042  23.111  1.00  0.00     0.202 C 
BRANCH   4   5
ATOM      5  C   UNL A   1      34.368  25.538  22.828  1.00  0.00     0.261 C 
BRANCH   5   6
ATOM      6  O   UNL A   1      34.016  26.418  23.901  1.00  0.00    -0.460 OA
BRANCH   6   7
ATOM      7  C   UNL A   1      33.979  27.742  23.637  1.00  0.00     0.340 C 
ATOM      8  O   UNL A   1      34.278  28.273  22.580  1.00  0.00    -0.246 OA
BRANCH   7   9
ATOM      9  C   UNL A   1      33.323  28.480  24.754  1.00  0.00     0.083 A 
ATOM     10  C   UNL A   1      32.196  29.326  24.670  1.00  0.00     0.056 A 
ATOM     11  C   UNL A   1      31.877  30.109  25.798  1.00  0.00     0.027 A 
ATOM     12  C   UNL A   1      32.590  30.003  26.996  1.00  0.00     0.002 A 
ATOM     13  C   UNL A   1      34.033  28.382  25.972  1.00  0.00     0.018 A 
ATOM     14  C   UNL A   1      33.663  29.129  27.086  1.00  0.00     0.001 A 
BRANCH  10  15
ATOM     15  N   UNL A   1      31.306  29.512  23.585  1.00  0.00    -0.321 N 
ATOM     16  O   UNL A   1      29.997  29.062  21.805  1.00  0.00    -0.269 OA
ATOM     17  C   UNL A   1      30.520  28.659  22.843  1.00  0.00     0.255 C 
ATOM     18  H   UNL A   1      31.232  30.452  23.301  1.00  0.00     0.170 HD
BRANCH  17  19
ATOM     19  C   UNL A   1      30.261  27.273  23.282  1.00  0.00     0.040 A 
ATOM     20  C   UNL A   1      29.636  26.979  24.497  1.00  0.00     0.016 A 
ATOM     21  C   UNL A   1      30.804  26.250  22.504  1.00  0.00     0.016 A 
ATOM     22  C   UNL A   1      29.764  25.698  25.045  1.00  0.00     0.027 A 
ATOM     23  C   UNL A   1      30.957  24.986  23.066  1.00  0.00     0.027 A 
ATOM     24  C   UNL A   1      30.524  24.735  24.375  1.00  0.00     0.052 A 
BRANCH  24  25
ATOM     25  N   UNL A   1      30.940  23.552  25.015  1.00  0.00    -0.250 N 
ATOM     26  C   UNL A   1      31.466  22.469  24.366  1.00  0.00     0.238 C 
ATOM     27  C   UNL A   1      30.856  23.362  26.375  1.00  0.00     0.238 C 
ATOM     28  O   UNL A   1      31.528  22.265  23.161  1.00  0.00    -0.274 OA
ATOM     29  C   UNL A   1      32.113  21.578  25.398  1.00  0.00     0.096 C 
ATOM     30  C   UNL A   1      31.494  22.040  26.723  1.00  0.00     0.096 C 
ATOM     31  O   UNL A   1      30.347  24.091  27.219  1.00  0.00    -0.274 OA
ATOM     32  C   UNL A   1      33.638  21.757  25.308  1.00  0.00     0.041 C 
ATOM     33  C   UNL A   1      32.490  22.296  27.858  1.00  0.00     0.041 C 
ATOM     34  C   UNL A   1      34.159  22.889  26.149  1.00  0.00    -0.030 C 
ATOM     35  C   UNL A   1      33.639  23.128  27.361  1.00  0.00    -0.030 C 
ENDBRANCH  24  25
ENDBRANCH  17  19
ENDBRANCH  10  15
ENDBRANCH   7   9
ENDBRANCH   6   7
ENDBRANCH   5   6
ENDBRANCH   4   5
ENDBRANCH   3   4
ENDBRANCH   2   3
ENDBRANCH   1   2
BRANCH   1  36
ATOM     36  O   UNL A   1      37.705  21.981  25.536  1.00  0.00    -0.377 OA
BRANCH  36  37
ATOM     37  C   UNL A   1      38.928  21.279  25.677  1.00  0.00     0.188 C 
BRANCH  37  38
ATOM     38  C   UNL A   1      40.019  22.083  26.416  1.00  0.00     0.188 C 
BRANCH  38  39
ATOM     39  O   UNL A   1      41.329  21.562  26.576  1.00  0.00    -0.376 OA
BRANCH  39  40
ATOM     40  C   UNL A   1      41.559  20.256  27.074  1.00  0.00     0.202 C 
BRANCH  40  41
ATOM     41  C   UNL A   1      42.249  19.132  26.275  1.00  0.00     0.261 C 
BRANCH  41  42
ATOM     42  O   UNL A   1      42.724  19.422  24.959  1.00  0.00    -0.460 OA
BRANCH  42  43
ATOM     43  C   UNL A   1      44.061  19.461  24.802  1.00  0.00     0.338 C 
ATOM     44  O   UNL A   1      44.797  18.558  24.435  1.00  0.00    -0.246 OA
BRANCH  43  45
ATOM     45  C   UNL A   1      44.495  20.858  25.002  1.00  0.00     0.060 A 
ATOM     46  C   UNL A   1      45.220  21.190  26.156  1.00  0.00     0.016 A 
ATOM     47  C   UNL A   1      44.173  21.836  24.061  1.00  0.00     0.016 A 
ATOM     48  C   UNL A   1      45.603  22.507  26.387  1.00  0.00     0.010 A 
ATOM     49  C   UNL A   1      44.519  23.164  24.315  1.00  0.00     0.010 A 
ATOM     50  C   UNL A   1      45.201  23.506  25.497  1.00  0.00    -0.014 A 
BRANCH  50  51
ATOM     51  C   UNL A   1      45.268  24.920  25.925  1.00  0.00     0.031 A 
ATOM     52  C   UNL A   1      46.602  25.610  25.848  1.00  0.00     0.074 A 
ATOM     53  C   UNL A   1      44.178  25.577  26.350  1.00  0.00     0.049 A 
ATOM     54  N   UNL A   1      46.943  26.810  26.240  1.00  0.00    -0.248 NA
ATOM     55  C   UNL A   1      47.706  24.837  25.252  1.00  0.00     0.031 C 
ATOM     56  C   UNL A   1      42.826  25.027  26.410  1.00  0.00     0.029 A 
ATOM     57  N   UNL A   1      44.044  26.856  26.829  1.00  0.00    -0.354 N 
ATOM     58  C   UNL A   1      48.299  26.924  25.962  1.00  0.00     0.074 A 
ATOM     59  C   UNL A   1      48.725  25.671  25.382  1.00  0.00     0.031 C 
ATOM     60  C   UNL A   1      42.001  25.958  26.921  1.00  0.00     0.029 A 
ATOM     61  C   UNL A   1      42.774  27.151  27.259  1.00  0.00     0.049 A 
ATOM     62  H   UNL A   1      44.788  27.501  26.860  1.00  0.00     0.167 HD
ATOM     63  C   UNL A   1      49.112  27.983  26.176  1.00  0.00     0.037 A 
ATOM     64  C   UNL A   1      42.309  28.250  27.884  1.00  0.00     0.037 A 
ATOM     65  C   UNL A   1      48.675  29.231  26.739  1.00  0.00     0.049 A 
ATOM     66  C   UNL A   1      43.258  29.388  28.174  1.00  0.00     0.074 A 
ATOM     67  C   UNL A   1      49.411  30.382  26.957  1.00  0.00     0.029 A 
ATOM     68  N   UNL A   1      47.386  29.486  27.184  1.00  0.00    -0.354 N 
ATOM     69  N   UNL A   1      44.530  29.508  27.876  1.00  0.00    -0.248 NA
ATOM     70  C   UNL A   1      42.705  30.547  28.890  1.00  0.00     0.031 C 
ATOM     71  C   UNL A   1      48.586  31.308  27.601  1.00  0.00     0.029 A 
ATOM     72  C   UNL A   1      47.317  30.764  27.714  1.00  0.00     0.049 A 
ATOM     73  H   UNL A   1      46.634  28.854  27.132  1.00  0.00     0.167 HD
ATOM     74  C   UNL A   1      44.914  30.765  28.327  1.00  0.00     0.074 A 
ATOM     75  C   UNL A   1      43.739  31.375  28.908  1.00  0.00     0.031 C 
ATOM     76  C   UNL A   1      46.131  31.363  28.268  1.00  0.00     0.037 A 
BRANCH  63  77
ATOM     77  C   UNL A   1      50.568  27.830  25.844  1.00  0.00     0.064 A 
ATOM     78  C   UNL A   1      51.533  27.561  26.824  1.00  0.00     0.173 A 
ATOM     79  C   UNL A   1      50.990  27.897  24.506  1.00  0.00     0.173 A 
ATOM     80  F   UNL A   1      51.184  27.503  28.118  1.00  0.00    -0.203 F 
ATOM     81  C   UNL A   1      52.869  27.375  26.479  1.00  0.00     0.198 A 
ATOM     82  C   UNL A   1      52.320  27.680  24.162  1.00  0.00     0.198 A 
ATOM     83  F   UNL A   1      50.106  28.153  23.530  1.00  0.00    -0.203 F 
ATOM     84  F   UNL A   1      53.782  27.154  27.435  1.00  0.00    -0.200 F 
ATOM     85  C   UNL A   1      53.260  27.424  25.148  1.00  0.00     0.200 A 
ATOM     86  F   UNL A   1      52.691  27.712  22.875  1.00  0.00    -0.200 F 
ATOM     87  F   UNL A   1      54.543  27.225  24.817  1.00  0.00    -0.200 F 
ENDBRANCH  63  77
BRANCH  64  88
ATOM     88  C   UNL A   1      40.886  28.329  28.315  1.00  0.00     0.064 A 
ATOM     89  C   UNL A   1      39.916  28.930  27.499  1.00  0.00     0.173 A 
ATOM     90  C   UNL A   1      40.480  27.869  29.576  1.00  0.00     0.173 A 
ATOM     91  F   UNL A   1      40.258  29.413  26.296  1.00  0.00    -0.203 F 
ATOM     92  C   UNL A   1      38.606  29.102  27.943  1.00  0.00     0.198 A 
ATOM     93  C   UNL A   1      39.161  28.007  30.005  1.00  0.00     0.198 A 
ATOM     94  F   UNL A   1      41.367  27.292  30.400  1.00  0.00    -0.203 F 
ATOM     95  F   UNL A   1      37.720  29.748  27.174  1.00  0.00    -0.200 F 
ATOM     96  C   UNL A   1      38.229  28.637  29.194  1.00  0.00     0.200 A 
ATOM     97  F   UNL A   1      38.798  27.551  31.211  1.00  0.00    -0.200 F 
ATOM     98  F   UNL A   1      36.973  28.815  29.626  1.00  0.00    -0.200 F 
ENDBRANCH  64  88
BRANCH  76  99
ATOM     99  C   UNL A   1      46.241  32.769  28.788  1.00  0.00     0.064 A 
ATOM    100  C   UNL A   1      45.998  33.884  27.972  1.00  0.00     0.173 A 
ATOM    101  C   UNL A   1      46.551  33.000  30.138  1.00  0.00     0.173 A 
ATOM    102  F   UNL A   1      45.708  33.720  26.673  1.00  0.00    -0.203 F 
ATOM    103  C   UNL A   1      46.092  35.177  28.480  1.00  0.00     0.198 A 
ATOM    104  C   UNL A   1      46.606  34.292  30.651  1.00  0.00     0.198 A 
ATOM    105  F   UNL A   1      46.781  31.969  30.965  1.00  0.00    -0.203 F 
ATOM    106  F   UNL A   1      45.911  36.228  27.670  1.00  0.00    -0.200 F 
ATOM    107  C   UNL A   1      46.387  35.380  29.821  1.00  0.00     0.200 A 
ATOM    108  F   UNL A   1      46.871  34.484  31.951  1.00  0.00    -0.200 F 
ATOM    109  F   UNL A   1      46.466  36.625  30.310  1.00  0.00    -0.200 F 
ENDBRANCH  76  99
ENDBRANCH  50  51
ENDBRANCH  43  45
ENDBRANCH  42  43
ENDBRANCH  41  42
ENDBRANCH  40  41
ENDBRANCH  39  40
ENDBRANCH  38  39
ENDBRANCH  37  38
ENDBRANCH  36  37
ENDBRANCH   1  36
TORSDOF 23
ENDMDL
MODEL 3
REMARK VINA RESULT:     -10.5      3.522      9.319
REMARK SMILES O=C(Nc1ccccc1C(=O)OCCOCCOCCOCCOC(=O)c1ccc(-c2c3nc(c(-c4c(F)c(F)c(F)c(F)c4F)c4ccc([nH]4)c(-c4c(F)c(F)c(F)c(F)c4F)c4nc(c(-c5c(F)c(F)c(F)c(F)c5F)c5ccc2[nH]5)C=C4)C=C3)cc1)c1ccc(N2C(=O)[C@H]3CC=CC[C@H]3C2=O)cc1
REMARK SMILES IDX 17 1 16 2 15 3 14 4 13 5 12 6 10 7 11 8 9 9 4 10 5 11 6 12
REMARK SMILES IDX 8 13 7 14 3 15 1 16 2 17 90 19 91 20 106 21 92 22 105 23
REMARK SMILES IDX 93 24 94 25 95 26 103 27 96 28 97 29 102 30 104 31 98 32
REMARK SMILES IDX 101 33 99 34 100 35 18 36 19 37 20 38 21 39 22 40 23 41
REMARK SMILES IDX 24 42 25 43 26 44 27 45 28 46 89 47 29 48 88 49 30 50 31 51
REMARK SMILES IDX 32 52 82 53 33 54 87 55 81 56 83 57 34 58 86 59 80 60 79 61
REMARK SMILES IDX 35 63 67 64 47 65 66 66 48 67 51 68 65 69 84 70 49 71 50 72
REMARK SMILES IDX 64 74 85 75 52 76 36 77 37 78 45 79 38 80 39 81 43 82 46 83
REMARK SMILES IDX 40 84 41 85 44 86 42 87 68 88 69 89 77 90 70 91 71 92 75 93
REMARK SMILES IDX 78 94 72 95 73 96 76 97 74 98 53 99 54 100 62 101 55 102
REMARK SMILES IDX 56 103 60 104 63 105 57 106 58 107 61 108 59 109
REMARK H PARENT 3 18 83 62 51 73
REMARK Flexibility Score: inf
ROOT
ATOM      1  C   UNL A   1      37.128  21.917  23.844  1.00  0.00     0.188 C 
ENDROOT
BRANCH   1   2
ATOM      2  C   UNL A   1      36.610  23.376  23.854  1.00  0.00     0.188 C 
BRANCH   2   3
ATOM      3  O   UNL A   1      35.725  23.684  22.797  1.00  0.00    -0.376 OA
BRANCH   3   4
ATOM      4  C   UNL A   1      34.449  24.222  23.053  1.00  0.00     0.202 C 
BRANCH   4   5
ATOM      5  C   UNL A   1      34.204  25.706  22.809  1.00  0.00     0.261 C 
BRANCH   5   6
ATOM      6  O   UNL A   1      34.078  26.572  23.942  1.00  0.00    -0.460 OA
BRANCH   6   7
ATOM      7  C   UNL A   1      34.009  27.900  23.710  1.00  0.00     0.340 C 
ATOM      8  O   UNL A   1      34.314  28.466  22.672  1.00  0.00    -0.246 OA
BRANCH   7   9
ATOM      9  C   UNL A   1      33.309  28.591  24.829  1.00  0.00     0.083 A 
ATOM     10  C   UNL A   1      32.165  29.415  24.741  1.00  0.00     0.056 A 
ATOM     11  C   UNL A   1      31.801  30.158  25.882  1.00  0.00     0.027 A 
ATOM     12  C   UNL A   1      32.486  30.033  27.094  1.00  0.00     0.002 A 
ATOM     13  C   UNL A   1      33.990  28.474  26.061  1.00  0.00     0.018 A 
ATOM     14  C   UNL A   1      33.575  29.181  27.187  1.00  0.00     0.001 A 
BRANCH  10  15
ATOM     15  N   UNL A   1      31.298  29.612  23.639  1.00  0.00    -0.321 N 
ATOM     16  O   UNL A   1      30.029  29.182  21.825  1.00  0.00    -0.269 OA
ATOM     17  C   UNL A   1      30.530  28.767  22.870  1.00  0.00     0.255 C 
ATOM     18  H   UNL A   1      31.230  30.556  23.364  1.00  0.00     0.170 HD
BRANCH  17  19
ATOM     19  C   UNL A   1      30.264  27.375  23.287  1.00  0.00     0.040 A 
ATOM     20  C   UNL A   1      29.624  27.066  24.491  1.00  0.00     0.016 A 
ATOM     21  C   UNL A   1      30.814  26.362  22.501  1.00  0.00     0.016 A 
ATOM     22  C   UNL A   1      29.744  25.778  25.023  1.00  0.00     0.027 A 
ATOM     23  C   UNL A   1      30.958  25.091  23.048  1.00  0.00     0.027 A 
ATOM     24  C   UNL A   1      30.510  24.822  24.348  1.00  0.00     0.052 A 
BRANCH  24  25
ATOM     25  N   UNL A   1      30.917  23.630  24.977  1.00  0.00    -0.250 N 
ATOM     26  C   UNL A   1      31.445  22.554  24.319  1.00  0.00     0.238 C 
ATOM     27  C   UNL A   1      30.820  23.423  26.333  1.00  0.00     0.238 C 
ATOM     28  O   UNL A   1      31.518  22.365  23.112  1.00  0.00    -0.274 OA
ATOM     29  C   UNL A   1      32.080  21.648  25.345  1.00  0.00     0.096 C 
ATOM     30  C   UNL A   1      31.451  22.094  26.670  1.00  0.00     0.096 C 
ATOM     31  O   UNL A   1      30.305  24.142  27.182  1.00  0.00    -0.274 OA
ATOM     32  C   UNL A   1      33.607  21.823  25.271  1.00  0.00     0.041 C 
ATOM     33  C   UNL A   1      32.437  22.334  27.817  1.00  0.00     0.041 C 
ATOM     34  C   UNL A   1      34.123  22.943  26.132  1.00  0.00    -0.030 C 
ATOM     35  C   UNL A   1      33.592  23.168  27.341  1.00  0.00    -0.030 C 
ENDBRANCH  24  25
ENDBRANCH  17  19
ENDBRANCH  10  15
ENDBRANCH   7   9
ENDBRANCH   6   7
ENDBRANCH   5   6
ENDBRANCH   4   5
ENDBRANCH   3   4
ENDBRANCH   2   3
ENDBRANCH   1   2
BRANCH   1  36
ATOM     36  O   UNL A   1      37.278  21.211  25.069  1.00  0.00    -0.377 OA
BRANCH  36  37
ATOM     37  C   UNL A   1      38.071  20.036  25.035  1.00  0.00     0.188 C 
BRANCH  37  38
ATOM     38  C   UNL A   1      39.462  20.213  25.679  1.00  0.00     0.188 C 
BRANCH  38  39
ATOM     39  O   UNL A   1      40.431  19.179  25.621  1.00  0.00    -0.376 OA
BRANCH  39  40
ATOM     40  C   UNL A   1      41.721  19.329  26.185  1.00  0.00     0.202 C 
BRANCH  40  41
ATOM     41  C   UNL A   1      43.010  18.743  25.571  1.00  0.00     0.261 C 
BRANCH  41  42
ATOM     42  O   UNL A   1      43.500  19.301  24.350  1.00  0.00    -0.460 OA
BRANCH  42  43
ATOM     43  C   UNL A   1      44.747  19.808  24.385  1.00  0.00     0.338 C 
ATOM     44  O   UNL A   1      45.767  19.315  23.929  1.00  0.00    -0.246 OA
BRANCH  43  45
ATOM     45  C   UNL A   1      44.661  21.172  24.944  1.00  0.00     0.060 A 
ATOM     46  C   UNL A   1      44.586  22.266  24.070  1.00  0.00     0.016 A 
ATOM     47  C   UNL A   1      44.672  21.369  26.326  1.00  0.00     0.016 A 
ATOM     48  C   UNL A   1      44.547  23.563  24.571  1.00  0.00     0.010 A 
ATOM     49  C   UNL A   1      44.679  22.670  26.828  1.00  0.00     0.010 A 
ATOM     50  C   UNL A   1      44.655  23.769  25.950  1.00  0.00    -0.014 A 
BRANCH  50  51
ATOM     51  C   UNL A   1      44.996  25.118  26.449  1.00  0.00     0.031 A 
ATOM     52  C   UNL A   1      43.887  25.950  27.030  1.00  0.00     0.074 A 
ATOM     53  C   UNL A   1      46.255  25.585  26.407  1.00  0.00     0.049 A 
ATOM     54  N   UNL A   1      43.908  27.187  27.454  1.00  0.00    -0.248 NA
ATOM     55  C   UNL A   1      42.570  25.299  27.142  1.00  0.00     0.031 C 
ATOM     56  C   UNL A   1      47.417  24.844  25.920  1.00  0.00     0.029 A 
ATOM     57  N   UNL A   1      46.760  26.808  26.769  1.00  0.00    -0.354 N 
ATOM     58  C   UNL A   1      42.608  27.466  27.858  1.00  0.00     0.074 A 
ATOM     59  C   UNL A   1      41.819  26.280  27.616  1.00  0.00     0.031 C 
ATOM     60  C   UNL A   1      48.499  25.639  25.994  1.00  0.00     0.029 A 
ATOM     61  C   UNL A   1      48.097  26.953  26.494  1.00  0.00     0.049 A 
ATOM     62  H   UNL A   1      46.215  27.513  27.187  1.00  0.00     0.167 HD
ATOM     63  C   UNL A   1      42.121  28.614  28.380  1.00  0.00     0.037 A 
ATOM     64  C   UNL A   1      48.888  28.038  26.604  1.00  0.00     0.037 A 
ATOM     65  C   UNL A   1      42.918  29.784  28.631  1.00  0.00     0.049 A 
ATOM     66  C   UNL A   1      48.297  29.326  27.124  1.00  0.00     0.074 A 
ATOM     67  C   UNL A   1      42.530  30.984  29.199  1.00  0.00     0.029 A 
ATOM     68  N   UNL A   1      44.264  29.903  28.319  1.00  0.00    -0.354 N 
ATOM     69  N   UNL A   1      47.079  29.576  27.540  1.00  0.00    -0.248 NA
ATOM     70  C   UNL A   1      49.197  30.488  27.190  1.00  0.00     0.031 C 
ATOM     71  C   UNL A   1      43.622  31.855  29.163  1.00  0.00     0.029 A 
ATOM     72  C   UNL A   1      44.711  31.172  28.645  1.00  0.00     0.049 A 
ATOM     73  H   UNL A   1      44.817  29.192  27.923  1.00  0.00     0.167 HD
ATOM     74  C   UNL A   1      47.078  30.904  27.954  1.00  0.00     0.074 A 
ATOM     75  C   UNL A   1      48.420  31.403  27.752  1.00  0.00     0.031 C 
ATOM     76  C   UNL A   1      46.059  31.645  28.457  1.00  0.00     0.037 A 
BRANCH  63  77
ATOM     77  C   UNL A   1      40.652  28.684  28.677  1.00  0.00     0.064 A 
ATOM     78  C   UNL A   1      40.129  28.370  29.940  1.00  0.00     0.173 A 
ATOM     79  C   UNL A   1      39.760  29.133  27.690  1.00  0.00     0.173 A 
ATOM     80  F   UNL A   1      40.937  27.920  30.912  1.00  0.00    -0.203 F 
ATOM     81  C   UNL A   1      38.767  28.491  30.200  1.00  0.00     0.198 A 
ATOM     82  C   UNL A   1      38.404  29.284  27.963  1.00  0.00     0.198 A 
ATOM     83  F   UNL A   1      40.208  29.446  26.464  1.00  0.00    -0.203 F 
ATOM     84  F   UNL A   1      38.283  28.152  31.403  1.00  0.00    -0.200 F 
ATOM     85  C   UNL A   1      37.907  28.959  29.216  1.00  0.00     0.200 A 
ATOM     86  F   UNL A   1      37.579  29.750  27.016  1.00  0.00    -0.200 F 
ATOM     87  F   UNL A   1      36.599  29.094  29.475  1.00  0.00    -0.200 F 
ENDBRANCH  63  77
BRANCH  64  88
ATOM     88  C   UNL A   1      50.315  27.978  26.187  1.00  0.00     0.064 A 
ATOM     89  C   UNL A   1      50.675  28.000  24.832  1.00  0.00     0.173 A 
ATOM     90  C   UNL A   1      51.344  27.829  27.129  1.00  0.00     0.173 A 
ATOM     91  F   UNL A   1      49.726  28.113  23.889  1.00  0.00    -0.203 F 
ATOM     92  C   UNL A   1      52.000  27.837  24.434  1.00  0.00     0.198 A 
ATOM     93  C   UNL A   1      52.674  27.703  26.732  1.00  0.00     0.198 A 
ATOM     94  F   UNL A   1      51.058  27.794  28.439  1.00  0.00    -0.203 F 
ATOM     95  F   UNL A   1      52.304  27.786  23.130  1.00  0.00    -0.200 F 
ATOM     96  C   UNL A   1      52.999  27.693  25.385  1.00  0.00     0.200 A 
ATOM     97  F   UNL A   1      53.637  27.570  27.654  1.00  0.00    -0.200 F 
ATOM     98  F   UNL A   1      54.271  27.521  25.001  1.00  0.00    -0.200 F 
ENDBRANCH  64  88
BRANCH  76  99
ATOM     99  C   UNL A   1      46.366  33.053  28.882  1.00  0.00     0.064 A 
ATOM    100  C   UNL A   1      46.200  34.144  28.016  1.00  0.00     0.173 A 
ATOM    101  C   UNL A   1      46.791  33.317  30.194  1.00  0.00     0.173 A 
ATOM    102  F   UNL A   1      45.807  33.946  26.748  1.00  0.00    -0.203 F 
ATOM    103  C   UNL A   1      46.478  35.441  28.437  1.00  0.00     0.198 A 
ATOM    104  C   UNL A   1      47.031  34.619  30.623  1.00  0.00     0.198 A 
ATOM    105  F   UNL A   1      46.955  32.312  31.068  1.00  0.00    -0.203 F 
ATOM    106  F   UNL A   1      46.367  36.462  27.577  1.00  0.00    -0.200 F 
ATOM    107  C   UNL A   1      46.884  35.679  29.743  1.00  0.00     0.200 A 
ATOM    108  F   UNL A   1      47.402  34.847  31.891  1.00  0.00    -0.200 F 
ATOM    109  F   UNL A   1      47.140  36.930  30.149  1.00  0.00    -0.200 F 
ENDBRANCH  76  99
ENDBRANCH  50  51
ENDBRANCH  43  45
ENDBRANCH  42  43
ENDBRANCH  41  42
ENDBRANCH  40  41
ENDBRANCH  39  40
ENDBRANCH  38  39
ENDBRANCH  37  38
ENDBRANCH  36  37
ENDBRANCH   1  36
TORSDOF 23
ENDMDL
