MODEL 1
REMARK VINA RESULT:     -10.1      0.000      0.000
REMARK SMILES Cc1ccccc1OCC(=O)NCCC(=O)OCCOCCOCCOCCOC(=O)c1ccc(-c2c3nc(c(-c4c(F)c(F)c(F)c(F)c4F)c4ccc([nH]4)c(-c4c(F)c(F)c(F)c(F)c4F)c4nc(c(-c5c(F)c(F)c(F)c(F)c5F)c5ccc2[nH]5)C=C4)C=C3)cc1
REMARK SMILES IDX 21 1 20 2 19 3 18 4 17 5 15 6 16 7 14 8 13 9 12 10 10 11
REMARK SMILES IDX 11 12 9 14 8 15 7 16 1 17 2 18 3 19 4 20 6 21 5 22 22 23
REMARK SMILES IDX 23 24 24 25 25 26 26 27 27 28 28 29 29 30 30 31 31 32 32 33
REMARK SMILES IDX 33 34 94 35 34 36 93 37 35 38 36 39 37 40 87 41 38 42 92 43
REMARK SMILES IDX 86 44 88 45 39 46 91 47 85 48 84 49 40 51 72 52 52 53 71 54
REMARK SMILES IDX 53 55 56 56 70 57 89 58 54 59 55 60 69 62 90 63 57 64 41 65
REMARK SMILES IDX 42 66 50 67 43 68 44 69 48 70 51 71 45 72 46 73 49 74 47 75
REMARK SMILES IDX 73 76 74 77 82 78 75 79 76 80 80 81 83 82 77 83 78 84 81 85
REMARK SMILES IDX 79 86 58 87 59 88 67 89 60 90 61 91 65 92 68 93 62 94 63 95
REMARK SMILES IDX 66 96 64 97
REMARK H PARENT 12 13 88 50 56 61
REMARK Flexibility Score: inf
ROOT
ATOM      1  C   UNL A   1      32.516  29.692  27.065  1.00  0.00     0.188 C 
ENDROOT
BRANCH   1   2
ATOM      2  O   UNL A   1      32.832  28.310  27.159  1.00  0.00    -0.376 OA
BRANCH   2   3
ATOM      3  C   UNL A   1      33.062  27.637  25.925  1.00  0.00     0.202 C 
BRANCH   3   4
ATOM      4  C   UNL A   1      33.523  26.192  26.011  1.00  0.00     0.261 C 
BRANCH   4   5
ATOM      5  O   UNL A   1      32.745  25.365  25.143  1.00  0.00    -0.463 OA
BRANCH   5   6
ATOM      6  C   UNL A   1      31.737  24.691  25.748  1.00  0.00     0.307 C 
ATOM      7  O   UNL A   1      31.359  24.853  26.888  1.00  0.00    -0.252 OA
BRANCH   6   8
ATOM      8  C   UNL A   1      31.139  23.676  24.813  1.00  0.00     0.144 C 
BRANCH   8   9
ATOM      9  C   UNL A   1      30.842  24.227  23.430  1.00  0.00     0.127 C 
BRANCH   9  10
ATOM     10  N   UNL A   1      32.008  24.360  22.573  1.00  0.00    -0.353 N 
ATOM     11  C   UNL A   1      32.414  25.468  21.880  1.00  0.00     0.257 C 
ATOM     12  O   UNL A   1      33.546  25.518  21.395  1.00  0.00    -0.271 OA
ATOM     13  H   UNL A   1      32.572  23.559  22.481  1.00  0.00     0.163 HD
BRANCH  11  14
ATOM     14  C   UNL A   1      31.443  26.649  21.772  1.00  0.00     0.329 C 
BRANCH  14  15
ATOM     15  O   UNL A   1      31.047  27.371  22.928  1.00  0.00    -0.484 OA
BRANCH  15  16
ATOM     16  C   UNL A   1      29.956  28.190  22.818  1.00  0.00     0.122 A 
ATOM     17  C   UNL A   1      28.235  26.625  23.921  1.00  0.00     0.048 C 
ATOM     18  C   UNL A   1      28.652  27.889  23.231  1.00  0.00    -0.009 A 
ATOM     19  C   UNL A   1      27.639  28.838  22.989  1.00  0.00     0.007 A 
ATOM     20  C   UNL A   1      27.907  30.047  22.346  1.00  0.00     0.001 A 
ATOM     21  C   UNL A   1      30.212  29.394  22.145  1.00  0.00     0.047 A 
ATOM     22  C   UNL A   1      29.200  30.330  21.928  1.00  0.00     0.004 A 
ENDBRANCH  15  16
ENDBRANCH  14  15
ENDBRANCH  11  14
ENDBRANCH   9  10
ENDBRANCH   8   9
ENDBRANCH   6   8
ENDBRANCH   5   6
ENDBRANCH   4   5
ENDBRANCH   3   4
ENDBRANCH   2   3
ENDBRANCH   1   2
BRANCH   1  23
ATOM     23  C   UNL A   1      33.670  30.707  27.022  1.00  0.00     0.188 C 
BRANCH  23  24
ATOM     24  O   UNL A   1      34.396  30.836  28.230  1.00  0.00    -0.377 OA
BRANCH  24  25
ATOM     25  C   UNL A   1      34.528  32.134  28.810  1.00  0.00     0.188 C 
BRANCH  25  26
ATOM     26  C   UNL A   1      33.754  33.305  28.231  1.00  0.00     0.188 C 
BRANCH  26  27
ATOM     27  O   UNL A   1      34.307  34.488  28.799  1.00  0.00    -0.376 OA
BRANCH  27  28
ATOM     28  C   UNL A   1      33.377  35.467  29.238  1.00  0.00     0.202 C 
BRANCH  28  29
ATOM     29  C   UNL A   1      32.990  35.293  30.705  1.00  0.00     0.261 C 
BRANCH  29  30
ATOM     30  O   UNL A   1      34.193  35.290  31.504  1.00  0.00    -0.460 OA
BRANCH  30  31
ATOM     31  C   UNL A   1      34.296  34.262  32.392  1.00  0.00     0.338 C 
ATOM     32  O   UNL A   1      33.348  33.694  32.912  1.00  0.00    -0.246 OA
BRANCH  31  33
ATOM     33  C   UNL A   1      35.710  34.111  32.860  1.00  0.00     0.060 A 
ATOM     34  C   UNL A   1      36.777  34.472  32.021  1.00  0.00     0.016 A 
ATOM     35  C   UNL A   1      35.968  33.302  33.955  1.00  0.00     0.016 A 
ATOM     36  C   UNL A   1      38.037  33.854  32.160  1.00  0.00     0.010 A 
ATOM     37  C   UNL A   1      37.169  32.614  34.001  1.00  0.00     0.010 A 
ATOM     38  C   UNL A   1      38.212  32.825  33.080  1.00  0.00    -0.014 A 
BRANCH  38  39
ATOM     39  C   UNL A   1      39.329  31.838  33.098  1.00  0.00     0.031 A 
ATOM     40  C   UNL A   1      39.186  30.585  32.265  1.00  0.00     0.074 A 
ATOM     41  C   UNL A   1      40.572  32.188  33.551  1.00  0.00     0.049 A 
ATOM     42  N   UNL A   1      40.137  29.749  32.029  1.00  0.00    -0.248 NA
ATOM     43  C   UNL A   1      37.961  30.178  31.573  1.00  0.00     0.031 C 
ATOM     44  C   UNL A   1      41.857  31.650  33.078  1.00  0.00     0.029 A 
ATOM     45  N   UNL A   1      40.991  33.135  34.504  1.00  0.00    -0.354 N 
ATOM     46  C   UNL A   1      39.798  28.937  30.964  1.00  0.00     0.074 A 
ATOM     47  C   UNL A   1      38.398  29.205  30.761  1.00  0.00     0.031 C 
ATOM     48  C   UNL A   1      42.888  32.148  33.770  1.00  0.00     0.029 A 
ATOM     49  C   UNL A   1      42.305  32.787  34.915  1.00  0.00     0.049 A 
ATOM     50  H   UNL A   1      40.466  33.902  34.827  1.00  0.00     0.167 HD
ATOM     51  C   UNL A   1      40.798  28.227  30.351  1.00  0.00     0.037 A 
ATOM     52  C   UNL A   1      42.556  32.374  36.192  1.00  0.00     0.037 A 
ATOM     53  C   UNL A   1      42.038  28.306  31.143  1.00  0.00     0.049 A 
ATOM     54  C   UNL A   1      42.956  30.909  36.237  1.00  0.00     0.074 A 
ATOM     55  C   UNL A   1      43.326  28.770  30.930  1.00  0.00     0.029 A 
ATOM     56  N   UNL A   1      41.960  28.002  32.499  1.00  0.00    -0.354 N 
ATOM     57  N   UNL A   1      42.641  30.058  35.289  1.00  0.00    -0.248 NA
ATOM     58  C   UNL A   1      43.834  30.303  37.233  1.00  0.00     0.031 C 
ATOM     59  C   UNL A   1      43.998  28.793  32.188  1.00  0.00     0.029 A 
ATOM     60  C   UNL A   1      43.135  28.289  33.150  1.00  0.00     0.049 A 
ATOM     61  H   UNL A   1      41.163  27.627  32.937  1.00  0.00     0.167 HD
ATOM     62  C   UNL A   1      43.320  28.884  35.463  1.00  0.00     0.074 A 
ATOM     63  C   UNL A   1      44.014  29.068  36.723  1.00  0.00     0.031 C 
ATOM     64  C   UNL A   1      43.305  27.880  34.535  1.00  0.00     0.037 A 
BRANCH  51  65
ATOM     65  C   UNL A   1      40.769  27.526  28.991  1.00  0.00     0.064 A 
ATOM     66  C   UNL A   1      41.511  28.047  27.897  1.00  0.00     0.173 A 
ATOM     67  C   UNL A   1      39.993  26.397  28.661  1.00  0.00     0.173 A 
ATOM     68  F   UNL A   1      42.327  29.099  28.040  1.00  0.00    -0.203 F 
ATOM     69  C   UNL A   1      41.453  27.511  26.603  1.00  0.00     0.198 A 
ATOM     70  C   UNL A   1      39.971  25.834  27.374  1.00  0.00     0.198 A 
ATOM     71  F   UNL A   1      39.200  25.799  29.551  1.00  0.00    -0.203 F 
ATOM     72  F   UNL A   1      42.149  28.087  25.610  1.00  0.00    -0.200 F 
ATOM     73  C   UNL A   1      40.689  26.397  26.343  1.00  0.00     0.200 A 
ATOM     74  F   UNL A   1      39.231  24.738  27.145  1.00  0.00    -0.200 F 
ATOM     75  F   UNL A   1      40.646  25.870  25.111  1.00  0.00    -0.200 F 
ENDBRANCH  51  65
BRANCH  52  76
ATOM     76  C   UNL A   1      41.843  33.258  37.167  1.00  0.00     0.064 A 
ATOM     77  C   UNL A   1      42.427  34.544  37.272  1.00  0.00     0.173 A 
ATOM     78  C   UNL A   1      40.444  33.188  37.260  1.00  0.00     0.173 A 
ATOM     79  F   UNL A   1      43.764  34.667  37.272  1.00  0.00    -0.203 F 
ATOM     80  C   UNL A   1      41.655  35.697  37.124  1.00  0.00     0.198 A 
ATOM     81  C   UNL A   1      39.672  34.354  37.172  1.00  0.00     0.198 A 
ATOM     82  F   UNL A   1      39.824  32.000  37.200  1.00  0.00    -0.203 F 
ATOM     83  F   UNL A   1      42.249  36.889  36.965  1.00  0.00    -0.200 F 
ATOM     84  C   UNL A   1      40.281  35.593  37.011  1.00  0.00     0.200 A 
ATOM     85  F   UNL A   1      38.335  34.270  37.104  1.00  0.00    -0.200 F 
ATOM     86  F   UNL A   1      39.549  36.667  36.680  1.00  0.00    -0.200 F 
ENDBRANCH  52  76
BRANCH  64  87
ATOM     87  C   UNL A   1      43.454  26.392  34.808  1.00  0.00     0.064 A 
ATOM     88  C   UNL A   1      42.388  25.551  35.159  1.00  0.00     0.173 A 
ATOM     89  C   UNL A   1      44.668  25.715  34.493  1.00  0.00     0.173 A 
ATOM     90  F   UNL A   1      41.162  26.029  35.392  1.00  0.00    -0.203 F 
ATOM     91  C   UNL A   1      42.528  24.162  35.222  1.00  0.00     0.198 A 
ATOM     92  C   UNL A   1      44.781  24.327  34.485  1.00  0.00     0.198 A 
ATOM     93  F   UNL A   1      45.783  26.365  34.135  1.00  0.00    -0.203 F 
ATOM     94  F   UNL A   1      41.483  23.413  35.597  1.00  0.00    -0.200 F 
ATOM     95  C   UNL A   1      43.714  23.549  34.865  1.00  0.00     0.200 A 
ATOM     96  F   UNL A   1      45.923  23.755  34.074  1.00  0.00    -0.200 F 
ATOM     97  F   UNL A   1      43.819  22.214  34.869  1.00  0.00    -0.200 F 
ENDBRANCH  64  87
ENDBRANCH  38  39
ENDBRANCH  31  33
ENDBRANCH  30  31
ENDBRANCH  29  30
ENDBRANCH  28  29
ENDBRANCH  27  28
ENDBRANCH  26  27
ENDBRANCH  25  26
ENDBRANCH  24  25
ENDBRANCH  23  24
ENDBRANCH   1  23
TORSDOF 25
ENDMDL
MODEL 2
REMARK VINA RESULT:     -10.0      5.024     10.829
REMARK SMILES Cc1ccccc1OCC(=O)NCCC(=O)OCCOCCOCCOCCOC(=O)c1ccc(-c2c3nc(c(-c4c(F)c(F)c(F)c(F)c4F)c4ccc([nH]4)c(-c4c(F)c(F)c(F)c(F)c4F)c4nc(c(-c5c(F)c(F)c(F)c(F)c5F)c5ccc2[nH]5)C=C4)C=C3)cc1
REMARK SMILES IDX 21 1 20 2 19 3 18 4 17 5 15 6 16 7 14 8 13 9 12 10 10 11
REMARK SMILES IDX 11 12 9 14 8 15 7 16 1 17 2 18 3 19 4 20 6 21 5 22 22 23
REMARK SMILES IDX 23 24 24 25 25 26 26 27 27 28 28 29 29 30 30 31 31 32 32 33
REMARK SMILES IDX 33 34 94 35 34 36 93 37 35 38 36 39 37 40 87 41 38 42 92 43
REMARK SMILES IDX 86 44 88 45 39 46 91 47 85 48 84 49 40 51 72 52 52 53 71 54
REMARK SMILES IDX 53 55 56 56 70 57 89 58 54 59 55 60 69 62 90 63 57 64 41 65
REMARK SMILES IDX 42 66 50 67 43 68 44 69 48 70 51 71 45 72 46 73 49 74 47 75
REMARK SMILES IDX 73 76 74 77 82 78 75 79 76 80 80 81 83 82 77 83 78 84 81 85
REMARK SMILES IDX 79 86 58 87 59 88 67 89 60 90 61 91 65 92 68 93 62 94 63 95
REMARK SMILES IDX 66 96 64 97
REMARK H PARENT 12 13 88 50 56 61
REMARK Flexibility Score: inf
ROOT
ATOM      1  C   UNL A   1      34.214  22.387  25.724  1.00  0.00     0.188 C 
ENDROOT
BRANCH   1   2
ATOM      2  O   UNL A   1      33.488  21.511  24.875  1.00  0.00    -0.376 OA
BRANCH   2   3
ATOM      3  C   UNL A   1      33.295  21.956  23.536  1.00  0.00     0.202 C 
BRANCH   3   4
ATOM      4  C   UNL A   1      33.650  23.402  23.239  1.00  0.00     0.261 C 
BRANCH   4   5
ATOM      5  O   UNL A   1      32.652  24.004  22.411  1.00  0.00    -0.463 OA
BRANCH   5   6
ATOM      6  C   UNL A   1      32.845  25.320  22.150  1.00  0.00     0.307 C 
ATOM      7  O   UNL A   1      33.904  25.839  21.867  1.00  0.00    -0.252 OA
BRANCH   6   8
ATOM      8  C   UNL A   1      31.555  26.082  22.274  1.00  0.00     0.144 C 
BRANCH   8   9
ATOM      9  C   UNL A   1      31.336  26.682  23.651  1.00  0.00     0.127 C 
BRANCH   9  10
ATOM     10  N   UNL A   1      31.625  25.780  24.753  1.00  0.00    -0.353 N 
ATOM     11  C   UNL A   1      31.582  26.056  26.093  1.00  0.00     0.257 C 
ATOM     12  O   UNL A   1      31.607  25.140  26.918  1.00  0.00    -0.271 OA
ATOM     13  H   UNL A   1      31.879  24.862  24.507  1.00  0.00     0.163 HD
BRANCH  11  14
ATOM     14  C   UNL A   1      31.453  27.521  26.525  1.00  0.00     0.329 C 
BRANCH  14  15
ATOM     15  O   UNL A   1      32.156  28.545  25.838  1.00  0.00    -0.484 OA
BRANCH  15  16
ATOM     16  C   UNL A   1      33.023  29.314  26.566  1.00  0.00     0.122 A 
ATOM     17  C   UNL A   1      31.617  31.470  26.616  1.00  0.00     0.048 C 
ATOM     18  C   UNL A   1      32.837  30.654  26.925  1.00  0.00    -0.009 A 
ATOM     19  C   UNL A   1      33.866  31.305  27.635  1.00  0.00     0.007 A 
ATOM     20  C   UNL A   1      35.052  30.649  27.970  1.00  0.00     0.001 A 
ATOM     21  C   UNL A   1      34.230  28.671  26.880  1.00  0.00     0.047 A 
ATOM     22  C   UNL A   1      35.232  29.325  27.598  1.00  0.00     0.004 A 
ENDBRANCH  15  16
ENDBRANCH  14  15
ENDBRANCH  11  14
ENDBRANCH   9  10
ENDBRANCH   8   9
ENDBRANCH   6   8
ENDBRANCH   5   6
ENDBRANCH   4   5
ENDBRANCH   3   4
ENDBRANCH   2   3
ENDBRANCH   1   2
BRANCH   1  23
ATOM     23  C   UNL A   1      35.664  22.023  26.085  1.00  0.00     0.188 C 
BRANCH  23  24
ATOM     24  O   UNL A   1      36.212  20.949  25.345  1.00  0.00    -0.377 OA
BRANCH  24  25
ATOM     25  C   UNL A   1      37.632  20.850  25.236  1.00  0.00     0.188 C 
BRANCH  25  26
ATOM     26  C   UNL A   1      38.260  19.616  24.614  1.00  0.00     0.188 C 
BRANCH  26  27
ATOM     27  O   UNL A   1      39.224  19.130  25.543  1.00  0.00    -0.376 OA
BRANCH  27  28
ATOM     28  C   UNL A   1      40.173  20.075  26.014  1.00  0.00     0.202 C 
BRANCH  28  29
ATOM     29  C   UNL A   1      41.543  19.450  26.273  1.00  0.00     0.261 C 
BRANCH  29  30
ATOM     30  O   UNL A   1      42.472  19.944  25.284  1.00  0.00    -0.460 OA
BRANCH  30  31
ATOM     31  C   UNL A   1      43.381  20.848  25.745  1.00  0.00     0.338 C 
ATOM     32  O   UNL A   1      44.555  20.601  25.970  1.00  0.00    -0.246 OA
BRANCH  31  33
ATOM     33  C   UNL A   1      42.694  22.096  26.205  1.00  0.00     0.060 A 
ATOM     34  C   UNL A   1      42.334  23.089  25.279  1.00  0.00     0.016 A 
ATOM     35  C   UNL A   1      42.734  22.423  27.550  1.00  0.00     0.016 A 
ATOM     36  C   UNL A   1      42.228  24.437  25.681  1.00  0.00     0.010 A 
ATOM     37  C   UNL A   1      42.749  23.762  27.906  1.00  0.00     0.010 A 
ATOM     38  C   UNL A   1      42.554  24.804  26.981  1.00  0.00    -0.014 A 
BRANCH  38  39
ATOM     39  C   UNL A   1      42.853  26.185  27.460  1.00  0.00     0.031 A 
ATOM     40  C   UNL A   1      41.689  27.104  27.752  1.00  0.00     0.074 A 
ATOM     41  C   UNL A   1      44.087  26.507  27.957  1.00  0.00     0.049 A 
ATOM     42  N   UNL A   1      41.785  28.241  28.352  1.00  0.00    -0.248 NA
ATOM     43  C   UNL A   1      40.290  26.807  27.437  1.00  0.00     0.031 C 
ATOM     44  C   UNL A   1      44.374  27.501  29.002  1.00  0.00     0.029 A 
ATOM     45  N   UNL A   1      45.370  26.000  27.683  1.00  0.00    -0.354 N 
ATOM     46  C   UNL A   1      40.540  28.651  28.787  1.00  0.00     0.074 A 
ATOM     47  C   UNL A   1      39.632  27.748  28.129  1.00  0.00     0.031 C 
ATOM     48  C   UNL A   1      45.689  27.631  29.215  1.00  0.00     0.029 A 
ATOM     49  C   UNL A   1      46.321  26.962  28.114  1.00  0.00     0.049 A 
ATOM     50  H   UNL A   1      45.572  25.130  27.266  1.00  0.00     0.167 HD
ATOM     51  C   UNL A   1      40.483  29.646  29.729  1.00  0.00     0.037 A 
ATOM     52  C   UNL A   1      47.114  27.617  27.216  1.00  0.00     0.037 A 
ATOM     53  C   UNL A   1      41.813  30.253  29.910  1.00  0.00     0.049 A 
ATOM     54  C   UNL A   1      46.764  29.094  27.135  1.00  0.00     0.074 A 
ATOM     55  C   UNL A   1      42.701  30.404  30.962  1.00  0.00     0.029 A 
ATOM     56  N   UNL A   1      42.494  30.673  28.772  1.00  0.00    -0.354 N 
ATOM     57  N   UNL A   1      45.593  29.566  27.489  1.00  0.00    -0.248 NA
ATOM     58  C   UNL A   1      47.697  30.166  26.801  1.00  0.00     0.031 C 
ATOM     59  C   UNL A   1      43.941  30.866  30.429  1.00  0.00     0.029 A 
ATOM     60  C   UNL A   1      43.782  31.048  29.063  1.00  0.00     0.049 A 
ATOM     61  H   UNL A   1      42.101  30.700  27.870  1.00  0.00     0.167 HD
ATOM     62  C   UNL A   1      45.629  30.931  27.541  1.00  0.00     0.074 A 
ATOM     63  C   UNL A   1      46.953  31.262  27.050  1.00  0.00     0.031 C 
ATOM     64  C   UNL A   1      44.595  31.678  28.033  1.00  0.00     0.037 A 
BRANCH  51  65
ATOM     65  C   UNL A   1      39.296  30.059  30.602  1.00  0.00     0.064 A 
ATOM     66  C   UNL A   1      38.358  31.018  30.134  1.00  0.00     0.173 A 
ATOM     67  C   UNL A   1      39.050  29.624  31.920  1.00  0.00     0.173 A 
ATOM     68  F   UNL A   1      38.422  31.515  28.892  1.00  0.00    -0.203 F 
ATOM     69  C   UNL A   1      37.305  31.511  30.917  1.00  0.00     0.198 A 
ATOM     70  C   UNL A   1      37.968  30.086  32.688  1.00  0.00     0.198 A 
ATOM     71  F   UNL A   1      39.851  28.757  32.539  1.00  0.00    -0.203 F 
ATOM     72  F   UNL A   1      36.486  32.450  30.420  1.00  0.00    -0.200 F 
ATOM     73  C   UNL A   1      37.104  31.037  32.193  1.00  0.00     0.200 A 
ATOM     74  F   UNL A   1      37.781  29.600  33.925  1.00  0.00    -0.200 F 
ATOM     75  F   UNL A   1      36.087  31.492  32.939  1.00  0.00    -0.200 F 
ENDBRANCH  51  65
BRANCH  52  76
ATOM     76  C   UNL A   1      47.661  26.651  26.213  1.00  0.00     0.064 A 
ATOM     77  C   UNL A   1      47.286  26.967  24.884  1.00  0.00     0.173 A 
ATOM     78  C   UNL A   1      48.949  26.124  26.399  1.00  0.00     0.173 A 
ATOM     79  F   UNL A   1      46.039  27.398  24.631  1.00  0.00    -0.203 F 
ATOM     80  C   UNL A   1      48.244  27.081  23.876  1.00  0.00     0.198 A 
ATOM     81  C   UNL A   1      49.892  26.185  25.365  1.00  0.00     0.198 A 
ATOM     82  F   UNL A   1      49.362  25.773  27.626  1.00  0.00    -0.203 F 
ATOM     83  F   UNL A   1      47.917  27.629  22.696  1.00  0.00    -0.200 F 
ATOM     84  C   UNL A   1      49.560  26.749  24.139  1.00  0.00     0.200 A 
ATOM     85  F   UNL A   1      51.164  25.825  25.594  1.00  0.00    -0.200 F 
ATOM     86  F   UNL A   1      50.518  27.031  23.243  1.00  0.00    -0.200 F 
ENDBRANCH  52  76
BRANCH  64  87
ATOM     87  C   UNL A   1      44.219  33.092  27.619  1.00  0.00     0.064 A 
ATOM     88  C   UNL A   1      43.846  33.451  26.316  1.00  0.00     0.173 A 
ATOM     89  C   UNL A   1      44.002  34.101  28.601  1.00  0.00     0.173 A 
ATOM     90  F   UNL A   1      43.903  32.581  25.302  1.00  0.00    -0.203 F 
ATOM     91  C   UNL A   1      43.333  34.715  26.014  1.00  0.00     0.198 A 
ATOM     92  C   UNL A   1      43.421  35.332  28.306  1.00  0.00     0.198 A 
ATOM     93  F   UNL A   1      44.300  33.923  29.895  1.00  0.00    -0.203 F 
ATOM     94  F   UNL A   1      43.026  35.013  24.743  1.00  0.00    -0.200 F 
ATOM     95  C   UNL A   1      43.100  35.646  27.007  1.00  0.00     0.200 A 
ATOM     96  F   UNL A   1      43.147  36.193  29.298  1.00  0.00    -0.200 F 
ATOM     97  F   UNL A   1      42.549  36.831  26.716  1.00  0.00    -0.200 F 
ENDBRANCH  64  87
ENDBRANCH  38  39
ENDBRANCH  31  33
ENDBRANCH  30  31
ENDBRANCH  29  30
ENDBRANCH  28  29
ENDBRANCH  27  28
ENDBRANCH  26  27
ENDBRANCH  25  26
ENDBRANCH  24  25
ENDBRANCH  23  24
ENDBRANCH   1  23
TORSDOF 25
ENDMDL
MODEL 3
REMARK VINA RESULT:      -9.9      4.019     10.783
REMARK SMILES Cc1ccccc1OCC(=O)NCCC(=O)OCCOCCOCCOCCOC(=O)c1ccc(-c2c3nc(c(-c4c(F)c(F)c(F)c(F)c4F)c4ccc([nH]4)c(-c4c(F)c(F)c(F)c(F)c4F)c4nc(c(-c5c(F)c(F)c(F)c(F)c5F)c5ccc2[nH]5)C=C4)C=C3)cc1
REMARK SMILES IDX 21 1 20 2 19 3 18 4 17 5 15 6 16 7 14 8 13 9 12 10 10 11
REMARK SMILES IDX 11 12 9 14 8 15 7 16 1 17 2 18 3 19 4 20 6 21 5 22 22 23
REMARK SMILES IDX 23 24 24 25 25 26 26 27 27 28 28 29 29 30 30 31 31 32 32 33
REMARK SMILES IDX 33 34 94 35 34 36 93 37 35 38 36 39 37 40 87 41 38 42 92 43
REMARK SMILES IDX 86 44 88 45 39 46 91 47 85 48 84 49 40 51 72 52 52 53 71 54
REMARK SMILES IDX 53 55 56 56 70 57 89 58 54 59 55 60 69 62 90 63 57 64 41 65
REMARK SMILES IDX 42 66 50 67 43 68 44 69 48 70 51 71 45 72 46 73 49 74 47 75
REMARK SMILES IDX 73 76 74 77 82 78 75 79 76 80 80 81 83 82 77 83 78 84 81 85
REMARK SMILES IDX 79 86 58 87 59 88 67 89 60 90 61 91 65 92 68 93 62 94 63 95
REMARK SMILES IDX 66 96 64 97
REMARK H PARENT 12 13 88 50 56 61
REMARK Flexibility Score: inf
ROOT
ATOM      1  C   UNL A   1      31.576  24.844  26.500  1.00  0.00     0.188 C 
ENDROOT
BRANCH   1   2
ATOM      2  O   UNL A   1      30.486  25.748  26.384  1.00  0.00    -0.376 OA
BRANCH   2   3
ATOM      3  C   UNL A   1      30.192  26.207  25.068  1.00  0.00     0.202 C 
BRANCH   3   4
ATOM      4  C   UNL A   1      31.350  26.781  24.271  1.00  0.00     0.261 C 
BRANCH   4   5
ATOM      5  O   UNL A   1      31.602  28.134  24.654  1.00  0.00    -0.463 OA
BRANCH   5   6
ATOM      6  C   UNL A   1      32.605  28.297  25.551  1.00  0.00     0.307 C 
ATOM      7  O   UNL A   1      33.754  27.938  25.402  1.00  0.00    -0.252 OA
BRANCH   6   8
ATOM      8  C   UNL A   1      32.104  28.978  26.793  1.00  0.00     0.144 C 
BRANCH   8   9
ATOM      9  C   UNL A   1      32.689  30.363  27.004  1.00  0.00     0.127 C 
BRANCH   9  10
ATOM     10  N   UNL A   1      34.133  30.433  26.862  1.00  0.00    -0.353 N 
ATOM     11  C   UNL A   1      35.035  30.974  27.739  1.00  0.00     0.257 C 
ATOM     12  O   UNL A   1      36.239  30.746  27.613  1.00  0.00    -0.271 OA
ATOM     13  H   UNL A   1      34.508  30.045  26.039  1.00  0.00     0.163 HD
BRANCH  11  14
ATOM     14  C   UNL A   1      34.497  31.820  28.898  1.00  0.00     0.329 C 
BRANCH  14  15
ATOM     15  O   UNL A   1      35.366  32.296  29.914  1.00  0.00    -0.484 OA
BRANCH  15  16
ATOM     16  C   UNL A   1      34.830  33.113  30.873  1.00  0.00     0.122 A 
ATOM     17  C   UNL A   1      34.109  35.038  29.323  1.00  0.00     0.048 C 
ATOM     18  C   UNL A   1      34.269  34.378  30.660  1.00  0.00    -0.009 A 
ATOM     19  C   UNL A   1      33.812  35.103  31.779  1.00  0.00     0.007 A 
ATOM     20  C   UNL A   1      33.917  34.593  33.074  1.00  0.00     0.001 A 
ATOM     21  C   UNL A   1      34.960  32.621  32.181  1.00  0.00     0.047 A 
ATOM     22  C   UNL A   1      34.487  33.345  33.276  1.00  0.00     0.004 A 
ENDBRANCH  15  16
ENDBRANCH  14  15
ENDBRANCH  11  14
ENDBRANCH   9  10
ENDBRANCH   8   9
ENDBRANCH   6   8
ENDBRANCH   5   6
ENDBRANCH   4   5
ENDBRANCH   3   4
ENDBRANCH   2   3
ENDBRANCH   1   2
BRANCH   1  23
ATOM     23  C   UNL A   1      31.438  23.445  25.876  1.00  0.00     0.188 C 
BRANCH  23  24
ATOM     24  O   UNL A   1      32.401  22.502  26.307  1.00  0.00    -0.377 OA
BRANCH  24  25
ATOM     25  C   UNL A   1      33.430  22.115  25.396  1.00  0.00     0.188 C 
BRANCH  25  26
ATOM     26  C   UNL A   1      33.867  20.663  25.321  1.00  0.00     0.188 C 
BRANCH  26  27
ATOM     27  O   UNL A   1      35.181  20.654  24.772  1.00  0.00    -0.376 OA
BRANCH  27  28
ATOM     28  C   UNL A   1      35.683  21.905  24.325  1.00  0.00     0.202 C 
BRANCH  28  29
ATOM     29  C   UNL A   1      37.209  21.968  24.353  1.00  0.00     0.261 C 
BRANCH  29  30
ATOM     30  O   UNL A   1      37.655  21.798  25.717  1.00  0.00    -0.460 OA
BRANCH  30  31
ATOM     31  C   UNL A   1      38.984  22.013  25.922  1.00  0.00     0.338 C 
ATOM     32  O   UNL A   1      39.877  21.285  25.520  1.00  0.00    -0.246 OA
BRANCH  31  33
ATOM     33  C   UNL A   1      39.191  23.094  26.938  1.00  0.00     0.060 A 
ATOM     34  C   UNL A   1      38.455  24.287  26.862  1.00  0.00     0.016 A 
ATOM     35  C   UNL A   1      40.333  23.064  27.721  1.00  0.00     0.016 A 
ATOM     36  C   UNL A   1      38.978  25.485  27.392  1.00  0.00     0.010 A 
ATOM     37  C   UNL A   1      40.890  24.266  28.125  1.00  0.00     0.010 A 
ATOM     38  C   UNL A   1      40.262  25.510  27.925  1.00  0.00    -0.014 A 
BRANCH  38  39
ATOM     39  C   UNL A   1      41.091  26.723  28.176  1.00  0.00     0.031 A 
ATOM     40  C   UNL A   1      40.390  27.982  28.635  1.00  0.00     0.074 A 
ATOM     41  C   UNL A   1      42.447  26.631  28.336  1.00  0.00     0.049 A 
ATOM     42  N   UNL A   1      40.988  29.035  29.075  1.00  0.00    -0.248 NA
ATOM     43  C   UNL A   1      38.937  28.156  28.686  1.00  0.00     0.031 C 
ATOM     44  C   UNL A   1      43.288  27.495  29.177  1.00  0.00     0.029 A 
ATOM     45  N   UNL A   1      43.391  25.722  27.825  1.00  0.00    -0.354 N 
ATOM     46  C   UNL A   1      40.088  29.843  29.743  1.00  0.00     0.074 A 
ATOM     47  C   UNL A   1      38.807  29.277  29.411  1.00  0.00     0.031 C 
ATOM     48  C   UNL A   1      44.586  27.188  29.064  1.00  0.00     0.029 A 
ATOM     49  C   UNL A   1      44.674  26.325  27.921  1.00  0.00     0.049 A 
ATOM     50  H   UNL A   1      43.198  24.826  27.465  1.00  0.00     0.167 HD
ATOM     51  C   UNL A   1      40.588  30.821  30.564  1.00  0.00     0.037 A 
ATOM     52  C   UNL A   1      45.378  26.662  26.801  1.00  0.00     0.037 A 
ATOM     53  C   UNL A   1      42.041  30.958  30.368  1.00  0.00     0.049 A 
ATOM     54  C   UNL A   1      45.502  28.169  26.652  1.00  0.00     0.074 A 
ATOM     55  C   UNL A   1      43.168  30.828  31.163  1.00  0.00     0.029 A 
ATOM     56  N   UNL A   1      42.508  31.105  29.065  1.00  0.00    -0.354 N 
ATOM     57  N   UNL A   1      44.668  29.009  27.218  1.00  0.00    -0.248 NA
ATOM     58  C   UNL A   1      46.607  28.865  26.001  1.00  0.00     0.031 C 
ATOM     59  C   UNL A   1      44.312  30.843  30.311  1.00  0.00     0.029 A 
ATOM     60  C   UNL A   1      43.878  31.039  29.008  1.00  0.00     0.049 A 
ATOM     61  H   UNL A   1      41.928  31.241  28.282  1.00  0.00     0.167 HD
ATOM     62  C   UNL A   1      45.144  30.287  27.119  1.00  0.00     0.074 A 
ATOM     63  C   UNL A   1      46.335  30.151  26.302  1.00  0.00     0.031 C 
ATOM     64  C   UNL A   1      44.559  31.343  27.758  1.00  0.00     0.037 A 
BRANCH  51  65
ATOM     65  C   UNL A   1      39.854  31.621  31.642  1.00  0.00     0.064 A 
ATOM     66  C   UNL A   1      39.031  32.723  31.285  1.00  0.00     0.173 A 
ATOM     67  C   UNL A   1      39.960  31.422  33.034  1.00  0.00     0.173 A 
ATOM     68  F   UNL A   1      38.794  33.036  30.005  1.00  0.00    -0.203 F 
ATOM     69  C   UNL A   1      38.408  33.555  32.226  1.00  0.00     0.198 A 
ATOM     70  C   UNL A   1      39.299  32.230  33.974  1.00  0.00     0.198 A 
ATOM     71  F   UNL A   1      40.723  30.461  33.555  1.00  0.00    -0.203 F 
ATOM     72  F   UNL A   1      37.682  34.604  31.811  1.00  0.00    -0.200 F 
ATOM     73  C   UNL A   1      38.535  33.303  33.572  1.00  0.00     0.200 A 
ATOM     74  F   UNL A   1      39.423  31.958  35.282  1.00  0.00    -0.200 F 
ATOM     75  F   UNL A   1      37.926  34.085  34.474  1.00  0.00    -0.200 F 
ENDBRANCH  51  65
BRANCH  52  76
ATOM     76  C   UNL A   1      45.319  25.548  25.803  1.00  0.00     0.064 A 
ATOM     77  C   UNL A   1      46.152  24.455  26.149  1.00  0.00     0.173 A 
ATOM     78  C   UNL A   1      44.095  25.242  25.188  1.00  0.00     0.173 A 
ATOM     79  F   UNL A   1      47.370  24.688  26.665  1.00  0.00    -0.203 F 
ATOM     80  C   UNL A   1      45.646  23.156  26.201  1.00  0.00     0.198 A 
ATOM     81  C   UNL A   1      43.616  23.925  25.188  1.00  0.00     0.198 A 
ATOM     82  F   UNL A   1      43.269  26.226  24.805  1.00  0.00    -0.203 F 
ATOM     83  F   UNL A   1      46.363  22.178  26.774  1.00  0.00    -0.200 F 
ATOM     84  C   UNL A   1      44.354  22.905  25.778  1.00  0.00     0.200 A 
ATOM     85  F   UNL A   1      42.379  23.660  24.741  1.00  0.00    -0.200 F 
ATOM     86  F   UNL A   1      43.794  21.706  25.997  1.00  0.00    -0.200 F 
ENDBRANCH  52  76
BRANCH  64  87
ATOM     87  C   UNL A   1      44.555  32.792  27.299  1.00  0.00     0.064 A 
ATOM     88  C   UNL A   1      43.942  33.236  26.119  1.00  0.00     0.173 A 
ATOM     89  C   UNL A   1      44.984  33.831  28.175  1.00  0.00     0.173 A 
ATOM     90  F   UNL A   1      43.405  32.384  25.241  1.00  0.00    -0.203 F 
ATOM     91  C   UNL A   1      43.800  34.595  25.823  1.00  0.00     0.198 A 
ATOM     92  C   UNL A   1      44.773  35.182  27.909  1.00  0.00     0.198 A 
ATOM     93  F   UNL A   1      45.585  33.583  29.346  1.00  0.00    -0.203 F 
ATOM     94  F   UNL A   1      43.238  34.959  24.662  1.00  0.00    -0.200 F 
ATOM     95  C   UNL A   1      44.194  35.566  26.723  1.00  0.00     0.200 A 
ATOM     96  F   UNL A   1      45.107  36.101  28.828  1.00  0.00    -0.200 F 
ATOM     97  F   UNL A   1      43.997  36.863  26.458  1.00  0.00    -0.200 F 
ENDBRANCH  64  87
ENDBRANCH  38  39
ENDBRANCH  31  33
ENDBRANCH  30  31
ENDBRANCH  29  30
ENDBRANCH  28  29
ENDBRANCH  27  28
ENDBRANCH  26  27
ENDBRANCH  25  26
ENDBRANCH  24  25
ENDBRANCH  23  24
ENDBRANCH   1  23
TORSDOF 25
ENDMDL
