MODEL 1
REMARK VINA RESULT:     -10.4      0.000      0.000
REMARK SMILES Cc1n[nH]c(C(=O)N[C@@H](CC(C)C)C(=O)OCCOCCOCCOCCOC(=O)c2ccc(-c3c4nc(c(-c5c(F)c(F)c(F)c(F)c5F)c5ccc([nH]5)c(-c5c(F)c(F)c(F)c(F)c5F)c5nc(c(-c6c(F)c(F)c(F)c(F)c6F)c6ccc3[nH]6)C=C5)C=C4)cc2)n1
REMARK SMILES IDX 22 1 21 2 20 3 19 4 18 5 17 6 16 7 14 8 15 9 9 10 8 11 6 12
REMARK SMILES IDX 7 13 5 15 1 16 2 17 3 18 94 19 4 20 10 22 11 23 12 24 13 25
REMARK SMILES IDX 23 26 24 27 25 28 26 29 27 30 28 31 29 32 30 33 31 34 32 35
REMARK SMILES IDX 93 36 33 37 92 38 34 39 35 40 36 41 86 42 37 43 91 44 85 45
REMARK SMILES IDX 87 46 38 47 90 48 84 49 83 50 39 52 71 53 51 54 70 55 52 56
REMARK SMILES IDX 55 57 69 58 88 59 53 60 54 61 68 63 89 64 56 65 40 66 41 67
REMARK SMILES IDX 49 68 42 69 43 70 47 71 50 72 44 73 45 74 48 75 46 76 72 77
REMARK SMILES IDX 73 78 81 79 74 80 75 81 79 82 82 83 76 84 77 85 80 86 78 87
REMARK SMILES IDX 57 88 58 89 66 90 59 91 60 92 64 93 67 94 61 95 62 96 65 97
REMARK SMILES IDX 63 98
REMARK H PARENT 8 14 4 21 87 51 55 62
REMARK Flexibility Score: inf
ROOT
ATOM      1  O   UNL A   1      36.988  23.818  25.671  1.00  0.00    -0.377 OA
ENDROOT
BRANCH   1   2
ATOM      2  C   UNL A   1      35.788  23.748  24.923  1.00  0.00     0.188 C 
BRANCH   2   3
ATOM      3  C   UNL A   1      34.748  24.855  25.214  1.00  0.00     0.188 C 
BRANCH   3   4
ATOM      4  O   UNL A   1      34.216  25.662  24.168  1.00  0.00    -0.376 OA
BRANCH   4   5
ATOM      5  C   UNL A   1      33.138  25.176  23.382  1.00  0.00     0.202 C 
BRANCH   5   6
ATOM      6  C   UNL A   1      33.432  24.121  22.312  1.00  0.00     0.261 C 
BRANCH   6   7
ATOM      7  O   UNL A   1      33.252  22.758  22.744  1.00  0.00    -0.462 OA
BRANCH   7   8
ATOM      8  C   UNL A   1      32.160  22.486  23.492  1.00  0.00     0.328 C 
ATOM      9  O   UNL A   1      31.003  22.663  23.126  1.00  0.00    -0.250 OA
BRANCH   8  10
ATOM     10  C   UNL A   1      32.498  22.045  24.935  1.00  0.00     0.192 C 
BRANCH  10  11
ATOM     11  N   UNL A   1      31.469  22.036  25.976  1.00  0.00    -0.336 N 
ATOM     12  C   UNL A   1      30.755  23.025  26.625  1.00  0.00     0.289 C 
ATOM     13  O   UNL A   1      30.087  22.621  27.582  1.00  0.00    -0.266 OA
ATOM     14  H   UNL A   1      31.235  21.129  26.279  1.00  0.00     0.164 HD
BRANCH  12  15
ATOM     15  C   UNL A   1      30.725  24.415  26.196  1.00  0.00     0.214 A 
ATOM     16  C   UNL A   1      31.521  27.867  26.563  1.00  0.00     0.092 C 
ATOM     17  C   UNL A   1      31.025  26.528  26.177  1.00  0.00     0.148 A 
ATOM     18  N   UNL A   1      30.139  26.345  25.194  1.00  0.00    -0.159 NA
ATOM     19  N   UNL A   1      31.404  25.376  26.811  1.00  0.00    -0.207 NA
ATOM     20  N   UNL A   1      29.957  25.016  25.239  1.00  0.00    -0.255 N 
ATOM     21  H   UNL A   1      29.339  24.527  24.647  1.00  0.00     0.192 HD
ENDBRANCH  12  15
ENDBRANCH  10  11
BRANCH  10  22
ATOM     22  C   UNL A   1      33.185  20.673  24.862  1.00  0.00     0.040 C 
BRANCH  22  23
ATOM     23  C   UNL A   1      32.327  19.415  24.576  1.00  0.00    -0.015 C 
ATOM     24  C   UNL A   1      32.452  18.823  23.173  1.00  0.00     0.007 C 
ATOM     25  C   UNL A   1      32.718  18.345  25.599  1.00  0.00     0.007 C 
ENDBRANCH  22  23
ENDBRANCH  10  22
ENDBRANCH   8  10
ENDBRANCH   7   8
ENDBRANCH   6   7
ENDBRANCH   5   6
ENDBRANCH   4   5
ENDBRANCH   3   4
ENDBRANCH   2   3
ENDBRANCH   1   2
BRANCH   1  26
ATOM     26  C   UNL A   1      37.749  22.617  25.680  1.00  0.00     0.188 C 
BRANCH  26  27
ATOM     27  C   UNL A   1      39.195  22.704  26.232  1.00  0.00     0.188 C 
BRANCH  27  28
ATOM     28  O   UNL A   1      39.735  21.465  26.685  1.00  0.00    -0.376 OA
BRANCH  28  29
ATOM     29  C   UNL A   1      40.836  21.392  27.579  1.00  0.00     0.202 C 
BRANCH  29  30
ATOM     30  C   UNL A   1      42.096  20.658  27.107  1.00  0.00     0.261 C 
BRANCH  30  31
ATOM     31  O   UNL A   1      42.401  20.900  25.749  1.00  0.00    -0.460 OA
BRANCH  31  32
ATOM     32  C   UNL A   1      43.697  20.778  25.437  1.00  0.00     0.338 C 
ATOM     33  O   UNL A   1      44.361  19.745  25.393  1.00  0.00    -0.246 OA
BRANCH  32  34
ATOM     34  C   UNL A   1      44.246  22.111  25.207  1.00  0.00     0.060 A 
ATOM     35  C   UNL A   1      45.280  22.478  26.063  1.00  0.00     0.016 A 
ATOM     36  C   UNL A   1      43.443  23.042  24.526  1.00  0.00     0.016 A 
ATOM     37  C   UNL A   1      45.233  23.746  26.563  1.00  0.00     0.010 A 
ATOM     38  C   UNL A   1      43.395  24.308  25.027  1.00  0.00     0.010 A 
ATOM     39  C   UNL A   1      44.189  24.574  26.135  1.00  0.00    -0.014 A 
BRANCH  39  40
ATOM     40  C   UNL A   1      43.913  25.740  26.928  1.00  0.00     0.031 A 
ATOM     41  C   UNL A   1      44.907  26.796  26.706  1.00  0.00     0.074 A 
ATOM     42  C   UNL A   1      42.827  25.799  27.719  1.00  0.00     0.049 A 
ATOM     43  N   UNL A   1      45.829  27.195  27.515  1.00  0.00    -0.248 NA
ATOM     44  C   UNL A   1      45.029  27.308  25.332  1.00  0.00     0.031 C 
ATOM     45  C   UNL A   1      41.671  24.896  27.765  1.00  0.00     0.029 A 
ATOM     46  N   UNL A   1      42.494  26.766  28.608  1.00  0.00    -0.354 N 
ATOM     47  C   UNL A   1      46.515  28.175  26.811  1.00  0.00     0.074 A 
ATOM     48  C   UNL A   1      46.139  28.037  25.429  1.00  0.00     0.031 C 
ATOM     49  C   UNL A   1      40.672  25.487  28.462  1.00  0.00     0.029 A 
ATOM     50  C   UNL A   1      41.170  26.731  29.020  1.00  0.00     0.049 A 
ATOM     51  H   UNL A   1      43.137  27.437  28.933  1.00  0.00     0.167 HD
ATOM     52  C   UNL A   1      47.082  29.220  27.465  1.00  0.00     0.037 A 
ATOM     53  C   UNL A   1      40.542  27.740  29.673  1.00  0.00     0.037 A 
ATOM     54  C   UNL A   1      47.297  28.913  28.856  1.00  0.00     0.049 A 
ATOM     55  C   UNL A   1      41.604  28.606  30.258  1.00  0.00     0.074 A 
ATOM     56  C   UNL A   1      48.055  27.982  29.537  1.00  0.00     0.029 A 
ATOM     57  N   UNL A   1      46.373  29.378  29.759  1.00  0.00    -0.354 N 
ATOM     58  N   UNL A   1      42.414  28.221  31.208  1.00  0.00    -0.248 NA
ATOM     59  C   UNL A   1      42.072  29.731  29.461  1.00  0.00     0.031 C 
ATOM     60  C   UNL A   1      47.271  27.613  30.670  1.00  0.00     0.029 A 
ATOM     61  C   UNL A   1      46.098  28.371  30.647  1.00  0.00     0.049 A 
ATOM     62  H   UNL A   1      45.977  30.279  29.768  1.00  0.00     0.167 HD
ATOM     63  C   UNL A   1      43.644  28.774  30.877  1.00  0.00     0.074 A 
ATOM     64  C   UNL A   1      43.354  29.754  29.835  1.00  0.00     0.031 C 
ATOM     65  C   UNL A   1      44.809  28.182  31.275  1.00  0.00     0.037 A 
BRANCH  52  66
ATOM     66  C   UNL A   1      47.032  30.630  26.935  1.00  0.00     0.064 A 
ATOM     67  C   UNL A   1      48.206  31.401  26.957  1.00  0.00     0.173 A 
ATOM     68  C   UNL A   1      45.838  31.344  26.682  1.00  0.00     0.173 A 
ATOM     69  F   UNL A   1      49.393  30.829  27.215  1.00  0.00    -0.203 F 
ATOM     70  C   UNL A   1      48.175  32.789  26.809  1.00  0.00     0.198 A 
ATOM     71  C   UNL A   1      45.818  32.720  26.474  1.00  0.00     0.198 A 
ATOM     72  F   UNL A   1      44.628  30.775  26.739  1.00  0.00    -0.203 F 
ATOM     73  F   UNL A   1      49.301  33.497  26.967  1.00  0.00    -0.200 F 
ATOM     74  C   UNL A   1      46.982  33.447  26.571  1.00  0.00     0.200 A 
ATOM     75  F   UNL A   1      44.646  33.337  26.266  1.00  0.00    -0.200 F 
ATOM     76  F   UNL A   1      46.942  34.782  26.490  1.00  0.00    -0.200 F 
ENDBRANCH  52  66
BRANCH  53  77
ATOM     77  C   UNL A   1      39.162  28.229  29.432  1.00  0.00     0.064 A 
ATOM     78  C   UNL A   1      38.267  28.414  30.496  1.00  0.00     0.173 A 
ATOM     79  C   UNL A   1      38.789  28.790  28.194  1.00  0.00     0.173 A 
ATOM     80  F   UNL A   1      38.574  27.958  31.720  1.00  0.00    -0.203 F 
ATOM     81  C   UNL A   1      37.077  29.134  30.337  1.00  0.00     0.198 A 
ATOM     82  C   UNL A   1      37.600  29.503  28.034  1.00  0.00     0.198 A 
ATOM     83  F   UNL A   1      39.616  28.746  27.140  1.00  0.00    -0.203 F 
ATOM     84  F   UNL A   1      36.275  29.343  31.391  1.00  0.00    -0.200 F 
ATOM     85  C   UNL A   1      36.750  29.685  29.108  1.00  0.00     0.200 A 
ATOM     86  F   UNL A   1      37.317  30.066  26.851  1.00  0.00    -0.200 F 
ATOM     87  F   UNL A   1      35.642  30.426  28.970  1.00  0.00    -0.200 F 
ENDBRANCH  53  77
BRANCH  65  88
ATOM     88  C   UNL A   1      44.714  27.081  32.295  1.00  0.00     0.064 A 
ATOM     89  C   UNL A   1      44.596  27.302  33.679  1.00  0.00     0.173 A 
ATOM     90  C   UNL A   1      44.578  25.764  31.838  1.00  0.00     0.173 A 
ATOM     91  F   UNL A   1      44.622  28.543  34.181  1.00  0.00    -0.203 F 
ATOM     92  C   UNL A   1      44.384  26.245  34.564  1.00  0.00     0.198 A 
ATOM     93  C   UNL A   1      44.332  24.715  32.719  1.00  0.00     0.198 A 
ATOM     94  F   UNL A   1      44.628  25.503  30.523  1.00  0.00    -0.203 F 
ATOM     95  F   UNL A   1      44.277  26.479  35.880  1.00  0.00    -0.200 F 
ATOM     96  C   UNL A   1      44.242  24.954  34.082  1.00  0.00     0.200 A 
ATOM     97  F   UNL A   1      44.147  23.477  32.243  1.00  0.00    -0.200 F 
ATOM     98  F   UNL A   1      43.990  23.943  34.925  1.00  0.00    -0.200 F 
ENDBRANCH  65  88
ENDBRANCH  39  40
ENDBRANCH  32  34
ENDBRANCH  31  32
ENDBRANCH  30  31
ENDBRANCH  29  30
ENDBRANCH  28  29
ENDBRANCH  27  28
ENDBRANCH  26  27
ENDBRANCH   1  26
TORSDOF 24
ENDMDL
MODEL 2
REMARK VINA RESULT:     -10.1      1.445      2.711
REMARK SMILES Cc1n[nH]c(C(=O)N[C@@H](CC(C)C)C(=O)OCCOCCOCCOCCOC(=O)c2ccc(-c3c4nc(c(-c5c(F)c(F)c(F)c(F)c5F)c5ccc([nH]5)c(-c5c(F)c(F)c(F)c(F)c5F)c5nc(c(-c6c(F)c(F)c(F)c(F)c6F)c6ccc3[nH]6)C=C5)C=C4)cc2)n1
REMARK SMILES IDX 22 1 21 2 20 3 19 4 18 5 17 6 16 7 14 8 15 9 9 10 8 11 6 12
REMARK SMILES IDX 7 13 5 15 1 16 2 17 3 18 94 19 4 20 10 22 11 23 12 24 13 25
REMARK SMILES IDX 23 26 24 27 25 28 26 29 27 30 28 31 29 32 30 33 31 34 32 35
REMARK SMILES IDX 93 36 33 37 92 38 34 39 35 40 36 41 86 42 37 43 91 44 85 45
REMARK SMILES IDX 87 46 38 47 90 48 84 49 83 50 39 52 71 53 51 54 70 55 52 56
REMARK SMILES IDX 55 57 69 58 88 59 53 60 54 61 68 63 89 64 56 65 40 66 41 67
REMARK SMILES IDX 49 68 42 69 43 70 47 71 50 72 44 73 45 74 48 75 46 76 72 77
REMARK SMILES IDX 73 78 81 79 74 80 75 81 79 82 82 83 76 84 77 85 80 86 78 87
REMARK SMILES IDX 57 88 58 89 66 90 59 91 60 92 64 93 67 94 61 95 62 96 65 97
REMARK SMILES IDX 63 98
REMARK H PARENT 8 14 4 21 87 51 55 62
REMARK Flexibility Score: inf
ROOT
ATOM      1  O   UNL A   1      36.506  22.596  25.840  1.00  0.00    -0.377 OA
ENDROOT
BRANCH   1   2
ATOM      2  C   UNL A   1      35.575  21.575  26.153  1.00  0.00     0.188 C 
BRANCH   2   3
ATOM      3  C   UNL A   1      34.090  22.005  26.186  1.00  0.00     0.188 C 
BRANCH   3   4
ATOM      4  O   UNL A   1      33.087  21.247  25.517  1.00  0.00    -0.376 OA
BRANCH   4   5
ATOM      5  C   UNL A   1      31.879  21.875  25.117  1.00  0.00     0.202 C 
BRANCH   5   6
ATOM      6  C   UNL A   1      31.315  22.998  25.992  1.00  0.00     0.261 C 
BRANCH   6   7
ATOM      7  O   UNL A   1      30.990  24.210  25.282  1.00  0.00    -0.462 OA
BRANCH   7   8
ATOM      8  C   UNL A   1      31.488  25.366  25.775  1.00  0.00     0.328 C 
ATOM      9  O   UNL A   1      31.200  25.838  26.869  1.00  0.00    -0.250 OA
BRANCH   8  10
ATOM     10  C   UNL A   1      32.375  26.132  24.766  1.00  0.00     0.192 C 
BRANCH  10  11
ATOM     11  N   UNL A   1      32.792  27.509  25.031  1.00  0.00    -0.336 N 
ATOM     12  C   UNL A   1      32.449  28.735  24.493  1.00  0.00     0.289 C 
ATOM     13  O   UNL A   1      33.159  29.671  24.872  1.00  0.00    -0.266 OA
ATOM     14  H   UNL A   1      33.463  27.578  25.748  1.00  0.00     0.164 HD
BRANCH  12  15
ATOM     15  C   UNL A   1      31.312  28.939  23.606  1.00  0.00     0.214 A 
ATOM     16  C   UNL A   1      27.848  28.767  22.799  1.00  0.00     0.092 C 
ATOM     17  C   UNL A   1      29.317  28.927  22.848  1.00  0.00     0.148 A 
ATOM     18  N   UNL A   1      30.042  29.246  21.772  1.00  0.00    -0.159 NA
ATOM     19  N   UNL A   1      30.056  28.731  23.983  1.00  0.00    -0.207 NA
ATOM     20  N   UNL A   1      31.288  29.231  22.272  1.00  0.00    -0.255 N 
ATOM     21  H   UNL A   1      32.096  29.410  21.737  1.00  0.00     0.192 HD
ENDBRANCH  12  15
ENDBRANCH  10  11
BRANCH  10  22
ATOM     22  C   UNL A   1      33.601  25.260  24.455  1.00  0.00     0.040 C 
BRANCH  22  23
ATOM     23  C   UNL A   1      33.890  24.866  22.985  1.00  0.00    -0.015 C 
ATOM     24  C   UNL A   1      34.005  23.368  22.702  1.00  0.00     0.007 C 
ATOM     25  C   UNL A   1      32.768  25.446  22.120  1.00  0.00     0.007 C 
ENDBRANCH  22  23
ENDBRANCH  10  22
ENDBRANCH   8  10
ENDBRANCH   7   8
ENDBRANCH   6   7
ENDBRANCH   5   6
ENDBRANCH   4   5
ENDBRANCH   3   4
ENDBRANCH   2   3
ENDBRANCH   1   2
BRANCH   1  26
ATOM     26  C   UNL A   1      37.743  22.128  25.318  1.00  0.00     0.188 C 
BRANCH  26  27
ATOM     27  C   UNL A   1      39.010  22.390  26.171  1.00  0.00     0.188 C 
BRANCH  27  28
ATOM     28  O   UNL A   1      39.626  21.216  26.696  1.00  0.00    -0.376 OA
BRANCH  28  29
ATOM     29  C   UNL A   1      40.922  21.227  27.277  1.00  0.00     0.202 C 
BRANCH  29  30
ATOM     30  C   UNL A   1      41.979  20.286  26.691  1.00  0.00     0.261 C 
BRANCH  30  31
ATOM     31  O   UNL A   1      42.518  20.751  25.470  1.00  0.00    -0.460 OA
BRANCH  31  32
ATOM     32  C   UNL A   1      43.846  20.620  25.360  1.00  0.00     0.338 C 
ATOM     33  O   UNL A   1      44.505  19.589  25.456  1.00  0.00    -0.246 OA
BRANCH  32  34
ATOM     34  C   UNL A   1      44.426  21.945  25.159  1.00  0.00     0.060 A 
ATOM     35  C   UNL A   1      45.439  22.284  26.051  1.00  0.00     0.016 A 
ATOM     36  C   UNL A   1      43.664  22.897  24.462  1.00  0.00     0.016 A 
ATOM     37  C   UNL A   1      45.400  23.549  26.562  1.00  0.00     0.010 A 
ATOM     38  C   UNL A   1      43.624  24.159  24.973  1.00  0.00     0.010 A 
ATOM     39  C   UNL A   1      44.386  24.401  26.108  1.00  0.00    -0.014 A 
BRANCH  39  40
ATOM     40  C   UNL A   1      44.107  25.564  26.903  1.00  0.00     0.031 A 
ATOM     41  C   UNL A   1      45.125  26.604  26.720  1.00  0.00     0.074 A 
ATOM     42  C   UNL A   1      42.999  25.637  27.661  1.00  0.00     0.049 A 
ATOM     43  N   UNL A   1      46.029  26.981  27.560  1.00  0.00    -0.248 NA
ATOM     44  C   UNL A   1      45.298  27.126  25.355  1.00  0.00     0.031 C 
ATOM     45  C   UNL A   1      41.826  24.754  27.664  1.00  0.00     0.029 A 
ATOM     46  N   UNL A   1      42.655  26.602  28.548  1.00  0.00    -0.354 N 
ATOM     47  C   UNL A   1      46.753  27.954  26.885  1.00  0.00     0.074 A 
ATOM     48  C   UNL A   1      46.417  27.834  25.492  1.00  0.00     0.031 C 
ATOM     49  C   UNL A   1      40.817  25.357  28.336  1.00  0.00     0.029 A 
ATOM     50  C   UNL A   1      41.319  26.587  28.920  1.00  0.00     0.049 A 
ATOM     51  H   UNL A   1      43.299  27.258  28.898  1.00  0.00     0.167 HD
ATOM     52  C   UNL A   1      47.318  28.983  27.566  1.00  0.00     0.037 A 
ATOM     53  C   UNL A   1      40.689  27.601  29.562  1.00  0.00     0.037 A 
ATOM     54  C   UNL A   1      47.485  28.661  28.960  1.00  0.00     0.049 A 
ATOM     55  C   UNL A   1      41.748  28.443  30.186  1.00  0.00     0.074 A 
ATOM     56  C   UNL A   1      48.206  27.711  29.655  1.00  0.00     0.029 A 
ATOM     57  N   UNL A   1      46.543  29.135  29.839  1.00  0.00    -0.354 N 
ATOM     58  N   UNL A   1      42.522  28.037  31.157  1.00  0.00    -0.248 NA
ATOM     59  C   UNL A   1      42.260  29.566  29.414  1.00  0.00     0.031 C 
ATOM     60  C   UNL A   1      47.382  27.347  30.761  1.00  0.00     0.029 A 
ATOM     61  C   UNL A   1      46.223  28.125  30.709  1.00  0.00     0.049 A 
ATOM     62  H   UNL A   1      46.163  30.043  29.843  1.00  0.00     0.167 HD
ATOM     63  C   UNL A   1      43.771  28.571  30.868  1.00  0.00     0.074 A 
ATOM     64  C   UNL A   1      43.530  29.564  29.827  1.00  0.00     0.031 C 
ATOM     65  C   UNL A   1      44.913  27.954  31.296  1.00  0.00     0.037 A 
BRANCH  52  66
ATOM     66  C   UNL A   1      47.310  30.398  27.047  1.00  0.00     0.064 A 
ATOM     67  C   UNL A   1      48.497  31.146  27.106  1.00  0.00     0.173 A 
ATOM     68  C   UNL A   1      46.136  31.137  26.769  1.00  0.00     0.173 A 
ATOM     69  F   UNL A   1      49.665  30.549  27.390  1.00  0.00    -0.203 F 
ATOM     70  C   UNL A   1      48.497  32.536  26.970  1.00  0.00     0.198 A 
ATOM     71  C   UNL A   1      46.149  32.515  26.573  1.00  0.00     0.198 A 
ATOM     72  F   UNL A   1      44.915  30.591  26.789  1.00  0.00    -0.203 F 
ATOM     73  F   UNL A   1      49.631  33.220  27.163  1.00  0.00    -0.200 F 
ATOM     74  C   UNL A   1      47.323  33.218  26.707  1.00  0.00     0.200 A 
ATOM     75  F   UNL A   1      44.994  33.156  26.339  1.00  0.00    -0.200 F 
ATOM     76  F   UNL A   1      47.311  34.555  26.636  1.00  0.00    -0.200 F 
ENDBRANCH  52  66
BRANCH  53  77
ATOM     77  C   UNL A   1      39.326  28.117  29.283  1.00  0.00     0.064 A 
ATOM     78  C   UNL A   1      38.398  28.295  30.320  1.00  0.00     0.173 A 
ATOM     79  C   UNL A   1      39.005  28.709  28.045  1.00  0.00     0.173 A 
ATOM     80  F   UNL A   1      38.655  27.810  31.544  1.00  0.00    -0.203 F 
ATOM     81  C   UNL A   1      37.225  29.036  30.134  1.00  0.00     0.198 A 
ATOM     82  C   UNL A   1      37.834  29.443  27.859  1.00  0.00     0.198 A 
ATOM     83  F   UNL A   1      39.868  28.673  27.019  1.00  0.00    -0.203 F 
ATOM     84  F   UNL A   1      36.390  29.237  31.164  1.00  0.00    -0.200 F 
ATOM     85  C   UNL A   1      36.949  29.617  28.907  1.00  0.00     0.200 A 
ATOM     86  F   UNL A   1      37.600  30.034  26.679  1.00  0.00    -0.200 F 
ATOM     87  F   UNL A   1      35.858  30.379  28.745  1.00  0.00    -0.200 F 
ENDBRANCH  53  77
BRANCH  65  88
ATOM     88  C   UNL A   1      44.768  26.847  32.303  1.00  0.00     0.064 A 
ATOM     89  C   UNL A   1      44.567  25.497  31.962  1.00  0.00     0.173 A 
ATOM     90  C   UNL A   1      45.000  27.143  33.653  1.00  0.00     0.173 A 
ATOM     91  F   UNL A   1      44.431  25.126  30.683  1.00  0.00    -0.203 F 
ATOM     92  C   UNL A   1      44.566  24.498  32.935  1.00  0.00     0.198 A 
ATOM     93  C   UNL A   1      45.034  26.141  34.617  1.00  0.00     0.198 A 
ATOM     94  F   UNL A   1      45.251  28.407  34.027  1.00  0.00    -0.203 F 
ATOM     95  F   UNL A   1      44.370  23.219  32.586  1.00  0.00    -0.200 F 
ATOM     96  C   UNL A   1      44.810  24.820  34.260  1.00  0.00     0.200 A 
ATOM     97  F   UNL A   1      45.318  26.451  35.889  1.00  0.00    -0.200 F 
ATOM     98  F   UNL A   1      44.858  23.855  35.190  1.00  0.00    -0.200 F 
ENDBRANCH  65  88
ENDBRANCH  39  40
ENDBRANCH  32  34
ENDBRANCH  31  32
ENDBRANCH  30  31
ENDBRANCH  29  30
ENDBRANCH  28  29
ENDBRANCH  27  28
ENDBRANCH  26  27
ENDBRANCH   1  26
TORSDOF 24
ENDMDL
MODEL 3
REMARK VINA RESULT:     -10.1      1.391      3.114
REMARK SMILES Cc1n[nH]c(C(=O)N[C@@H](CC(C)C)C(=O)OCCOCCOCCOCCOC(=O)c2ccc(-c3c4nc(c(-c5c(F)c(F)c(F)c(F)c5F)c5ccc([nH]5)c(-c5c(F)c(F)c(F)c(F)c5F)c5nc(c(-c6c(F)c(F)c(F)c(F)c6F)c6ccc3[nH]6)C=C5)C=C4)cc2)n1
REMARK SMILES IDX 22 1 21 2 20 3 19 4 18 5 17 6 16 7 14 8 15 9 9 10 8 11 6 12
REMARK SMILES IDX 7 13 5 15 1 16 2 17 3 18 94 19 4 20 10 22 11 23 12 24 13 25
REMARK SMILES IDX 23 26 24 27 25 28 26 29 27 30 28 31 29 32 30 33 31 34 32 35
REMARK SMILES IDX 93 36 33 37 92 38 34 39 35 40 36 41 86 42 37 43 91 44 85 45
REMARK SMILES IDX 87 46 38 47 90 48 84 49 83 50 39 52 71 53 51 54 70 55 52 56
REMARK SMILES IDX 55 57 69 58 88 59 53 60 54 61 68 63 89 64 56 65 40 66 41 67
REMARK SMILES IDX 49 68 42 69 43 70 47 71 50 72 44 73 45 74 48 75 46 76 72 77
REMARK SMILES IDX 73 78 81 79 74 80 75 81 79 82 82 83 76 84 77 85 80 86 78 87
REMARK SMILES IDX 57 88 58 89 66 90 59 91 60 92 64 93 67 94 61 95 62 96 65 97
REMARK SMILES IDX 63 98
REMARK H PARENT 8 14 4 21 87 51 55 62
REMARK Flexibility Score: inf
ROOT
ATOM      1  O   UNL A   1      37.767  22.005  24.592  1.00  0.00    -0.377 OA
ENDROOT
BRANCH   1   2
ATOM      2  C   UNL A   1      36.407  21.809  24.249  1.00  0.00     0.188 C 
BRANCH   2   3
ATOM      3  C   UNL A   1      35.613  20.847  25.162  1.00  0.00     0.188 C 
BRANCH   3   4
ATOM      4  O   UNL A   1      34.353  21.220  25.711  1.00  0.00    -0.376 OA
BRANCH   4   5
ATOM      5  C   UNL A   1      34.282  21.731  27.033  1.00  0.00     0.202 C 
BRANCH   5   6
ATOM      6  C   UNL A   1      33.851  23.187  27.231  1.00  0.00     0.261 C 
BRANCH   6   7
ATOM      7  O   UNL A   1      33.625  23.920  26.010  1.00  0.00    -0.462 OA
BRANCH   7   8
ATOM      8  C   UNL A   1      34.594  24.778  25.618  1.00  0.00     0.328 C 
ATOM      9  O   UNL A   1      35.795  24.594  25.782  1.00  0.00    -0.250 OA
BRANCH   8  10
ATOM     10  C   UNL A   1      34.044  26.105  25.047  1.00  0.00     0.192 C 
BRANCH  10  11
ATOM     11  N   UNL A   1      33.887  26.291  23.604  1.00  0.00    -0.336 N 
ATOM     12  C   UNL A   1      33.383  25.505  22.586  1.00  0.00     0.289 C 
ATOM     13  O   UNL A   1      33.585  25.953  21.453  1.00  0.00    -0.266 OA
ATOM     14  H   UNL A   1      34.211  27.166  23.290  1.00  0.00     0.164 HD
BRANCH  12  15
ATOM     15  C   UNL A   1      32.619  24.285  22.808  1.00  0.00     0.214 A 
ATOM     16  C   UNL A   1      32.235  20.745  22.842  1.00  0.00     0.092 C 
ATOM     17  C   UNL A   1      32.100  22.217  22.892  1.00  0.00     0.148 A 
ATOM     18  N   UNL A   1      30.925  22.827  23.070  1.00  0.00    -0.159 NA
ATOM     19  N   UNL A   1      33.154  23.073  22.727  1.00  0.00    -0.207 NA
ATOM     20  N   UNL A   1      31.277  24.120  22.997  1.00  0.00    -0.255 N 
ATOM     21  H   UNL A   1      30.638  24.867  23.072  1.00  0.00     0.192 HD
ENDBRANCH  12  15
ENDBRANCH  10  11
BRANCH  10  22
ATOM     22  C   UNL A   1      32.722  26.419  25.764  1.00  0.00     0.040 C 
BRANCH  22  23
ATOM     23  C   UNL A   1      32.490  27.844  26.325  1.00  0.00    -0.015 C 
ATOM     24  C   UNL A   1      31.517  27.954  27.497  1.00  0.00     0.007 C 
ATOM     25  C   UNL A   1      33.850  28.397  26.760  1.00  0.00     0.007 C 
ENDBRANCH  22  23
ENDBRANCH  10  22
ENDBRANCH   8  10
ENDBRANCH   7   8
ENDBRANCH   6   7
ENDBRANCH   5   6
ENDBRANCH   4   5
ENDBRANCH   3   4
ENDBRANCH   2   3
ENDBRANCH   1   2
BRANCH   1  26
ATOM     26  C   UNL A   1      38.000  22.237  25.976  1.00  0.00     0.188 C 
BRANCH  26  27
ATOM     27  C   UNL A   1      39.431  21.965  26.502  1.00  0.00     0.188 C 
BRANCH  27  28
ATOM     28  O   UNL A   1      39.999  20.730  26.072  1.00  0.00    -0.376 OA
BRANCH  28  29
ATOM     29  C   UNL A   1      40.932  20.002  26.858  1.00  0.00     0.202 C 
BRANCH  29  30
ATOM     30  C   UNL A   1      42.290  19.667  26.233  1.00  0.00     0.261 C 
BRANCH  30  31
ATOM     31  O   UNL A   1      42.796  20.705  25.419  1.00  0.00    -0.460 OA
BRANCH  31  32
ATOM     32  C   UNL A   1      44.111  20.634  25.178  1.00  0.00     0.338 C 
ATOM     33  O   UNL A   1      44.818  19.631  25.182  1.00  0.00    -0.246 OA
BRANCH  32  34
ATOM     34  C   UNL A   1      44.614  21.988  24.958  1.00  0.00     0.060 A 
ATOM     35  C   UNL A   1      45.669  22.364  25.784  1.00  0.00     0.016 A 
ATOM     36  C   UNL A   1      43.762  22.910  24.329  1.00  0.00     0.016 A 
ATOM     37  C   UNL A   1      45.606  23.619  26.315  1.00  0.00     0.010 A 
ATOM     38  C   UNL A   1      43.698  24.163  24.861  1.00  0.00     0.010 A 
ATOM     39  C   UNL A   1      44.525  24.427  25.945  1.00  0.00    -0.014 A 
BRANCH  39  40
ATOM     40  C   UNL A   1      44.247  25.566  26.775  1.00  0.00     0.031 A 
ATOM     41  C   UNL A   1      45.261  26.615  26.615  1.00  0.00     0.074 A 
ATOM     42  C   UNL A   1      43.144  25.613  27.542  1.00  0.00     0.049 A 
ATOM     43  N   UNL A   1      46.169  26.970  27.459  1.00  0.00    -0.248 NA
ATOM     44  C   UNL A   1      45.423  27.175  25.265  1.00  0.00     0.031 C 
ATOM     45  C   UNL A   1      41.974  24.726  27.528  1.00  0.00     0.029 A 
ATOM     46  N   UNL A   1      42.804  26.551  28.458  1.00  0.00    -0.354 N 
ATOM     47  C   UNL A   1      46.886  27.965  26.808  1.00  0.00     0.074 A 
ATOM     48  C   UNL A   1      46.541  27.883  25.414  1.00  0.00     0.031 C 
ATOM     49  C   UNL A   1      40.968  25.306  28.224  1.00  0.00     0.029 A 
ATOM     50  C   UNL A   1      41.470  26.521  28.839  1.00  0.00     0.049 A 
ATOM     51  H   UNL A   1      43.448  27.199  28.823  1.00  0.00     0.167 HD
ATOM     52  C   UNL A   1      47.452  28.976  27.514  1.00  0.00     0.037 A 
ATOM     53  C   UNL A   1      40.842  27.514  29.514  1.00  0.00     0.037 A 
ATOM     54  C   UNL A   1      47.630  28.614  28.896  1.00  0.00     0.049 A 
ATOM     55  C   UNL A   1      41.902  28.341  30.156  1.00  0.00     0.074 A 
ATOM     56  C   UNL A   1      48.358  27.647  29.559  1.00  0.00     0.029 A 
ATOM     57  N   UNL A   1      46.692  29.060  29.795  1.00  0.00    -0.354 N 
ATOM     58  N   UNL A   1      42.684  27.910  31.109  1.00  0.00    -0.248 NA
ATOM     59  C   UNL A   1      42.404  29.488  29.412  1.00  0.00     0.031 C 
ATOM     60  C   UNL A   1      47.543  27.249  30.660  1.00  0.00     0.029 A 
ATOM     61  C   UNL A   1      46.382  28.024  30.638  1.00  0.00     0.049 A 
ATOM     62  H   UNL A   1      46.309  29.965  29.828  1.00  0.00     0.167 HD
ATOM     63  C   UNL A   1      43.930  28.456  30.827  1.00  0.00     0.074 A 
ATOM     64  C   UNL A   1      43.677  29.478  29.816  1.00  0.00     0.031 C 
ATOM     65  C   UNL A   1      45.076  27.832  31.229  1.00  0.00     0.037 A 
BRANCH  52  66
ATOM     66  C   UNL A   1      47.435  30.405  27.035  1.00  0.00     0.064 A 
ATOM     67  C   UNL A   1      48.629  31.144  27.076  1.00  0.00     0.173 A 
ATOM     68  C   UNL A   1      46.258  31.158  26.819  1.00  0.00     0.173 A 
ATOM     69  F   UNL A   1      49.802  30.532  27.302  1.00  0.00    -0.203 F 
ATOM     70  C   UNL A   1      48.633  32.537  26.979  1.00  0.00     0.198 A 
ATOM     71  C   UNL A   1      46.273  32.541  26.662  1.00  0.00     0.198 A 
ATOM     72  F   UNL A   1      45.034  30.619  26.865  1.00  0.00    -0.203 F 
ATOM     73  F   UNL A   1      49.778  33.210  27.153  1.00  0.00    -0.200 F 
ATOM     74  C   UNL A   1      47.455  33.234  26.775  1.00  0.00     0.200 A 
ATOM     75  F   UNL A   1      45.115  33.195  26.486  1.00  0.00    -0.200 F 
ATOM     76  F   UNL A   1      47.450  34.572  26.743  1.00  0.00    -0.200 F 
ENDBRANCH  52  66
BRANCH  53  77
ATOM     77  C   UNL A   1      39.475  28.033  29.260  1.00  0.00     0.064 A 
ATOM     78  C   UNL A   1      38.552  28.173  30.307  1.00  0.00     0.173 A 
ATOM     79  C   UNL A   1      39.145  28.663  28.044  1.00  0.00     0.173 A 
ATOM     80  F   UNL A   1      38.817  27.649  31.513  1.00  0.00    -0.203 F 
ATOM     81  C   UNL A   1      37.375  28.915  30.152  1.00  0.00     0.198 A 
ATOM     82  C   UNL A   1      37.969  29.398  27.888  1.00  0.00     0.198 A 
ATOM     83  F   UNL A   1      40.002  28.664  27.013  1.00  0.00    -0.203 F 
ATOM     84  F   UNL A   1      36.545  29.079  31.192  1.00  0.00    -0.200 F 
ATOM     85  C   UNL A   1      37.090  29.534  28.945  1.00  0.00     0.200 A 
ATOM     86  F   UNL A   1      37.726  30.026  26.729  1.00  0.00    -0.200 F 
ATOM     87  F   UNL A   1      35.994  30.296  28.815  1.00  0.00    -0.200 F 
ENDBRANCH  53  77
BRANCH  65  88
ATOM     88  C   UNL A   1      44.942  26.696  32.205  1.00  0.00     0.064 A 
ATOM     89  C   UNL A   1      44.711  25.361  31.828  1.00  0.00     0.173 A 
ATOM     90  C   UNL A   1      45.215  26.946  33.556  1.00  0.00     0.173 A 
ATOM     91  F   UNL A   1      44.535  25.031  30.542  1.00  0.00    -0.203 F 
ATOM     92  C   UNL A   1      44.722  24.331  32.769  1.00  0.00     0.198 A 
ATOM     93  C   UNL A   1      45.260  25.913  34.488  1.00  0.00     0.198 A 
ATOM     94  F   UNL A   1      45.496  28.193  33.963  1.00  0.00    -0.203 F 
ATOM     95  F   UNL A   1      44.496  23.066  32.386  1.00  0.00    -0.200 F 
ATOM     96  C   UNL A   1      45.006  24.608  34.096  1.00  0.00     0.200 A 
ATOM     97  F   UNL A   1      45.584  26.179  35.760  1.00  0.00    -0.200 F 
ATOM     98  F   UNL A   1      45.065  23.614  34.994  1.00  0.00    -0.200 F 
ENDBRANCH  65  88
ENDBRANCH  39  40
ENDBRANCH  32  34
ENDBRANCH  31  32
ENDBRANCH  30  31
ENDBRANCH  29  30
ENDBRANCH  28  29
ENDBRANCH  27  28
ENDBRANCH  26  27
ENDBRANCH   1  26
TORSDOF 24
ENDMDL
