MODEL 1
REMARK VINA RESULT:      -8.9      0.000      0.000
REMARK SMILES COc1c[nH]c(C[N@H+]2CCC[C@@H](c3ccc(C(=O)OCCOCCOCCOCCOC(=O)c4ccc(-c5c6nc(c(-c7c(F)c(F)c(F)c(F)c7F)c7ccc([nH]7)c(-c7c(F)c(F)c(F)c(F)c7F)c7nc(c(-c8c(F)c(F)c(F)c(F)c8F)c8ccc5[nH]8)C=C7)C=C6)cc4)cc3)C2)cc1=O
REMARK SMILES IDX 24 1 23 2 22 3 21 4 20 5 19 6 17 7 18 8 16 9 13 10 14 11
REMARK SMILES IDX 98 12 15 13 97 14 12 15 8 16 9 17 99 18 10 20 11 21 7 22
REMARK SMILES IDX 6 23 3 24 4 25 101 26 5 27 100 28 102 29 2 31 1 32 25 33
REMARK SMILES IDX 26 34 27 35 28 36 29 37 30 38 31 39 32 40 33 41 34 42 35 43
REMARK SMILES IDX 96 44 36 45 95 46 37 47 38 48 39 49 89 50 40 51 94 52 88 53
REMARK SMILES IDX 90 54 41 55 93 56 87 57 86 58 42 60 74 61 54 62 73 63 55 64
REMARK SMILES IDX 58 65 72 66 91 67 56 68 57 69 71 71 92 72 59 73 43 74 44 75
REMARK SMILES IDX 52 76 45 77 46 78 50 79 53 80 47 81 48 82 51 83 49 84 75 85
REMARK SMILES IDX 76 86 84 87 77 88 78 89 82 90 85 91 79 92 80 93 83 94 81 95
REMARK SMILES IDX 60 96 61 97 69 98 62 99 63 100 67 101 70 102 64 103 65 104
REMARK SMILES IDX 68 105 66 106
REMARK H PARENT 8 19 5 30 90 59 58 70
REMARK Flexibility Score: inf
ROOT
ATOM      1  C   UNL A   1      44.509  26.480  25.086  1.00  0.00     0.188 C 
ENDROOT
BRANCH   1   2
ATOM      2  C   UNL A   1      44.362  27.493  26.242  1.00  0.00     0.188 C 
BRANCH   2   3
ATOM      3  O   UNL A   1      43.694  28.686  25.870  1.00  0.00    -0.376 OA
BRANCH   3   4
ATOM      4  C   UNL A   1      43.395  29.650  26.861  1.00  0.00     0.202 C 
BRANCH   4   5
ATOM      5  C   UNL A   1      44.482  30.638  27.313  1.00  0.00     0.261 C 
BRANCH   5   6
ATOM      6  O   UNL A   1      44.138  32.026  27.261  1.00  0.00    -0.460 OA
BRANCH   6   7
ATOM      7  C   UNL A   1      44.338  32.740  28.389  1.00  0.00     0.338 C 
ATOM      8  O   UNL A   1      45.103  32.470  29.298  1.00  0.00    -0.246 OA
BRANCH   7   9
ATOM      9  C   UNL A   1      43.639  34.037  28.244  1.00  0.00     0.060 A 
ATOM     10  C   UNL A   1      42.440  36.554  27.940  1.00  0.00    -0.039 A 
ATOM     11  C   UNL A   1      43.449  36.129  27.056  1.00  0.00     0.005 A 
ATOM     12  C   UNL A   1      41.962  35.652  28.904  1.00  0.00     0.005 A 
ATOM     13  C   UNL A   1      44.070  34.896  27.230  1.00  0.00     0.016 A 
ATOM     14  C   UNL A   1      42.550  34.390  29.047  1.00  0.00     0.016 A 
BRANCH  10  15
ATOM     15  C   UNL A   1      42.040  38.026  28.005  1.00  0.00     0.074 C 
ATOM     16  N   UNL A   1      43.055  40.216  28.817  1.00  0.00    -0.329 N 
ATOM     17  C   UNL A   1      42.821  40.816  27.498  1.00  0.00     0.262 C 
ATOM     18  C   UNL A   1      43.193  38.763  28.723  1.00  0.00     0.270 C 
ATOM     19  H   UNL A   1      42.228  40.412  29.383  1.00  0.00     0.348 HD
ATOM     20  C   UNL A   1      41.606  40.187  26.802  1.00  0.00     0.062 C 
ATOM     21  C   UNL A   1      41.764  38.673  26.642  1.00  0.00     0.020 C 
BRANCH  16  22
ATOM     22  C   UNL A   1      44.201  40.834  29.526  1.00  0.00     0.317 C 
BRANCH  22  23
ATOM     23  C   UNL A   1      43.908  41.526  30.860  1.00  0.00     0.074 A 
ATOM     24  C   UNL A   1      43.403  43.116  33.182  1.00  0.00     0.182 A 
ATOM     25  C   UNL A   1      44.430  43.348  32.354  1.00  0.00     0.133 A 
ATOM     26  C   UNL A   1      42.560  41.906  32.876  1.00  0.00     0.223 A 
ATOM     27  N   UNL A   1      44.733  42.555  31.281  1.00  0.00    -0.357 N 
ATOM     28  C   UNL A   1      42.864  41.153  31.624  1.00  0.00     0.083 A 
ATOM     29  O   UNL A   1      41.636  41.538  33.595  1.00  0.00    -0.286 OA
ATOM     30  H   UNL A   1      45.570  42.723  30.791  1.00  0.00     0.166 HD
BRANCH  24  31
ATOM     31  O   UNL A   1      43.102  43.994  34.204  1.00  0.00    -0.491 OA
ATOM     32  C   UNL A   1      42.145  44.969  33.804  1.00  0.00     0.278 C 
ENDBRANCH  24  31
ENDBRANCH  22  23
ENDBRANCH  16  22
ENDBRANCH  10  15
ENDBRANCH   7   9
ENDBRANCH   6   7
ENDBRANCH   5   6
ENDBRANCH   4   5
ENDBRANCH   3   4
ENDBRANCH   2   3
ENDBRANCH   1   2
BRANCH   1  33
ATOM     33  O   UNL A   1      44.255  25.108  25.353  1.00  0.00    -0.377 OA
BRANCH  33  34
ATOM     34  C   UNL A   1      44.016  24.676  26.691  1.00  0.00     0.188 C 
BRANCH  34  35
ATOM     35  C   UNL A   1      43.156  23.430  27.019  1.00  0.00     0.188 C 
BRANCH  35  36
ATOM     36  O   UNL A   1      42.627  22.757  25.891  1.00  0.00    -0.376 OA
BRANCH  36  37
ATOM     37  C   UNL A   1      41.493  21.932  26.078  1.00  0.00     0.202 C 
BRANCH  37  38
ATOM     38  C   UNL A   1      40.413  22.440  27.042  1.00  0.00     0.261 C 
BRANCH  38  39
ATOM     39  O   UNL A   1      39.078  22.505  26.520  1.00  0.00    -0.460 OA
BRANCH  39  40
ATOM     40  C   UNL A   1      38.633  23.711  26.117  1.00  0.00     0.338 C 
ATOM     41  O   UNL A   1      37.734  23.941  25.320  1.00  0.00    -0.246 OA
BRANCH  40  42
ATOM     42  C   UNL A   1      39.298  24.737  26.942  1.00  0.00     0.060 A 
ATOM     43  C   UNL A   1      38.982  24.830  28.305  1.00  0.00     0.016 A 
ATOM     44  C   UNL A   1      40.225  25.609  26.368  1.00  0.00     0.016 A 
ATOM     45  C   UNL A   1      39.557  25.832  29.086  1.00  0.00     0.010 A 
ATOM     46  C   UNL A   1      40.783  26.626  27.146  1.00  0.00     0.010 A 
ATOM     47  C   UNL A   1      40.414  26.768  28.496  1.00  0.00    -0.014 A 
BRANCH  47  48
ATOM     48  C   UNL A   1      40.726  28.028  29.214  1.00  0.00     0.031 A 
ATOM     49  C   UNL A   1      42.114  28.193  29.773  1.00  0.00     0.074 A 
ATOM     50  C   UNL A   1      39.820  29.013  29.344  1.00  0.00     0.049 A 
ATOM     51  N   UNL A   1      42.618  29.170  30.482  1.00  0.00    -0.248 NA
ATOM     52  C   UNL A   1      43.060  27.101  29.494  1.00  0.00     0.031 C 
ATOM     53  C   UNL A   1      38.463  28.991  28.806  1.00  0.00     0.029 A 
ATOM     54  N   UNL A   1      39.913  30.224  29.983  1.00  0.00    -0.354 N 
ATOM     55  C   UNL A   1      43.933  28.804  30.741  1.00  0.00     0.074 A 
ATOM     56  C   UNL A   1      44.140  27.503  30.146  1.00  0.00     0.031 C 
ATOM     57  C   UNL A   1      37.842  30.134  29.148  1.00  0.00     0.029 A 
ATOM     58  C   UNL A   1      38.747  30.949  29.959  1.00  0.00     0.049 A 
ATOM     59  H   UNL A   1      40.736  30.543  30.419  1.00  0.00     0.167 HD
ATOM     60  C   UNL A   1      44.887  29.497  31.406  1.00  0.00     0.037 A 
ATOM     61  C   UNL A   1      38.444  32.123  30.547  1.00  0.00     0.037 A 
ATOM     62  C   UNL A   1      44.676  30.792  31.997  1.00  0.00     0.049 A 
ATOM     63  C   UNL A   1      39.501  32.839  31.354  1.00  0.00     0.074 A 
ATOM     64  C   UNL A   1      45.580  31.584  32.683  1.00  0.00     0.029 A 
ATOM     65  N   UNL A   1      43.473  31.480  31.978  1.00  0.00    -0.354 N 
ATOM     66  N   UNL A   1      40.748  32.500  31.577  1.00  0.00    -0.248 NA
ATOM     67  C   UNL A   1      39.106  34.106  31.986  1.00  0.00     0.031 C 
ATOM     68  C   UNL A   1      44.906  32.723  33.134  1.00  0.00     0.029 A 
ATOM     69  C   UNL A   1      43.602  32.677  32.665  1.00  0.00     0.049 A 
ATOM     70  H   UNL A   1      42.649  31.166  31.541  1.00  0.00     0.167 HD
ATOM     71  C   UNL A   1      41.296  33.527  32.338  1.00  0.00     0.074 A 
ATOM     72  C   UNL A   1      40.247  34.506  32.529  1.00  0.00     0.031 C 
ATOM     73  C   UNL A   1      42.554  33.650  32.832  1.00  0.00     0.037 A 
BRANCH  60  74
ATOM     74  C   UNL A   1      46.236  28.853  31.556  1.00  0.00     0.064 A 
ATOM     75  C   UNL A   1      46.546  28.032  32.651  1.00  0.00     0.173 A 
ATOM     76  C   UNL A   1      47.221  29.040  30.576  1.00  0.00     0.173 A 
ATOM     77  F   UNL A   1      45.646  27.834  33.625  1.00  0.00    -0.203 F 
ATOM     78  C   UNL A   1      47.804  27.447  32.772  1.00  0.00     0.198 A 
ATOM     79  C   UNL A   1      48.466  28.424  30.682  1.00  0.00     0.198 A 
ATOM     80  F   UNL A   1      46.977  29.814  29.508  1.00  0.00    -0.203 F 
ATOM     81  F   UNL A   1      48.097  26.710  33.853  1.00  0.00    -0.200 F 
ATOM     82  C   UNL A   1      48.759  27.636  31.784  1.00  0.00     0.200 A 
ATOM     83  F   UNL A   1      49.381  28.596  29.720  1.00  0.00    -0.200 F 
ATOM     84  F   UNL A   1      49.965  27.064  31.898  1.00  0.00    -0.200 F 
ENDBRANCH  60  74
BRANCH  61  85
ATOM     85  C   UNL A   1      37.078  32.700  30.411  1.00  0.00     0.064 A 
ATOM     86  C   UNL A   1      36.741  33.518  29.324  1.00  0.00     0.173 A 
ATOM     87  C   UNL A   1      36.095  32.475  31.386  1.00  0.00     0.173 A 
ATOM     88  F   UNL A   1      37.654  33.786  28.380  1.00  0.00    -0.203 F 
ATOM     89  C   UNL A   1      35.483  34.112  29.232  1.00  0.00     0.198 A 
ATOM     90  C   UNL A   1      34.825  33.041  31.275  1.00  0.00     0.198 A 
ATOM     91  F   UNL A   1      36.364  31.702  32.449  1.00  0.00    -0.203 F 
ATOM     92  F   UNL A   1      35.208  34.938  28.214  1.00  0.00    -0.200 F 
ATOM     93  C   UNL A   1      34.524  33.868  30.204  1.00  0.00     0.200 A 
ATOM     94  F   UNL A   1      33.899  32.792  32.210  1.00  0.00    -0.200 F 
ATOM     95  F   UNL A   1      33.316  34.439  30.115  1.00  0.00    -0.200 F 
ENDBRANCH  61  85
BRANCH  73  96
ATOM     96  C   UNL A   1      42.888  34.913  33.576  1.00  0.00     0.064 A 
ATOM     97  C   UNL A   1      43.334  36.069  32.920  1.00  0.00     0.173 A 
ATOM     98  C   UNL A   1      42.713  34.977  34.969  1.00  0.00     0.173 A 
ATOM     99  F   UNL A   1      43.530  36.060  31.593  1.00  0.00    -0.203 F 
ATOM    100  C   UNL A   1      43.623  37.231  33.633  1.00  0.00     0.198 A 
ATOM    101  C   UNL A   1      42.966  36.151  35.672  1.00  0.00     0.198 A 
ATOM    102  F   UNL A   1      42.278  33.903  35.647  1.00  0.00    -0.203 F 
ATOM    103  F   UNL A   1      44.101  38.306  32.991  1.00  0.00    -0.200 F 
ATOM    104  C   UNL A   1      43.431  37.273  35.005  1.00  0.00     0.200 A 
ATOM    105  F   UNL A   1      42.761  36.195  36.996  1.00  0.00    -0.200 F 
ATOM    106  F   UNL A   1      43.700  38.396  35.687  1.00  0.00    -0.200 F 
ENDBRANCH  73  96
ENDBRANCH  47  48
ENDBRANCH  40  42
ENDBRANCH  39  40
ENDBRANCH  38  39
ENDBRANCH  37  38
ENDBRANCH  36  37
ENDBRANCH  35  36
ENDBRANCH  34  35
ENDBRANCH  33  34
ENDBRANCH   1  33
TORSDOF 24
ENDMDL
MODEL 2
REMARK VINA RESULT:      -7.8      1.622      2.631
REMARK SMILES COc1c[nH]c(C[N@H+]2CCC[C@@H](c3ccc(C(=O)OCCOCCOCCOCCOC(=O)c4ccc(-c5c6nc(c(-c7c(F)c(F)c(F)c(F)c7F)c7ccc([nH]7)c(-c7c(F)c(F)c(F)c(F)c7F)c7nc(c(-c8c(F)c(F)c(F)c(F)c8F)c8ccc5[nH]8)C=C7)C=C6)cc4)cc3)C2)cc1=O
REMARK SMILES IDX 24 1 23 2 22 3 21 4 20 5 19 6 17 7 18 8 16 9 13 10 14 11
REMARK SMILES IDX 98 12 15 13 97 14 12 15 8 16 9 17 99 18 10 20 11 21 7 22
REMARK SMILES IDX 6 23 3 24 4 25 101 26 5 27 100 28 102 29 2 31 1 32 25 33
REMARK SMILES IDX 26 34 27 35 28 36 29 37 30 38 31 39 32 40 33 41 34 42 35 43
REMARK SMILES IDX 96 44 36 45 95 46 37 47 38 48 39 49 89 50 40 51 94 52 88 53
REMARK SMILES IDX 90 54 41 55 93 56 87 57 86 58 42 60 74 61 54 62 73 63 55 64
REMARK SMILES IDX 58 65 72 66 91 67 56 68 57 69 71 71 92 72 59 73 43 74 44 75
REMARK SMILES IDX 52 76 45 77 46 78 50 79 53 80 47 81 48 82 51 83 49 84 75 85
REMARK SMILES IDX 76 86 84 87 77 88 78 89 82 90 85 91 79 92 80 93 83 94 81 95
REMARK SMILES IDX 60 96 61 97 69 98 62 99 63 100 67 101 70 102 64 103 65 104
REMARK SMILES IDX 68 105 66 106
REMARK H PARENT 8 19 5 30 90 59 58 70
REMARK Flexibility Score: inf
ROOT
ATOM      1  C   UNL A   1      44.149  26.656  25.149  1.00  0.00     0.188 C 
ENDROOT
BRANCH   1   2
ATOM      2  C   UNL A   1      44.200  27.663  26.319  1.00  0.00     0.188 C 
BRANCH   2   3
ATOM      3  O   UNL A   1      43.324  28.766  26.157  1.00  0.00    -0.376 OA
BRANCH   3   4
ATOM      4  C   UNL A   1      43.420  29.862  27.046  1.00  0.00     0.202 C 
BRANCH   4   5
ATOM      5  C   UNL A   1      44.699  30.715  27.066  1.00  0.00     0.261 C 
BRANCH   5   6
ATOM      6  O   UNL A   1      44.513  32.132  27.128  1.00  0.00    -0.460 OA
BRANCH   6   7
ATOM      7  C   UNL A   1      44.405  32.673  28.360  1.00  0.00     0.338 C 
ATOM      8  O   UNL A   1      44.895  32.246  29.390  1.00  0.00    -0.246 OA
BRANCH   7   9
ATOM      9  C   UNL A   1      43.778  34.008  28.225  1.00  0.00     0.060 A 
ATOM     10  C   UNL A   1      42.718  36.593  27.984  1.00  0.00    -0.039 A 
ATOM     11  C   UNL A   1      43.936  36.258  27.366  1.00  0.00     0.005 A 
ATOM     12  C   UNL A   1      41.984  35.582  28.625  1.00  0.00     0.005 A 
ATOM     13  C   UNL A   1      44.480  34.986  27.517  1.00  0.00     0.016 A 
ATOM     14  C   UNL A   1      42.505  34.288  28.733  1.00  0.00     0.016 A 
BRANCH  10  15
ATOM     15  C   UNL A   1      42.318  38.056  28.160  1.00  0.00     0.074 C 
ATOM     16  N   UNL A   1      43.456  40.262  28.728  1.00  0.00    -0.329 N 
ATOM     17  C   UNL A   1      42.901  40.865  27.509  1.00  0.00     0.262 C 
ATOM     18  C   UNL A   1      43.596  38.813  28.588  1.00  0.00     0.270 C 
ATOM     19  H   UNL A   1      42.786  40.437  29.477  1.00  0.00     0.348 HD
ATOM     20  C   UNL A   1      41.566  40.215  27.119  1.00  0.00     0.062 C 
ATOM     21  C   UNL A   1      41.710  38.705  26.910  1.00  0.00     0.020 C 
BRANCH  16  22
ATOM     22  C   UNL A   1      44.727  40.900  29.147  1.00  0.00     0.317 C 
BRANCH  22  23
ATOM     23  C   UNL A   1      45.105  42.219  28.470  1.00  0.00     0.074 A 
ATOM     24  C   UNL A   1      45.873  44.804  27.520  1.00  0.00     0.182 A 
ATOM     25  C   UNL A   1      45.026  44.630  28.543  1.00  0.00     0.133 A 
ATOM     26  C   UNL A   1      46.345  43.555  26.825  1.00  0.00     0.223 A 
ATOM     27  N   UNL A   1      44.588  43.404  28.964  1.00  0.00    -0.357 N 
ATOM     28  C   UNL A   1      45.932  42.244  27.407  1.00  0.00     0.083 A 
ATOM     29  O   UNL A   1      47.062  43.576  25.829  1.00  0.00    -0.286 OA
ATOM     30  H   UNL A   1      43.878  43.364  29.645  1.00  0.00     0.166 HD
BRANCH  24  31
ATOM     31  O   UNL A   1      46.337  46.062  27.188  1.00  0.00    -0.491 OA
ATOM     32  C   UNL A   1      45.693  47.083  27.942  1.00  0.00     0.278 C 
ENDBRANCH  24  31
ENDBRANCH  22  23
ENDBRANCH  16  22
ENDBRANCH  10  15
ENDBRANCH   7   9
ENDBRANCH   6   7
ENDBRANCH   5   6
ENDBRANCH   4   5
ENDBRANCH   3   4
ENDBRANCH   2   3
ENDBRANCH   1   2
BRANCH   1  33
ATOM     33  O   UNL A   1      44.257  25.270  25.446  1.00  0.00    -0.377 OA
BRANCH  33  34
ATOM     34  C   UNL A   1      44.008  24.805  26.770  1.00  0.00     0.188 C 
BRANCH  34  35
ATOM     35  C   UNL A   1      43.126  23.566  27.062  1.00  0.00     0.188 C 
BRANCH  35  36
ATOM     36  O   UNL A   1      42.638  22.898  25.912  1.00  0.00    -0.376 OA
BRANCH  36  37
ATOM     37  C   UNL A   1      41.524  22.037  26.062  1.00  0.00     0.202 C 
BRANCH  37  38
ATOM     38  C   UNL A   1      40.426  22.484  27.037  1.00  0.00     0.261 C 
BRANCH  38  39
ATOM     39  O   UNL A   1      39.087  22.494  26.520  1.00  0.00    -0.460 OA
BRANCH  39  40
ATOM     40  C   UNL A   1      38.569  23.689  26.176  1.00  0.00     0.338 C 
ATOM     41  O   UNL A   1      37.616  23.899  25.440  1.00  0.00    -0.246 OA
BRANCH  40  42
ATOM     42  C   UNL A   1      39.238  24.722  26.990  1.00  0.00     0.060 A 
ATOM     43  C   UNL A   1      38.941  24.816  28.357  1.00  0.00     0.016 A 
ATOM     44  C   UNL A   1      40.150  25.600  26.400  1.00  0.00     0.016 A 
ATOM     45  C   UNL A   1      39.519  25.824  29.127  1.00  0.00     0.010 A 
ATOM     46  C   UNL A   1      40.711  26.623  27.168  1.00  0.00     0.010 A 
ATOM     47  C   UNL A   1      40.361  26.765  28.523  1.00  0.00    -0.014 A 
BRANCH  47  48
ATOM     48  C   UNL A   1      40.673  28.030  29.234  1.00  0.00     0.031 A 
ATOM     49  C   UNL A   1      42.047  28.180  29.829  1.00  0.00     0.074 A 
ATOM     50  C   UNL A   1      39.780  29.030  29.327  1.00  0.00     0.049 A 
ATOM     51  N   UNL A   1      42.547  29.157  30.540  1.00  0.00    -0.248 NA
ATOM     52  C   UNL A   1      42.983  27.069  29.590  1.00  0.00     0.031 C 
ATOM     53  C   UNL A   1      38.437  29.023  28.751  1.00  0.00     0.029 A 
ATOM     54  N   UNL A   1      39.874  30.248  29.953  1.00  0.00    -0.354 N 
ATOM     55  C   UNL A   1      43.849  28.774  30.839  1.00  0.00     0.074 A 
ATOM     56  C   UNL A   1      44.051  27.462  30.267  1.00  0.00     0.031 C 
ATOM     57  C   UNL A   1      37.826  30.179  29.061  1.00  0.00     0.029 A 
ATOM     58  C   UNL A   1      38.722  30.991  29.887  1.00  0.00     0.049 A 
ATOM     59  H   UNL A   1      40.690  30.559  30.407  1.00  0.00     0.167 HD
ATOM     60  C   UNL A   1      44.795  29.460  31.522  1.00  0.00     0.037 A 
ATOM     61  C   UNL A   1      38.422  32.177  30.452  1.00  0.00     0.037 A 
ATOM     62  C   UNL A   1      44.589  30.766  32.090  1.00  0.00     0.049 A 
ATOM     63  C   UNL A   1      39.468  32.886  31.279  1.00  0.00     0.074 A 
ATOM     64  C   UNL A   1      45.486  31.551  32.791  1.00  0.00     0.029 A 
ATOM     65  N   UNL A   1      43.398  31.472  32.030  1.00  0.00    -0.354 N 
ATOM     66  N   UNL A   1      40.702  32.531  31.541  1.00  0.00    -0.248 NA
ATOM     67  C   UNL A   1      39.076  34.167  31.884  1.00  0.00     0.031 C 
ATOM     68  C   UNL A   1      44.819  32.707  33.209  1.00  0.00     0.029 A 
ATOM     69  C   UNL A   1      43.528  32.676  32.705  1.00  0.00     0.049 A 
ATOM     70  H   UNL A   1      42.581  31.166  31.574  1.00  0.00     0.167 HD
ATOM     71  C   UNL A   1      41.245  33.558  32.304  1.00  0.00     0.074 A 
ATOM     72  C   UNL A   1      40.208  34.556  32.453  1.00  0.00     0.031 C 
ATOM     73  C   UNL A   1      42.491  33.667  32.831  1.00  0.00     0.037 A 
BRANCH  60  74
ATOM     74  C   UNL A   1      46.129  28.797  31.717  1.00  0.00     0.064 A 
ATOM     75  C   UNL A   1      47.171  28.941  30.789  1.00  0.00     0.173 A 
ATOM     76  C   UNL A   1      46.374  28.027  32.864  1.00  0.00     0.173 A 
ATOM     77  F   UNL A   1      46.984  29.652  29.666  1.00  0.00    -0.203 F 
ATOM     78  C   UNL A   1      48.398  28.314  30.988  1.00  0.00     0.198 A 
ATOM     79  C   UNL A   1      47.614  27.432  33.077  1.00  0.00     0.198 A 
ATOM     80  F   UNL A   1      45.413  27.858  33.784  1.00  0.00    -0.203 F 
ATOM     81  F   UNL A   1      49.362  28.420  30.062  1.00  0.00    -0.200 F 
ATOM     82  C   UNL A   1      48.622  27.568  32.135  1.00  0.00     0.200 A 
ATOM     83  F   UNL A   1      47.832  26.723  34.194  1.00  0.00    -0.200 F 
ATOM     84  F   UNL A   1      49.807  26.974  32.330  1.00  0.00    -0.200 F 
ENDBRANCH  60  74
BRANCH  61  85
ATOM     85  C   UNL A   1      37.070  32.773  30.272  1.00  0.00     0.064 A 
ATOM     86  C   UNL A   1      36.079  32.633  31.253  1.00  0.00     0.173 A 
ATOM     87  C   UNL A   1      36.730  33.461  29.097  1.00  0.00     0.173 A 
ATOM     88  F   UNL A   1      36.345  31.961  32.382  1.00  0.00    -0.203 F 
ATOM     89  C   UNL A   1      34.793  33.134  31.056  1.00  0.00     0.198 A 
ATOM     90  C   UNL A   1      35.453  33.992  28.915  1.00  0.00     0.198 A 
ATOM     91  F   UNL A   1      37.638  33.622  28.124  1.00  0.00    -0.203 F 
ATOM     92  F   UNL A   1      33.848  32.933  31.985  1.00  0.00    -0.200 F 
ATOM     93  C   UNL A   1      34.482  33.818  29.890  1.00  0.00     0.200 A 
ATOM     94  F   UNL A   1      35.163  34.663  27.793  1.00  0.00    -0.200 F 
ATOM     95  F   UNL A   1      33.247  34.298  29.700  1.00  0.00    -0.200 F 
ENDBRANCH  61  85
BRANCH  73  96
ATOM     96  C   UNL A   1      42.826  34.934  33.569  1.00  0.00     0.064 A 
ATOM     97  C   UNL A   1      42.682  35.047  34.959  1.00  0.00     0.173 A 
ATOM     98  C   UNL A   1      43.344  36.039  32.873  1.00  0.00     0.173 A 
ATOM     99  F   UNL A   1      42.181  34.027  35.671  1.00  0.00    -0.203 F 
ATOM    100  C   UNL A   1      43.013  36.228  35.620  1.00  0.00     0.198 A 
ATOM    101  C   UNL A   1      43.710  37.203  33.542  1.00  0.00     0.198 A 
ATOM    102  F   UNL A   1      43.513  35.982  31.543  1.00  0.00    -0.203 F 
ATOM    103  F   UNL A   1      42.815  36.332  36.941  1.00  0.00    -0.200 F 
ATOM    104  C   UNL A   1      43.535  37.300  34.913  1.00  0.00     0.200 A 
ATOM    105  F   UNL A   1      44.233  38.231  32.858  1.00  0.00    -0.200 F 
ATOM    106  F   UNL A   1      43.863  38.432  35.553  1.00  0.00    -0.200 F 
ENDBRANCH  73  96
ENDBRANCH  47  48
ENDBRANCH  40  42
ENDBRANCH  39  40
ENDBRANCH  38  39
ENDBRANCH  37  38
ENDBRANCH  36  37
ENDBRANCH  35  36
ENDBRANCH  34  35
ENDBRANCH  33  34
ENDBRANCH   1  33
TORSDOF 24
ENDMDL
MODEL 3
REMARK VINA RESULT:      -7.6      4.582      8.589
REMARK SMILES COc1c[nH]c(C[N@H+]2CCC[C@@H](c3ccc(C(=O)OCCOCCOCCOCCOC(=O)c4ccc(-c5c6nc(c(-c7c(F)c(F)c(F)c(F)c7F)c7ccc([nH]7)c(-c7c(F)c(F)c(F)c(F)c7F)c7nc(c(-c8c(F)c(F)c(F)c(F)c8F)c8ccc5[nH]8)C=C7)C=C6)cc4)cc3)C2)cc1=O
REMARK SMILES IDX 24 1 23 2 22 3 21 4 20 5 19 6 17 7 18 8 16 9 13 10 14 11
REMARK SMILES IDX 98 12 15 13 97 14 12 15 8 16 9 17 99 18 10 20 11 21 7 22
REMARK SMILES IDX 6 23 3 24 4 25 101 26 5 27 100 28 102 29 2 31 1 32 25 33
REMARK SMILES IDX 26 34 27 35 28 36 29 37 30 38 31 39 32 40 33 41 34 42 35 43
REMARK SMILES IDX 96 44 36 45 95 46 37 47 38 48 39 49 89 50 40 51 94 52 88 53
REMARK SMILES IDX 90 54 41 55 93 56 87 57 86 58 42 60 74 61 54 62 73 63 55 64
REMARK SMILES IDX 58 65 72 66 91 67 56 68 57 69 71 71 92 72 59 73 43 74 44 75
REMARK SMILES IDX 52 76 45 77 46 78 50 79 53 80 47 81 48 82 51 83 49 84 75 85
REMARK SMILES IDX 76 86 84 87 77 88 78 89 82 90 85 91 79 92 80 93 83 94 81 95
REMARK SMILES IDX 60 96 61 97 69 98 62 99 63 100 67 101 70 102 64 103 65 104
REMARK SMILES IDX 68 105 66 106
REMARK H PARENT 8 19 5 30 90 59 58 70
REMARK Flexibility Score: inf
ROOT
ATOM      1  C   UNL A   1      44.911  24.751  32.644  1.00  0.00     0.188 C 
ENDROOT
BRANCH   1   2
ATOM      2  C   UNL A   1      44.652  25.898  31.644  1.00  0.00     0.188 C 
BRANCH   2   3
ATOM      3  O   UNL A   1      44.837  25.523  30.289  1.00  0.00    -0.376 OA
BRANCH   3   4
ATOM      4  C   UNL A   1      45.685  26.300  29.466  1.00  0.00     0.202 C 
BRANCH   4   5
ATOM      5  C   UNL A   1      45.105  27.008  28.230  1.00  0.00     0.261 C 
BRANCH   5   6
ATOM      6  O   UNL A   1      43.731  27.398  28.311  1.00  0.00    -0.460 OA
BRANCH   6   7
ATOM      7  C   UNL A   1      42.850  26.654  27.608  1.00  0.00     0.338 C 
ATOM      8  O   UNL A   1      43.064  25.579  27.076  1.00  0.00    -0.246 OA
BRANCH   7   9
ATOM      9  C   UNL A   1      41.505  27.249  27.778  1.00  0.00     0.060 A 
ATOM     10  C   UNL A   1      39.018  28.502  28.110  1.00  0.00    -0.039 A 
ATOM     11  C   UNL A   1      40.014  29.088  27.309  1.00  0.00     0.005 A 
ATOM     12  C   UNL A   1      39.246  27.224  28.645  1.00  0.00     0.005 A 
ATOM     13  C   UNL A   1      41.261  28.485  27.175  1.00  0.00     0.016 A 
ATOM     14  C   UNL A   1      40.481  26.591  28.468  1.00  0.00     0.016 A 
BRANCH  10  15
ATOM     15  C   UNL A   1      37.821  29.325  28.580  1.00  0.00     0.074 C 
ATOM     16  N   UNL A   1      37.412  31.478  29.876  1.00  0.00    -0.329 N 
ATOM     17  C   UNL A   1      36.585  31.987  28.774  1.00  0.00     0.262 C 
ATOM     18  C   UNL A   1      38.392  30.505  29.398  1.00  0.00     0.270 C 
ATOM     19  H   UNL A   1      36.784  30.995  30.518  1.00  0.00     0.348 HD
ATOM     20  C   UNL A   1      35.904  30.844  28.008  1.00  0.00     0.062 C 
ATOM     21  C   UNL A   1      36.924  29.848  27.451  1.00  0.00     0.020 C 
BRANCH  16  22
ATOM     22  C   UNL A   1      38.049  32.567  30.655  1.00  0.00     0.317 C 
BRANCH  22  23
ATOM     23  C   UNL A   1      37.461  32.878  32.033  1.00  0.00     0.074 A 
ATOM     24  C   UNL A   1      36.666  33.370  34.735  1.00  0.00     0.182 A 
ATOM     25  C   UNL A   1      37.315  32.259  34.361  1.00  0.00     0.133 A 
ATOM     26  C   UNL A   1      36.293  34.327  33.635  1.00  0.00     0.223 A 
ATOM     27  N   UNL A   1      37.636  31.970  33.063  1.00  0.00    -0.357 N 
ATOM     28  C   UNL A   1      36.779  34.018  32.257  1.00  0.00     0.083 A 
ATOM     29  O   UNL A   1      35.634  35.344  33.830  1.00  0.00    -0.286 OA
ATOM     30  H   UNL A   1      38.007  31.083  32.854  1.00  0.00     0.166 HD
BRANCH  24  31
ATOM     31  O   UNL A   1      36.435  33.643  36.069  1.00  0.00    -0.491 OA
ATOM     32  C   UNL A   1      37.506  33.200  36.896  1.00  0.00     0.278 C 
ENDBRANCH  24  31
ENDBRANCH  22  23
ENDBRANCH  16  22
ENDBRANCH  10  15
ENDBRANCH   7   9
ENDBRANCH   6   7
ENDBRANCH   5   6
ENDBRANCH   4   5
ENDBRANCH   3   4
ENDBRANCH   2   3
ENDBRANCH   1   2
BRANCH   1  33
ATOM     33  O   UNL A   1      44.087  23.595  32.575  1.00  0.00    -0.377 OA
BRANCH  33  34
ATOM     34  C   UNL A   1      43.584  23.008  33.773  1.00  0.00     0.188 C 
BRANCH  34  35
ATOM     35  C   UNL A   1      43.267  23.846  35.037  1.00  0.00     0.188 C 
BRANCH  35  36
ATOM     36  O   UNL A   1      42.116  24.664  34.937  1.00  0.00    -0.376 OA
BRANCH  36  37
ATOM     37  C   UNL A   1      41.947  25.697  35.890  1.00  0.00     0.202 C 
BRANCH  37  38
ATOM     38  C   UNL A   1      41.660  27.104  35.347  1.00  0.00     0.261 C 
BRANCH  38  39
ATOM     39  O   UNL A   1      41.852  27.289  33.937  1.00  0.00    -0.460 OA
BRANCH  39  40
ATOM     40  C   UNL A   1      40.911  27.990  33.275  1.00  0.00     0.338 C 
ATOM     41  O   UNL A   1      39.697  27.867  33.361  1.00  0.00    -0.246 OA
BRANCH  40  42
ATOM     42  C   UNL A   1      41.589  29.079  32.545  1.00  0.00     0.060 A 
ATOM     43  C   UNL A   1      41.604  29.058  31.144  1.00  0.00     0.016 A 
ATOM     44  C   UNL A   1      42.213  30.112  33.246  1.00  0.00     0.016 A 
ATOM     45  C   UNL A   1      42.291  30.046  30.440  1.00  0.00     0.010 A 
ATOM     46  C   UNL A   1      42.919  31.090  32.541  1.00  0.00     0.010 A 
ATOM     47  C   UNL A   1      42.998  31.032  31.138  1.00  0.00    -0.014 A 
BRANCH  47  48
ATOM     48  C   UNL A   1      44.015  31.845  30.425  1.00  0.00     0.031 A 
ATOM     49  C   UNL A   1      45.374  31.236  30.208  1.00  0.00     0.074 A 
ATOM     50  C   UNL A   1      43.739  33.073  29.955  1.00  0.00     0.049 A 
ATOM     51  N   UNL A   1      46.445  31.755  29.664  1.00  0.00    -0.248 NA
ATOM     52  C   UNL A   1      45.547  29.850  30.673  1.00  0.00     0.031 C 
ATOM     53  C   UNL A   1      42.448  33.750  30.059  1.00  0.00     0.029 A 
ATOM     54  N   UNL A   1      44.541  33.973  29.299  1.00  0.00    -0.354 N 
ATOM     55  C   UNL A   1      47.416  30.764  29.732  1.00  0.00     0.074 A 
ATOM     56  C   UNL A   1      46.823  29.628  30.401  1.00  0.00     0.031 C 
ATOM     57  C   UNL A   1      42.549  34.967  29.497  1.00  0.00     0.029 A 
ATOM     58  C   UNL A   1      43.920  35.167  29.026  1.00  0.00     0.049 A 
ATOM     59  H   UNL A   1      45.473  33.782  29.049  1.00  0.00     0.167 HD
ATOM     60  C   UNL A   1      48.688  30.795  29.268  1.00  0.00     0.037 A 
ATOM     61  C   UNL A   1      44.415  36.296  28.482  1.00  0.00     0.037 A 
ATOM     62  C   UNL A   1      49.274  31.928  28.604  1.00  0.00     0.049 A 
ATOM     63  C   UNL A   1      45.860  36.335  28.047  1.00  0.00     0.074 A 
ATOM     64  C   UNL A   1      50.550  32.058  28.086  1.00  0.00     0.029 A 
ATOM     65  N   UNL A   1      48.623  33.131  28.374  1.00  0.00    -0.354 N 
ATOM     66  N   UNL A   1      46.768  35.390  28.094  1.00  0.00    -0.248 NA
ATOM     67  C   UNL A   1      46.346  37.599  27.477  1.00  0.00     0.031 C 
ATOM     68  C   UNL A   1      50.692  33.361  27.599  1.00  0.00     0.029 A 
ATOM     69  C   UNL A   1      49.481  34.020  27.745  1.00  0.00     0.049 A 
ATOM     70  H   UNL A   1      47.690  33.324  28.620  1.00  0.00     0.167 HD
ATOM     71  C   UNL A   1      47.916  35.930  27.526  1.00  0.00     0.074 A 
ATOM     72  C   UNL A   1      47.586  37.284  27.131  1.00  0.00     0.031 C 
ATOM     73  C   UNL A   1      49.133  35.358  27.343  1.00  0.00     0.037 A 
BRANCH  60  74
ATOM     74  C   UNL A   1      49.539  29.578  29.493  1.00  0.00     0.064 A 
ATOM     75  C   UNL A   1      49.615  28.543  28.548  1.00  0.00     0.173 A 
ATOM     76  C   UNL A   1      50.308  29.459  30.659  1.00  0.00     0.173 A 
ATOM     77  F   UNL A   1      48.886  28.598  27.423  1.00  0.00    -0.203 F 
ATOM     78  C   UNL A   1      50.408  27.421  28.778  1.00  0.00     0.198 A 
ATOM     79  C   UNL A   1      51.128  28.353  30.869  1.00  0.00     0.198 A 
ATOM     80  F   UNL A   1      50.273  30.420  31.595  1.00  0.00    -0.203 F 
ATOM     81  F   UNL A   1      50.424  26.420  27.887  1.00  0.00    -0.200 F 
ATOM     82  C   UNL A   1      51.170  27.331  29.933  1.00  0.00     0.200 A 
ATOM     83  F   UNL A   1      51.874  28.275  31.979  1.00  0.00    -0.200 F 
ATOM     84  F   UNL A   1      51.940  26.256  30.148  1.00  0.00    -0.200 F 
ENDBRANCH  60  74
BRANCH  61  85
ATOM     85  C   UNL A   1      43.546  37.496  28.325  1.00  0.00     0.064 A 
ATOM     86  C   UNL A   1      43.513  38.500  29.302  1.00  0.00     0.173 A 
ATOM     87  C   UNL A   1      42.704  37.642  27.212  1.00  0.00     0.173 A 
ATOM     88  F   UNL A   1      44.279  38.395  30.397  1.00  0.00    -0.203 F 
ATOM     89  C   UNL A   1      42.651  39.590  29.186  1.00  0.00     0.198 A 
ATOM     90  C   UNL A   1      41.867  38.749  27.081  1.00  0.00     0.198 A 
ATOM     91  F   UNL A   1      42.693  36.708  26.249  1.00  0.00    -0.203 F 
ATOM     92  F   UNL A   1      42.596  40.504  30.164  1.00  0.00    -0.200 F 
ATOM     93  C   UNL A   1      41.833  39.717  28.073  1.00  0.00     0.200 A 
ATOM     94  F   UNL A   1      41.089  38.873  25.998  1.00  0.00    -0.200 F 
ATOM     95  F   UNL A   1      41.005  40.763  27.963  1.00  0.00    -0.200 F 
ENDBRANCH  61  85
BRANCH  73  96
ATOM     96  C   UNL A   1      50.184  36.168  26.636  1.00  0.00     0.064 A 
ATOM     97  C   UNL A   1      50.992  37.094  27.311  1.00  0.00     0.173 A 
ATOM     98  C   UNL A   1      50.415  35.977  25.263  1.00  0.00     0.173 A 
ATOM     99  F   UNL A   1      50.806  37.323  28.620  1.00  0.00    -0.203 F 
ATOM    100  C   UNL A   1      51.969  37.820  26.634  1.00  0.00     0.198 A 
ATOM    101  C   UNL A   1      51.418  36.676  24.599  1.00  0.00     0.198 A 
ATOM    102  F   UNL A   1      49.678  35.095  24.569  1.00  0.00    -0.203 F 
ATOM    103  F   UNL A   1      52.691  38.739  27.290  1.00  0.00    -0.200 F 
ATOM    104  C   UNL A   1      52.187  37.604  25.282  1.00  0.00     0.200 A 
ATOM    105  F   UNL A   1      51.639  36.452  23.296  1.00  0.00    -0.200 F 
ATOM    106  F   UNL A   1      53.135  38.298  24.635  1.00  0.00    -0.200 F 
ENDBRANCH  73  96
ENDBRANCH  47  48
ENDBRANCH  40  42
ENDBRANCH  39  40
ENDBRANCH  38  39
ENDBRANCH  37  38
ENDBRANCH  36  37
ENDBRANCH  35  36
ENDBRANCH  34  35
ENDBRANCH  33  34
ENDBRANCH   1  33
TORSDOF 24
ENDMDL
