MODEL 1
REMARK VINA RESULT:      -9.8      0.000      0.000
REMARK SMILES CCc1c(C)nc(Nc2ccc(Cl)cc2Cl)nc1OCC(=O)OCCOCCOCCOCCOC(=O)c1ccc(-c2c3nc(c(-c4c(F)c(F)c(F)c(F)c4F)c4ccc([nH]4)c(-c4c(F)c(F)c(F)c(F)c4F)c4nc(c(-c5c(F)c(F)c(F)c(F)c5F)c5ccc2[nH]5)C=C4)C=C3)cc1
REMARK SMILES IDX 28 1 27 2 26 3 25 4 24 5 23 6 21 7 22 8 20 9 19 10 18 11
REMARK SMILES IDX 3 12 4 13 5 14 6 15 17 16 7 17 2 18 1 19 8 20 9 22 10 23
REMARK SMILES IDX 15 24 11 25 14 26 16 27 12 28 13 29 29 30 30 31 31 32 32 33
REMARK SMILES IDX 33 34 34 35 35 36 36 37 37 38 38 39 39 40 100 41 40 42 99 43
REMARK SMILES IDX 41 44 42 45 43 46 93 47 44 48 98 49 92 50 94 51 45 52 97 53
REMARK SMILES IDX 91 54 90 55 46 57 78 58 58 59 77 60 59 61 62 62 76 63 95 64
REMARK SMILES IDX 60 65 61 66 75 68 96 69 63 70 47 71 48 72 56 73 49 74 50 75
REMARK SMILES IDX 54 76 57 77 51 78 52 79 55 80 53 81 79 82 80 83 88 84 81 85
REMARK SMILES IDX 82 86 86 87 89 88 83 89 84 90 87 91 85 92 64 93 65 94 73 95
REMARK SMILES IDX 66 96 67 97 71 98 74 99 68 100 69 101 72 102 70 103
REMARK H PARENT 8 21 94 56 62 67
REMARK Flexibility Score: inf
ROOT
ATOM      1  C   UNL A   1      41.904  19.675  26.589  1.00  0.00     0.188 C 
ENDROOT
BRANCH   1   2
ATOM      2  C   UNL A   1      40.912  19.329  25.451  1.00  0.00     0.188 C 
BRANCH   2   3
ATOM      3  O   UNL A   1      39.560  19.261  25.825  1.00  0.00    -0.376 OA
BRANCH   3   4
ATOM      4  C   UNL A   1      38.670  20.305  25.501  1.00  0.00     0.202 C 
BRANCH   4   5
ATOM      5  C   UNL A   1      38.963  21.807  25.710  1.00  0.00     0.261 C 
BRANCH   5   6
ATOM      6  O   UNL A   1      37.905  22.681  26.148  1.00  0.00    -0.461 OA
BRANCH   6   7
ATOM      7  C   UNL A   1      36.913  22.989  25.268  1.00  0.00     0.344 C 
ATOM      8  O   UNL A   1      36.816  22.490  24.152  1.00  0.00    -0.248 OA
BRANCH   7   9
ATOM      9  C   UNL A   1      35.916  24.052  25.813  1.00  0.00     0.353 C 
BRANCH   9  10
ATOM     10  O   UNL A   1      34.939  24.690  25.020  1.00  0.00    -0.465 OA
BRANCH  10  11
ATOM     11  C   UNL A   1      33.595  24.480  24.917  1.00  0.00     0.222 A 
ATOM     12  C   UNL A   1      32.616  25.271  24.294  1.00  0.00     0.035 A 
ATOM     13  C   UNL A   1      31.395  24.604  24.104  1.00  0.00     0.050 A 
ATOM     14  C   UNL A   1      30.175  25.128  23.404  1.00  0.00     0.067 C 
ATOM     15  N   UNL A   1      31.169  23.345  24.539  1.00  0.00    -0.218 NA
ATOM     16  N   UNL A   1      33.338  23.219  25.367  1.00  0.00    -0.177 NA
ATOM     17  C   UNL A   1      32.132  22.684  25.172  1.00  0.00     0.230 A 
BRANCH  12  18
ATOM     18  C   UNL A   1      32.856  26.713  23.919  1.00  0.00     0.040 C 
ATOM     19  C   UNL A   1      33.607  27.671  24.835  1.00  0.00     0.009 C 
ENDBRANCH  12  18
BRANCH  17  20
ATOM     20  N   UNL A   1      31.888  21.372  25.588  1.00  0.00    -0.323 N 
ATOM     21  H   UNL A   1      31.343  21.260  26.401  1.00  0.00     0.170 HD
BRANCH  20  22
ATOM     22  C   UNL A   1      32.338  20.197  24.962  1.00  0.00     0.060 A 
ATOM     23  C   UNL A   1      32.703  19.096  25.752  1.00  0.00     0.029 A 
ATOM     24  C   UNL A   1      32.377  20.031  23.567  1.00  0.00     0.066 A 
ATOM     25  C   UNL A   1      33.241  17.933  25.189  1.00  0.00     0.023 A 
ATOM     26  C   UNL A   1      32.890  18.859  22.992  1.00  0.00     0.043 A 
ATOM     27  Cl  UNL A   1      31.800  21.267  22.508  1.00  0.00    -0.082 Cl
ATOM     28  C   UNL A   1      33.349  17.829  23.807  1.00  0.00     0.042 A 
ATOM     29  Cl  UNL A   1      34.036  16.416  23.108  1.00  0.00    -0.084 Cl
ENDBRANCH  20  22
ENDBRANCH  17  20
ENDBRANCH  10  11
ENDBRANCH   9  10
ENDBRANCH   7   9
ENDBRANCH   6   7
ENDBRANCH   5   6
ENDBRANCH   4   5
ENDBRANCH   3   4
ENDBRANCH   2   3
ENDBRANCH   1   2
BRANCH   1  30
ATOM     30  O   UNL A   1      43.313  19.741  26.444  1.00  0.00    -0.377 OA
BRANCH  30  31
ATOM     31  C   UNL A   1      43.933  18.917  25.486  1.00  0.00     0.188 C 
BRANCH  31  32
ATOM     32  C   UNL A   1      45.007  19.605  24.627  1.00  0.00     0.188 C 
BRANCH  32  33
ATOM     33  O   UNL A   1      45.911  20.401  25.370  1.00  0.00    -0.376 OA
BRANCH  33  34
ATOM     34  C   UNL A   1      46.007  21.792  25.115  1.00  0.00     0.202 C 
BRANCH  34  35
ATOM     35  C   UNL A   1      45.623  22.836  26.170  1.00  0.00     0.261 C 
BRANCH  35  36
ATOM     36  O   UNL A   1      45.061  24.059  25.699  1.00  0.00    -0.460 OA
BRANCH  36  37
ATOM     37  C   UNL A   1      43.750  24.084  25.415  1.00  0.00     0.338 C 
ATOM     38  O   UNL A   1      43.141  23.387  24.621  1.00  0.00    -0.246 OA
BRANCH  37  39
ATOM     39  C   UNL A   1      43.138  24.981  26.409  1.00  0.00     0.060 A 
ATOM     40  C   UNL A   1      43.642  26.283  26.511  1.00  0.00     0.016 A 
ATOM     41  C   UNL A   1      42.042  24.569  27.174  1.00  0.00     0.016 A 
ATOM     42  C   UNL A   1      43.044  27.187  27.376  1.00  0.00     0.010 A 
ATOM     43  C   UNL A   1      41.476  25.462  28.086  1.00  0.00     0.010 A 
ATOM     44  C   UNL A   1      41.998  26.761  28.203  1.00  0.00    -0.014 A 
BRANCH  44  45
ATOM     45  C   UNL A   1      41.681  27.599  29.375  1.00  0.00     0.031 A 
ATOM     46  C   UNL A   1      40.451  28.453  29.288  1.00  0.00     0.074 A 
ATOM     47  C   UNL A   1      42.404  27.525  30.503  1.00  0.00     0.049 A 
ATOM     48  N   UNL A   1      39.910  29.232  30.186  1.00  0.00    -0.248 NA
ATOM     49  C   UNL A   1      39.725  28.413  28.006  1.00  0.00     0.031 C 
ATOM     50  C   UNL A   1      43.580  26.681  30.699  1.00  0.00     0.029 A 
ATOM     51  N   UNL A   1      42.244  28.172  31.699  1.00  0.00    -0.354 N 
ATOM     52  C   UNL A   1      38.783  29.770  29.578  1.00  0.00     0.074 A 
ATOM     53  C   UNL A   1      38.736  29.261  28.227  1.00  0.00     0.031 C 
ATOM     54  C   UNL A   1      44.044  26.869  31.947  1.00  0.00     0.029 A 
ATOM     55  C   UNL A   1      43.211  27.866  32.621  1.00  0.00     0.049 A 
ATOM     56  H   UNL A   1      41.504  28.796  31.881  1.00  0.00     0.167 HD
ATOM     57  C   UNL A   1      37.866  30.610  30.109  1.00  0.00     0.037 A 
ATOM     58  C   UNL A   1      43.404  28.357  33.860  1.00  0.00     0.037 A 
ATOM     59  C   UNL A   1      37.946  31.125  31.449  1.00  0.00     0.049 A 
ATOM     60  C   UNL A   1      42.418  29.360  34.403  1.00  0.00     0.074 A 
ATOM     61  C   UNL A   1      37.080  31.984  32.097  1.00  0.00     0.029 A 
ATOM     62  N   UNL A   1      38.972  30.837  32.339  1.00  0.00    -0.354 N 
ATOM     63  N   UNL A   1      41.339  29.853  33.837  1.00  0.00    -0.248 NA
ATOM     64  C   UNL A   1      42.669  29.869  35.756  1.00  0.00     0.031 C 
ATOM     65  C   UNL A   1      37.620  32.273  33.355  1.00  0.00     0.029 A 
ATOM     66  C   UNL A   1      38.781  31.530  33.522  1.00  0.00     0.049 A 
ATOM     67  H   UNL A   1      39.725  30.229  32.157  1.00  0.00     0.167 HD
ATOM     68  C   UNL A   1      40.768  30.704  34.774  1.00  0.00     0.074 A 
ATOM     69  C   UNL A   1      41.616  30.652  35.949  1.00  0.00     0.031 C 
ATOM     70  C   UNL A   1      39.644  31.459  34.677  1.00  0.00     0.037 A 
BRANCH  57  71
ATOM     71  C   UNL A   1      36.752  31.062  29.209  1.00  0.00     0.064 A 
ATOM     72  C   UNL A   1      36.681  32.372  28.709  1.00  0.00     0.173 A 
ATOM     73  C   UNL A   1      35.719  30.177  28.868  1.00  0.00     0.173 A 
ATOM     74  F   UNL A   1      37.630  33.268  29.023  1.00  0.00    -0.203 F 
ATOM     75  C   UNL A   1      35.597  32.788  27.938  1.00  0.00     0.198 A 
ATOM     76  C   UNL A   1      34.657  30.585  28.067  1.00  0.00     0.198 A 
ATOM     77  F   UNL A   1      35.733  28.915  29.322  1.00  0.00    -0.203 F 
ATOM     78  F   UNL A   1      35.515  34.065  27.534  1.00  0.00    -0.200 F 
ATOM     79  C   UNL A   1      34.590  31.893  27.614  1.00  0.00     0.200 A 
ATOM     80  F   UNL A   1      33.690  29.715  27.745  1.00  0.00    -0.200 F 
ATOM     81  F   UNL A   1      33.546  32.295  26.875  1.00  0.00    -0.200 F 
ENDBRANCH  57  71
BRANCH  58  82
ATOM     82  C   UNL A   1      44.578  27.912  34.655  1.00  0.00     0.064 A 
ATOM     83  C   UNL A   1      45.771  28.646  34.669  1.00  0.00     0.173 A 
ATOM     84  C   UNL A   1      44.522  26.744  35.433  1.00  0.00     0.173 A 
ATOM     85  F   UNL A   1      45.883  29.758  33.926  1.00  0.00    -0.203 F 
ATOM     86  C   UNL A   1      46.866  28.225  35.422  1.00  0.00     0.198 A 
ATOM     87  C   UNL A   1      45.607  26.342  36.208  1.00  0.00     0.198 A 
ATOM     88  F   UNL A   1      43.404  26.004  35.454  1.00  0.00    -0.203 F 
ATOM     89  F   UNL A   1      48.008  28.927  35.390  1.00  0.00    -0.200 F 
ATOM     90  C   UNL A   1      46.780  27.078  36.197  1.00  0.00     0.200 A 
ATOM     91  F   UNL A   1      45.513  25.241  36.967  1.00  0.00    -0.200 F 
ATOM     92  F   UNL A   1      47.829  26.683  36.931  1.00  0.00    -0.200 F 
ENDBRANCH  58  82
BRANCH  70  93
ATOM     93  C   UNL A   1      39.242  32.257  35.885  1.00  0.00     0.064 A 
ATOM     94  C   UNL A   1      38.419  31.724  36.887  1.00  0.00     0.173 A 
ATOM     95  C   UNL A   1      39.729  33.563  36.061  1.00  0.00     0.173 A 
ATOM     96  F   UNL A   1      37.918  30.485  36.762  1.00  0.00    -0.203 F 
ATOM     97  C   UNL A   1      38.073  32.478  38.004  1.00  0.00     0.198 A 
ATOM     98  C   UNL A   1      39.412  34.299  37.198  1.00  0.00     0.198 A 
ATOM     99  F   UNL A   1      40.529  34.117  35.139  1.00  0.00    -0.203 F 
ATOM    100  F   UNL A   1      37.238  31.968  38.922  1.00  0.00    -0.200 F 
ATOM    101  C   UNL A   1      38.576  33.761  38.164  1.00  0.00     0.200 A 
ATOM    102  F   UNL A   1      39.917  35.530  37.359  1.00  0.00    -0.200 F 
ATOM    103  F   UNL A   1      38.249  34.481  39.245  1.00  0.00    -0.200 F 
ENDBRANCH  70  93
ENDBRANCH  44  45
ENDBRANCH  37  39
ENDBRANCH  36  37
ENDBRANCH  35  36
ENDBRANCH  34  35
ENDBRANCH  33  34
ENDBRANCH  32  33
ENDBRANCH  31  32
ENDBRANCH  30  31
ENDBRANCH   1  30
TORSDOF 25
ENDMDL
MODEL 2
REMARK VINA RESULT:      -9.3      7.044     11.656
REMARK SMILES CCc1c(C)nc(Nc2ccc(Cl)cc2Cl)nc1OCC(=O)OCCOCCOCCOCCOC(=O)c1ccc(-c2c3nc(c(-c4c(F)c(F)c(F)c(F)c4F)c4ccc([nH]4)c(-c4c(F)c(F)c(F)c(F)c4F)c4nc(c(-c5c(F)c(F)c(F)c(F)c5F)c5ccc2[nH]5)C=C4)C=C3)cc1
REMARK SMILES IDX 28 1 27 2 26 3 25 4 24 5 23 6 21 7 22 8 20 9 19 10 18 11
REMARK SMILES IDX 3 12 4 13 5 14 6 15 17 16 7 17 2 18 1 19 8 20 9 22 10 23
REMARK SMILES IDX 15 24 11 25 14 26 16 27 12 28 13 29 29 30 30 31 31 32 32 33
REMARK SMILES IDX 33 34 34 35 35 36 36 37 37 38 38 39 39 40 100 41 40 42 99 43
REMARK SMILES IDX 41 44 42 45 43 46 93 47 44 48 98 49 92 50 94 51 45 52 97 53
REMARK SMILES IDX 91 54 90 55 46 57 78 58 58 59 77 60 59 61 62 62 76 63 95 64
REMARK SMILES IDX 60 65 61 66 75 68 96 69 63 70 47 71 48 72 56 73 49 74 50 75
REMARK SMILES IDX 54 76 57 77 51 78 52 79 55 80 53 81 79 82 80 83 88 84 81 85
REMARK SMILES IDX 82 86 86 87 89 88 83 89 84 90 87 91 85 92 64 93 65 94 73 95
REMARK SMILES IDX 66 96 67 97 71 98 74 99 68 100 69 101 72 102 70 103
REMARK H PARENT 8 21 94 56 62 67
REMARK Flexibility Score: inf
ROOT
ATOM      1  C   UNL A   1      40.312  21.067  26.608  1.00  0.00     0.188 C 
ENDROOT
BRANCH   1   2
ATOM      2  C   UNL A   1      39.072  21.673  25.908  1.00  0.00     0.188 C 
BRANCH   2   3
ATOM      3  O   UNL A   1      38.828  23.031  26.174  1.00  0.00    -0.376 OA
BRANCH   3   4
ATOM      4  C   UNL A   1      39.574  23.717  27.153  1.00  0.00     0.202 C 
BRANCH   4   5
ATOM      5  C   UNL A   1      39.969  25.208  27.074  1.00  0.00     0.261 C 
BRANCH   5   6
ATOM      6  O   UNL A   1      39.038  26.213  27.520  1.00  0.00    -0.461 OA
BRANCH   6   7
ATOM      7  C   UNL A   1      39.472  27.148  28.409  1.00  0.00     0.344 C 
ATOM      8  O   UNL A   1      39.498  26.972  29.622  1.00  0.00    -0.248 OA
BRANCH   7   9
ATOM      9  C   UNL A   1      39.920  28.476  27.734  1.00  0.00     0.353 C 
BRANCH   9  10
ATOM     10  O   UNL A   1      39.107  29.627  27.652  1.00  0.00    -0.465 OA
BRANCH  10  11
ATOM     11  C   UNL A   1      37.961  29.960  28.311  1.00  0.00     0.222 A 
ATOM     12  C   UNL A   1      37.795  30.453  29.616  1.00  0.00     0.035 A 
ATOM     13  C   UNL A   1      36.518  30.983  29.857  1.00  0.00     0.050 A 
ATOM     14  C   UNL A   1      36.037  31.656  31.109  1.00  0.00     0.067 C 
ATOM     15  N   UNL A   1      35.527  30.961  28.939  1.00  0.00    -0.218 NA
ATOM     16  N   UNL A   1      36.940  29.928  27.408  1.00  0.00    -0.177 NA
ATOM     17  C   UNL A   1      35.749  30.425  27.744  1.00  0.00     0.230 A 
BRANCH  12  18
ATOM     18  C   UNL A   1      38.882  30.363  30.661  1.00  0.00     0.040 C 
ATOM     19  C   UNL A   1      40.180  31.151  30.545  1.00  0.00     0.009 C 
ENDBRANCH  12  18
BRANCH  17  20
ATOM     20  N   UNL A   1      34.719  30.438  26.798  1.00  0.00    -0.323 N 
ATOM     21  H   UNL A   1      34.671  31.226  26.208  1.00  0.00     0.170 HD
BRANCH  20  22
ATOM     22  C   UNL A   1      33.747  29.442  26.603  1.00  0.00     0.060 A 
ATOM     23  C   UNL A   1      34.143  28.097  26.560  1.00  0.00     0.029 A 
ATOM     24  C   UNL A   1      32.371  29.712  26.520  1.00  0.00     0.066 A 
ATOM     25  C   UNL A   1      33.233  27.071  26.280  1.00  0.00     0.023 A 
ATOM     26  C   UNL A   1      31.446  28.688  26.266  1.00  0.00     0.043 A 
ATOM     27  Cl  UNL A   1      31.766  31.317  26.720  1.00  0.00    -0.082 Cl
ATOM     28  C   UNL A   1      31.887  27.377  26.116  1.00  0.00     0.042 A 
ATOM     29  Cl  UNL A   1      30.766  26.127  25.743  1.00  0.00    -0.084 Cl
ENDBRANCH  20  22
ENDBRANCH  17  20
ENDBRANCH  10  11
ENDBRANCH   9  10
ENDBRANCH   7   9
ENDBRANCH   6   7
ENDBRANCH   5   6
ENDBRANCH   4   5
ENDBRANCH   3   4
ENDBRANCH   2   3
ENDBRANCH   1   2
BRANCH   1  30
ATOM     30  O   UNL A   1      40.986  19.891  26.191  1.00  0.00    -0.377 OA
BRANCH  30  31
ATOM     31  C   UNL A   1      42.207  19.557  26.806  1.00  0.00     0.188 C 
BRANCH  31  32
ATOM     32  C   UNL A   1      43.025  18.469  26.091  1.00  0.00     0.188 C 
BRANCH  32  33
ATOM     33  O   UNL A   1      44.291  18.909  25.639  1.00  0.00    -0.376 OA
BRANCH  33  34
ATOM     34  C   UNL A   1      44.403  20.119  24.908  1.00  0.00     0.202 C 
BRANCH  34  35
ATOM     35  C   UNL A   1      45.156  21.333  25.464  1.00  0.00     0.261 C 
BRANCH  35  36
ATOM     36  O   UNL A   1      44.420  22.232  26.291  1.00  0.00    -0.460 OA
BRANCH  36  37
ATOM     37  C   UNL A   1      43.633  23.139  25.693  1.00  0.00     0.338 C 
ATOM     38  O   UNL A   1      42.560  22.956  25.143  1.00  0.00    -0.246 OA
BRANCH  37  39
ATOM     39  C   UNL A   1      44.217  24.452  26.014  1.00  0.00     0.060 A 
ATOM     40  C   UNL A   1      44.115  25.464  25.054  1.00  0.00     0.016 A 
ATOM     41  C   UNL A   1      44.788  24.701  27.267  1.00  0.00     0.016 A 
ATOM     42  C   UNL A   1      44.577  26.739  25.344  1.00  0.00     0.010 A 
ATOM     43  C   UNL A   1      45.305  25.968  27.538  1.00  0.00     0.010 A 
ATOM     44  C   UNL A   1      45.223  26.976  26.564  1.00  0.00    -0.014 A 
BRANCH  44  45
ATOM     45  C   UNL A   1      46.055  28.190  26.661  1.00  0.00     0.031 A 
ATOM     46  C   UNL A   1      47.527  28.027  26.421  1.00  0.00     0.074 A 
ATOM     47  C   UNL A   1      45.508  29.399  26.856  1.00  0.00     0.049 A 
ATOM     48  N   UNL A   1      48.473  28.928  26.384  1.00  0.00    -0.248 NA
ATOM     49  C   UNL A   1      47.995  26.651  26.180  1.00  0.00     0.031 C 
ATOM     50  C   UNL A   1      44.083  29.661  27.041  1.00  0.00     0.029 A 
ATOM     51  N   UNL A   1      46.094  30.635  26.924  1.00  0.00    -0.354 N 
ATOM     52  C   UNL A   1      49.641  28.227  26.114  1.00  0.00     0.074 A 
ATOM     53  C   UNL A   1      49.296  26.827  26.033  1.00  0.00     0.031 C 
ATOM     54  C   UNL A   1      43.905  30.983  27.212  1.00  0.00     0.029 A 
ATOM     55  C   UNL A   1      45.207  31.649  27.174  1.00  0.00     0.049 A 
ATOM     56  H   UNL A   1      47.061  30.781  26.804  1.00  0.00     0.167 HD
ATOM     57  C   UNL A   1      50.890  28.716  25.943  1.00  0.00     0.037 A 
ATOM     58  C   UNL A   1      45.435  32.962  27.368  1.00  0.00     0.037 A 
ATOM     59  C   UNL A   1      51.215  30.112  26.053  1.00  0.00     0.049 A 
ATOM     60  C   UNL A   1      46.849  33.475  27.259  1.00  0.00     0.074 A 
ATOM     61  C   UNL A   1      52.443  30.727  25.904  1.00  0.00     0.029 A 
ATOM     62  N   UNL A   1      50.299  31.109  26.363  1.00  0.00    -0.354 N 
ATOM     63  N   UNL A   1      47.951  32.818  26.982  1.00  0.00    -0.248 NA
ATOM     64  C   UNL A   1      47.050  34.912  27.481  1.00  0.00     0.031 C 
ATOM     65  C   UNL A   1      52.283  32.086  26.194  1.00  0.00     0.029 A 
ATOM     66  C   UNL A   1      50.940  32.333  26.445  1.00  0.00     0.049 A 
ATOM     67  H   UNL A   1      49.335  30.966  26.504  1.00  0.00     0.167 HD
ATOM     68  C   UNL A   1      48.969  33.762  26.965  1.00  0.00     0.074 A 
ATOM     69  C   UNL A   1      48.349  35.041  27.251  1.00  0.00     0.031 C 
ATOM     70  C   UNL A   1      50.296  33.591  26.733  1.00  0.00     0.037 A 
BRANCH  57  71
ATOM     71  C   UNL A   1      51.985  27.720  25.687  1.00  0.00     0.064 A 
ATOM     72  C   UNL A   1      52.341  27.321  24.389  1.00  0.00     0.173 A 
ATOM     73  C   UNL A   1      52.667  27.132  26.762  1.00  0.00     0.173 A 
ATOM     74  F   UNL A   1      51.706  27.834  23.325  1.00  0.00    -0.203 F 
ATOM     75  C   UNL A   1      53.309  26.340  24.181  1.00  0.00     0.198 A 
ATOM     76  C   UNL A   1      53.659  26.180  26.549  1.00  0.00     0.198 A 
ATOM     77  F   UNL A   1      52.363  27.472  28.024  1.00  0.00    -0.203 F 
ATOM     78  F   UNL A   1      53.579  25.921  22.936  1.00  0.00    -0.200 F 
ATOM     79  C   UNL A   1      53.970  25.775  25.261  1.00  0.00     0.200 A 
ATOM     80  F   UNL A   1      54.304  25.642  27.593  1.00  0.00    -0.200 F 
ATOM     81  F   UNL A   1      54.898  24.828  25.060  1.00  0.00    -0.200 F 
ENDBRANCH  57  71
BRANCH  58  82
ATOM     82  C   UNL A   1      44.302  33.867  27.694  1.00  0.00     0.064 A 
ATOM     83  C   UNL A   1      43.736  33.897  28.975  1.00  0.00     0.173 A 
ATOM     84  C   UNL A   1      43.771  34.735  26.726  1.00  0.00     0.173 A 
ATOM     85  F   UNL A   1      44.193  33.073  29.929  1.00  0.00    -0.203 F 
ATOM     86  C   UNL A   1      42.677  34.754  29.274  1.00  0.00     0.198 A 
ATOM     87  C   UNL A   1      42.733  35.611  27.034  1.00  0.00     0.198 A 
ATOM     88  F   UNL A   1      44.275  34.745  25.483  1.00  0.00    -0.203 F 
ATOM     89  F   UNL A   1      42.130  34.738  30.497  1.00  0.00    -0.200 F 
ATOM     90  C   UNL A   1      42.182  35.615  28.305  1.00  0.00     0.200 A 
ATOM     91  F   UNL A   1      42.269  36.451  26.099  1.00  0.00    -0.200 F 
ATOM     92  F   UNL A   1      41.174  36.447  28.598  1.00  0.00    -0.200 F 
ENDBRANCH  58  82
BRANCH  70  93
ATOM     93  C   UNL A   1      51.160  34.820  26.736  1.00  0.00     0.064 A 
ATOM     94  C   UNL A   1      51.844  35.245  27.885  1.00  0.00     0.173 A 
ATOM     95  C   UNL A   1      51.342  35.558  25.555  1.00  0.00     0.173 A 
ATOM     96  F   UNL A   1      51.696  34.582  29.042  1.00  0.00    -0.203 F 
ATOM     97  C   UNL A   1      52.650  36.379  27.859  1.00  0.00     0.198 A 
ATOM     98  C   UNL A   1      52.180  36.668  25.523  1.00  0.00     0.198 A 
ATOM     99  F   UNL A   1      50.721  35.190  24.424  1.00  0.00    -0.203 F 
ATOM    100  F   UNL A   1      53.248  36.799  28.983  1.00  0.00    -0.200 F 
ATOM    101  C   UNL A   1      52.825  37.084  26.678  1.00  0.00     0.200 A 
ATOM    102  F   UNL A   1      52.363  37.335  24.376  1.00  0.00    -0.200 F 
ATOM    103  F   UNL A   1      53.610  38.169  26.653  1.00  0.00    -0.200 F 
ENDBRANCH  70  93
ENDBRANCH  44  45
ENDBRANCH  37  39
ENDBRANCH  36  37
ENDBRANCH  35  36
ENDBRANCH  34  35
ENDBRANCH  33  34
ENDBRANCH  32  33
ENDBRANCH  31  32
ENDBRANCH  30  31
ENDBRANCH   1  30
TORSDOF 25
ENDMDL
MODEL 3
REMARK VINA RESULT:      -9.3      4.217      8.037
REMARK SMILES CCc1c(C)nc(Nc2ccc(Cl)cc2Cl)nc1OCC(=O)OCCOCCOCCOCCOC(=O)c1ccc(-c2c3nc(c(-c4c(F)c(F)c(F)c(F)c4F)c4ccc([nH]4)c(-c4c(F)c(F)c(F)c(F)c4F)c4nc(c(-c5c(F)c(F)c(F)c(F)c5F)c5ccc2[nH]5)C=C4)C=C3)cc1
REMARK SMILES IDX 28 1 27 2 26 3 25 4 24 5 23 6 21 7 22 8 20 9 19 10 18 11
REMARK SMILES IDX 3 12 4 13 5 14 6 15 17 16 7 17 2 18 1 19 8 20 9 22 10 23
REMARK SMILES IDX 15 24 11 25 14 26 16 27 12 28 13 29 29 30 30 31 31 32 32 33
REMARK SMILES IDX 33 34 34 35 35 36 36 37 37 38 38 39 39 40 100 41 40 42 99 43
REMARK SMILES IDX 41 44 42 45 43 46 93 47 44 48 98 49 92 50 94 51 45 52 97 53
REMARK SMILES IDX 91 54 90 55 46 57 78 58 58 59 77 60 59 61 62 62 76 63 95 64
REMARK SMILES IDX 60 65 61 66 75 68 96 69 63 70 47 71 48 72 56 73 49 74 50 75
REMARK SMILES IDX 54 76 57 77 51 78 52 79 55 80 53 81 79 82 80 83 88 84 81 85
REMARK SMILES IDX 82 86 86 87 89 88 83 89 84 90 87 91 85 92 64 93 65 94 73 95
REMARK SMILES IDX 66 96 67 97 71 98 74 99 68 100 69 101 72 102 70 103
REMARK H PARENT 8 21 94 56 62 67
REMARK Flexibility Score: inf
ROOT
ATOM      1  C   UNL A   1      40.418  21.571  26.772  1.00  0.00     0.188 C 
ENDROOT
BRANCH   1   2
ATOM      2  C   UNL A   1      39.170  22.354  26.295  1.00  0.00     0.188 C 
BRANCH   2   3
ATOM      3  O   UNL A   1      39.046  23.660  26.796  1.00  0.00    -0.376 OA
BRANCH   3   4
ATOM      4  C   UNL A   1      40.103  24.262  27.508  1.00  0.00     0.202 C 
BRANCH   4   5
ATOM      5  C   UNL A   1      40.333  25.784  27.623  1.00  0.00     0.261 C 
BRANCH   5   6
ATOM      6  O   UNL A   1      39.249  26.635  28.044  1.00  0.00    -0.461 OA
BRANCH   6   7
ATOM      7  C   UNL A   1      39.544  27.890  28.480  1.00  0.00     0.344 C 
ATOM      8  O   UNL A   1      40.560  28.171  29.105  1.00  0.00    -0.248 OA
BRANCH   7   9
ATOM      9  C   UNL A   1      38.451  28.938  28.119  1.00  0.00     0.353 C 
BRANCH   9  10
ATOM     10  O   UNL A   1      37.108  28.849  28.543  1.00  0.00    -0.465 OA
BRANCH  10  11
ATOM     11  C   UNL A   1      36.108  29.776  28.542  1.00  0.00     0.222 A 
ATOM     12  C   UNL A   1      35.995  30.964  29.282  1.00  0.00     0.035 A 
ATOM     13  C   UNL A   1      34.998  31.830  28.804  1.00  0.00     0.050 A 
ATOM     14  C   UNL A   1      34.670  33.203  29.311  1.00  0.00     0.067 C 
ATOM     15  N   UNL A   1      34.187  31.517  27.769  1.00  0.00    -0.218 NA
ATOM     16  N   UNL A   1      35.264  29.473  27.514  1.00  0.00    -0.177 NA
ATOM     17  C   UNL A   1      34.323  30.346  27.156  1.00  0.00     0.230 A 
BRANCH  12  18
ATOM     18  C   UNL A   1      36.836  31.241  30.505  1.00  0.00     0.040 C 
ATOM     19  C   UNL A   1      36.321  30.981  31.915  1.00  0.00     0.009 C 
ENDBRANCH  12  18
BRANCH  17  20
ATOM     20  N   UNL A   1      33.494  30.055  26.069  1.00  0.00    -0.323 N 
ATOM     21  H   UNL A   1      33.372  30.769  25.402  1.00  0.00     0.170 HD
BRANCH  20  22
ATOM     22  C   UNL A   1      32.817  28.846  25.831  1.00  0.00     0.060 A 
ATOM     23  C   UNL A   1      31.895  28.377  26.779  1.00  0.00     0.029 A 
ATOM     24  C   UNL A   1      32.959  28.103  24.647  1.00  0.00     0.066 A 
ATOM     25  C   UNL A   1      31.259  27.139  26.637  1.00  0.00     0.023 A 
ATOM     26  C   UNL A   1      32.306  26.872  24.483  1.00  0.00     0.043 A 
ATOM     27  Cl  UNL A   1      33.948  28.673  23.351  1.00  0.00    -0.082 Cl
ATOM     28  C   UNL A   1      31.484  26.382  25.493  1.00  0.00     0.042 A 
ATOM     29  Cl  UNL A   1      30.731  24.845  25.324  1.00  0.00    -0.084 Cl
ENDBRANCH  20  22
ENDBRANCH  17  20
ENDBRANCH  10  11
ENDBRANCH   9  10
ENDBRANCH   7   9
ENDBRANCH   6   7
ENDBRANCH   5   6
ENDBRANCH   4   5
ENDBRANCH   3   4
ENDBRANCH   2   3
ENDBRANCH   1   2
BRANCH   1  30
ATOM     30  O   UNL A   1      41.190  20.703  25.959  1.00  0.00    -0.377 OA
BRANCH  30  31
ATOM     31  C   UNL A   1      42.412  20.217  26.460  1.00  0.00     0.188 C 
BRANCH  31  32
ATOM     32  C   UNL A   1      43.585  20.242  25.466  1.00  0.00     0.188 C 
BRANCH  32  33
ATOM     33  O   UNL A   1      44.487  21.312  25.672  1.00  0.00    -0.376 OA
BRANCH  33  34
ATOM     34  C   UNL A   1      44.326  22.526  24.956  1.00  0.00     0.202 C 
BRANCH  34  35
ATOM     35  C   UNL A   1      43.480  23.682  25.503  1.00  0.00     0.261 C 
BRANCH  35  36
ATOM     36  O   UNL A   1      43.709  24.975  24.946  1.00  0.00    -0.460 OA
BRANCH  36  37
ATOM     37  C   UNL A   1      44.900  25.554  25.164  1.00  0.00     0.338 C 
ATOM     38  O   UNL A   1      45.970  25.289  24.642  1.00  0.00    -0.246 OA
BRANCH  37  39
ATOM     39  C   UNL A   1      44.629  26.726  26.012  1.00  0.00     0.060 A 
ATOM     40  C   UNL A   1      45.690  27.253  26.756  1.00  0.00     0.016 A 
ATOM     41  C   UNL A   1      43.371  27.338  26.015  1.00  0.00     0.016 A 
ATOM     42  C   UNL A   1      45.501  28.405  27.505  1.00  0.00     0.010 A 
ATOM     43  C   UNL A   1      43.166  28.464  26.813  1.00  0.00     0.010 A 
ATOM     44  C   UNL A   1      44.226  28.978  27.578  1.00  0.00    -0.014 A 
BRANCH  44  45
ATOM     45  C   UNL A   1      43.972  29.918  28.686  1.00  0.00     0.031 A 
ATOM     46  C   UNL A   1      43.785  29.327  30.052  1.00  0.00     0.074 A 
ATOM     47  C   UNL A   1      44.004  31.246  28.496  1.00  0.00     0.049 A 
ATOM     48  N   UNL A   1      43.611  29.920  31.202  1.00  0.00    -0.248 NA
ATOM     49  C   UNL A   1      43.810  27.855  30.128  1.00  0.00     0.031 C 
ATOM     50  C   UNL A   1      44.236  31.911  27.217  1.00  0.00     0.029 A 
ATOM     51  N   UNL A   1      43.847  32.271  29.391  1.00  0.00    -0.354 N 
ATOM     52  C   UNL A   1      43.507  28.896  32.134  1.00  0.00     0.074 A 
ATOM     53  C   UNL A   1      43.601  27.646  31.416  1.00  0.00     0.031 C 
ATOM     54  C   UNL A   1      44.197  33.242  27.408  1.00  0.00     0.029 A 
ATOM     55  C   UNL A   1      43.911  33.513  28.817  1.00  0.00     0.049 A 
ATOM     56  H   UNL A   1      43.704  32.128  30.356  1.00  0.00     0.167 HD
ATOM     57  C   UNL A   1      43.354  28.996  33.474  1.00  0.00     0.037 A 
ATOM     58  C   UNL A   1      43.736  34.727  29.373  1.00  0.00     0.037 A 
ATOM     59  C   UNL A   1      43.238  30.251  34.166  1.00  0.00     0.049 A 
ATOM     60  C   UNL A   1      43.480  34.814  30.857  1.00  0.00     0.074 A 
ATOM     61  C   UNL A   1      43.078  30.479  35.519  1.00  0.00     0.029 A 
ATOM     62  N   UNL A   1      43.251  31.493  33.545  1.00  0.00    -0.354 N 
ATOM     63  N   UNL A   1      43.404  33.848  31.743  1.00  0.00    -0.248 NA
ATOM     64  C   UNL A   1      43.293  36.157  31.419  1.00  0.00     0.031 C 
ATOM     65  C   UNL A   1      42.921  31.856  35.708  1.00  0.00     0.029 A 
ATOM     66  C   UNL A   1      43.065  32.493  34.484  1.00  0.00     0.049 A 
ATOM     67  H   UNL A   1      43.374  31.640  32.580  1.00  0.00     0.167 HD
ATOM     68  C   UNL A   1      43.192  34.465  32.969  1.00  0.00     0.074 A 
ATOM     69  C   UNL A   1      43.162  35.891  32.711  1.00  0.00     0.031 C 
ATOM     70  C   UNL A   1      43.039  33.908  34.197  1.00  0.00     0.037 A 
BRANCH  57  71
ATOM     71  C   UNL A   1      43.241  27.713  34.247  1.00  0.00     0.064 A 
ATOM     72  C   UNL A   1      42.004  27.089  34.479  1.00  0.00     0.173 A 
ATOM     73  C   UNL A   1      44.386  27.115  34.792  1.00  0.00     0.173 A 
ATOM     74  F   UNL A   1      40.873  27.630  34.000  1.00  0.00    -0.203 F 
ATOM     75  C   UNL A   1      41.917  25.940  35.262  1.00  0.00     0.198 A 
ATOM     76  C   UNL A   1      44.299  25.947  35.542  1.00  0.00     0.198 A 
ATOM     77  F   UNL A   1      45.593  27.671  34.606  1.00  0.00    -0.203 F 
ATOM     78  F   UNL A   1      40.717  25.404  35.532  1.00  0.00    -0.200 F 
ATOM     79  C   UNL A   1      43.064  25.368  35.788  1.00  0.00     0.200 A 
ATOM     80  F   UNL A   1      45.411  25.389  36.041  1.00  0.00    -0.200 F 
ATOM     81  F   UNL A   1      42.979  24.265  36.545  1.00  0.00    -0.200 F 
ENDBRANCH  57  71
BRANCH  58  82
ATOM     82  C   UNL A   1      43.789  35.944  28.521  1.00  0.00     0.064 A 
ATOM     83  C   UNL A   1      42.632  36.479  27.940  1.00  0.00     0.173 A 
ATOM     84  C   UNL A   1      45.004  36.606  28.283  1.00  0.00     0.173 A 
ATOM     85  F   UNL A   1      41.449  35.872  28.118  1.00  0.00    -0.203 F 
ATOM     86  C   UNL A   1      42.689  37.624  27.146  1.00  0.00     0.198 A 
ATOM     87  C   UNL A   1      45.055  37.767  27.515  1.00  0.00     0.198 A 
ATOM     88  F   UNL A   1      46.141  36.135  28.815  1.00  0.00    -0.203 F 
ATOM     89  F   UNL A   1      41.573  38.095  26.573  1.00  0.00    -0.200 F 
ATOM     90  C   UNL A   1      43.899  38.271  26.942  1.00  0.00     0.200 A 
ATOM     91  F   UNL A   1      46.223  38.397  27.333  1.00  0.00    -0.200 F 
ATOM     92  F   UNL A   1      43.949  39.380  26.190  1.00  0.00    -0.200 F 
ENDBRANCH  58  82
BRANCH  70  93
ATOM     93  C   UNL A   1      42.867  34.841  35.361  1.00  0.00     0.064 A 
ATOM     94  C   UNL A   1      43.962  35.335  36.085  1.00  0.00     0.173 A 
ATOM     95  C   UNL A   1      41.585  35.283  35.728  1.00  0.00     0.173 A 
ATOM     96  F   UNL A   1      45.207  34.937  35.784  1.00  0.00    -0.203 F 
ATOM     97  C   UNL A   1      43.778  36.211  37.152  1.00  0.00     0.198 A 
ATOM     98  C   UNL A   1      41.409  36.189  36.769  1.00  0.00     0.198 A 
ATOM     99  F   UNL A   1      40.504  34.851  35.062  1.00  0.00    -0.203 F 
ATOM    100  F   UNL A   1      44.835  36.625  37.866  1.00  0.00    -0.200 F 
ATOM    101  C   UNL A   1      42.504  36.644  37.487  1.00  0.00     0.200 A 
ATOM    102  F   UNL A   1      40.179  36.621  37.077  1.00  0.00    -0.200 F 
ATOM    103  F   UNL A   1      42.330  37.494  38.508  1.00  0.00    -0.200 F 
ENDBRANCH  70  93
ENDBRANCH  44  45
ENDBRANCH  37  39
ENDBRANCH  36  37
ENDBRANCH  35  36
ENDBRANCH  34  35
ENDBRANCH  33  34
ENDBRANCH  32  33
ENDBRANCH  31  32
ENDBRANCH  30  31
ENDBRANCH   1  30
TORSDOF 25
ENDMDL
