MODEL 1
REMARK VINA RESULT:      -9.8      0.000      0.000
REMARK SMILES C#CC[N@H+](CC(=O)OCCOCCOCCOCCOC(=O)c1ccc(-c2c3nc(c(-c4c(F)c(F)c(F)c(F)c4F)c4ccc([nH]4)c(-c4c(F)c(F)c(F)c(F)c4F)c4nc(c(-c5c(F)c(F)c(F)c(F)c5F)c5ccc2[nH]5)C=C4)C=C3)cc1)[C@H](C)c1cc(C)ccc1C
REMARK SMILES IDX 13 1 12 2 11 3 10 4 9 5 8 6 6 7 7 8 5 9 4 10 3 12 2 13 1 14
REMARK SMILES IDX 86 15 87 16 88 17 89 18 94 19 90 20 93 21 95 22 91 23 92 24
REMARK SMILES IDX 14 25 15 26 16 27 17 28 18 29 19 30 20 31 21 32 22 33 23 34
REMARK SMILES IDX 24 35 85 36 25 37 84 38 26 39 27 40 28 41 78 42 29 43 83 44
REMARK SMILES IDX 77 45 79 46 30 47 82 48 76 49 75 50 31 52 63 53 43 54 62 55
REMARK SMILES IDX 44 56 47 57 61 58 80 59 45 60 46 61 60 63 81 64 48 65 32 66
REMARK SMILES IDX 33 67 41 68 34 69 35 70 39 71 42 72 36 73 37 74 40 75 38 76
REMARK SMILES IDX 64 77 65 78 73 79 66 80 67 81 71 82 74 83 68 84 69 85 72 86
REMARK SMILES IDX 70 87 49 88 50 89 58 90 51 91 52 92 56 93 59 94 53 95 54 96
REMARK SMILES IDX 57 97 55 98
REMARK H PARENT 4 11 79 51 47 62
REMARK Flexibility Score: inf
ROOT
ATOM      1  C   UNL A   1      33.024  28.118  22.653  1.00  0.00     0.188 C 
ENDROOT
BRANCH   1   2
ATOM      2  C   UNL A   1      33.970  28.452  23.818  1.00  0.00     0.188 C 
BRANCH   2   3
ATOM      3  O   UNL A   1      33.669  27.842  25.055  1.00  0.00    -0.376 OA
BRANCH   3   4
ATOM      4  C   UNL A   1      32.562  26.973  25.207  1.00  0.00     0.202 C 
BRANCH   4   5
ATOM      5  C   UNL A   1      31.886  26.609  26.541  1.00  0.00     0.261 C 
BRANCH   5   6
ATOM      6  O   UNL A   1      30.697  25.823  26.477  1.00  0.00    -0.459 OA
BRANCH   6   7
ATOM      7  C   UNL A   1      30.830  24.489  26.624  1.00  0.00     0.361 C 
ATOM      8  O   UNL A   1      29.948  23.775  27.103  1.00  0.00    -0.245 OA
BRANCH   7   9
ATOM      9  C   UNL A   1      32.158  23.880  26.178  1.00  0.00     0.387 C 
BRANCH   9  10
ATOM     10  N   UNL A   1      32.290  22.463  25.709  1.00  0.00    -0.310 N 
ATOM     11  H   UNL A   1      31.415  21.967  25.884  1.00  0.00     0.349 HD
BRANCH  10  12
ATOM     12  C   UNL A   1      32.388  22.321  24.253  1.00  0.00     0.354 C 
BRANCH  12  13
ATOM     13  C   UNL A   1      31.806  23.460  23.518  1.00  0.00    -0.047 C 
ATOM     14  C   UNL A   1      31.329  24.400  22.930  1.00  0.00     0.010 C 
ENDBRANCH  12  13
ENDBRANCH  10  12
BRANCH  10  15
ATOM     15  C   UNL A   1      33.342  21.757  26.531  1.00  0.00     0.213 C 
ATOM     16  C   UNL A   1      33.386  22.111  28.033  1.00  0.00     0.081 C 
BRANCH  15  17
ATOM     17  C   UNL A   1      34.778  21.589  25.990  1.00  0.00     0.012 A 
ATOM     18  C   UNL A   1      35.689  22.657  26.217  1.00  0.00     0.013 A 
ATOM     19  C   UNL A   1      35.231  20.517  25.183  1.00  0.00    -0.042 A 
ATOM     20  C   UNL A   1      37.003  22.647  25.715  1.00  0.00    -0.051 A 
ATOM     21  C   UNL A   1      36.586  20.463  24.797  1.00  0.00     0.004 A 
ATOM     22  C   UNL A   1      34.390  19.369  24.701  1.00  0.00     0.045 C 
ATOM     23  C   UNL A   1      37.880  23.860  25.821  1.00  0.00     0.044 C 
ATOM     24  C   UNL A   1      37.461  21.513  25.054  1.00  0.00     0.004 A 
ENDBRANCH  15  17
ENDBRANCH  10  15
ENDBRANCH   9  10
ENDBRANCH   7   9
ENDBRANCH   6   7
ENDBRANCH   5   6
ENDBRANCH   4   5
ENDBRANCH   3   4
ENDBRANCH   2   3
ENDBRANCH   1   2
BRANCH   1  25
ATOM     25  O   UNL A   1      32.023  29.053  22.307  1.00  0.00    -0.377 OA
BRANCH  25  26
ATOM     26  C   UNL A   1      30.647  28.733  22.389  1.00  0.00     0.188 C 
BRANCH  26  27
ATOM     27  C   UNL A   1      29.718  29.403  23.418  1.00  0.00     0.188 C 
BRANCH  27  28
ATOM     28  O   UNL A   1      30.300  30.448  24.169  1.00  0.00    -0.376 OA
BRANCH  28  29
ATOM     29  C   UNL A   1      30.999  30.115  25.358  1.00  0.00     0.202 C 
BRANCH  29  30
ATOM     30  C   UNL A   1      31.530  31.237  26.267  1.00  0.00     0.261 C 
BRANCH  30  31
ATOM     31  O   UNL A   1      32.792  31.010  26.915  1.00  0.00    -0.460 OA
BRANCH  31  32
ATOM     32  C   UNL A   1      33.428  32.080  27.435  1.00  0.00     0.338 C 
ATOM     33  O   UNL A   1      32.981  33.200  27.594  1.00  0.00    -0.246 OA
BRANCH  32  34
ATOM     34  C   UNL A   1      34.740  31.625  27.942  1.00  0.00     0.060 A 
ATOM     35  C   UNL A   1      34.907  30.277  28.287  1.00  0.00     0.016 A 
ATOM     36  C   UNL A   1      35.793  32.529  28.097  1.00  0.00     0.016 A 
ATOM     37  C   UNL A   1      36.119  29.835  28.820  1.00  0.00     0.010 A 
ATOM     38  C   UNL A   1      36.998  32.089  28.656  1.00  0.00     0.010 A 
ATOM     39  C   UNL A   1      37.154  30.748  29.054  1.00  0.00    -0.014 A 
BRANCH  39  40
ATOM     40  C   UNL A   1      38.314  30.346  29.888  1.00  0.00     0.031 A 
ATOM     41  C   UNL A   1      39.290  29.350  29.323  1.00  0.00     0.074 A 
ATOM     42  C   UNL A   1      38.518  30.871  31.109  1.00  0.00     0.049 A 
ATOM     43  N   UNL A   1      40.340  28.800  29.879  1.00  0.00    -0.248 NA
ATOM     44  C   UNL A   1      39.047  28.912  27.938  1.00  0.00     0.031 C 
ATOM     45  C   UNL A   1      37.679  31.881  31.745  1.00  0.00     0.029 A 
ATOM     46  N   UNL A   1      39.500  30.614  32.035  1.00  0.00    -0.354 N 
ATOM     47  C   UNL A   1      40.873  27.948  28.920  1.00  0.00     0.074 A 
ATOM     48  C   UNL A   1      40.013  28.025  27.759  1.00  0.00     0.031 C 
ATOM     49  C   UNL A   1      38.174  32.151  32.966  1.00  0.00     0.029 A 
ATOM     50  C   UNL A   1      39.338  31.301  33.213  1.00  0.00     0.049 A 
ATOM     51  H   UNL A   1      40.248  29.996  31.870  1.00  0.00     0.167 HD
ATOM     52  C   UNL A   1      41.984  27.179  28.997  1.00  0.00     0.037 A 
ATOM     53  C   UNL A   1      40.034  31.228  34.366  1.00  0.00     0.037 A 
ATOM     54  C   UNL A   1      42.834  27.101  30.156  1.00  0.00     0.049 A 
ATOM     55  C   UNL A   1      41.212  30.288  34.459  1.00  0.00     0.074 A 
ATOM     56  C   UNL A   1      43.989  26.358  30.330  1.00  0.00     0.029 A 
ATOM     57  N   UNL A   1      42.613  27.781  31.345  1.00  0.00    -0.354 N 
ATOM     58  N   UNL A   1      41.724  29.502  33.542  1.00  0.00    -0.248 NA
ATOM     59  C   UNL A   1      41.910  30.227  35.751  1.00  0.00     0.031 C 
ATOM     60  C   UNL A   1      44.426  26.532  31.646  1.00  0.00     0.029 A 
ATOM     61  C   UNL A   1      43.593  27.447  32.269  1.00  0.00     0.049 A 
ATOM     62  H   UNL A   1      41.872  28.408  31.509  1.00  0.00     0.167 HD
ATOM     63  C   UNL A   1      42.822  28.887  34.133  1.00  0.00     0.074 A 
ATOM     64  C   UNL A   1      42.912  29.404  35.482  1.00  0.00     0.031 C 
ATOM     65  C   UNL A   1      43.680  27.978  33.606  1.00  0.00     0.037 A 
BRANCH  52  66
ATOM     66  C   UNL A   1      42.329  26.329  27.807  1.00  0.00     0.064 A 
ATOM     67  C   UNL A   1      43.295  26.724  26.869  1.00  0.00     0.173 A 
ATOM     68  C   UNL A   1      41.713  25.081  27.625  1.00  0.00     0.173 A 
ATOM     69  F   UNL A   1      43.907  27.912  26.988  1.00  0.00    -0.203 F 
ATOM     70  C   UNL A   1      43.610  25.915  25.780  1.00  0.00     0.198 A 
ATOM     71  C   UNL A   1      42.057  24.259  26.556  1.00  0.00     0.198 A 
ATOM     72  F   UNL A   1      40.786  24.651  28.494  1.00  0.00    -0.203 F 
ATOM     73  F   UNL A   1      44.499  26.337  24.869  1.00  0.00    -0.200 F 
ATOM     74  C   UNL A   1      42.999  24.680  25.629  1.00  0.00     0.200 A 
ATOM     75  F   UNL A   1      41.478  23.057  26.423  1.00  0.00    -0.200 F 
ATOM     76  F   UNL A   1      43.312  23.896  24.589  1.00  0.00    -0.200 F 
ENDBRANCH  52  66
BRANCH  53  77
ATOM     77  C   UNL A   1      39.628  32.047  35.542  1.00  0.00     0.064 A 
ATOM     78  C   UNL A   1      40.266  33.261  35.834  1.00  0.00     0.173 A 
ATOM     79  C   UNL A   1      38.631  31.610  36.425  1.00  0.00     0.173 A 
ATOM     80  F   UNL A   1      41.245  33.712  35.037  1.00  0.00    -0.203 F 
ATOM     81  C   UNL A   1      39.944  33.988  36.978  1.00  0.00     0.198 A 
ATOM     82  C   UNL A   1      38.282  32.357  37.550  1.00  0.00     0.198 A 
ATOM     83  F   UNL A   1      37.989  30.453  36.199  1.00  0.00    -0.203 F 
ATOM     84  F   UNL A   1      40.617  35.111  37.268  1.00  0.00    -0.200 F 
ATOM     85  C   UNL A   1      38.949  33.539  37.832  1.00  0.00     0.200 A 
ATOM     86  F   UNL A   1      37.308  31.925  38.362  1.00  0.00    -0.200 F 
ATOM     87  F   UNL A   1      38.639  34.237  38.933  1.00  0.00    -0.200 F 
ENDBRANCH  53  77
BRANCH  65  88
ATOM     88  C   UNL A   1      44.826  27.519  34.467  1.00  0.00     0.064 A 
ATOM     89  C   UNL A   1      44.725  26.399  35.307  1.00  0.00     0.173 A 
ATOM     90  C   UNL A   1      46.059  28.189  34.418  1.00  0.00     0.173 A 
ATOM     91  F   UNL A   1      43.567  25.727  35.400  1.00  0.00    -0.203 F 
ATOM     92  C   UNL A   1      45.802  25.991  36.090  1.00  0.00     0.198 A 
ATOM     93  C   UNL A   1      47.146  27.753  35.172  1.00  0.00     0.198 A 
ATOM     94  F   UNL A   1      46.218  29.259  33.625  1.00  0.00    -0.203 F 
ATOM     95  F   UNL A   1      45.661  24.956  36.930  1.00  0.00    -0.200 F 
ATOM     96  C   UNL A   1      47.013  26.662  36.015  1.00  0.00     0.200 A 
ATOM     97  F   UNL A   1      48.321  28.391  35.080  1.00  0.00    -0.200 F 
ATOM     98  F   UNL A   1      48.051  26.261  36.763  1.00  0.00    -0.200 F 
ENDBRANCH  65  88
ENDBRANCH  39  40
ENDBRANCH  32  34
ENDBRANCH  31  32
ENDBRANCH  30  31
ENDBRANCH  29  30
ENDBRANCH  28  29
ENDBRANCH  27  28
ENDBRANCH  26  27
ENDBRANCH  25  26
ENDBRANCH   1  25
TORSDOF 25
ENDMDL
MODEL 2
REMARK VINA RESULT:      -9.7      3.333      8.759
REMARK SMILES C#CC[N@H+](CC(=O)OCCOCCOCCOCCOC(=O)c1ccc(-c2c3nc(c(-c4c(F)c(F)c(F)c(F)c4F)c4ccc([nH]4)c(-c4c(F)c(F)c(F)c(F)c4F)c4nc(c(-c5c(F)c(F)c(F)c(F)c5F)c5ccc2[nH]5)C=C4)C=C3)cc1)[C@H](C)c1cc(C)ccc1C
REMARK SMILES IDX 13 1 12 2 11 3 10 4 9 5 8 6 6 7 7 8 5 9 4 10 3 12 2 13 1 14
REMARK SMILES IDX 86 15 87 16 88 17 89 18 94 19 90 20 93 21 95 22 91 23 92 24
REMARK SMILES IDX 14 25 15 26 16 27 17 28 18 29 19 30 20 31 21 32 22 33 23 34
REMARK SMILES IDX 24 35 85 36 25 37 84 38 26 39 27 40 28 41 78 42 29 43 83 44
REMARK SMILES IDX 77 45 79 46 30 47 82 48 76 49 75 50 31 52 63 53 43 54 62 55
REMARK SMILES IDX 44 56 47 57 61 58 80 59 45 60 46 61 60 63 81 64 48 65 32 66
REMARK SMILES IDX 33 67 41 68 34 69 35 70 39 71 42 72 36 73 37 74 40 75 38 76
REMARK SMILES IDX 64 77 65 78 73 79 66 80 67 81 71 82 74 83 68 84 69 85 72 86
REMARK SMILES IDX 70 87 49 88 50 89 58 90 51 91 52 92 56 93 59 94 53 95 54 96
REMARK SMILES IDX 57 97 55 98
REMARK H PARENT 4 11 79 51 47 62
REMARK Flexibility Score: inf
ROOT
ATOM      1  C   UNL A   1      39.261  22.075  26.384  1.00  0.00     0.188 C 
ENDROOT
BRANCH   1   2
ATOM      2  C   UNL A   1      37.981  22.434  25.612  1.00  0.00     0.188 C 
BRANCH   2   3
ATOM      3  O   UNL A   1      37.297  21.356  25.011  1.00  0.00    -0.376 OA
BRANCH   3   4
ATOM      4  C   UNL A   1      35.904  21.170  25.180  1.00  0.00     0.202 C 
BRANCH   4   5
ATOM      5  C   UNL A   1      35.094  21.550  26.433  1.00  0.00     0.261 C 
BRANCH   5   6
ATOM      6  O   UNL A   1      33.677  21.646  26.290  1.00  0.00    -0.459 OA
BRANCH   6   7
ATOM      7  C   UNL A   1      33.069  22.699  26.873  1.00  0.00     0.361 C 
ATOM      8  O   UNL A   1      32.183  22.579  27.719  1.00  0.00    -0.245 OA
BRANCH   7   9
ATOM      9  C   UNL A   1      33.520  24.087  26.420  1.00  0.00     0.387 C 
BRANCH   9  10
ATOM     10  N   UNL A   1      32.891  24.817  25.273  1.00  0.00    -0.310 N 
ATOM     11  H   UNL A   1      33.546  25.512  24.916  1.00  0.00     0.349 HD
BRANCH  10  12
ATOM     12  C   UNL A   1      32.698  23.995  24.075  1.00  0.00     0.354 C 
BRANCH  12  13
ATOM     13  C   UNL A   1      32.644  24.785  22.830  1.00  0.00    -0.047 C 
ATOM     14  C   UNL A   1      32.615  25.428  21.809  1.00  0.00     0.010 C 
ENDBRANCH  12  13
ENDBRANCH  10  12
BRANCH  10  15
ATOM     15  C   UNL A   1      31.690  25.589  25.767  1.00  0.00     0.213 C 
ATOM     16  C   UNL A   1      30.337  24.847  25.727  1.00  0.00     0.081 C 
BRANCH  15  17
ATOM     17  C   UNL A   1      31.489  27.067  25.367  1.00  0.00     0.012 A 
ATOM     18  C   UNL A   1      30.559  27.340  24.327  1.00  0.00     0.013 A 
ATOM     19  C   UNL A   1      32.241  28.160  25.862  1.00  0.00    -0.042 A 
ATOM     20  C   UNL A   1      30.340  28.638  23.833  1.00  0.00    -0.051 A 
ATOM     21  C   UNL A   1      31.919  29.469  25.447  1.00  0.00     0.004 A 
ATOM     22  C   UNL A   1      33.372  28.070  26.848  1.00  0.00     0.045 C 
ATOM     23  C   UNL A   1      29.485  28.871  22.622  1.00  0.00     0.044 C 
ATOM     24  C   UNL A   1      30.986  29.707  24.444  1.00  0.00     0.004 A 
ENDBRANCH  15  17
ENDBRANCH  10  15
ENDBRANCH   9  10
ENDBRANCH   7   9
ENDBRANCH   6   7
ENDBRANCH   5   6
ENDBRANCH   4   5
ENDBRANCH   3   4
ENDBRANCH   2   3
ENDBRANCH   1   2
BRANCH   1  25
ATOM     25  O   UNL A   1      39.892  20.841  26.109  1.00  0.00    -0.377 OA
BRANCH  25  26
ATOM     26  C   UNL A   1      40.900  20.318  26.953  1.00  0.00     0.188 C 
BRANCH  26  27
ATOM     27  C   UNL A   1      42.349  20.837  26.904  1.00  0.00     0.188 C 
BRANCH  27  28
ATOM     28  O   UNL A   1      42.850  21.112  25.612  1.00  0.00    -0.376 OA
BRANCH  28  29
ATOM     29  C   UNL A   1      42.620  22.399  25.061  1.00  0.00     0.202 C 
BRANCH  29  30
ATOM     30  C   UNL A   1      43.769  23.423  25.016  1.00  0.00     0.261 C 
BRANCH  30  31
ATOM     31  O   UNL A   1      43.422  24.780  24.697  1.00  0.00    -0.460 OA
BRANCH  31  32
ATOM     32  C   UNL A   1      44.192  25.759  25.214  1.00  0.00     0.338 C 
ATOM     33  O   UNL A   1      45.275  26.137  24.811  1.00  0.00    -0.246 OA
BRANCH  32  34
ATOM     34  C   UNL A   1      43.417  26.428  26.282  1.00  0.00     0.060 A 
ATOM     35  C   UNL A   1      43.646  27.786  26.541  1.00  0.00     0.016 A 
ATOM     36  C   UNL A   1      42.486  25.712  27.037  1.00  0.00     0.016 A 
ATOM     37  C   UNL A   1      42.968  28.425  27.580  1.00  0.00     0.010 A 
ATOM     38  C   UNL A   1      41.827  26.348  28.094  1.00  0.00     0.010 A 
ATOM     39  C   UNL A   1      42.091  27.697  28.393  1.00  0.00    -0.014 A 
BRANCH  39  40
ATOM     40  C   UNL A   1      41.608  28.290  29.666  1.00  0.00     0.031 A 
ATOM     41  C   UNL A   1      40.370  29.144  29.633  1.00  0.00     0.074 A 
ATOM     42  C   UNL A   1      42.233  28.055  30.833  1.00  0.00     0.049 A 
ATOM     43  N   UNL A   1      39.792  29.817  30.596  1.00  0.00    -0.248 NA
ATOM     44  C   UNL A   1      39.690  29.256  28.332  1.00  0.00     0.031 C 
ATOM     45  C   UNL A   1      43.406  27.204  31.007  1.00  0.00     0.029 A 
ATOM     46  N   UNL A   1      41.965  28.524  32.096  1.00  0.00    -0.354 N 
ATOM     47  C   UNL A   1      38.693  30.436  30.016  1.00  0.00     0.074 A 
ATOM     48  C   UNL A   1      38.702  30.091  28.611  1.00  0.00     0.031 C 
ATOM     49  C   UNL A   1      43.768  27.221  32.302  1.00  0.00     0.029 A 
ATOM     50  C   UNL A   1      42.877  28.118  33.039  1.00  0.00     0.049 A 
ATOM     51  H   UNL A   1      41.193  29.098  32.306  1.00  0.00     0.167 HD
ATOM     52  C   UNL A   1      37.755  31.216  30.604  1.00  0.00     0.037 A 
ATOM     53  C   UNL A   1      42.994  28.456  34.339  1.00  0.00     0.037 A 
ATOM     54  C   UNL A   1      37.752  31.562  32.001  1.00  0.00     0.049 A 
ATOM     55  C   UNL A   1      41.991  29.406  34.948  1.00  0.00     0.074 A 
ATOM     56  C   UNL A   1      36.839  32.337  32.696  1.00  0.00     0.029 A 
ATOM     57  N   UNL A   1      38.716  31.164  32.916  1.00  0.00    -0.354 N 
ATOM     58  N   UNL A   1      40.941  29.971  34.401  1.00  0.00    -0.248 NA
ATOM     59  C   UNL A   1      42.190  29.764  36.361  1.00  0.00     0.031 C 
ATOM     60  C   UNL A   1      37.291  32.468  34.012  1.00  0.00     0.029 A 
ATOM     61  C   UNL A   1      38.439  31.708  34.161  1.00  0.00     0.049 A 
ATOM     62  H   UNL A   1      39.483  30.582  32.711  1.00  0.00     0.167 HD
ATOM     63  C   UNL A   1      40.337  30.715  35.408  1.00  0.00     0.074 A 
ATOM     64  C   UNL A   1      41.127  30.516  36.604  1.00  0.00     0.031 C 
ATOM     65  C   UNL A   1      39.226  31.492  35.349  1.00  0.00     0.037 A 
BRANCH  52  66
ATOM     66  C   UNL A   1      36.669  31.780  29.732  1.00  0.00     0.064 A 
ATOM     67  C   UNL A   1      35.603  30.991  29.270  1.00  0.00     0.173 A 
ATOM     68  C   UNL A   1      36.671  33.140  29.388  1.00  0.00     0.173 A 
ATOM     69  F   UNL A   1      35.557  29.682  29.560  1.00  0.00    -0.203 F 
ATOM     70  C   UNL A   1      34.600  31.537  28.475  1.00  0.00     0.198 A 
ATOM     71  C   UNL A   1      35.647  33.691  28.623  1.00  0.00     0.198 A 
ATOM     72  F   UNL A   1      37.663  33.942  29.806  1.00  0.00    -0.203 F 
ATOM     73  F   UNL A   1      33.620  30.753  28.002  1.00  0.00    -0.200 F 
ATOM     74  C   UNL A   1      34.616  32.887  28.160  1.00  0.00     0.200 A 
ATOM     75  F   UNL A   1      35.656  35.000  28.336  1.00  0.00    -0.200 F 
ATOM     76  F   UNL A   1      33.643  33.414  27.405  1.00  0.00    -0.200 F 
ENDBRANCH  52  66
BRANCH  53  77
ATOM     77  C   UNL A   1      44.116  27.918  35.158  1.00  0.00     0.064 A 
ATOM     78  C   UNL A   1      45.333  28.607  35.263  1.00  0.00     0.173 A 
ATOM     79  C   UNL A   1      44.014  26.680  35.810  1.00  0.00     0.173 A 
ATOM     80  F   UNL A   1      45.493  29.782  34.637  1.00  0.00    -0.203 F 
ATOM     81  C   UNL A   1      46.411  28.066  35.961  1.00  0.00     0.198 A 
ATOM     82  C   UNL A   1      45.080  26.157  36.540  1.00  0.00     0.198 A 
ATOM     83  F   UNL A   1      42.876  25.974  35.740  1.00  0.00    -0.203 F 
ATOM     84  F   UNL A   1      47.583  28.716  35.988  1.00  0.00    -0.200 F 
ATOM     85  C   UNL A   1      46.282  26.845  36.604  1.00  0.00     0.200 A 
ATOM     86  F   UNL A   1      44.944  24.984  37.172  1.00  0.00    -0.200 F 
ATOM     87  F   UNL A   1      47.319  26.323  37.274  1.00  0.00    -0.200 F 
ENDBRANCH  53  77
BRANCH  65  88
ATOM     88  C   UNL A   1      38.763  32.146  36.623  1.00  0.00     0.064 A 
ATOM     89  C   UNL A   1      39.183  33.431  36.997  1.00  0.00     0.173 A 
ATOM     90  C   UNL A   1      37.850  31.488  37.463  1.00  0.00     0.173 A 
ATOM     91  F   UNL A   1      40.064  34.101  36.237  1.00  0.00    -0.203 F 
ATOM     92  C   UNL A   1      38.736  34.017  38.179  1.00  0.00     0.198 A 
ATOM     93  C   UNL A   1      37.373  32.093  38.623  1.00  0.00     0.198 A 
ATOM     94  F   UNL A   1      37.404  30.262  37.151  1.00  0.00    -0.203 F 
ATOM     95  F   UNL A   1      39.200  35.220  38.544  1.00  0.00    -0.200 F 
ATOM     96  C   UNL A   1      37.825  33.352  38.985  1.00  0.00     0.200 A 
ATOM     97  F   UNL A   1      36.477  31.457  39.388  1.00  0.00    -0.200 F 
ATOM     98  F   UNL A   1      37.389  33.921  40.117  1.00  0.00    -0.200 F 
ENDBRANCH  65  88
ENDBRANCH  39  40
ENDBRANCH  32  34
ENDBRANCH  31  32
ENDBRANCH  30  31
ENDBRANCH  29  30
ENDBRANCH  28  29
ENDBRANCH  27  28
ENDBRANCH  26  27
ENDBRANCH  25  26
ENDBRANCH   1  25
TORSDOF 25
ENDMDL
MODEL 3
REMARK VINA RESULT:      -9.7      0.660      2.046
REMARK SMILES C#CC[N@H+](CC(=O)OCCOCCOCCOCCOC(=O)c1ccc(-c2c3nc(c(-c4c(F)c(F)c(F)c(F)c4F)c4ccc([nH]4)c(-c4c(F)c(F)c(F)c(F)c4F)c4nc(c(-c5c(F)c(F)c(F)c(F)c5F)c5ccc2[nH]5)C=C4)C=C3)cc1)[C@H](C)c1cc(C)ccc1C
REMARK SMILES IDX 13 1 12 2 11 3 10 4 9 5 8 6 6 7 7 8 5 9 4 10 3 12 2 13 1 14
REMARK SMILES IDX 86 15 87 16 88 17 89 18 94 19 90 20 93 21 95 22 91 23 92 24
REMARK SMILES IDX 14 25 15 26 16 27 17 28 18 29 19 30 20 31 21 32 22 33 23 34
REMARK SMILES IDX 24 35 85 36 25 37 84 38 26 39 27 40 28 41 78 42 29 43 83 44
REMARK SMILES IDX 77 45 79 46 30 47 82 48 76 49 75 50 31 52 63 53 43 54 62 55
REMARK SMILES IDX 44 56 47 57 61 58 80 59 45 60 46 61 60 63 81 64 48 65 32 66
REMARK SMILES IDX 33 67 41 68 34 69 35 70 39 71 42 72 36 73 37 74 40 75 38 76
REMARK SMILES IDX 64 77 65 78 73 79 66 80 67 81 71 82 74 83 68 84 69 85 72 86
REMARK SMILES IDX 70 87 49 88 50 89 58 90 51 91 52 92 56 93 59 94 53 95 54 96
REMARK SMILES IDX 57 97 55 98
REMARK H PARENT 4 11 79 51 47 62
REMARK Flexibility Score: inf
ROOT
ATOM      1  C   UNL A   1      32.966  28.081  22.566  1.00  0.00     0.188 C 
ENDROOT
BRANCH   1   2
ATOM      2  C   UNL A   1      33.900  28.467  23.724  1.00  0.00     0.188 C 
BRANCH   2   3
ATOM      3  O   UNL A   1      33.568  27.939  24.991  1.00  0.00    -0.376 OA
BRANCH   3   4
ATOM      4  C   UNL A   1      32.644  26.877  25.136  1.00  0.00     0.202 C 
BRANCH   4   5
ATOM      5  C   UNL A   1      31.724  26.649  26.349  1.00  0.00     0.261 C 
BRANCH   5   6
ATOM      6  O   UNL A   1      30.952  25.449  26.367  1.00  0.00    -0.459 OA
BRANCH   6   7
ATOM      7  C   UNL A   1      31.575  24.320  26.760  1.00  0.00     0.361 C 
ATOM      8  O   UNL A   1      31.020  23.440  27.417  1.00  0.00    -0.245 OA
BRANCH   7   9
ATOM      9  C   UNL A   1      33.043  24.174  26.361  1.00  0.00     0.387 C 
BRANCH   9  10
ATOM     10  N   UNL A   1      33.551  23.051  25.509  1.00  0.00    -0.310 N 
ATOM     11  H   UNL A   1      33.688  22.224  26.090  1.00  0.00     0.349 HD
BRANCH  10  12
ATOM     12  C   UNL A   1      32.570  22.540  24.548  1.00  0.00     0.354 C 
BRANCH  12  13
ATOM     13  C   UNL A   1      32.481  21.067  24.535  1.00  0.00    -0.047 C 
ATOM     14  C   UNL A   1      32.421  19.862  24.536  1.00  0.00     0.010 C 
ENDBRANCH  12  13
ENDBRANCH  10  12
BRANCH  10  15
ATOM     15  C   UNL A   1      34.913  23.410  24.964  1.00  0.00     0.213 C 
ATOM     16  C   UNL A   1      34.937  24.078  23.572  1.00  0.00     0.081 C 
BRANCH  15  17
ATOM     17  C   UNL A   1      36.094  22.424  25.092  1.00  0.00     0.012 A 
ATOM     18  C   UNL A   1      35.836  21.056  24.804  1.00  0.00     0.013 A 
ATOM     19  C   UNL A   1      37.381  22.746  25.591  1.00  0.00    -0.042 A 
ATOM     20  C   UNL A   1      36.815  20.057  24.950  1.00  0.00    -0.051 A 
ATOM     21  C   UNL A   1      38.385  21.756  25.609  1.00  0.00     0.004 A 
ATOM     22  C   UNL A   1      37.813  24.094  26.094  1.00  0.00     0.045 C 
ATOM     23  C   UNL A   1      36.464  18.605  24.807  1.00  0.00     0.044 C 
ATOM     24  C   UNL A   1      38.108  20.430  25.298  1.00  0.00     0.004 A 
ENDBRANCH  15  17
ENDBRANCH  10  15
ENDBRANCH   9  10
ENDBRANCH   7   9
ENDBRANCH   6   7
ENDBRANCH   5   6
ENDBRANCH   4   5
ENDBRANCH   3   4
ENDBRANCH   2   3
ENDBRANCH   1   2
BRANCH   1  25
ATOM     25  O   UNL A   1      31.935  28.975  22.203  1.00  0.00    -0.377 OA
BRANCH  25  26
ATOM     26  C   UNL A   1      30.575  28.687  22.464  1.00  0.00     0.188 C 
BRANCH  26  27
ATOM     27  C   UNL A   1      29.775  29.446  23.539  1.00  0.00     0.188 C 
BRANCH  27  28
ATOM     28  O   UNL A   1      30.489  30.458  24.221  1.00  0.00    -0.376 OA
BRANCH  28  29
ATOM     29  C   UNL A   1      31.102  30.131  25.458  1.00  0.00     0.202 C 
BRANCH  29  30
ATOM     30  C   UNL A   1      31.672  31.254  26.343  1.00  0.00     0.261 C 
BRANCH  30  31
ATOM     31  O   UNL A   1      32.939  31.008  26.974  1.00  0.00    -0.460 OA
BRANCH  31  32
ATOM     32  C   UNL A   1      33.588  32.065  27.505  1.00  0.00     0.338 C 
ATOM     33  O   UNL A   1      33.152  33.187  27.679  1.00  0.00    -0.246 OA
BRANCH  32  34
ATOM     34  C   UNL A   1      34.897  31.590  28.002  1.00  0.00     0.060 A 
ATOM     35  C   UNL A   1      35.045  30.241  28.352  1.00  0.00     0.016 A 
ATOM     36  C   UNL A   1      35.966  32.477  28.142  1.00  0.00     0.016 A 
ATOM     37  C   UNL A   1      36.253  29.782  28.877  1.00  0.00     0.010 A 
ATOM     38  C   UNL A   1      37.169  32.020  28.691  1.00  0.00     0.010 A 
ATOM     39  C   UNL A   1      37.306  30.679  29.095  1.00  0.00    -0.014 A 
BRANCH  39  40
ATOM     40  C   UNL A   1      38.468  30.261  29.920  1.00  0.00     0.031 A 
ATOM     41  C   UNL A   1      39.432  29.260  29.344  1.00  0.00     0.074 A 
ATOM     42  C   UNL A   1      38.683  30.777  31.143  1.00  0.00     0.049 A 
ATOM     43  N   UNL A   1      40.479  28.697  29.891  1.00  0.00    -0.248 NA
ATOM     44  C   UNL A   1      39.177  28.832  27.959  1.00  0.00     0.031 C 
ATOM     45  C   UNL A   1      37.857  31.792  31.790  1.00  0.00     0.029 A 
ATOM     46  N   UNL A   1      39.668  30.507  32.062  1.00  0.00    -0.354 N 
ATOM     47  C   UNL A   1      40.999  27.847  28.924  1.00  0.00     0.074 A 
ATOM     48  C   UNL A   1      40.133  27.938  27.769  1.00  0.00     0.031 C 
ATOM     49  C   UNL A   1      38.360  32.050  33.010  1.00  0.00     0.029 A 
ATOM     50  C   UNL A   1      39.519  31.189  33.245  1.00  0.00     0.049 A 
ATOM     51  H   UNL A   1      40.410  29.883  31.890  1.00  0.00     0.167 HD
ATOM     52  C   UNL A   1      42.103  27.067  28.991  1.00  0.00     0.037 A 
ATOM     53  C   UNL A   1      40.220  31.102  34.393  1.00  0.00     0.037 A 
ATOM     54  C   UNL A   1      42.959  26.974  30.144  1.00  0.00     0.049 A 
ATOM     55  C   UNL A   1      41.390  30.151  34.474  1.00  0.00     0.074 A 
ATOM     56  C   UNL A   1      44.109  26.221  30.308  1.00  0.00     0.029 A 
ATOM     57  N   UNL A   1      42.752  27.650  31.339  1.00  0.00    -0.354 N 
ATOM     58  N   UNL A   1      41.891  29.366  33.550  1.00  0.00    -0.248 NA
ATOM     59  C   UNL A   1      42.095  30.077  35.763  1.00  0.00     0.031 C 
ATOM     60  C   UNL A   1      44.554  26.383  31.622  1.00  0.00     0.029 A 
ATOM     61  C   UNL A   1      43.733  27.302  32.254  1.00  0.00     0.049 A 
ATOM     62  H   UNL A   1      42.017  28.282  31.510  1.00  0.00     0.167 HD
ATOM     63  C   UNL A   1      42.986  28.738  34.131  1.00  0.00     0.074 A 
ATOM     64  C   UNL A   1      43.088  29.246  35.482  1.00  0.00     0.031 C 
ATOM     65  C   UNL A   1      43.833  27.824  33.594  1.00  0.00     0.037 A 
BRANCH  52  66
ATOM     66  C   UNL A   1      42.434  26.221  27.794  1.00  0.00     0.064 A 
ATOM     67  C   UNL A   1      43.410  26.605  26.861  1.00  0.00     0.173 A 
ATOM     68  C   UNL A   1      41.794  24.987  27.599  1.00  0.00     0.173 A 
ATOM     69  F   UNL A   1      44.045  27.780  26.992  1.00  0.00    -0.203 F 
ATOM     70  C   UNL A   1      43.711  25.799  25.766  1.00  0.00     0.198 A 
ATOM     71  C   UNL A   1      42.124  24.167  26.524  1.00  0.00     0.198 A 
ATOM     72  F   UNL A   1      40.857  24.568  28.463  1.00  0.00    -0.203 F 
ATOM     73  F   UNL A   1      44.610  26.211  24.860  1.00  0.00    -0.200 F 
ATOM     74  C   UNL A   1      43.076  24.578  25.603  1.00  0.00     0.200 A 
ATOM     75  F   UNL A   1      41.522  22.979  26.380  1.00  0.00    -0.200 F 
ATOM     76  F   UNL A   1      43.376  23.798  24.556  1.00  0.00    -0.200 F 
ENDBRANCH  52  66
BRANCH  53  77
ATOM     77  C   UNL A   1      39.829  31.918  35.576  1.00  0.00     0.064 A 
ATOM     78  C   UNL A   1      38.788  31.513  36.425  1.00  0.00     0.173 A 
ATOM     79  C   UNL A   1      40.450  33.145  35.854  1.00  0.00     0.173 A 
ATOM     80  F   UNL A   1      38.142  30.362  36.189  1.00  0.00    -0.203 F 
ATOM     81  C   UNL A   1      38.367  32.314  37.484  1.00  0.00     0.198 A 
ATOM     82  C   UNL A   1      40.054  33.928  36.936  1.00  0.00     0.198 A 
ATOM     83  F   UNL A   1      41.448  33.586  35.073  1.00  0.00    -0.203 F 
ATOM     84  F   UNL A   1      37.326  31.932  38.237  1.00  0.00    -0.200 F 
ATOM     85  C   UNL A   1      39.003  33.518  37.742  1.00  0.00     0.200 A 
ATOM     86  F   UNL A   1      40.683  35.083  37.190  1.00  0.00    -0.200 F 
ATOM     87  F   UNL A   1      38.597  34.290  38.760  1.00  0.00    -0.200 F 
ENDBRANCH  53  77
BRANCH  65  88
ATOM     88  C   UNL A   1      44.979  27.350  34.446  1.00  0.00     0.064 A 
ATOM     89  C   UNL A   1      46.193  28.050  34.520  1.00  0.00     0.173 A 
ATOM     90  C   UNL A   1      44.843  26.196  35.235  1.00  0.00     0.173 A 
ATOM     91  F   UNL A   1      46.382  29.154  33.780  1.00  0.00    -0.203 F 
ATOM     92  C   UNL A   1      47.237  27.593  35.320  1.00  0.00     0.198 A 
ATOM     93  C   UNL A   1      45.874  25.765  36.066  1.00  0.00     0.198 A 
ATOM     94  F   UNL A   1      43.701  25.493  35.215  1.00  0.00    -0.203 F 
ATOM     95  F   UNL A   1      48.408  28.245  35.325  1.00  0.00    -0.200 F 
ATOM     96  C   UNL A   1      47.074  26.458  36.099  1.00  0.00     0.200 A 
ATOM     97  F   UNL A   1      45.705  24.680  36.833  1.00  0.00    -0.200 F 
ATOM     98  F   UNL A   1      48.077  26.025  36.876  1.00  0.00    -0.200 F 
ENDBRANCH  65  88
ENDBRANCH  39  40
ENDBRANCH  32  34
ENDBRANCH  31  32
ENDBRANCH  30  31
ENDBRANCH  29  30
ENDBRANCH  28  29
ENDBRANCH  27  28
ENDBRANCH  26  27
ENDBRANCH  25  26
ENDBRANCH   1  25
TORSDOF 25
ENDMDL
