MODEL 1
REMARK VINA RESULT:     -11.1      0.000      0.000
REMARK SMILES O=C(OCCOCCOCCOCCOC(=O)[C@H]1CC2(CC[NH+](C(=O)C3CC3)CC2)CN1C(=O)CCn1cccn1)c1ccc(-c2c3nc(c(-c4c(F)c(F)c(F)c(F)c4F)c4ccc([nH]4)c(-c4c(F)c(F)c(F)c(F)c4F)c4nc(c(-c5c(F)c(F)c(F)c(F)c5F)c5ccc2[nH]5)C=C4)C=C3)cc1
REMARK SMILES IDX 10 1 9 2 8 3 7 4 6 5 5 6 4 7 3 8 2 9 1 10 42 11 43 12 104 13
REMARK SMILES IDX 44 14 103 15 45 16 46 17 47 18 97 19 48 20 102 21 96 22
REMARK SMILES IDX 98 23 49 24 101 25 95 26 94 27 50 29 82 30 62 31 81 32 63 33
REMARK SMILES IDX 66 34 80 35 99 36 64 37 65 38 79 40 100 41 67 42 51 43 52 44
REMARK SMILES IDX 60 45 53 46 54 47 58 48 61 49 55 50 56 51 59 52 57 53 83 54
REMARK SMILES IDX 84 55 92 56 85 57 86 58 90 59 93 60 87 61 88 62 91 63 89 64
REMARK SMILES IDX 68 65 69 66 77 67 70 68 71 69 75 70 78 71 72 72 73 73 76 74
REMARK SMILES IDX 74 75 11 76 12 77 13 78 14 79 15 80 16 81 17 82 18 83 19 84
REMARK SMILES IDX 32 85 20 86 31 87 21 88 30 89 22 90 29 91 23 92 33 94 34 95
REMARK SMILES IDX 35 96 36 97 37 98 38 99 41 100 39 101 40 102 24 103 25 104
REMARK SMILES IDX 26 105 27 106 28 107
REMARK H PARENT 98 28 66 39 23 93
REMARK Flexibility Score: inf
ROOT
ATOM      1  C   UNL A   1      33.337  26.386  22.507  1.00  0.00     0.188 C 
ENDROOT
BRANCH   1   2
ATOM      2  O   UNL A   1      33.890  27.519  21.906  1.00  0.00    -0.377 OA
BRANCH   2   3
ATOM      3  C   UNL A   1      34.046  28.592  22.813  1.00  0.00     0.188 C 
BRANCH   3   4
ATOM      4  C   UNL A   1      33.148  28.599  24.086  1.00  0.00     0.188 C 
BRANCH   4   5
ATOM      5  O   UNL A   1      33.317  29.700  24.987  1.00  0.00    -0.376 OA
BRANCH   5   6
ATOM      6  C   UNL A   1      32.387  30.132  25.977  1.00  0.00     0.202 C 
BRANCH   6   7
ATOM      7  C   UNL A   1      33.102  30.714  27.228  1.00  0.00     0.261 C 
BRANCH   7   8
ATOM      8  O   UNL A   1      34.542  30.801  27.163  1.00  0.00    -0.460 OA
BRANCH   8   9
ATOM      9  C   UNL A   1      35.378  31.499  27.970  1.00  0.00     0.338 C 
ATOM     10  O   UNL A   1      35.154  32.686  28.201  1.00  0.00    -0.246 OA
BRANCH   9  11
ATOM     11  C   UNL A   1      36.616  30.902  28.524  1.00  0.00     0.060 A 
ATOM     12  C   UNL A   1      37.774  31.640  28.809  1.00  0.00     0.016 A 
ATOM     13  C   UNL A   1      36.560  29.531  28.849  1.00  0.00     0.016 A 
ATOM     14  C   UNL A   1      38.815  31.067  29.482  1.00  0.00     0.010 A 
ATOM     15  C   UNL A   1      37.635  28.919  29.455  1.00  0.00     0.010 A 
ATOM     16  C   UNL A   1      38.758  29.701  29.702  1.00  0.00    -0.014 A 
BRANCH  16  17
ATOM     17  C   UNL A   1      40.054  29.111  29.900  1.00  0.00     0.031 A 
ATOM     18  C   UNL A   1      40.574  29.211  31.283  1.00  0.00     0.074 A 
ATOM     19  C   UNL A   1      40.638  28.687  28.763  1.00  0.00     0.049 A 
ATOM     20  N   UNL A   1      41.679  29.750  31.685  1.00  0.00    -0.248 NA
ATOM     21  C   UNL A   1      39.667  28.825  32.378  1.00  0.00     0.031 C 
ATOM     22  C   UNL A   1      40.037  28.570  27.421  1.00  0.00     0.029 A 
ATOM     23  N   UNL A   1      41.875  28.170  28.585  1.00  0.00    -0.354 N 
ATOM     24  C   UNL A   1      41.702  29.571  33.066  1.00  0.00     0.074 A 
ATOM     25  C   UNL A   1      40.379  29.160  33.453  1.00  0.00     0.031 C 
ATOM     26  C   UNL A   1      40.793  27.758  26.659  1.00  0.00     0.029 A 
ATOM     27  C   UNL A   1      41.979  27.423  27.411  1.00  0.00     0.049 A 
ATOM     28  H   UNL A   1      42.620  28.304  29.214  1.00  0.00     0.167 HD
ATOM     29  C   UNL A   1      42.882  29.480  33.732  1.00  0.00     0.037 A 
ATOM     30  C   UNL A   1      42.897  26.444  27.251  1.00  0.00     0.037 A 
ATOM     31  C   UNL A   1      43.925  30.198  33.048  1.00  0.00     0.049 A 
ATOM     32  C   UNL A   1      43.993  26.754  28.221  1.00  0.00     0.074 A 
ATOM     33  C   UNL A   1      44.133  31.533  32.757  1.00  0.00     0.029 A 
ATOM     34  N   UNL A   1      44.759  29.499  32.209  1.00  0.00    -0.354 N 
ATOM     35  N   UNL A   1      44.720  27.843  28.142  1.00  0.00    -0.248 NA
ATOM     36  C   UNL A   1      43.895  26.168  29.554  1.00  0.00     0.031 C 
ATOM     37  C   UNL A   1      44.695  31.542  31.448  1.00  0.00     0.029 A 
ATOM     38  C   UNL A   1      44.868  30.217  31.044  1.00  0.00     0.049 A 
ATOM     39  H   UNL A   1      45.197  28.641  32.407  1.00  0.00     0.167 HD
ATOM     40  C   UNL A   1      44.842  28.292  29.454  1.00  0.00     0.074 A 
ATOM     41  C   UNL A   1      44.345  27.196  30.282  1.00  0.00     0.031 C 
ATOM     42  C   UNL A   1      45.055  29.612  29.745  1.00  0.00     0.037 A 
BRANCH  29  43
ATOM     43  C   UNL A   1      43.152  28.389  34.739  1.00  0.00     0.064 A 
ATOM     44  C   UNL A   1      43.563  28.738  36.038  1.00  0.00     0.173 A 
ATOM     45  C   UNL A   1      43.328  27.029  34.388  1.00  0.00     0.173 A 
ATOM     46  F   UNL A   1      43.449  30.001  36.474  1.00  0.00    -0.203 F 
ATOM     47  C   UNL A   1      44.186  27.814  36.884  1.00  0.00     0.198 A 
ATOM     48  C   UNL A   1      43.905  26.103  35.250  1.00  0.00     0.198 A 
ATOM     49  F   UNL A   1      43.058  26.560  33.166  1.00  0.00    -0.203 F 
ATOM     50  F   UNL A   1      44.675  28.218  38.064  1.00  0.00    -0.200 F 
ATOM     51  C   UNL A   1      44.367  26.501  36.484  1.00  0.00     0.200 A 
ATOM     52  F   UNL A   1      44.085  24.842  34.833  1.00  0.00    -0.200 F 
ATOM     53  F   UNL A   1      45.027  25.634  37.262  1.00  0.00    -0.200 F 
ENDBRANCH  29  43
BRANCH  30  54
ATOM     54  C   UNL A   1      42.577  25.098  26.722  1.00  0.00     0.064 A 
ATOM     55  C   UNL A   1      43.219  24.596  25.584  1.00  0.00     0.173 A 
ATOM     56  C   UNL A   1      41.765  24.187  27.438  1.00  0.00     0.173 A 
ATOM     57  F   UNL A   1      44.047  25.381  24.882  1.00  0.00    -0.203 F 
ATOM     58  C   UNL A   1      43.052  23.265  25.182  1.00  0.00     0.198 A 
ATOM     59  C   UNL A   1      41.588  22.868  27.027  1.00  0.00     0.198 A 
ATOM     60  F   UNL A   1      41.187  24.535  28.596  1.00  0.00    -0.203 F 
ATOM     61  F   UNL A   1      43.714  22.806  24.111  1.00  0.00    -0.200 F 
ATOM     62  C   UNL A   1      42.239  22.403  25.903  1.00  0.00     0.200 A 
ATOM     63  F   UNL A   1      40.825  22.041  27.756  1.00  0.00    -0.200 F 
ATOM     64  F   UNL A   1      42.112  21.120  25.536  1.00  0.00    -0.200 F 
ENDBRANCH  30  54
BRANCH  42  65
ATOM     65  C   UNL A   1      45.276  30.557  28.593  1.00  0.00     0.064 A 
ATOM     66  C   UNL A   1      44.246  31.313  28.007  1.00  0.00     0.173 A 
ATOM     67  C   UNL A   1      46.587  30.847  28.199  1.00  0.00     0.173 A 
ATOM     68  F   UNL A   1      42.981  31.181  28.420  1.00  0.00    -0.203 F 
ATOM     69  C   UNL A   1      44.511  32.283  27.041  1.00  0.00     0.198 A 
ATOM     70  C   UNL A   1      46.854  31.840  27.258  1.00  0.00     0.198 A 
ATOM     71  F   UNL A   1      47.616  30.214  28.780  1.00  0.00    -0.203 F 
ATOM     72  F   UNL A   1      43.506  32.993  26.505  1.00  0.00    -0.200 F 
ATOM     73  C   UNL A   1      45.817  32.550  26.672  1.00  0.00     0.200 A 
ATOM     74  F   UNL A   1      48.124  32.138  26.950  1.00  0.00    -0.200 F 
ATOM     75  F   UNL A   1      46.081  33.517  25.781  1.00  0.00    -0.200 F 
ENDBRANCH  42  65
ENDBRANCH  16  17
ENDBRANCH   9  11
ENDBRANCH   8   9
ENDBRANCH   7   8
ENDBRANCH   6   7
ENDBRANCH   5   6
ENDBRANCH   4   5
ENDBRANCH   3   4
ENDBRANCH   2   3
ENDBRANCH   1   2
BRANCH   1  76
ATOM     76  C   UNL A   1      33.602  25.080  21.752  1.00  0.00     0.188 C 
BRANCH  76  77
ATOM     77  O   UNL A   1      33.063  23.910  22.333  1.00  0.00    -0.376 OA
BRANCH  77  78
ATOM     78  C   UNL A   1      34.061  22.952  22.714  1.00  0.00     0.202 C 
BRANCH  78  79
ATOM     79  C   UNL A   1      35.470  23.511  23.123  1.00  0.00     0.261 C 
BRANCH  79  80
ATOM     80  O   UNL A   1      36.042  23.020  24.396  1.00  0.00    -0.462 OA
BRANCH  80  81
ATOM     81  C   UNL A   1      35.725  23.647  25.590  1.00  0.00     0.328 C 
ATOM     82  O   UNL A   1      36.576  24.271  26.227  1.00  0.00    -0.250 OA
BRANCH  81  83
ATOM     83  C   UNL A   1      34.165  23.513  26.188  1.00  0.00     0.195 C 
ATOM     84  C   UNL A   1      33.242  24.768  25.833  1.00  0.00     0.046 C 
ATOM     85  N   UNL A   1      33.089  22.483  26.285  1.00  0.00    -0.328 N 
ATOM     86  C   UNL A   1      31.698  24.347  25.868  1.00  0.00     0.001 C 
ATOM     87  C   UNL A   1      31.835  23.094  26.749  1.00  0.00     0.128 C 
ATOM     88  C   UNL A   1      30.818  23.876  24.653  1.00  0.00     0.071 C 
ATOM     89  C   UNL A   1      30.875  25.524  26.431  1.00  0.00     0.071 C 
ATOM     90  C   UNL A   1      30.309  24.905  23.630  1.00  0.00     0.270 C 
ATOM     91  C   UNL A   1      30.642  26.597  25.342  1.00  0.00     0.270 C 
ATOM     92  N   UNL A   1      29.790  26.098  24.255  1.00  0.00    -0.272 N 
ATOM     93  H   UNL A   1      29.715  26.950  23.767  1.00  0.00     0.356 HD
BRANCH  85  94
ATOM     94  C   UNL A   1      33.102  21.142  26.015  1.00  0.00     0.225 C 
ATOM     95  O   UNL A   1      33.853  20.341  26.570  1.00  0.00    -0.275 OA
BRANCH  94  96
ATOM     96  C   UNL A   1      32.052  20.640  25.108  1.00  0.00     0.124 C 
BRANCH  96  97
ATOM     97  C   UNL A   1      32.663  19.741  24.039  1.00  0.00     0.154 C 
BRANCH  97  98
ATOM     98  N   UNL A   1      32.696  18.276  24.124  1.00  0.00    -0.272 N 
ATOM     99  C   UNL A   1      32.398  17.501  25.228  1.00  0.00     0.108 A 
ATOM    100  N   UNL A   1      33.439  17.558  23.270  1.00  0.00    -0.182 NA
ATOM    101  C   UNL A   1      33.001  16.274  25.042  1.00  0.00     0.042 A 
ATOM    102  C   UNL A   1      33.639  16.364  23.816  1.00  0.00     0.135 A 
ENDBRANCH  97  98
ENDBRANCH  96  97
ENDBRANCH  94  96
ENDBRANCH  85  94
BRANCH  92 103
ATOM    103  C   UNL A   1      28.777  26.951  23.772  1.00  0.00     0.315 C 
ATOM    104  O   UNL A   1      27.610  26.720  24.035  1.00  0.00    -0.231 OA
BRANCH 103 105
ATOM    105  C   UNL A   1      28.993  28.161  22.901  1.00  0.00     0.119 C 
ATOM    106  C   UNL A   1      28.185  29.416  22.743  1.00  0.00     0.019 C 
ATOM    107  C   UNL A   1      29.536  29.471  23.408  1.00  0.00     0.019 C 
ENDBRANCH 103 105
ENDBRANCH  92 103
ENDBRANCH  81  83
ENDBRANCH  80  81
ENDBRANCH  79  80
ENDBRANCH  78  79
ENDBRANCH  77  78
ENDBRANCH  76  77
ENDBRANCH   1  76
TORSDOF 26
ENDMDL
MODEL 2
REMARK VINA RESULT:      -9.1      3.147      7.628
REMARK SMILES O=C(OCCOCCOCCOCCOC(=O)[C@H]1CC2(CC[NH+](C(=O)C3CC3)CC2)CN1C(=O)CCn1cccn1)c1ccc(-c2c3nc(c(-c4c(F)c(F)c(F)c(F)c4F)c4ccc([nH]4)c(-c4c(F)c(F)c(F)c(F)c4F)c4nc(c(-c5c(F)c(F)c(F)c(F)c5F)c5ccc2[nH]5)C=C4)C=C3)cc1
REMARK SMILES IDX 10 1 9 2 8 3 7 4 6 5 5 6 4 7 3 8 2 9 1 10 42 11 43 12 104 13
REMARK SMILES IDX 44 14 103 15 45 16 46 17 47 18 97 19 48 20 102 21 96 22
REMARK SMILES IDX 98 23 49 24 101 25 95 26 94 27 50 29 82 30 62 31 81 32 63 33
REMARK SMILES IDX 66 34 80 35 99 36 64 37 65 38 79 40 100 41 67 42 51 43 52 44
REMARK SMILES IDX 60 45 53 46 54 47 58 48 61 49 55 50 56 51 59 52 57 53 83 54
REMARK SMILES IDX 84 55 92 56 85 57 86 58 90 59 93 60 87 61 88 62 91 63 89 64
REMARK SMILES IDX 68 65 69 66 77 67 70 68 71 69 75 70 78 71 72 72 73 73 76 74
REMARK SMILES IDX 74 75 11 76 12 77 13 78 14 79 15 80 16 81 17 82 18 83 19 84
REMARK SMILES IDX 32 85 20 86 31 87 21 88 30 89 22 90 29 91 23 92 33 94 34 95
REMARK SMILES IDX 35 96 36 97 37 98 38 99 41 100 39 101 40 102 24 103 25 104
REMARK SMILES IDX 26 105 27 106 28 107
REMARK H PARENT 98 28 66 39 23 93
REMARK Flexibility Score: inf
ROOT
ATOM      1  C   UNL A   1      41.342  22.327  27.167  1.00  0.00     0.188 C 
ENDROOT
BRANCH   1   2
ATOM      2  O   UNL A   1      41.647  23.632  26.771  1.00  0.00    -0.377 OA
BRANCH   2   3
ATOM      3  C   UNL A   1      42.975  23.997  27.088  1.00  0.00     0.188 C 
BRANCH   3   4
ATOM      4  C   UNL A   1      44.072  22.896  26.990  1.00  0.00     0.188 C 
BRANCH   4   5
ATOM      5  O   UNL A   1      44.528  22.557  25.675  1.00  0.00    -0.376 OA
BRANCH   5   6
ATOM      6  C   UNL A   1      44.804  23.468  24.615  1.00  0.00     0.202 C 
BRANCH   6   7
ATOM      7  C   UNL A   1      46.331  23.614  24.360  1.00  0.00     0.261 C 
BRANCH   7   8
ATOM      8  O   UNL A   1      47.017  24.622  25.134  1.00  0.00    -0.460 OA
BRANCH   8   9
ATOM      9  C   UNL A   1      46.885  25.970  25.060  1.00  0.00     0.338 C 
ATOM     10  O   UNL A   1      47.201  26.559  24.028  1.00  0.00    -0.246 OA
BRANCH   9  11
ATOM     11  C   UNL A   1      46.452  26.782  26.222  1.00  0.00     0.060 A 
ATOM     12  C   UNL A   1      45.322  26.487  26.996  1.00  0.00     0.016 A 
ATOM     13  C   UNL A   1      47.295  27.851  26.589  1.00  0.00     0.016 A 
ATOM     14  C   UNL A   1      45.077  27.166  28.156  1.00  0.00     0.010 A 
ATOM     15  C   UNL A   1      47.017  28.597  27.712  1.00  0.00     0.010 A 
ATOM     16  C   UNL A   1      45.875  28.263  28.433  1.00  0.00    -0.014 A 
BRANCH  16  17
ATOM     17  C   UNL A   1      45.246  29.203  29.320  1.00  0.00     0.031 A 
ATOM     18  C   UNL A   1      45.304  28.835  30.753  1.00  0.00     0.074 A 
ATOM     19  C   UNL A   1      44.590  30.194  28.687  1.00  0.00     0.049 A 
ATOM     20  N   UNL A   1      44.320  28.670  31.577  1.00  0.00    -0.248 NA
ATOM     21  C   UNL A   1      46.610  28.420  31.295  1.00  0.00     0.031 C 
ATOM     22  C   UNL A   1      44.619  30.531  27.251  1.00  0.00     0.029 A 
ATOM     23  N   UNL A   1      43.831  31.182  29.213  1.00  0.00    -0.354 N 
ATOM     24  C   UNL A   1      44.905  28.343  32.798  1.00  0.00     0.074 A 
ATOM     25  C   UNL A   1      46.284  28.036  32.529  1.00  0.00     0.031 C 
ATOM     26  C   UNL A   1      44.167  31.787  27.074  1.00  0.00     0.029 A 
ATOM     27  C   UNL A   1      43.698  32.271  28.351  1.00  0.00     0.049 A 
ATOM     28  H   UNL A   1      43.418  31.139  30.105  1.00  0.00     0.167 HD
ATOM     29  C   UNL A   1      44.284  28.648  33.967  1.00  0.00     0.037 A 
ATOM     30  C   UNL A   1      43.429  33.520  28.793  1.00  0.00     0.037 A 
ATOM     31  C   UNL A   1      42.855  28.690  33.803  1.00  0.00     0.049 A 
ATOM     32  C   UNL A   1      42.780  33.345  30.129  1.00  0.00     0.074 A 
ATOM     33  C   UNL A   1      41.902  27.741  33.485  1.00  0.00     0.029 A 
ATOM     34  N   UNL A   1      42.256  29.907  33.584  1.00  0.00    -0.354 N 
ATOM     35  N   UNL A   1      41.629  32.733  30.282  1.00  0.00    -0.248 NA
ATOM     36  C   UNL A   1      43.649  33.334  31.302  1.00  0.00     0.031 C 
ATOM     37  C   UNL A   1      40.977  28.416  32.637  1.00  0.00     0.029 A 
ATOM     38  C   UNL A   1      41.372  29.751  32.544  1.00  0.00     0.049 A 
ATOM     39  H   UNL A   1      42.429  30.738  34.081  1.00  0.00     0.167 HD
ATOM     40  C   UNL A   1      41.790  31.937  31.412  1.00  0.00     0.074 A 
ATOM     41  C   UNL A   1      43.043  32.380  32.018  1.00  0.00     0.031 C 
ATOM     42  C   UNL A   1      41.057  30.797  31.599  1.00  0.00     0.037 A 
BRANCH  29  43
ATOM     43  C   UNL A   1      45.006  29.326  35.105  1.00  0.00     0.064 A 
ATOM     44  C   UNL A   1      44.929  28.772  36.396  1.00  0.00     0.173 A 
ATOM     45  C   UNL A   1      45.499  30.651  35.039  1.00  0.00     0.173 A 
ATOM     46  F   UNL A   1      44.469  27.525  36.577  1.00  0.00    -0.203 F 
ATOM     47  C   UNL A   1      45.234  29.522  37.536  1.00  0.00     0.198 A 
ATOM     48  C   UNL A   1      45.847  31.377  36.173  1.00  0.00     0.198 A 
ATOM     49  F   UNL A   1      45.559  31.340  33.895  1.00  0.00    -0.203 F 
ATOM     50  F   UNL A   1      45.027  28.998  38.751  1.00  0.00    -0.200 F 
ATOM     51  C   UNL A   1      45.681  30.827  37.424  1.00  0.00     0.200 A 
ATOM     52  F   UNL A   1      46.261  32.645  36.039  1.00  0.00    -0.200 F 
ATOM     53  F   UNL A   1      45.906  31.570  38.515  1.00  0.00    -0.200 F 
ENDBRANCH  29  43
BRANCH  30  54
ATOM     54  C   UNL A   1      44.171  34.724  28.352  1.00  0.00     0.064 A 
ATOM     55  C   UNL A   1      45.567  34.779  28.419  1.00  0.00     0.173 A 
ATOM     56  C   UNL A   1      43.533  35.786  27.669  1.00  0.00     0.173 A 
ATOM     57  F   UNL A   1      46.249  33.783  29.002  1.00  0.00    -0.203 F 
ATOM     58  C   UNL A   1      46.283  35.836  27.844  1.00  0.00     0.198 A 
ATOM     59  C   UNL A   1      44.246  36.845  27.111  1.00  0.00     0.198 A 
ATOM     60  F   UNL A   1      42.209  35.780  27.459  1.00  0.00    -0.203 F 
ATOM     61  F   UNL A   1      47.623  35.836  27.891  1.00  0.00    -0.200 F 
ATOM     62  C   UNL A   1      45.623  36.866  27.191  1.00  0.00     0.200 A 
ATOM     63  F   UNL A   1      43.592  37.815  26.455  1.00  0.00    -0.200 F 
ATOM     64  F   UNL A   1      46.314  37.857  26.610  1.00  0.00    -0.200 F 
ENDBRANCH  30  54
BRANCH  42  65
ATOM     65  C   UNL A   1      39.975  30.489  30.597  1.00  0.00     0.064 A 
ATOM     66  C   UNL A   1      40.208  29.782  29.404  1.00  0.00     0.173 A 
ATOM     67  C   UNL A   1      38.643  30.743  30.940  1.00  0.00     0.173 A 
ATOM     68  F   UNL A   1      41.443  29.392  29.070  1.00  0.00    -0.203 F 
ATOM     69  C   UNL A   1      39.159  29.388  28.572  1.00  0.00     0.198 A 
ATOM     70  C   UNL A   1      37.594  30.321  30.126  1.00  0.00     0.198 A 
ATOM     71  F   UNL A   1      38.355  31.344  32.104  1.00  0.00    -0.203 F 
ATOM     72  F   UNL A   1      39.413  28.710  27.443  1.00  0.00    -0.200 F 
ATOM     73  C   UNL A   1      37.852  29.653  28.938  1.00  0.00     0.200 A 
ATOM     74  F   UNL A   1      36.328  30.524  30.514  1.00  0.00    -0.200 F 
ATOM     75  F   UNL A   1      36.839  29.232  28.167  1.00  0.00    -0.200 F 
ENDBRANCH  42  65
ENDBRANCH  16  17
ENDBRANCH   9  11
ENDBRANCH   8   9
ENDBRANCH   7   8
ENDBRANCH   6   7
ENDBRANCH   5   6
ENDBRANCH   4   5
ENDBRANCH   3   4
ENDBRANCH   2   3
ENDBRANCH   1   2
BRANCH   1  76
ATOM     76  C   UNL A   1      39.872  21.939  26.979  1.00  0.00     0.188 C 
BRANCH  76  77
ATOM     77  O   UNL A   1      39.271  22.364  25.772  1.00  0.00    -0.376 OA
BRANCH  77  78
ATOM     78  C   UNL A   1      37.897  21.970  25.652  1.00  0.00     0.202 C 
BRANCH  78  79
ATOM     79  C   UNL A   1      36.820  23.114  25.667  1.00  0.00     0.261 C 
BRANCH  79  80
ATOM     80  O   UNL A   1      36.453  23.706  24.362  1.00  0.00    -0.462 OA
BRANCH  80  81
ATOM     81  C   UNL A   1      35.130  23.721  23.951  1.00  0.00     0.328 C 
ATOM     82  O   UNL A   1      34.785  23.193  22.892  1.00  0.00    -0.250 OA
BRANCH  81  83
ATOM     83  C   UNL A   1      33.995  24.510  24.899  1.00  0.00     0.195 C 
ATOM     84  C   UNL A   1      33.596  25.952  24.338  1.00  0.00     0.046 C 
ATOM     85  N   UNL A   1      32.716  24.200  25.605  1.00  0.00    -0.328 N 
ATOM     86  C   UNL A   1      32.148  26.374  24.876  1.00  0.00     0.001 C 
ATOM     87  C   UNL A   1      32.087  25.435  26.093  1.00  0.00     0.128 C 
ATOM     88  C   UNL A   1      30.770  26.163  24.149  1.00  0.00     0.071 C 
ATOM     89  C   UNL A   1      32.144  27.892  25.150  1.00  0.00     0.071 C 
ATOM     90  C   UNL A   1      30.378  27.068  22.971  1.00  0.00     0.270 C 
ATOM     91  C   UNL A   1      31.975  28.684  23.833  1.00  0.00     0.270 C 
ATOM     92  N   UNL A   1      30.657  28.462  23.225  1.00  0.00    -0.272 N 
ATOM     93  H   UNL A   1      30.755  29.114  22.494  1.00  0.00     0.356 HD
BRANCH  85  94
ATOM     94  C   UNL A   1      32.087  23.009  25.841  1.00  0.00     0.225 C 
ATOM     95  O   UNL A   1      30.878  22.835  25.694  1.00  0.00    -0.275 OA
BRANCH  94  96
ATOM     96  C   UNL A   1      32.951  21.854  26.152  1.00  0.00     0.124 C 
BRANCH  96  97
ATOM     97  C   UNL A   1      32.675  20.711  25.181  1.00  0.00     0.154 C 
BRANCH  97  98
ATOM     98  N   UNL A   1      33.711  19.807  24.665  1.00  0.00    -0.272 N 
ATOM     99  C   UNL A   1      33.554  18.482  24.312  1.00  0.00     0.108 A 
ATOM    100  N   UNL A   1      35.008  20.051  24.896  1.00  0.00    -0.182 NA
ATOM    101  C   UNL A   1      34.803  17.897  24.350  1.00  0.00     0.042 A 
ATOM    102  C   UNL A   1      35.668  18.912  24.724  1.00  0.00     0.135 A 
ENDBRANCH  97  98
ENDBRANCH  96  97
ENDBRANCH  94  96
ENDBRANCH  85  94
BRANCH  92 103
ATOM    103  C   UNL A   1      29.973  29.584  22.714  1.00  0.00     0.315 C 
ATOM    104  O   UNL A   1      30.003  29.823  21.520  1.00  0.00    -0.231 OA
BRANCH 103 105
ATOM    105  C   UNL A   1      29.197  30.583  23.532  1.00  0.00     0.119 C 
ATOM    106  C   UNL A   1      28.633  31.926  23.169  1.00  0.00     0.019 C 
ATOM    107  C   UNL A   1      27.705  30.768  23.431  1.00  0.00     0.019 C 
ENDBRANCH 103 105
ENDBRANCH  92 103
ENDBRANCH  81  83
ENDBRANCH  80  81
ENDBRANCH  79  80
ENDBRANCH  78  79
ENDBRANCH  77  78
ENDBRANCH  76  77
ENDBRANCH   1  76
TORSDOF 26
ENDMDL
MODEL 3
REMARK VINA RESULT:      -8.7      1.213      2.161
REMARK SMILES O=C(OCCOCCOCCOCCOC(=O)[C@H]1CC2(CC[NH+](C(=O)C3CC3)CC2)CN1C(=O)CCn1cccn1)c1ccc(-c2c3nc(c(-c4c(F)c(F)c(F)c(F)c4F)c4ccc([nH]4)c(-c4c(F)c(F)c(F)c(F)c4F)c4nc(c(-c5c(F)c(F)c(F)c(F)c5F)c5ccc2[nH]5)C=C4)C=C3)cc1
REMARK SMILES IDX 10 1 9 2 8 3 7 4 6 5 5 6 4 7 3 8 2 9 1 10 42 11 43 12 104 13
REMARK SMILES IDX 44 14 103 15 45 16 46 17 47 18 97 19 48 20 102 21 96 22
REMARK SMILES IDX 98 23 49 24 101 25 95 26 94 27 50 29 82 30 62 31 81 32 63 33
REMARK SMILES IDX 66 34 80 35 99 36 64 37 65 38 79 40 100 41 67 42 51 43 52 44
REMARK SMILES IDX 60 45 53 46 54 47 58 48 61 49 55 50 56 51 59 52 57 53 83 54
REMARK SMILES IDX 84 55 92 56 85 57 86 58 90 59 93 60 87 61 88 62 91 63 89 64
REMARK SMILES IDX 68 65 69 66 77 67 70 68 71 69 75 70 78 71 72 72 73 73 76 74
REMARK SMILES IDX 74 75 11 76 12 77 13 78 14 79 15 80 16 81 17 82 18 83 19 84
REMARK SMILES IDX 32 85 20 86 31 87 21 88 30 89 22 90 29 91 23 92 33 94 34 95
REMARK SMILES IDX 35 96 36 97 37 98 38 99 41 100 39 101 40 102 24 103 25 104
REMARK SMILES IDX 26 105 27 106 28 107
REMARK H PARENT 98 28 66 39 23 93
REMARK Flexibility Score: inf
ROOT
ATOM      1  C   UNL A   1      32.647  26.105  22.579  1.00  0.00     0.188 C 
ENDROOT
BRANCH   1   2
ATOM      2  O   UNL A   1      32.646  27.304  21.864  1.00  0.00    -0.377 OA
BRANCH   2   3
ATOM      3  C   UNL A   1      32.678  28.438  22.707  1.00  0.00     0.188 C 
BRANCH   3   4
ATOM      4  C   UNL A   1      32.888  28.200  24.232  1.00  0.00     0.188 C 
BRANCH   4   5
ATOM      5  O   UNL A   1      33.455  29.281  24.981  1.00  0.00    -0.376 OA
BRANCH   5   6
ATOM      6  C   UNL A   1      33.422  29.436  26.398  1.00  0.00     0.202 C 
BRANCH   6   7
ATOM      7  C   UNL A   1      34.843  29.645  26.990  1.00  0.00     0.261 C 
BRANCH   7   8
ATOM      8  O   UNL A   1      35.108  30.933  27.586  1.00  0.00    -0.460 OA
BRANCH   8   9
ATOM      9  C   UNL A   1      35.619  31.201  28.814  1.00  0.00     0.338 C 
ATOM     10  O   UNL A   1      35.030  31.975  29.565  1.00  0.00    -0.246 OA
BRANCH   9  11
ATOM     11  C   UNL A   1      36.923  30.655  29.258  1.00  0.00     0.060 A 
ATOM     12  C   UNL A   1      38.120  31.383  29.227  1.00  0.00     0.016 A 
ATOM     13  C   UNL A   1      36.904  29.360  29.815  1.00  0.00     0.016 A 
ATOM     14  C   UNL A   1      39.250  30.888  29.814  1.00  0.00     0.010 A 
ATOM     15  C   UNL A   1      38.055  28.814  30.339  1.00  0.00     0.010 A 
ATOM     16  C   UNL A   1      39.213  29.581  30.269  1.00  0.00    -0.014 A 
BRANCH  16  17
ATOM     17  C   UNL A   1      40.516  28.981  30.356  1.00  0.00     0.031 A 
ATOM     18  C   UNL A   1      41.098  28.962  31.718  1.00  0.00     0.074 A 
ATOM     19  C   UNL A   1      41.049  28.660  29.162  1.00  0.00     0.049 A 
ATOM     20  N   UNL A   1      42.219  29.467  32.116  1.00  0.00    -0.248 NA
ATOM     21  C   UNL A   1      40.240  28.478  32.815  1.00  0.00     0.031 C 
ATOM     22  C   UNL A   1      40.388  28.658  27.843  1.00  0.00     0.029 A 
ATOM     23  N   UNL A   1      42.276  28.165  28.885  1.00  0.00    -0.354 N 
ATOM     24  C   UNL A   1      42.304  29.169  33.474  1.00  0.00     0.074 A 
ATOM     25  C   UNL A   1      41.000  28.721  33.882  1.00  0.00     0.031 C 
ATOM     26  C   UNL A   1      41.109  27.919  26.980  1.00  0.00     0.029 A 
ATOM     27  C   UNL A   1      42.327  27.524  27.646  1.00  0.00     0.049 A 
ATOM     28  H   UNL A   1      43.048  28.246  29.489  1.00  0.00     0.167 HD
ATOM     29  C   UNL A   1      43.513  29.025  34.077  1.00  0.00     0.037 A 
ATOM     30  C   UNL A   1      43.237  26.566  27.360  1.00  0.00     0.037 A 
ATOM     31  C   UNL A   1      44.524  29.803  33.412  1.00  0.00     0.049 A 
ATOM     32  C   UNL A   1      44.376  26.794  28.304  1.00  0.00     0.074 A 
ATOM     33  C   UNL A   1      44.719  31.159  33.230  1.00  0.00     0.029 A 
ATOM     34  N   UNL A   1      45.319  29.183  32.479  1.00  0.00    -0.354 N 
ATOM     35  N   UNL A   1      45.098  27.889  28.288  1.00  0.00    -0.248 NA
ATOM     36  C   UNL A   1      44.337  26.093  29.584  1.00  0.00     0.031 C 
ATOM     37  C   UNL A   1      45.222  31.284  31.902  1.00  0.00     0.029 A 
ATOM     38  C   UNL A   1      45.376  30.001  31.377  1.00  0.00     0.049 A 
ATOM     39  H   UNL A   1      45.766  28.313  32.581  1.00  0.00     0.167 HD
ATOM     40  C   UNL A   1      45.279  28.222  29.628  1.00  0.00     0.074 A 
ATOM     41  C   UNL A   1      44.819  27.056  30.378  1.00  0.00     0.031 C 
ATOM     42  C   UNL A   1      45.505  29.512  30.023  1.00  0.00     0.037 A 
BRANCH  29  43
ATOM     43  C   UNL A   1      43.827  27.850  34.971  1.00  0.00     0.064 A 
ATOM     44  C   UNL A   1      43.625  26.545  34.488  1.00  0.00     0.173 A 
ATOM     45  C   UNL A   1      44.013  27.961  36.369  1.00  0.00     0.173 A 
ATOM     46  F   UNL A   1      43.431  26.323  33.179  1.00  0.00    -0.203 F 
ATOM     47  C   UNL A   1      43.525  25.450  35.352  1.00  0.00     0.198 A 
ATOM     48  C   UNL A   1      43.960  26.862  37.220  1.00  0.00     0.198 A 
ATOM     49  F   UNL A   1      44.140  29.140  36.988  1.00  0.00    -0.203 F 
ATOM     50  F   UNL A   1      43.208  24.244  34.862  1.00  0.00    -0.200 F 
ATOM     51  C   UNL A   1      43.681  25.611  36.718  1.00  0.00     0.200 A 
ATOM     52  F   UNL A   1      44.097  27.048  38.541  1.00  0.00    -0.200 F 
ATOM     53  F   UNL A   1      43.515  24.578  37.552  1.00  0.00    -0.200 F 
ENDBRANCH  29  43
BRANCH  30  54
ATOM     54  C   UNL A   1      42.893  25.270  26.730  1.00  0.00     0.064 A 
ATOM     55  C   UNL A   1      43.541  24.835  25.569  1.00  0.00     0.173 A 
ATOM     56  C   UNL A   1      42.049  24.331  27.367  1.00  0.00     0.173 A 
ATOM     57  F   UNL A   1      44.400  25.647  24.938  1.00  0.00    -0.203 F 
ATOM     58  C   UNL A   1      43.350  23.541  25.069  1.00  0.00     0.198 A 
ATOM     59  C   UNL A   1      41.847  23.049  26.859  1.00  0.00     0.198 A 
ATOM     60  F   UNL A   1      41.460  24.609  28.539  1.00  0.00    -0.203 F 
ATOM     61  F   UNL A   1      44.017  23.144  23.977  1.00  0.00    -0.200 F 
ATOM     62  C   UNL A   1      42.505  22.651  25.713  1.00  0.00     0.200 A 
ATOM     63  F   UNL A   1      41.052  22.191  27.515  1.00  0.00    -0.200 F 
ATOM     64  F   UNL A   1      42.353  21.401  25.253  1.00  0.00    -0.200 F 
ENDBRANCH  30  54
BRANCH  42  65
ATOM     65  C   UNL A   1      45.675  30.554  28.949  1.00  0.00     0.064 A 
ATOM     66  C   UNL A   1      46.898  30.799  28.300  1.00  0.00     0.173 A 
ATOM     67  C   UNL A   1      44.538  31.184  28.431  1.00  0.00     0.173 A 
ATOM     68  F   UNL A   1      48.006  30.141  28.657  1.00  0.00    -0.203 F 
ATOM     69  C   UNL A   1      46.986  31.669  27.213  1.00  0.00     0.198 A 
ATOM     70  C   UNL A   1      44.621  32.026  27.324  1.00  0.00     0.198 A 
ATOM     71  F   UNL A   1      43.333  30.928  28.959  1.00  0.00    -0.203 F 
ATOM     72  F   UNL A   1      48.167  31.877  26.610  1.00  0.00    -0.200 F 
ATOM     73  C   UNL A   1      45.845  32.276  26.721  1.00  0.00     0.200 A 
ATOM     74  F   UNL A   1      43.505  32.563  26.813  1.00  0.00    -0.200 F 
ATOM     75  F   UNL A   1      45.917  33.073  25.644  1.00  0.00    -0.200 F 
ENDBRANCH  42  65
ENDBRANCH  16  17
ENDBRANCH   9  11
ENDBRANCH   8   9
ENDBRANCH   7   8
ENDBRANCH   6   7
ENDBRANCH   5   6
ENDBRANCH   4   5
ENDBRANCH   3   4
ENDBRANCH   2   3
ENDBRANCH   1   2
BRANCH   1  76
ATOM     76  C   UNL A   1      33.733  25.115  22.147  1.00  0.00     0.188 C 
BRANCH  76  77
ATOM     77  O   UNL A   1      34.532  24.583  23.185  1.00  0.00    -0.376 OA
BRANCH  77  78
ATOM     78  C   UNL A   1      35.239  23.393  22.806  1.00  0.00     0.202 C 
BRANCH  78  79
ATOM     79  C   UNL A   1      36.713  23.240  23.325  1.00  0.00     0.261 C 
BRANCH  79  80
ATOM     80  O   UNL A   1      37.108  21.911  23.840  1.00  0.00    -0.462 OA
BRANCH  80  81
ATOM     81  C   UNL A   1      37.088  21.658  25.202  1.00  0.00     0.328 C 
ATOM     82  O   UNL A   1      38.132  21.605  25.856  1.00  0.00    -0.250 OA
BRANCH  81  83
ATOM     83  C   UNL A   1      35.617  21.379  25.956  1.00  0.00     0.195 C 
ATOM     84  C   UNL A   1      34.739  22.702  26.137  1.00  0.00     0.046 C 
ATOM     85  N   UNL A   1      34.498  20.393  25.894  1.00  0.00    -0.328 N 
ATOM     86  C   UNL A   1      33.190  22.324  26.270  1.00  0.00     0.001 C 
ATOM     87  C   UNL A   1      33.361  20.857  26.700  1.00  0.00     0.128 C 
ATOM     88  C   UNL A   1      32.126  22.270  25.113  1.00  0.00     0.071 C 
ATOM     89  C   UNL A   1      32.529  23.287  27.277  1.00  0.00     0.071 C 
ATOM     90  C   UNL A   1      31.554  23.575  24.536  1.00  0.00     0.270 C 
ATOM     91  C   UNL A   1      32.223  24.648  26.611  1.00  0.00     0.270 C 
ATOM     92  N   UNL A   1      31.202  24.528  25.562  1.00  0.00    -0.272 N 
ATOM     93  H   UNL A   1      31.119  25.490  25.371  1.00  0.00     0.356 HD
BRANCH  85  94
ATOM     94  C   UNL A   1      34.387  19.201  25.232  1.00  0.00     0.225 C 
ATOM     95  O   UNL A   1      35.283  18.715  24.544  1.00  0.00    -0.275 OA
BRANCH  94  96
ATOM     96  C   UNL A   1      33.166  18.413  25.491  1.00  0.00     0.124 C 
BRANCH  96  97
ATOM     97  C   UNL A   1      32.071  18.797  24.501  1.00  0.00     0.154 C 
BRANCH  97  98
ATOM     98  N   UNL A   1      32.310  19.052  23.075  1.00  0.00    -0.272 N 
ATOM     99  C   UNL A   1      32.083  20.231  22.393  1.00  0.00     0.108 A 
ATOM    100  N   UNL A   1      32.361  18.039  22.199  1.00  0.00    -0.182 NA
ATOM    101  C   UNL A   1      31.972  19.915  21.055  1.00  0.00     0.042 A 
ATOM    102  C   UNL A   1      32.146  18.543  20.989  1.00  0.00     0.135 A 
ENDBRANCH  97  98
ENDBRANCH  96  97
ENDBRANCH  94  96
ENDBRANCH  85  94
BRANCH  92 103
ATOM    103  C   UNL A   1      30.192  25.510  25.515  1.00  0.00     0.315 C 
ATOM    104  O   UNL A   1      29.773  26.002  26.548  1.00  0.00    -0.231 OA
BRANCH 103 105
ATOM    105  C   UNL A   1      29.523  26.019  24.265  1.00  0.00     0.119 C 
ATOM    106  C   UNL A   1      28.119  26.491  24.023  1.00  0.00     0.019 C 
ATOM    107  C   UNL A   1      29.258  27.476  23.991  1.00  0.00     0.019 C 
ENDBRANCH 103 105
ENDBRANCH  92 103
ENDBRANCH  81  83
ENDBRANCH  80  81
ENDBRANCH  79  80
ENDBRANCH  78  79
ENDBRANCH  77  78
ENDBRANCH  76  77
ENDBRANCH   1  76
TORSDOF 26
ENDMDL
