MODEL 1
REMARK VINA RESULT:      -9.2      0.000      0.000
REMARK SMILES CC1=C(C)C[C@@H](C(=O)OCCOCCOCCOCCOC(=O)c2ccc(-c3c4nc(c(-c5c(F)c(F)c(F)c(F)c5F)c5ccc([nH]5)c(-c5c(F)c(F)c(F)c(F)c5F)c5nc(c(-c6c(F)c(F)c(F)c(F)c6F)c6ccc3[nH]6)C=C5)C=C4)cc2)[C@H](C(=O)NCc2cccnc2)C1
REMARK SMILES IDX 14 1 13 2 12 3 11 4 10 5 9 6 7 7 8 8 6 9 1 10 2 11 3 12
REMARK SMILES IDX 98 13 4 14 5 15 87 16 88 17 89 18 90 19 91 21 92 22 93 23
REMARK SMILES IDX 97 24 94 25 96 26 95 27 15 28 16 29 17 30 18 31 19 32 20 33
REMARK SMILES IDX 21 34 22 35 23 36 24 37 25 38 86 39 26 40 85 41 27 42 28 43
REMARK SMILES IDX 29 44 79 45 30 46 84 47 78 48 80 49 31 50 83 51 77 52 76 53
REMARK SMILES IDX 32 55 64 56 44 57 63 58 45 59 48 60 62 61 81 62 46 63 47 64
REMARK SMILES IDX 61 66 82 67 49 68 33 69 34 70 42 71 35 72 36 73 40 74 43 75
REMARK SMILES IDX 37 76 38 77 41 78 39 79 65 80 66 81 74 82 67 83 68 84 72 85
REMARK SMILES IDX 75 86 69 87 70 88 73 89 71 90 50 91 51 92 59 93 52 94 53 95
REMARK SMILES IDX 57 96 60 97 54 98 55 99 58 100 56 101
REMARK H PARENT 90 20 80 54 48 65
REMARK Flexibility Score: inf
ROOT
ATOM      1  C   UNL A   1      41.516  25.881  26.521  1.00  0.00     0.188 C 
ENDROOT
BRANCH   1   2
ATOM      2  C   UNL A   1      40.151  25.325  26.941  1.00  0.00     0.188 C 
BRANCH   2   3
ATOM      3  O   UNL A   1      39.470  24.360  26.155  1.00  0.00    -0.376 OA
BRANCH   3   4
ATOM      4  C   UNL A   1      38.091  24.076  26.335  1.00  0.00     0.202 C 
BRANCH   4   5
ATOM      5  C   UNL A   1      37.190  23.585  25.187  1.00  0.00     0.261 C 
BRANCH   5   6
ATOM      6  O   UNL A   1      35.766  23.747  25.335  1.00  0.00    -0.463 OA
BRANCH   6   7
ATOM      7  C   UNL A   1      35.056  23.728  24.183  1.00  0.00     0.310 C 
ATOM      8  O   UNL A   1      35.517  23.364  23.103  1.00  0.00    -0.252 OA
BRANCH   7   9
ATOM      9  C   UNL A   1      33.659  24.335  24.273  1.00  0.00     0.116 C 
ATOM     10  C   UNL A   1      32.796  28.467  25.791  1.00  0.00     0.039 C 
ATOM     11  C   UNL A   1      33.046  27.119  25.164  1.00  0.00    -0.074 C 
ATOM     12  C   UNL A   1      33.434  26.903  23.892  1.00  0.00    -0.073 C 
ATOM     13  C   UNL A   1      32.803  25.999  26.138  1.00  0.00     0.045 C 
ATOM     14  C   UNL A   1      33.675  27.976  22.862  1.00  0.00     0.039 C 
ATOM     15  C   UNL A   1      33.677  25.529  23.324  1.00  0.00     0.046 C 
ATOM     16  C   UNL A   1      33.049  24.569  25.662  1.00  0.00     0.097 C 
BRANCH  16  17
ATOM     17  C   UNL A   1      31.802  23.704  25.900  1.00  0.00     0.224 C 
ATOM     18  O   UNL A   1      30.677  24.216  25.902  1.00  0.00    -0.275 OA
ATOM     19  N   UNL A   1      31.852  22.364  26.106  1.00  0.00    -0.352 N 
ATOM     20  H   UNL A   1      30.973  21.948  26.258  1.00  0.00     0.163 HD
BRANCH  19  21
ATOM     21  C   UNL A   1      32.959  21.431  26.143  1.00  0.00     0.153 C 
BRANCH  21  22
ATOM     22  C   UNL A   1      32.779  20.228  25.260  1.00  0.00    -0.010 A 
ATOM     23  C   UNL A   1      32.668  20.387  23.872  1.00  0.00     0.009 A 
ATOM     24  C   UNL A   1      32.665  18.932  25.751  1.00  0.00     0.116 A 
ATOM     25  C   UNL A   1      32.522  19.274  23.049  1.00  0.00     0.020 A 
ATOM     26  N   UNL A   1      32.501  17.834  24.978  1.00  0.00    -0.264 NA
ATOM     27  C   UNL A   1      32.447  18.027  23.644  1.00  0.00     0.111 A 
ENDBRANCH  21  22
ENDBRANCH  19  21
ENDBRANCH  16  17
ENDBRANCH   7   9
ENDBRANCH   6   7
ENDBRANCH   5   6
ENDBRANCH   4   5
ENDBRANCH   3   4
ENDBRANCH   2   3
ENDBRANCH   1   2
BRANCH   1  28
ATOM     28  O   UNL A   1      41.508  26.690  25.360  1.00  0.00    -0.377 OA
BRANCH  28  29
ATOM     29  C   UNL A   1      42.278  27.884  25.374  1.00  0.00     0.188 C 
BRANCH  29  30
ATOM     30  C   UNL A   1      43.703  27.808  25.942  1.00  0.00     0.188 C 
BRANCH  30  31
ATOM     31  O   UNL A   1      44.706  27.796  24.940  1.00  0.00    -0.376 OA
BRANCH  31  32
ATOM     32  C   UNL A   1      45.764  26.852  25.013  1.00  0.00     0.202 C 
BRANCH  32  33
ATOM     33  C   UNL A   1      45.458  25.367  25.280  1.00  0.00     0.261 C 
BRANCH  33  34
ATOM     34  O   UNL A   1      45.803  24.828  26.568  1.00  0.00    -0.460 OA
BRANCH  34  35
ATOM     35  C   UNL A   1      44.868  24.173  27.285  1.00  0.00     0.338 C 
ATOM     36  O   UNL A   1      44.427  23.061  27.089  1.00  0.00    -0.246 OA
BRANCH  35  37
ATOM     37  C   UNL A   1      44.597  24.984  28.496  1.00  0.00     0.060 A 
ATOM     38  C   UNL A   1      43.741  24.473  29.480  1.00  0.00     0.016 A 
ATOM     39  C   UNL A   1      45.171  26.248  28.649  1.00  0.00     0.016 A 
ATOM     40  C   UNL A   1      43.420  25.244  30.598  1.00  0.00     0.010 A 
ATOM     41  C   UNL A   1      44.833  27.028  29.758  1.00  0.00     0.010 A 
ATOM     42  C   UNL A   1      43.925  26.544  30.717  1.00  0.00    -0.014 A 
BRANCH  42  43
ATOM     43  C   UNL A   1      43.355  27.467  31.730  1.00  0.00     0.031 A 
ATOM     44  C   UNL A   1      42.120  28.248  31.368  1.00  0.00     0.074 A 
ATOM     45  C   UNL A   1      43.911  27.604  32.946  1.00  0.00     0.049 A 
ATOM     46  N   UNL A   1      41.483  29.165  32.050  1.00  0.00    -0.248 NA
ATOM     47  C   UNL A   1      41.527  27.958  30.052  1.00  0.00     0.031 C 
ATOM     48  C   UNL A   1      45.082  26.877  33.426  1.00  0.00     0.029 A 
ATOM     49  N   UNL A   1      43.569  28.424  33.994  1.00  0.00    -0.354 N 
ATOM     50  C   UNL A   1      40.428  29.571  31.242  1.00  0.00     0.074 A 
ATOM     51  C   UNL A   1      40.523  28.820  30.010  1.00  0.00     0.031 C 
ATOM     52  C   UNL A   1      45.377  27.297  34.668  1.00  0.00     0.029 A 
ATOM     53  C   UNL A   1      44.440  28.350  35.054  1.00  0.00     0.049 A 
ATOM     54  H   UNL A   1      42.776  29.007  33.987  1.00  0.00     0.167 HD
ATOM     55  C   UNL A   1      39.468  30.486  31.507  1.00  0.00     0.037 A 
ATOM     56  C   UNL A   1      44.489  29.077  36.189  1.00  0.00     0.037 A 
ATOM     57  C   UNL A   1      39.374  31.224  32.739  1.00  0.00     0.049 A 
ATOM     58  C   UNL A   1      43.441  30.135  36.434  1.00  0.00     0.074 A 
ATOM     59  C   UNL A   1      38.414  32.143  33.123  1.00  0.00     0.029 A 
ATOM     60  N   UNL A   1      40.282  31.134  33.784  1.00  0.00    -0.354 N 
ATOM     61  N   UNL A   1      42.424  30.486  35.683  1.00  0.00    -0.248 NA
ATOM     62  C   UNL A   1      43.546  30.896  37.687  1.00  0.00     0.031 C 
ATOM     63  C   UNL A   1      38.780  32.662  34.368  1.00  0.00     0.029 A 
ATOM     64  C   UNL A   1      39.926  32.011  34.795  1.00  0.00     0.049 A 
ATOM     65  H   UNL A   1      41.064  30.536  33.804  1.00  0.00     0.167 HD
ATOM     66  C   UNL A   1      41.753  31.482  36.384  1.00  0.00     0.074 A 
ATOM     67  C   UNL A   1      42.468  31.667  37.629  1.00  0.00     0.031 C 
ATOM     68  C   UNL A   1      40.645  32.179  36.032  1.00  0.00     0.037 A 
BRANCH  55  69
ATOM     69  C   UNL A   1      38.459  30.776  30.433  1.00  0.00     0.064 A 
ATOM     70  C   UNL A   1      37.409  29.894  30.139  1.00  0.00     0.173 A 
ATOM     71  C   UNL A   1      38.518  31.985  29.721  1.00  0.00     0.173 A 
ATOM     72  F   UNL A   1      37.315  28.719  30.780  1.00  0.00    -0.203 F 
ATOM     73  C   UNL A   1      36.468  30.203  29.161  1.00  0.00     0.198 A 
ATOM     74  C   UNL A   1      37.556  32.304  28.767  1.00  0.00     0.198 A 
ATOM     75  F   UNL A   1      39.500  32.866  29.963  1.00  0.00    -0.203 F 
ATOM     76  F   UNL A   1      35.497  29.326  28.867  1.00  0.00    -0.200 F 
ATOM     77  C   UNL A   1      36.536  31.410  28.482  1.00  0.00     0.200 A 
ATOM     78  F   UNL A   1      37.617  33.478  28.124  1.00  0.00    -0.200 F 
ATOM     79  F   UNL A   1      35.620  31.711  27.552  1.00  0.00    -0.200 F 
ENDBRANCH  55  69
BRANCH  56  80
ATOM     80  C   UNL A   1      45.588  28.860  37.169  1.00  0.00     0.064 A 
ATOM     81  C   UNL A   1      46.777  29.599  37.107  1.00  0.00     0.173 A 
ATOM     82  C   UNL A   1      45.486  27.876  38.166  1.00  0.00     0.173 A 
ATOM     83  F   UNL A   1      46.938  30.532  36.157  1.00  0.00    -0.203 F 
ATOM     84  C   UNL A   1      47.831  29.345  37.985  1.00  0.00     0.198 A 
ATOM     85  C   UNL A   1      46.526  27.647  39.065  1.00  0.00     0.198 A 
ATOM     86  F   UNL A   1      44.372  27.136  38.268  1.00  0.00    -0.203 F 
ATOM     87  F   UNL A   1      48.979  30.024  37.862  1.00  0.00    -0.200 F 
ATOM     88  C   UNL A   1      47.702  28.373  38.965  1.00  0.00     0.200 A 
ATOM     89  F   UNL A   1      46.391  26.717  40.019  1.00  0.00    -0.200 F 
ATOM     90  F   UNL A   1      48.715  28.129  39.808  1.00  0.00    -0.200 F 
ENDBRANCH  56  80
BRANCH  68  91
ATOM     91  C   UNL A   1      40.110  33.179  37.019  1.00  0.00     0.064 A 
ATOM     92  C   UNL A   1      40.641  34.473  37.124  1.00  0.00     0.173 A 
ATOM     93  C   UNL A   1      39.019  32.849  37.840  1.00  0.00     0.173 A 
ATOM     94  F   UNL A   1      41.691  34.836  36.372  1.00  0.00    -0.203 F 
ATOM     95  C   UNL A   1      40.120  35.389  38.036  1.00  0.00     0.198 A 
ATOM     96  C   UNL A   1      38.478  33.780  38.723  1.00  0.00     0.198 A 
ATOM     97  F   UNL A   1      38.466  31.630  37.773  1.00  0.00    -0.203 F 
ATOM     98  F   UNL A   1      40.678  36.601  38.157  1.00  0.00    -0.200 F 
ATOM     99  C   UNL A   1      39.034  35.045  38.827  1.00  0.00     0.200 A 
ATOM    100  F   UNL A   1      37.416  33.450  39.472  1.00  0.00    -0.200 F 
ATOM    101  F   UNL A   1      38.528  35.931  39.696  1.00  0.00    -0.200 F 
ENDBRANCH  68  91
ENDBRANCH  42  43
ENDBRANCH  35  37
ENDBRANCH  34  35
ENDBRANCH  33  34
ENDBRANCH  32  33
ENDBRANCH  31  32
ENDBRANCH  30  31
ENDBRANCH  29  30
ENDBRANCH  28  29
ENDBRANCH   1  28
TORSDOF 23
ENDMDL
MODEL 2
REMARK VINA RESULT:      -9.0      6.891     11.367
REMARK SMILES CC1=C(C)C[C@@H](C(=O)OCCOCCOCCOCCOC(=O)c2ccc(-c3c4nc(c(-c5c(F)c(F)c(F)c(F)c5F)c5ccc([nH]5)c(-c5c(F)c(F)c(F)c(F)c5F)c5nc(c(-c6c(F)c(F)c(F)c(F)c6F)c6ccc3[nH]6)C=C5)C=C4)cc2)[C@H](C(=O)NCc2cccnc2)C1
REMARK SMILES IDX 14 1 13 2 12 3 11 4 10 5 9 6 7 7 8 8 6 9 1 10 2 11 3 12
REMARK SMILES IDX 98 13 4 14 5 15 87 16 88 17 89 18 90 19 91 21 92 22 93 23
REMARK SMILES IDX 97 24 94 25 96 26 95 27 15 28 16 29 17 30 18 31 19 32 20 33
REMARK SMILES IDX 21 34 22 35 23 36 24 37 25 38 86 39 26 40 85 41 27 42 28 43
REMARK SMILES IDX 29 44 79 45 30 46 84 47 78 48 80 49 31 50 83 51 77 52 76 53
REMARK SMILES IDX 32 55 64 56 44 57 63 58 45 59 48 60 62 61 81 62 46 63 47 64
REMARK SMILES IDX 61 66 82 67 49 68 33 69 34 70 42 71 35 72 36 73 40 74 43 75
REMARK SMILES IDX 37 76 38 77 41 78 39 79 65 80 66 81 74 82 67 83 68 84 72 85
REMARK SMILES IDX 75 86 69 87 70 88 73 89 71 90 50 91 51 92 59 93 52 94 53 95
REMARK SMILES IDX 57 96 60 97 54 98 55 99 58 100 56 101
REMARK H PARENT 90 20 80 54 48 65
REMARK Flexibility Score: inf
ROOT
ATOM      1  C   UNL A   1      41.503  23.606  26.505  1.00  0.00     0.188 C 
ENDROOT
BRANCH   1   2
ATOM      2  C   UNL A   1      42.463  22.733  27.318  1.00  0.00     0.188 C 
BRANCH   2   3
ATOM      3  O   UNL A   1      43.728  22.345  26.805  1.00  0.00    -0.376 OA
BRANCH   3   4
ATOM      4  C   UNL A   1      43.911  21.983  25.445  1.00  0.00     0.202 C 
BRANCH   4   5
ATOM      5  C   UNL A   1      44.960  22.660  24.544  1.00  0.00     0.261 C 
BRANCH   5   6
ATOM      6  O   UNL A   1      45.122  24.088  24.657  1.00  0.00    -0.463 OA
BRANCH   6   7
ATOM      7  C   UNL A   1      45.906  24.505  25.677  1.00  0.00     0.310 C 
ATOM      8  O   UNL A   1      46.796  23.820  26.179  1.00  0.00    -0.252 OA
BRANCH   7   9
ATOM      9  C   UNL A   1      45.520  25.853  26.282  1.00  0.00     0.116 C 
ATOM     10  C   UNL A   1      44.156  26.421  30.517  1.00  0.00     0.039 C 
ATOM     11  C   UNL A   1      44.720  26.298  29.124  1.00  0.00    -0.074 C 
ATOM     12  C   UNL A   1      46.029  26.230  28.810  1.00  0.00    -0.073 C 
ATOM     13  C   UNL A   1      43.634  26.265  28.084  1.00  0.00     0.045 C 
ATOM     14  C   UNL A   1      47.165  26.277  29.798  1.00  0.00     0.039 C 
ATOM     15  C   UNL A   1      46.532  26.099  27.396  1.00  0.00     0.046 C 
ATOM     16  C   UNL A   1      44.045  26.108  26.622  1.00  0.00     0.097 C 
BRANCH  16  17
ATOM     17  C   UNL A   1      43.441  27.235  25.772  1.00  0.00     0.224 C 
ATOM     18  O   UNL A   1      42.655  26.973  24.854  1.00  0.00    -0.275 OA
ATOM     19  N   UNL A   1      43.714  28.549  25.971  1.00  0.00    -0.352 N 
ATOM     20  H   UNL A   1      43.264  29.153  25.338  1.00  0.00     0.163 HD
BRANCH  19  21
ATOM     21  C   UNL A   1      44.544  29.228  26.945  1.00  0.00     0.153 C 
BRANCH  21  22
ATOM     22  C   UNL A   1      44.825  30.668  26.615  1.00  0.00    -0.010 A 
ATOM     23  C   UNL A   1      43.782  31.603  26.613  1.00  0.00     0.009 A 
ATOM     24  C   UNL A   1      46.085  31.136  26.258  1.00  0.00     0.116 A 
ATOM     25  C   UNL A   1      44.042  32.941  26.328  1.00  0.00     0.020 A 
ATOM     26  N   UNL A   1      46.363  32.425  25.956  1.00  0.00    -0.264 NA
ATOM     27  C   UNL A   1      45.338  33.301  26.011  1.00  0.00     0.111 A 
ENDBRANCH  21  22
ENDBRANCH  19  21
ENDBRANCH  16  17
ENDBRANCH   7   9
ENDBRANCH   6   7
ENDBRANCH   5   6
ENDBRANCH   4   5
ENDBRANCH   3   4
ENDBRANCH   2   3
ENDBRANCH   1   2
BRANCH   1  28
ATOM     28  O   UNL A   1      40.539  24.313  27.263  1.00  0.00    -0.377 OA
BRANCH  28  29
ATOM     29  C   UNL A   1      40.000  25.506  26.709  1.00  0.00     0.188 C 
BRANCH  29  30
ATOM     30  C   UNL A   1      40.139  26.799  27.527  1.00  0.00     0.188 C 
BRANCH  30  31
ATOM     31  O   UNL A   1      40.136  26.579  28.928  1.00  0.00    -0.376 OA
BRANCH  31  32
ATOM     32  C   UNL A   1      38.903  26.526  29.630  1.00  0.00     0.202 C 
BRANCH  32  33
ATOM     33  C   UNL A   1      38.617  27.529  30.762  1.00  0.00     0.261 C 
BRANCH  33  34
ATOM     34  O   UNL A   1      39.673  27.811  31.698  1.00  0.00    -0.460 OA
BRANCH  34  35
ATOM     35  C   UNL A   1      39.601  28.918  32.465  1.00  0.00     0.338 C 
ATOM     36  O   UNL A   1      38.995  29.061  33.505  1.00  0.00    -0.246 OA
BRANCH  35  37
ATOM     37  C   UNL A   1      40.564  29.898  31.911  1.00  0.00     0.060 A 
ATOM     38  C   UNL A   1      40.724  29.985  30.523  1.00  0.00     0.016 A 
ATOM     39  C   UNL A   1      41.317  30.713  32.760  1.00  0.00     0.016 A 
ATOM     40  C   UNL A   1      41.671  30.854  29.980  1.00  0.00     0.010 A 
ATOM     41  C   UNL A   1      42.281  31.568  32.217  1.00  0.00     0.010 A 
ATOM     42  C   UNL A   1      42.489  31.613  30.826  1.00  0.00    -0.014 A 
BRANCH  42  43
ATOM     43  C   UNL A   1      43.685  32.299  30.277  1.00  0.00     0.031 A 
ATOM     44  C   UNL A   1      43.539  33.721  29.807  1.00  0.00     0.074 A 
ATOM     45  C   UNL A   1      44.876  31.679  30.204  1.00  0.00     0.049 A 
ATOM     46  N   UNL A   1      44.414  34.502  29.227  1.00  0.00    -0.248 NA
ATOM     47  C   UNL A   1      42.222  34.346  30.017  1.00  0.00     0.031 C 
ATOM     48  C   UNL A   1      45.151  30.320  30.661  1.00  0.00     0.029 A 
ATOM     49  N   UNL A   1      46.076  32.116  29.699  1.00  0.00    -0.354 N 
ATOM     50  C   UNL A   1      43.750  35.699  28.988  1.00  0.00     0.074 A 
ATOM     51  C   UNL A   1      42.394  35.536  29.464  1.00  0.00     0.031 C 
ATOM     52  C   UNL A   1      46.434  30.023  30.394  1.00  0.00     0.029 A 
ATOM     53  C   UNL A   1      47.059  31.156  29.715  1.00  0.00     0.049 A 
ATOM     54  H   UNL A   1      46.219  33.028  29.358  1.00  0.00     0.167 HD
ATOM     55  C   UNL A   1      44.231  36.831  28.424  1.00  0.00     0.037 A 
ATOM     56  C   UNL A   1      48.308  31.183  29.206  1.00  0.00     0.037 A 
ATOM     57  C   UNL A   1      45.585  36.989  27.961  1.00  0.00     0.049 A 
ATOM     58  C   UNL A   1      48.801  32.438  28.528  1.00  0.00     0.074 A 
ATOM     59  C   UNL A   1      46.183  38.110  27.413  1.00  0.00     0.029 A 
ATOM     60  N   UNL A   1      46.548  35.990  27.979  1.00  0.00    -0.354 N 
ATOM     61  N   UNL A   1      48.181  33.580  28.340  1.00  0.00    -0.248 NA
ATOM     62  C   UNL A   1      50.169  32.410  27.992  1.00  0.00     0.031 C 
ATOM     63  C   UNL A   1      47.485  37.769  27.035  1.00  0.00     0.029 A 
ATOM     64  C   UNL A   1      47.723  36.459  27.416  1.00  0.00     0.049 A 
ATOM     65  H   UNL A   1      46.415  35.084  28.339  1.00  0.00     0.167 HD
ATOM     66  C   UNL A   1      49.091  34.411  27.697  1.00  0.00     0.074 A 
ATOM     67  C   UNL A   1      50.312  33.649  27.541  1.00  0.00     0.031 C 
ATOM     68  C   UNL A   1      48.933  35.689  27.275  1.00  0.00     0.037 A 
BRANCH  55  69
ATOM     69  C   UNL A   1      43.283  37.980  28.238  1.00  0.00     0.064 A 
ATOM     70  C   UNL A   1      43.206  39.039  29.154  1.00  0.00     0.173 A 
ATOM     71  C   UNL A   1      42.473  38.044  27.092  1.00  0.00     0.173 A 
ATOM     72  F   UNL A   1      43.947  39.020  30.272  1.00  0.00    -0.203 F 
ATOM     73  C   UNL A   1      42.341  40.109  28.940  1.00  0.00     0.198 A 
ATOM     74  C   UNL A   1      41.634  39.132  26.866  1.00  0.00     0.198 A 
ATOM     75  F   UNL A   1      42.508  37.060  26.182  1.00  0.00    -0.203 F 
ATOM     76  F   UNL A   1      42.253  41.090  29.850  1.00  0.00    -0.200 F 
ATOM     77  C   UNL A   1      41.563  40.160  27.793  1.00  0.00     0.200 A 
ATOM     78  F   UNL A   1      40.895  39.185  25.750  1.00  0.00    -0.200 F 
ATOM     79  F   UNL A   1      40.744  41.198  27.582  1.00  0.00    -0.200 F 
ENDBRANCH  55  69
BRANCH  56  80
ATOM     80  C   UNL A   1      49.173  29.975  29.283  1.00  0.00     0.064 A 
ATOM     81  C   UNL A   1      49.186  29.020  28.258  1.00  0.00     0.173 A 
ATOM     82  C   UNL A   1      49.978  29.732  30.408  1.00  0.00     0.173 A 
ATOM     83  F   UNL A   1      48.414  29.190  27.174  1.00  0.00    -0.203 F 
ATOM     84  C   UNL A   1      49.946  27.856  28.365  1.00  0.00     0.198 A 
ATOM     85  C   UNL A   1      50.766  28.585  30.498  1.00  0.00     0.198 A 
ATOM     86  F   UNL A   1      50.003  30.610  31.421  1.00  0.00    -0.203 F 
ATOM     87  F   UNL A   1      49.890  26.931  27.397  1.00  0.00    -0.200 F 
ATOM     88  C   UNL A   1      50.739  27.643  29.482  1.00  0.00     0.200 A 
ATOM     89  F   UNL A   1      51.541  28.391  31.573  1.00  0.00    -0.200 F 
ATOM     90  F   UNL A   1      51.469  26.524  29.585  1.00  0.00    -0.200 F 
ENDBRANCH  56  80
BRANCH  68  91
ATOM     91  C   UNL A   1      50.117  36.364  26.639  1.00  0.00     0.064 A 
ATOM     92  C   UNL A   1      50.434  36.183  25.284  1.00  0.00     0.173 A 
ATOM     93  C   UNL A   1      50.920  37.238  27.389  1.00  0.00     0.173 A 
ATOM     94  F   UNL A   1      49.707  35.348  24.526  1.00  0.00    -0.203 F 
ATOM     95  C   UNL A   1      51.527  36.829  24.712  1.00  0.00     0.198 A 
ATOM     96  C   UNL A   1      51.989  37.911  26.804  1.00  0.00     0.198 A 
ATOM     97  F   UNL A   1      50.656  37.456  28.686  1.00  0.00    -0.203 F 
ATOM     98  F   UNL A   1      51.843  36.599  23.431  1.00  0.00    -0.200 F 
ATOM     99  C   UNL A   1      52.298  37.699  25.469  1.00  0.00     0.200 A 
ATOM    100  F   UNL A   1      52.720  38.766  27.534  1.00  0.00    -0.200 F 
ATOM    101  F   UNL A   1      53.343  38.327  24.915  1.00  0.00    -0.200 F 
ENDBRANCH  68  91
ENDBRANCH  42  43
ENDBRANCH  35  37
ENDBRANCH  34  35
ENDBRANCH  33  34
ENDBRANCH  32  33
ENDBRANCH  31  32
ENDBRANCH  30  31
ENDBRANCH  29  30
ENDBRANCH  28  29
ENDBRANCH   1  28
TORSDOF 23
ENDMDL
MODEL 3
REMARK VINA RESULT:      -9.0      4.414      8.847
REMARK SMILES CC1=C(C)C[C@@H](C(=O)OCCOCCOCCOCCOC(=O)c2ccc(-c3c4nc(c(-c5c(F)c(F)c(F)c(F)c5F)c5ccc([nH]5)c(-c5c(F)c(F)c(F)c(F)c5F)c5nc(c(-c6c(F)c(F)c(F)c(F)c6F)c6ccc3[nH]6)C=C5)C=C4)cc2)[C@H](C(=O)NCc2cccnc2)C1
REMARK SMILES IDX 14 1 13 2 12 3 11 4 10 5 9 6 7 7 8 8 6 9 1 10 2 11 3 12
REMARK SMILES IDX 98 13 4 14 5 15 87 16 88 17 89 18 90 19 91 21 92 22 93 23
REMARK SMILES IDX 97 24 94 25 96 26 95 27 15 28 16 29 17 30 18 31 19 32 20 33
REMARK SMILES IDX 21 34 22 35 23 36 24 37 25 38 86 39 26 40 85 41 27 42 28 43
REMARK SMILES IDX 29 44 79 45 30 46 84 47 78 48 80 49 31 50 83 51 77 52 76 53
REMARK SMILES IDX 32 55 64 56 44 57 63 58 45 59 48 60 62 61 81 62 46 63 47 64
REMARK SMILES IDX 61 66 82 67 49 68 33 69 34 70 42 71 35 72 36 73 40 74 43 75
REMARK SMILES IDX 37 76 38 77 41 78 39 79 65 80 66 81 74 82 67 83 68 84 72 85
REMARK SMILES IDX 75 86 69 87 70 88 73 89 71 90 50 91 51 92 59 93 52 94 53 95
REMARK SMILES IDX 57 96 60 97 54 98 55 99 58 100 56 101
REMARK H PARENT 90 20 80 54 48 65
REMARK Flexibility Score: inf
ROOT
ATOM      1  C   UNL A   1      39.319  22.687  26.907  1.00  0.00     0.188 C 
ENDROOT
BRANCH   1   2
ATOM      2  C   UNL A   1      39.852  23.881  26.109  1.00  0.00     0.188 C 
BRANCH   2   3
ATOM      3  O   UNL A   1      40.099  25.135  26.726  1.00  0.00    -0.376 OA
BRANCH   3   4
ATOM      4  C   UNL A   1      39.926  25.337  28.120  1.00  0.00     0.202 C 
BRANCH   4   5
ATOM      5  C   UNL A   1      40.237  26.680  28.806  1.00  0.00     0.261 C 
BRANCH   5   6
ATOM      6  O   UNL A   1      39.152  27.368  29.459  1.00  0.00    -0.463 OA
BRANCH   6   7
ATOM      7  C   UNL A   1      38.788  28.544  28.899  1.00  0.00     0.310 C 
ATOM      8  O   UNL A   1      39.033  28.850  27.733  1.00  0.00    -0.252 OA
BRANCH   7   9
ATOM      9  C   UNL A   1      38.167  29.555  29.860  1.00  0.00     0.116 C 
ATOM     10  C   UNL A   1      37.791  33.944  29.010  1.00  0.00     0.039 C 
ATOM     11  C   UNL A   1      37.789  32.462  29.291  1.00  0.00    -0.074 C 
ATOM     12  C   UNL A   1      36.889  31.575  28.823  1.00  0.00    -0.073 C 
ATOM     13  C   UNL A   1      38.930  32.062  30.185  1.00  0.00     0.045 C 
ATOM     14  C   UNL A   1      35.713  31.910  27.942  1.00  0.00     0.039 C 
ATOM     15  C   UNL A   1      36.943  30.102  29.133  1.00  0.00     0.046 C 
ATOM     16  C   UNL A   1      39.084  30.585  30.534  1.00  0.00     0.097 C 
BRANCH  16  17
ATOM     17  C   UNL A   1      39.143  30.397  32.057  1.00  0.00     0.224 C 
ATOM     18  O   UNL A   1      40.213  30.121  32.613  1.00  0.00    -0.275 OA
ATOM     19  N   UNL A   1      38.062  30.527  32.868  1.00  0.00    -0.352 N 
ATOM     20  H   UNL A   1      38.252  30.364  33.820  1.00  0.00     0.163 HD
BRANCH  19  21
ATOM     21  C   UNL A   1      36.681  30.864  32.592  1.00  0.00     0.153 C 
BRANCH  21  22
ATOM     22  C   UNL A   1      36.322  32.290  32.908  1.00  0.00    -0.010 A 
ATOM     23  C   UNL A   1      37.330  33.254  33.043  1.00  0.00     0.009 A 
ATOM     24  C   UNL A   1      35.016  32.716  33.125  1.00  0.00     0.116 A 
ATOM     25  C   UNL A   1      37.000  34.579  33.315  1.00  0.00     0.020 A 
ATOM     26  N   UNL A   1      34.667  33.992  33.412  1.00  0.00    -0.264 NA
ATOM     27  C   UNL A   1      35.665  34.897  33.486  1.00  0.00     0.111 A 
ENDBRANCH  21  22
ENDBRANCH  19  21
ENDBRANCH  16  17
ENDBRANCH   7   9
ENDBRANCH   6   7
ENDBRANCH   5   6
ENDBRANCH   4   5
ENDBRANCH   3   4
ENDBRANCH   2   3
ENDBRANCH   1   2
BRANCH   1  28
ATOM     28  O   UNL A   1      39.743  21.417  26.450  1.00  0.00    -0.377 OA
BRANCH  28  29
ATOM     29  C   UNL A   1      40.886  20.835  27.063  1.00  0.00     0.188 C 
BRANCH  29  30
ATOM     30  C   UNL A   1      42.013  20.338  26.146  1.00  0.00     0.188 C 
BRANCH  30  31
ATOM     31  O   UNL A   1      43.173  21.152  26.192  1.00  0.00    -0.376 OA
BRANCH  31  32
ATOM     32  C   UNL A   1      43.108  22.439  26.786  1.00  0.00     0.202 C 
BRANCH  32  33
ATOM     33  C   UNL A   1      43.630  23.670  26.022  1.00  0.00     0.261 C 
BRANCH  33  34
ATOM     34  O   UNL A   1      44.921  24.190  26.382  1.00  0.00    -0.460 OA
BRANCH  34  35
ATOM     35  C   UNL A   1      45.419  25.252  25.714  1.00  0.00     0.338 C 
ATOM     36  O   UNL A   1      45.862  25.276  24.586  1.00  0.00    -0.246 OA
BRANCH  35  37
ATOM     37  C   UNL A   1      45.152  26.453  26.540  1.00  0.00     0.060 A 
ATOM     38  C   UNL A   1      46.200  27.019  27.276  1.00  0.00     0.016 A 
ATOM     39  C   UNL A   1      43.870  27.005  26.600  1.00  0.00     0.016 A 
ATOM     40  C   UNL A   1      45.960  28.111  28.111  1.00  0.00     0.010 A 
ATOM     41  C   UNL A   1      43.625  28.085  27.452  1.00  0.00     0.010 A 
ATOM     42  C   UNL A   1      44.661  28.618  28.241  1.00  0.00    -0.014 A 
BRANCH  42  43
ATOM     43  C   UNL A   1      44.345  29.565  29.339  1.00  0.00     0.031 A 
ATOM     44  C   UNL A   1      44.041  29.001  30.702  1.00  0.00     0.074 A 
ATOM     45  C   UNL A   1      44.335  30.894  29.138  1.00  0.00     0.049 A 
ATOM     46  N   UNL A   1      43.667  29.616  31.794  1.00  0.00    -0.248 NA
ATOM     47  C   UNL A   1      44.173  27.542  30.848  1.00  0.00     0.031 C 
ATOM     48  C   UNL A   1      44.648  31.560  27.877  1.00  0.00     0.029 A 
ATOM     49  N   UNL A   1      44.030  31.922  29.997  1.00  0.00    -0.354 N 
ATOM     50  C   UNL A   1      43.503  28.620  32.749  1.00  0.00     0.074 A 
ATOM     51  C   UNL A   1      43.795  27.359  32.103  1.00  0.00     0.031 C 
ATOM     52  C   UNL A   1      44.498  32.886  28.036  1.00  0.00     0.029 A 
ATOM     53  C   UNL A   1      44.041  33.158  29.398  1.00  0.00     0.049 A 
ATOM     54  H   UNL A   1      43.824  31.786  30.950  1.00  0.00     0.167 HD
ATOM     55  C   UNL A   1      43.144  28.748  34.047  1.00  0.00     0.037 A 
ATOM     56  C   UNL A   1      43.688  34.364  29.889  1.00  0.00     0.037 A 
ATOM     57  C   UNL A   1      42.865  30.007  34.686  1.00  0.00     0.049 A 
ATOM     58  C   UNL A   1      43.233  34.472  31.323  1.00  0.00     0.074 A 
ATOM     59  C   UNL A   1      42.533  30.248  36.007  1.00  0.00     0.029 A 
ATOM     60  N   UNL A   1      42.871  31.237  34.044  1.00  0.00    -0.354 N 
ATOM     61  N   UNL A   1      43.118  33.531  32.231  1.00  0.00    -0.248 NA
ATOM     62  C   UNL A   1      42.860  35.811  31.803  1.00  0.00     0.031 C 
ATOM     63  C   UNL A   1      42.270  31.614  36.149  1.00  0.00     0.029 A 
ATOM     64  C   UNL A   1      42.511  32.235  34.934  1.00  0.00     0.049 A 
ATOM     65  H   UNL A   1      43.097  31.379  33.097  1.00  0.00     0.167 HD
ATOM     66  C   UNL A   1      42.693  34.168  33.392  1.00  0.00     0.074 A 
ATOM     67  C   UNL A   1      42.586  35.577  33.079  1.00  0.00     0.031 C 
ATOM     68  C   UNL A   1      42.417  33.635  34.608  1.00  0.00     0.037 A 
BRANCH  55  69
ATOM     69  C   UNL A   1      42.993  27.495  34.860  1.00  0.00     0.064 A 
ATOM     70  C   UNL A   1      44.010  27.028  35.705  1.00  0.00     0.173 A 
ATOM     71  C   UNL A   1      41.784  26.780  34.831  1.00  0.00     0.173 A 
ATOM     72  F   UNL A   1      45.189  27.665  35.759  1.00  0.00    -0.203 F 
ATOM     73  C   UNL A   1      43.831  25.880  36.474  1.00  0.00     0.198 A 
ATOM     74  C   UNL A   1      41.598  25.652  35.626  1.00  0.00     0.198 A 
ATOM     75  F   UNL A   1      40.777  27.184  34.043  1.00  0.00    -0.203 F 
ATOM     76  F   UNL A   1      44.832  25.427  37.242  1.00  0.00    -0.200 F 
ATOM     77  C   UNL A   1      42.623  25.199  36.442  1.00  0.00     0.200 A 
ATOM     78  F   UNL A   1      40.425  25.006  35.604  1.00  0.00    -0.200 F 
ATOM     79  F   UNL A   1      42.448  24.105  37.194  1.00  0.00    -0.200 F 
ENDBRANCH  55  69
BRANCH  56  80
ATOM     80  C   UNL A   1      43.715  35.565  29.011  1.00  0.00     0.064 A 
ATOM     81  C   UNL A   1      42.577  35.979  28.306  1.00  0.00     0.173 A 
ATOM     82  C   UNL A   1      44.897  36.302  28.828  1.00  0.00     0.173 A 
ATOM     83  F   UNL A   1      41.430  35.294  28.424  1.00  0.00    -0.203 F 
ATOM     84  C   UNL A   1      42.625  37.065  27.432  1.00  0.00     0.198 A 
ATOM     85  C   UNL A   1      44.935  37.408  27.981  1.00  0.00     0.198 A 
ATOM     86  F   UNL A   1      46.017  35.948  29.474  1.00  0.00    -0.203 F 
ATOM     87  F   UNL A   1      41.537  37.400  26.725  1.00  0.00    -0.200 F 
ATOM     88  C   UNL A   1      43.802  37.781  27.275  1.00  0.00     0.200 A 
ATOM     89  F   UNL A   1      46.070  38.106  27.843  1.00  0.00    -0.200 F 
ATOM     90  F   UNL A   1      43.847  38.824  26.434  1.00  0.00    -0.200 F 
ENDBRANCH  56  80
BRANCH  68  91
ATOM     91  C   UNL A   1      42.011  34.580  35.706  1.00  0.00     0.064 A 
ATOM     92  C   UNL A   1      42.957  35.304  36.447  1.00  0.00     0.173 A 
ATOM     93  C   UNL A   1      40.653  34.796  35.988  1.00  0.00     0.173 A 
ATOM     94  F   UNL A   1      44.268  35.126  36.227  1.00  0.00    -0.203 F 
ATOM     95  C   UNL A   1      42.559  36.185  37.450  1.00  0.00     0.198 A 
ATOM     96  C   UNL A   1      40.258  35.706  36.965  1.00  0.00     0.198 A 
ATOM     97  F   UNL A   1      39.706  34.139  35.302  1.00  0.00    -0.203 F 
ATOM     98  F   UNL A   1      43.481  36.825  38.181  1.00  0.00    -0.200 F 
ATOM     99  C   UNL A   1      41.211  36.392  37.701  1.00  0.00     0.200 A 
ATOM    100  F   UNL A   1      38.954  35.918  37.192  1.00  0.00    -0.200 F 
ATOM    101  F   UNL A   1      40.830  37.247  38.660  1.00  0.00    -0.200 F 
ENDBRANCH  68  91
ENDBRANCH  42  43
ENDBRANCH  35  37
ENDBRANCH  34  35
ENDBRANCH  33  34
ENDBRANCH  32  33
ENDBRANCH  31  32
ENDBRANCH  30  31
ENDBRANCH  29  30
ENDBRANCH  28  29
ENDBRANCH   1  28
TORSDOF 23
ENDMDL
