MODEL 1
REMARK VINA RESULT:      -9.8      0.000      0.000
REMARK SMILES C[C@H](NC(=O)OC(C)(C)C)C(=O)N[C@@H](C)C(=O)N1CCC[C@H]1C(=O)OCCOCCOCCOCCOC(=O)c1ccc(-c2c3nc(c(-c4c(F)c(F)c(F)c(F)c4F)c4ccc([nH]4)c(-c4c(F)c(F)c(F)c(F)c4F)c4nc(c(-c5c(F)c(F)c(F)c(F)c5F)c5ccc2[nH]5)C=C4)C=C3)cc1
REMARK SMILES IDX 29 1 28 2 27 3 26 4 25 5 23 6 24 7 22 8 18 9 19 10 20 11
REMARK SMILES IDX 21 12 16 13 17 14 14 15 15 16 13 17 11 18 12 19 2 21 1 22
REMARK SMILES IDX 3 23 4 24 5 26 6 27 7 28 8 29 9 30 10 31 30 32 31 33 32 34
REMARK SMILES IDX 33 35 34 36 35 37 36 38 37 39 38 40 39 41 40 42 41 43 102 44
REMARK SMILES IDX 42 45 101 46 43 47 44 48 45 49 95 50 46 51 100 52 94 53
REMARK SMILES IDX 96 54 47 55 99 56 93 57 92 58 48 60 80 61 60 62 79 63 61 64
REMARK SMILES IDX 64 65 78 66 97 67 62 68 63 69 77 71 98 72 65 73 49 74 50 75
REMARK SMILES IDX 58 76 51 77 52 78 56 79 59 80 53 81 54 82 57 83 55 84 81 85
REMARK SMILES IDX 82 86 90 87 83 88 84 89 88 90 91 91 85 92 86 93 89 94 87 95
REMARK SMILES IDX 66 96 67 97 75 98 68 99 69 100 73 101 76 102 70 103 71 104
REMARK SMILES IDX 74 105 72 106
REMARK H PARENT 13 20 3 25 96 59 64 70
REMARK Flexibility Score: inf
ROOT
ATOM      1  C   UNL A   1      32.908  19.693  25.278  1.00  0.00     0.188 C 
ENDROOT
BRANCH   1   2
ATOM      2  O   UNL A   1      32.164  20.531  24.415  1.00  0.00    -0.376 OA
BRANCH   2   3
ATOM      3  C   UNL A   1      32.735  21.004  23.214  1.00  0.00     0.202 C 
BRANCH   3   4
ATOM      4  C   UNL A   1      31.955  22.074  22.433  1.00  0.00     0.261 C 
BRANCH   4   5
ATOM      5  O   UNL A   1      32.524  23.389  22.435  1.00  0.00    -0.462 OA
BRANCH   5   6
ATOM      6  C   UNL A   1      33.719  23.533  23.054  1.00  0.00     0.328 C 
ATOM      7  O   UNL A   1      34.789  23.266  22.515  1.00  0.00    -0.250 OA
BRANCH   6   8
ATOM      8  C   UNL A   1      33.587  24.321  24.377  1.00  0.00     0.195 C 
ATOM      9  N   UNL A   1      32.698  23.827  25.441  1.00  0.00    -0.327 N 
ATOM     10  C   UNL A   1      33.492  23.203  26.471  1.00  0.00     0.120 C 
ATOM     11  C   UNL A   1      34.781  23.996  26.482  1.00  0.00     0.024 C 
ATOM     12  C   UNL A   1      34.958  24.484  25.052  1.00  0.00     0.039 C 
BRANCH   9  13
ATOM     13  C   UNL A   1      31.334  24.035  25.421  1.00  0.00     0.245 C 
ATOM     14  O   UNL A   1      30.546  23.133  25.705  1.00  0.00    -0.272 OA
BRANCH  13  15
ATOM     15  C   UNL A   1      30.747  25.374  24.903  1.00  0.00     0.168 C 
ATOM     16  C   UNL A   1      29.400  25.671  25.556  1.00  0.00     0.041 C 
BRANCH  15  17
ATOM     17  N   UNL A   1      30.700  25.493  23.452  1.00  0.00    -0.343 N 
ATOM     18  C   UNL A   1      30.956  26.562  22.652  1.00  0.00     0.243 C 
ATOM     19  O   UNL A   1      31.026  26.338  21.438  1.00  0.00    -0.273 OA
ATOM     20  H   UNL A   1      30.442  24.671  22.976  1.00  0.00     0.164 HD
BRANCH  18  21
ATOM     21  C   UNL A   1      31.182  27.985  23.198  1.00  0.00     0.171 C 
ATOM     22  C   UNL A   1      30.261  28.998  22.531  1.00  0.00     0.042 C 
BRANCH  21  23
ATOM     23  N   UNL A   1      32.617  28.272  23.289  1.00  0.00    -0.310 N 
ATOM     24  C   UNL A   1      33.483  28.244  24.332  1.00  0.00     0.408 C 
ATOM     25  H   UNL A   1      33.028  28.534  22.435  1.00  0.00     0.167 HD
ATOM     26  O   UNL A   1      34.654  28.580  24.177  1.00  0.00    -0.225 OA
BRANCH  24  27
ATOM     27  O   UNL A   1      32.928  27.838  25.486  1.00  0.00    -0.444 OA
BRANCH  27  28
ATOM     28  C   UNL A   1      32.663  28.765  26.565  1.00  0.00     0.106 C 
ATOM     29  C   UNL A   1      32.199  30.123  26.027  1.00  0.00     0.056 C 
ATOM     30  C   UNL A   1      31.683  28.184  27.589  1.00  0.00     0.056 C 
ATOM     31  C   UNL A   1      34.020  28.945  27.251  1.00  0.00     0.056 C 
ENDBRANCH  27  28
ENDBRANCH  24  27
ENDBRANCH  21  23
ENDBRANCH  18  21
ENDBRANCH  15  17
ENDBRANCH  13  15
ENDBRANCH   9  13
ENDBRANCH   6   8
ENDBRANCH   5   6
ENDBRANCH   4   5
ENDBRANCH   3   4
ENDBRANCH   2   3
ENDBRANCH   1   2
BRANCH   1  32
ATOM     32  C   UNL A   1      34.107  18.957  24.624  1.00  0.00     0.188 C 
BRANCH  32  33
ATOM     33  O   UNL A   1      35.460  19.392  24.708  1.00  0.00    -0.377 OA
BRANCH  33  34
ATOM     34  C   UNL A   1      35.736  20.687  25.209  1.00  0.00     0.188 C 
BRANCH  34  35
ATOM     35  C   UNL A   1      36.986  21.348  24.597  1.00  0.00     0.188 C 
BRANCH  35  36
ATOM     36  O   UNL A   1      37.660  22.207  25.507  1.00  0.00    -0.376 OA
BRANCH  36  37
ATOM     37  C   UNL A   1      38.921  21.788  26.008  1.00  0.00     0.202 C 
BRANCH  37  38
ATOM     38  C   UNL A   1      39.450  20.362  25.753  1.00  0.00     0.261 C 
BRANCH  38  39
ATOM     39  O   UNL A   1      40.373  19.807  26.703  1.00  0.00    -0.460 OA
BRANCH  39  40
ATOM     40  C   UNL A   1      41.634  19.552  26.302  1.00  0.00     0.338 C 
ATOM     41  O   UNL A   1      42.048  18.549  25.751  1.00  0.00    -0.246 OA
BRANCH  40  42
ATOM     42  C   UNL A   1      42.410  20.800  26.484  1.00  0.00     0.060 A 
ATOM     43  C   UNL A   1      42.559  21.338  27.768  1.00  0.00     0.016 A 
ATOM     44  C   UNL A   1      42.999  21.431  25.387  1.00  0.00     0.016 A 
ATOM     45  C   UNL A   1      43.266  22.525  27.951  1.00  0.00     0.010 A 
ATOM     46  C   UNL A   1      43.716  22.616  25.570  1.00  0.00     0.010 A 
ATOM     47  C   UNL A   1      43.805  23.197  26.846  1.00  0.00    -0.014 A 
BRANCH  47  48
ATOM     48  C   UNL A   1      44.230  24.612  26.995  1.00  0.00     0.031 A 
ATOM     49  C   UNL A   1      43.202  25.612  27.457  1.00  0.00     0.074 A 
ATOM     50  C   UNL A   1      45.502  24.994  26.788  1.00  0.00     0.049 A 
ATOM     51  N   UNL A   1      43.324  26.897  27.675  1.00  0.00    -0.248 NA
ATOM     52  C   UNL A   1      41.847  25.090  27.702  1.00  0.00     0.031 C 
ATOM     53  C   UNL A   1      46.592  24.117  26.369  1.00  0.00     0.029 A 
ATOM     54  N   UNL A   1      46.090  26.229  26.909  1.00  0.00    -0.354 N 
ATOM     55  C   UNL A   1      42.065  27.331  28.071  1.00  0.00     0.074 A 
ATOM     56  C   UNL A   1      41.182  26.190  28.015  1.00  0.00     0.031 C 
ATOM     57  C   UNL A   1      47.721  24.841  26.271  1.00  0.00     0.029 A 
ATOM     58  C   UNL A   1      47.425  26.237  26.591  1.00  0.00     0.049 A 
ATOM     59  H   UNL A   1      45.599  27.033  27.195  1.00  0.00     0.167 HD
ATOM     60  C   UNL A   1      41.682  28.568  28.464  1.00  0.00     0.037 A 
ATOM     61  C   UNL A   1      48.300  27.262  26.550  1.00  0.00     0.037 A 
ATOM     62  C   UNL A   1      42.566  29.702  28.526  1.00  0.00     0.049 A 
ATOM     63  C   UNL A   1      47.835  28.644  26.936  1.00  0.00     0.074 A 
ATOM     64  C   UNL A   1      42.283  30.994  28.930  1.00  0.00     0.029 A 
ATOM     65  N   UNL A   1      43.905  29.677  28.166  1.00  0.00    -0.354 N 
ATOM     66  N   UNL A   1      46.652  29.042  27.340  1.00  0.00    -0.248 NA
ATOM     67  C   UNL A   1      48.834  29.721  26.871  1.00  0.00     0.031 C 
ATOM     68  C   UNL A   1      43.435  31.767  28.752  1.00  0.00     0.029 A 
ATOM     69  C   UNL A   1      44.456  30.941  28.312  1.00  0.00     0.049 A 
ATOM     70  H   UNL A   1      44.392  28.881  27.853  1.00  0.00     0.167 HD
ATOM     71  C   UNL A   1      46.774  30.399  27.611  1.00  0.00     0.074 A 
ATOM     72  C   UNL A   1      48.151  30.754  27.342  1.00  0.00     0.031 C 
ATOM     73  C   UNL A   1      45.833  31.275  28.047  1.00  0.00     0.037 A 
BRANCH  60  74
ATOM     74  C   UNL A   1      40.238  28.763  28.832  1.00  0.00     0.064 A 
ATOM     75  C   UNL A   1      39.771  28.566  30.141  1.00  0.00     0.173 A 
ATOM     76  C   UNL A   1      39.310  29.171  27.862  1.00  0.00     0.173 A 
ATOM     77  F   UNL A   1      40.612  28.157  31.105  1.00  0.00    -0.203 F 
ATOM     78  C   UNL A   1      38.426  28.740  30.457  1.00  0.00     0.198 A 
ATOM     79  C   UNL A   1      37.973  29.381  28.190  1.00  0.00     0.198 A 
ATOM     80  F   UNL A   1      39.701  29.375  26.595  1.00  0.00    -0.203 F 
ATOM     81  F   UNL A   1      37.993  28.490  31.701  1.00  0.00    -0.200 F 
ATOM     82  C   UNL A   1      37.531  29.157  29.483  1.00  0.00     0.200 A 
ATOM     83  F   UNL A   1      37.113  29.797  27.250  1.00  0.00    -0.200 F 
ATOM     84  F   UNL A   1      36.238  29.333  29.791  1.00  0.00    -0.200 F 
ENDBRANCH  60  74
BRANCH  61  85
ATOM     85  C   UNL A   1      49.708  27.025  26.131  1.00  0.00     0.064 A 
ATOM     86  C   UNL A   1      50.712  26.752  27.073  1.00  0.00     0.173 A 
ATOM     87  C   UNL A   1      50.087  27.097  24.782  1.00  0.00     0.173 A 
ATOM     88  F   UNL A   1      50.408  26.698  28.378  1.00  0.00    -0.203 F 
ATOM     89  C   UNL A   1      52.040  26.586  26.684  1.00  0.00     0.198 A 
ATOM     90  C   UNL A   1      51.409  26.898  24.392  1.00  0.00     0.198 A 
ATOM     91  F   UNL A   1      49.169  27.358  23.841  1.00  0.00    -0.203 F 
ATOM     92  F   UNL A   1      52.987  26.385  27.611  1.00  0.00    -0.200 F 
ATOM     93  C   UNL A   1      52.387  26.654  25.343  1.00  0.00     0.200 A 
ATOM     94  F   UNL A   1      51.737  26.951  23.094  1.00  0.00    -0.200 F 
ATOM     95  F   UNL A   1      53.664  26.493  24.970  1.00  0.00    -0.200 F 
ENDBRANCH  61  85
BRANCH  73  96
ATOM     96  C   UNL A   1      46.272  32.689  28.312  1.00  0.00     0.064 A 
ATOM     97  C   UNL A   1      46.249  33.675  27.314  1.00  0.00     0.173 A 
ATOM     98  C   UNL A   1      46.697  33.067  29.596  1.00  0.00     0.173 A 
ATOM     99  F   UNL A   1      45.860  33.367  26.068  1.00  0.00    -0.203 F 
ATOM    100  C   UNL A   1      46.676  34.974  27.581  1.00  0.00     0.198 A 
ATOM    101  C   UNL A   1      47.085  34.376  29.869  1.00  0.00     0.198 A 
ATOM    102  F   UNL A   1      46.726  32.168  30.592  1.00  0.00    -0.203 F 
ATOM    103  F   UNL A   1      46.709  35.881  26.596  1.00  0.00    -0.200 F 
ATOM    104  C   UNL A   1      47.087  35.325  28.858  1.00  0.00     0.200 A 
ATOM    105  F   UNL A   1      47.461  34.717  31.109  1.00  0.00    -0.200 F 
ATOM    106  F   UNL A   1      47.494  36.575  29.114  1.00  0.00    -0.200 F 
ENDBRANCH  73  96
ENDBRANCH  47  48
ENDBRANCH  40  42
ENDBRANCH  39  40
ENDBRANCH  38  39
ENDBRANCH  37  38
ENDBRANCH  36  37
ENDBRANCH  35  36
ENDBRANCH  34  35
ENDBRANCH  33  34
ENDBRANCH  32  33
ENDBRANCH   1  32
TORSDOF 27
ENDMDL
MODEL 2
REMARK VINA RESULT:      -9.7      0.735      6.939
REMARK SMILES C[C@H](NC(=O)OC(C)(C)C)C(=O)N[C@@H](C)C(=O)N1CCC[C@H]1C(=O)OCCOCCOCCOCCOC(=O)c1ccc(-c2c3nc(c(-c4c(F)c(F)c(F)c(F)c4F)c4ccc([nH]4)c(-c4c(F)c(F)c(F)c(F)c4F)c4nc(c(-c5c(F)c(F)c(F)c(F)c5F)c5ccc2[nH]5)C=C4)C=C3)cc1
REMARK SMILES IDX 29 1 28 2 27 3 26 4 25 5 23 6 24 7 22 8 18 9 19 10 20 11
REMARK SMILES IDX 21 12 16 13 17 14 14 15 15 16 13 17 11 18 12 19 2 21 1 22
REMARK SMILES IDX 3 23 4 24 5 26 6 27 7 28 8 29 9 30 10 31 30 32 31 33 32 34
REMARK SMILES IDX 33 35 34 36 35 37 36 38 37 39 38 40 39 41 40 42 41 43 102 44
REMARK SMILES IDX 42 45 101 46 43 47 44 48 45 49 95 50 46 51 100 52 94 53
REMARK SMILES IDX 96 54 47 55 99 56 93 57 92 58 48 60 80 61 60 62 79 63 61 64
REMARK SMILES IDX 64 65 78 66 97 67 62 68 63 69 77 71 98 72 65 73 49 74 50 75
REMARK SMILES IDX 58 76 51 77 52 78 56 79 59 80 53 81 54 82 57 83 55 84 81 85
REMARK SMILES IDX 82 86 90 87 83 88 84 89 88 90 91 91 85 92 86 93 89 94 87 95
REMARK SMILES IDX 66 96 67 97 75 98 68 99 69 100 73 101 76 102 70 103 71 104
REMARK SMILES IDX 74 105 72 106
REMARK H PARENT 13 20 3 25 96 59 64 70
REMARK Flexibility Score: inf
ROOT
ATOM      1  C   UNL A   1      32.993  19.503  25.345  1.00  0.00     0.188 C 
ENDROOT
BRANCH   1   2
ATOM      2  O   UNL A   1      32.170  20.298  24.513  1.00  0.00    -0.376 OA
BRANCH   2   3
ATOM      3  C   UNL A   1      32.674  20.824  23.304  1.00  0.00     0.202 C 
BRANCH   3   4
ATOM      4  C   UNL A   1      31.860  21.937  22.624  1.00  0.00     0.261 C 
BRANCH   4   5
ATOM      5  O   UNL A   1      32.547  23.179  22.424  1.00  0.00    -0.462 OA
BRANCH   5   6
ATOM      6  C   UNL A   1      33.768  23.298  22.994  1.00  0.00     0.328 C 
ATOM      7  O   UNL A   1      34.805  22.953  22.435  1.00  0.00    -0.250 OA
BRANCH   6   8
ATOM      8  C   UNL A   1      33.719  24.158  24.277  1.00  0.00     0.195 C 
ATOM      9  N   UNL A   1      32.861  23.753  25.401  1.00  0.00    -0.327 N 
ATOM     10  C   UNL A   1      33.678  23.156  26.430  1.00  0.00     0.120 C 
ATOM     11  C   UNL A   1      34.991  23.903  26.345  1.00  0.00     0.024 C 
ATOM     12  C   UNL A   1      35.122  24.309  24.885  1.00  0.00     0.039 C 
BRANCH   9  13
ATOM     13  C   UNL A   1      31.504  24.008  25.427  1.00  0.00     0.245 C 
ATOM     14  O   UNL A   1      30.700  23.147  25.786  1.00  0.00    -0.272 OA
BRANCH  13  15
ATOM     15  C   UNL A   1      30.941  25.340  24.869  1.00  0.00     0.168 C 
ATOM     16  C   UNL A   1      29.646  25.727  25.577  1.00  0.00     0.041 C 
BRANCH  15  17
ATOM     17  N   UNL A   1      30.816  25.384  23.418  1.00  0.00    -0.343 N 
ATOM     18  C   UNL A   1      31.024  26.410  22.551  1.00  0.00     0.243 C 
ATOM     19  O   UNL A   1      31.030  26.124  21.349  1.00  0.00    -0.273 OA
ATOM     20  H   UNL A   1      30.536  24.538  23.000  1.00  0.00     0.164 HD
BRANCH  18  21
ATOM     21  C   UNL A   1      31.273  27.861  23.011  1.00  0.00     0.171 C 
ATOM     22  C   UNL A   1      30.284  28.831  22.377  1.00  0.00     0.042 C 
BRANCH  21  23
ATOM     23  N   UNL A   1      32.705  28.168  22.968  1.00  0.00    -0.310 N 
ATOM     24  C   UNL A   1      33.503  28.893  23.791  1.00  0.00     0.408 C 
ATOM     25  H   UNL A   1      33.176  27.775  22.199  1.00  0.00     0.167 HD
ATOM     26  O   UNL A   1      34.689  29.058  23.520  1.00  0.00    -0.225 OA
BRANCH  24  27
ATOM     27  O   UNL A   1      32.866  29.386  24.866  1.00  0.00    -0.444 OA
BRANCH  27  28
ATOM     28  C   UNL A   1      33.049  28.815  26.182  1.00  0.00     0.106 C 
ATOM     29  C   UNL A   1      31.719  28.733  26.940  1.00  0.00     0.056 C 
ATOM     30  C   UNL A   1      33.765  27.463  26.124  1.00  0.00     0.056 C 
ATOM     31  C   UNL A   1      33.965  29.810  26.902  1.00  0.00     0.056 C 
ENDBRANCH  27  28
ENDBRANCH  24  27
ENDBRANCH  21  23
ENDBRANCH  18  21
ENDBRANCH  15  17
ENDBRANCH  13  15
ENDBRANCH   9  13
ENDBRANCH   6   8
ENDBRANCH   5   6
ENDBRANCH   4   5
ENDBRANCH   3   4
ENDBRANCH   2   3
ENDBRANCH   1   2
BRANCH   1  32
ATOM     32  C   UNL A   1      34.161  18.776  24.629  1.00  0.00     0.188 C 
BRANCH  32  33
ATOM     33  O   UNL A   1      35.510  19.230  24.626  1.00  0.00    -0.377 OA
BRANCH  33  34
ATOM     34  C   UNL A   1      35.797  20.536  25.091  1.00  0.00     0.188 C 
BRANCH  34  35
ATOM     35  C   UNL A   1      37.157  21.089  24.623  1.00  0.00     0.188 C 
BRANCH  35  36
ATOM     36  O   UNL A   1      37.815  21.859  25.620  1.00  0.00    -0.376 OA
BRANCH  36  37
ATOM     37  C   UNL A   1      39.084  21.411  26.074  1.00  0.00     0.202 C 
BRANCH  37  38
ATOM     38  C   UNL A   1      39.621  20.014  25.704  1.00  0.00     0.261 C 
BRANCH  38  39
ATOM     39  O   UNL A   1      40.617  19.427  26.557  1.00  0.00    -0.460 OA
BRANCH  39  40
ATOM     40  C   UNL A   1      41.893  19.391  26.126  1.00  0.00     0.338 C 
ATOM     41  O   UNL A   1      42.416  18.541  25.431  1.00  0.00    -0.246 OA
BRANCH  40  42
ATOM     42  C   UNL A   1      42.515  20.682  26.499  1.00  0.00     0.060 A 
ATOM     43  C   UNL A   1      42.483  21.103  27.834  1.00  0.00     0.016 A 
ATOM     44  C   UNL A   1      43.139  21.470  25.531  1.00  0.00     0.016 A 
ATOM     45  C   UNL A   1      43.043  22.327  28.195  1.00  0.00     0.010 A 
ATOM     46  C   UNL A   1      43.710  22.693  25.892  1.00  0.00     0.010 A 
ATOM     47  C   UNL A   1      43.615  23.152  27.217  1.00  0.00    -0.014 A 
BRANCH  47  48
ATOM     48  C   UNL A   1      43.876  24.578  27.533  1.00  0.00     0.031 A 
ATOM     49  C   UNL A   1      45.300  25.066  27.468  1.00  0.00     0.074 A 
ATOM     50  C   UNL A   1      42.878  25.435  27.810  1.00  0.00     0.049 A 
ATOM     51  N   UNL A   1      45.785  26.262  27.687  1.00  0.00    -0.248 NA
ATOM     52  C   UNL A   1      46.318  24.064  27.110  1.00  0.00     0.031 C 
ATOM     53  C   UNL A   1      41.460  25.091  27.874  1.00  0.00     0.029 A 
ATOM     54  N   UNL A   1      42.912  26.780  28.089  1.00  0.00    -0.354 N 
ATOM     55  C   UNL A   1      47.157  26.150  27.504  1.00  0.00     0.074 A 
ATOM     56  C   UNL A   1      47.436  24.764  27.207  1.00  0.00     0.031 C 
ATOM     57  C   UNL A   1      40.756  26.199  28.169  1.00  0.00     0.029 A 
ATOM     58  C   UNL A   1      41.677  27.321  28.344  1.00  0.00     0.049 A 
ATOM     59  H   UNL A   1      43.744  27.305  28.104  1.00  0.00     0.167 HD
ATOM     60  C   UNL A   1      48.101  27.118  27.560  1.00  0.00     0.037 A 
ATOM     61  C   UNL A   1      41.337  28.578  28.693  1.00  0.00     0.037 A 
ATOM     62  C   UNL A   1      47.819  28.499  27.848  1.00  0.00     0.049 A 
ATOM     63  C   UNL A   1      42.414  29.628  28.807  1.00  0.00     0.074 A 
ATOM     64  C   UNL A   1      48.699  29.564  27.909  1.00  0.00     0.029 A 
ATOM     65  N   UNL A   1      46.558  29.003  28.132  1.00  0.00    -0.354 N 
ATOM     66  N   UNL A   1      43.705  29.522  28.601  1.00  0.00    -0.248 NA
ATOM     67  C   UNL A   1      41.982  30.979  29.193  1.00  0.00     0.031 C 
ATOM     68  C   UNL A   1      47.981  30.700  28.295  1.00  0.00     0.029 A 
ATOM     69  C   UNL A   1      46.642  30.361  28.397  1.00  0.00     0.049 A 
ATOM     70  H   UNL A   1      45.728  28.475  28.144  1.00  0.00     0.167 HD
ATOM     71  C   UNL A   1      44.231  30.793  28.794  1.00  0.00     0.074 A 
ATOM     72  C   UNL A   1      43.117  31.658  29.118  1.00  0.00     0.031 C 
ATOM     73  C   UNL A   1      45.520  31.211  28.709  1.00  0.00     0.037 A 
BRANCH  60  74
ATOM     74  C   UNL A   1      49.529  26.710  27.329  1.00  0.00     0.064 A 
ATOM     75  C   UNL A   1      50.059  26.558  26.039  1.00  0.00     0.173 A 
ATOM     76  C   UNL A   1      50.384  26.485  28.418  1.00  0.00     0.173 A 
ATOM     77  F   UNL A   1      49.280  26.743  24.961  1.00  0.00    -0.203 F 
ATOM     78  C   UNL A   1      51.382  26.167  25.849  1.00  0.00     0.198 A 
ATOM     79  C   UNL A   1      51.717  26.131  28.224  1.00  0.00     0.198 A 
ATOM     80  F   UNL A   1      49.930  26.617  29.674  1.00  0.00    -0.203 F 
ATOM     81  F   UNL A   1      51.850  25.972  24.607  1.00  0.00    -0.200 F 
ATOM     82  C   UNL A   1      52.212  25.963  26.941  1.00  0.00     0.200 A 
ATOM     83  F   UNL A   1      52.520  25.948  29.281  1.00  0.00    -0.200 F 
ATOM     84  F   UNL A   1      53.487  25.596  26.756  1.00  0.00    -0.200 F 
ENDBRANCH  60  74
BRANCH  61  85
ATOM     85  C   UNL A   1      39.913  28.920  28.959  1.00  0.00     0.064 A 
ATOM     86  C   UNL A   1      39.363  28.799  30.244  1.00  0.00     0.173 A 
ATOM     87  C   UNL A   1      39.063  29.347  27.928  1.00  0.00     0.173 A 
ATOM     88  F   UNL A   1      40.126  28.371  31.261  1.00  0.00    -0.203 F 
ATOM     89  C   UNL A   1      38.016  29.066  30.481  1.00  0.00     0.198 A 
ATOM     90  C   UNL A   1      37.724  29.645  28.172  1.00  0.00     0.198 A 
ATOM     91  F   UNL A   1      39.535  29.476  26.680  1.00  0.00    -0.203 F 
ATOM     92  F   UNL A   1      37.505  28.885  31.706  1.00  0.00    -0.200 F 
ATOM     93  C   UNL A   1      37.199  29.494  29.446  1.00  0.00     0.200 A 
ATOM     94  F   UNL A   1      36.941  30.072  27.172  1.00  0.00    -0.200 F 
ATOM     95  F   UNL A   1      35.904  29.753  29.675  1.00  0.00    -0.200 F 
ENDBRANCH  61  85
BRANCH  73  96
ATOM     96  C   UNL A   1      45.789  32.675  28.916  1.00  0.00     0.064 A 
ATOM     97  C   UNL A   1      46.068  33.210  30.184  1.00  0.00     0.173 A 
ATOM     98  C   UNL A   1      45.795  33.554  27.820  1.00  0.00     0.173 A 
ATOM     99  F   UNL A   1      46.067  32.418  31.266  1.00  0.00    -0.203 F 
ATOM    100  C   UNL A   1      46.298  34.574  30.351  1.00  0.00     0.198 A 
ATOM    101  C   UNL A   1      46.065  34.909  27.986  1.00  0.00     0.198 A 
ATOM    102  F   UNL A   1      45.548  33.096  26.584  1.00  0.00    -0.203 F 
ATOM    103  F   UNL A   1      46.495  35.071  31.579  1.00  0.00    -0.200 F 
ATOM    104  C   UNL A   1      46.303  35.421  29.253  1.00  0.00     0.200 A 
ATOM    105  F   UNL A   1      46.091  35.721  26.920  1.00  0.00    -0.200 F 
ATOM    106  F   UNL A   1      46.529  36.731  29.415  1.00  0.00    -0.200 F 
ENDBRANCH  73  96
ENDBRANCH  47  48
ENDBRANCH  40  42
ENDBRANCH  39  40
ENDBRANCH  38  39
ENDBRANCH  37  38
ENDBRANCH  36  37
ENDBRANCH  35  36
ENDBRANCH  34  35
ENDBRANCH  33  34
ENDBRANCH  32  33
ENDBRANCH   1  32
TORSDOF 27
ENDMDL
MODEL 3
REMARK VINA RESULT:      -9.3      1.207      7.000
REMARK SMILES C[C@H](NC(=O)OC(C)(C)C)C(=O)N[C@@H](C)C(=O)N1CCC[C@H]1C(=O)OCCOCCOCCOCCOC(=O)c1ccc(-c2c3nc(c(-c4c(F)c(F)c(F)c(F)c4F)c4ccc([nH]4)c(-c4c(F)c(F)c(F)c(F)c4F)c4nc(c(-c5c(F)c(F)c(F)c(F)c5F)c5ccc2[nH]5)C=C4)C=C3)cc1
REMARK SMILES IDX 29 1 28 2 27 3 26 4 25 5 23 6 24 7 22 8 18 9 19 10 20 11
REMARK SMILES IDX 21 12 16 13 17 14 14 15 15 16 13 17 11 18 12 19 2 21 1 22
REMARK SMILES IDX 3 23 4 24 5 26 6 27 7 28 8 29 9 30 10 31 30 32 31 33 32 34
REMARK SMILES IDX 33 35 34 36 35 37 36 38 37 39 38 40 39 41 40 42 41 43 102 44
REMARK SMILES IDX 42 45 101 46 43 47 44 48 45 49 95 50 46 51 100 52 94 53
REMARK SMILES IDX 96 54 47 55 99 56 93 57 92 58 48 60 80 61 60 62 79 63 61 64
REMARK SMILES IDX 64 65 78 66 97 67 62 68 63 69 77 71 98 72 65 73 49 74 50 75
REMARK SMILES IDX 58 76 51 77 52 78 56 79 59 80 53 81 54 82 57 83 55 84 81 85
REMARK SMILES IDX 82 86 90 87 83 88 84 89 88 90 91 91 85 92 86 93 89 94 87 95
REMARK SMILES IDX 66 96 67 97 75 98 68 99 69 100 73 101 76 102 70 103 71 104
REMARK SMILES IDX 74 105 72 106
REMARK H PARENT 13 20 3 25 96 59 64 70
REMARK Flexibility Score: inf
ROOT
ATOM      1  C   UNL A   1      32.665  19.456  25.453  1.00  0.00     0.188 C 
ENDROOT
BRANCH   1   2
ATOM      2  O   UNL A   1      31.778  20.280  24.721  1.00  0.00    -0.376 OA
BRANCH   2   3
ATOM      3  C   UNL A   1      32.263  21.108  23.686  1.00  0.00     0.202 C 
BRANCH   3   4
ATOM      4  C   UNL A   1      31.418  22.335  23.306  1.00  0.00     0.261 C 
BRANCH   4   5
ATOM      5  O   UNL A   1      32.008  23.610  23.584  1.00  0.00    -0.462 OA
BRANCH   5   6
ATOM      6  C   UNL A   1      33.290  23.606  24.017  1.00  0.00     0.328 C 
ATOM      7  O   UNL A   1      34.251  23.468  23.266  1.00  0.00    -0.250 OA
BRANCH   6   8
ATOM      8  C   UNL A   1      33.399  24.069  25.487  1.00  0.00     0.195 C 
ATOM      9  N   UNL A   1      32.410  23.614  26.477  1.00  0.00    -0.327 N 
ATOM     10  C   UNL A   1      32.993  22.569  27.284  1.00  0.00     0.120 C 
ATOM     11  C   UNL A   1      34.457  22.942  27.377  1.00  0.00     0.024 C 
ATOM     12  C   UNL A   1      34.761  23.679  26.082  1.00  0.00     0.039 C 
BRANCH   9  13
ATOM     13  C   UNL A   1      31.165  24.196  26.602  1.00  0.00     0.245 C 
ATOM     14  O   UNL A   1      30.241  23.613  27.169  1.00  0.00    -0.272 OA
BRANCH  13  15
ATOM     15  C   UNL A   1      30.851  25.546  25.905  1.00  0.00     0.168 C 
ATOM     16  C   UNL A   1      31.329  26.723  26.751  1.00  0.00     0.041 C 
BRANCH  15  17
ATOM     17  N   UNL A   1      29.469  25.697  25.471  1.00  0.00    -0.343 N 
ATOM     18  C   UNL A   1      28.949  26.408  24.436  1.00  0.00     0.243 C 
ATOM     19  O   UNL A   1      27.756  26.211  24.176  1.00  0.00    -0.273 OA
ATOM     20  H   UNL A   1      28.809  25.207  26.012  1.00  0.00     0.164 HD
BRANCH  18  21
ATOM     21  C   UNL A   1      29.780  27.394  23.591  1.00  0.00     0.171 C 
ATOM     22  C   UNL A   1      28.903  28.449  22.930  1.00  0.00     0.042 C 
BRANCH  21  23
ATOM     23  N   UNL A   1      30.761  26.666  22.782  1.00  0.00    -0.310 N 
ATOM     24  C   UNL A   1      31.974  27.021  22.290  1.00  0.00     0.408 C 
ATOM     25  H   UNL A   1      30.489  25.749  22.551  1.00  0.00     0.167 HD
ATOM     26  O   UNL A   1      32.607  26.246  21.579  1.00  0.00    -0.225 OA
BRANCH  24  27
ATOM     27  O   UNL A   1      32.363  28.255  22.648  1.00  0.00    -0.444 OA
BRANCH  27  28
ATOM     28  C   UNL A   1      33.498  28.468  23.519  1.00  0.00     0.106 C 
ATOM     29  C   UNL A   1      34.733  28.908  22.724  1.00  0.00     0.056 C 
ATOM     30  C   UNL A   1      33.170  29.439  24.658  1.00  0.00     0.056 C 
ATOM     31  C   UNL A   1      33.771  27.091  24.130  1.00  0.00     0.056 C 
ENDBRANCH  27  28
ENDBRANCH  24  27
ENDBRANCH  21  23
ENDBRANCH  18  21
ENDBRANCH  15  17
ENDBRANCH  13  15
ENDBRANCH   9  13
ENDBRANCH   6   8
ENDBRANCH   5   6
ENDBRANCH   4   5
ENDBRANCH   3   4
ENDBRANCH   2   3
ENDBRANCH   1   2
BRANCH   1  32
ATOM     32  C   UNL A   1      33.720  18.695  24.608  1.00  0.00     0.188 C 
BRANCH  32  33
ATOM     33  O   UNL A   1      35.110  19.003  24.591  1.00  0.00    -0.377 OA
BRANCH  33  34
ATOM     34  C   UNL A   1      35.540  20.268  25.058  1.00  0.00     0.188 C 
BRANCH  34  35
ATOM     35  C   UNL A   1      36.898  20.724  24.489  1.00  0.00     0.188 C 
BRANCH  35  36
ATOM     36  O   UNL A   1      37.504  21.752  25.259  1.00  0.00    -0.376 OA
BRANCH  36  37
ATOM     37  C   UNL A   1      38.745  21.468  25.888  1.00  0.00     0.202 C 
BRANCH  37  38
ATOM     38  C   UNL A   1      39.440  20.103  25.709  1.00  0.00     0.261 C 
BRANCH  38  39
ATOM     39  O   UNL A   1      40.476  19.748  26.638  1.00  0.00    -0.460 OA
BRANCH  39  40
ATOM     40  C   UNL A   1      41.751  19.724  26.203  1.00  0.00     0.338 C 
ATOM     41  O   UNL A   1      42.296  18.851  25.555  1.00  0.00    -0.246 OA
BRANCH  40  42
ATOM     42  C   UNL A   1      42.336  21.053  26.497  1.00  0.00     0.060 A 
ATOM     43  C   UNL A   1      42.697  21.372  27.811  1.00  0.00     0.016 A 
ATOM     44  C   UNL A   1      42.537  21.977  25.470  1.00  0.00     0.016 A 
ATOM     45  C   UNL A   1      43.225  22.628  28.105  1.00  0.00     0.010 A 
ATOM     46  C   UNL A   1      43.076  23.233  25.761  1.00  0.00     0.010 A 
ATOM     47  C   UNL A   1      43.371  23.583  27.089  1.00  0.00    -0.014 A 
BRANCH  47  48
ATOM     48  C   UNL A   1      43.584  25.005  27.457  1.00  0.00     0.031 A 
ATOM     49  C   UNL A   1      44.947  25.600  27.212  1.00  0.00     0.074 A 
ATOM     50  C   UNL A   1      42.587  25.769  27.935  1.00  0.00     0.049 A 
ATOM     51  N   UNL A   1      45.382  26.814  27.435  1.00  0.00    -0.248 NA
ATOM     52  C   UNL A   1      45.961  24.697  26.642  1.00  0.00     0.031 C 
ATOM     53  C   UNL A   1      41.221  25.319  28.187  1.00  0.00     0.029 A 
ATOM     54  N   UNL A   1      42.577  27.096  28.293  1.00  0.00    -0.354 N 
ATOM     55  C   UNL A   1      46.715  26.813  27.043  1.00  0.00     0.074 A 
ATOM     56  C   UNL A   1      47.034  25.470  26.617  1.00  0.00     0.031 C 
ATOM     57  C   UNL A   1      40.501  26.354  28.655  1.00  0.00     0.029 A 
ATOM     58  C   UNL A   1      41.363  27.529  28.764  1.00  0.00     0.049 A 
ATOM     59  H   UNL A   1      43.366  27.679  28.219  1.00  0.00     0.167 HD
ATOM     60  C   UNL A   1      47.591  27.844  27.021  1.00  0.00     0.037 A 
ATOM     61  C   UNL A   1      41.000  28.736  29.242  1.00  0.00     0.037 A 
ATOM     62  C   UNL A   1      47.268  29.183  27.438  1.00  0.00     0.049 A 
ATOM     63  C   UNL A   1      42.012  29.855  29.263  1.00  0.00     0.074 A 
ATOM     64  C   UNL A   1      48.077  30.305  27.437  1.00  0.00     0.029 A 
ATOM     65  N   UNL A   1      46.036  29.576  27.939  1.00  0.00    -0.354 N 
ATOM     66  N   UNL A   1      43.261  29.856  28.861  1.00  0.00    -0.248 NA
ATOM     67  C   UNL A   1      41.558  31.148  29.797  1.00  0.00     0.031 C 
ATOM     68  C   UNL A   1      47.355  31.362  27.999  1.00  0.00     0.029 A 
ATOM     69  C   UNL A   1      46.072  30.919  28.277  1.00  0.00     0.049 A 
ATOM     70  H   UNL A   1      45.253  28.988  28.040  1.00  0.00     0.167 HD
ATOM     71  C   UNL A   1      43.727  31.150  29.057  1.00  0.00     0.074 A 
ATOM     72  C   UNL A   1      42.623  31.912  29.599  1.00  0.00     0.031 C 
ATOM     73  C   UNL A   1      44.959  31.666  28.808  1.00  0.00     0.037 A 
BRANCH  60  74
ATOM     74  C   UNL A   1      48.990  27.555  26.554  1.00  0.00     0.064 A 
ATOM     75  C   UNL A   1      50.031  27.276  27.453  1.00  0.00     0.173 A 
ATOM     76  C   UNL A   1      49.289  27.540  25.183  1.00  0.00     0.173 A 
ATOM     77  F   UNL A   1      49.805  27.295  28.776  1.00  0.00    -0.203 F 
ATOM     78  C   UNL A   1      51.323  27.023  26.998  1.00  0.00     0.198 A 
ATOM     79  C   UNL A   1      50.573  27.250  24.731  1.00  0.00     0.198 A 
ATOM     80  F   UNL A   1      48.332  27.800  24.279  1.00  0.00    -0.203 F 
ATOM     81  F   UNL A   1      52.313  26.815  27.879  1.00  0.00    -0.200 F 
ATOM     82  C   UNL A   1      51.590  27.000  25.638  1.00  0.00     0.200 A 
ATOM     83  F   UNL A   1      50.826  27.215  23.415  1.00  0.00    -0.200 F 
ATOM     84  F   UNL A   1      52.832  26.748  25.202  1.00  0.00    -0.200 F 
ENDBRANCH  60  74
BRANCH  61  85
ATOM     85  C   UNL A   1      39.615  28.958  29.739  1.00  0.00     0.064 A 
ATOM     86  C   UNL A   1      38.616  29.477  28.902  1.00  0.00     0.173 A 
ATOM     87  C   UNL A   1      39.268  28.682  31.070  1.00  0.00     0.173 A 
ATOM     88  F   UNL A   1      38.901  29.781  27.628  1.00  0.00    -0.203 F 
ATOM     89  C   UNL A   1      37.334  29.736  29.384  1.00  0.00     0.198 A 
ATOM     90  C   UNL A   1      37.977  28.910  31.542  1.00  0.00     0.198 A 
ATOM     91  F   UNL A   1      40.185  28.188  31.914  1.00  0.00    -0.203 F 
ATOM     92  F   UNL A   1      36.416  30.287  28.578  1.00  0.00    -0.200 F 
ATOM     93  C   UNL A   1      37.014  29.447  30.702  1.00  0.00     0.200 A 
ATOM     94  F   UNL A   1      37.669  28.617  32.813  1.00  0.00    -0.200 F 
ATOM     95  F   UNL A   1      35.780  29.695  31.165  1.00  0.00    -0.200 F 
ENDBRANCH  61  85
BRANCH  73  96
ATOM     96  C   UNL A   1      45.161  33.133  29.069  1.00  0.00     0.064 A 
ATOM     97  C   UNL A   1      44.869  34.108  28.103  1.00  0.00     0.173 A 
ATOM     98  C   UNL A   1      45.631  33.570  30.319  1.00  0.00     0.173 A 
ATOM     99  F   UNL A   1      44.426  33.746  26.890  1.00  0.00    -0.203 F 
ATOM    100  C   UNL A   1      45.080  35.460  28.364  1.00  0.00     0.198 A 
ATOM    101  C   UNL A   1      45.802  34.924  30.589  1.00  0.00     0.198 A 
ATOM    102  F   UNL A   1      45.914  32.682  31.284  1.00  0.00    -0.203 F 
ATOM    103  F   UNL A   1      44.857  36.367  27.404  1.00  0.00    -0.200 F 
ATOM    104  C   UNL A   1      45.540  35.867  29.607  1.00  0.00     0.200 A 
ATOM    105  F   UNL A   1      46.226  35.316  31.798  1.00  0.00    -0.200 F 
ATOM    106  F   UNL A   1      45.738  37.168  29.857  1.00  0.00    -0.200 F 
ENDBRANCH  73  96
ENDBRANCH  47  48
ENDBRANCH  40  42
ENDBRANCH  39  40
ENDBRANCH  38  39
ENDBRANCH  37  38
ENDBRANCH  36  37
ENDBRANCH  35  36
ENDBRANCH  34  35
ENDBRANCH  33  34
ENDBRANCH  32  33
ENDBRANCH   1  32
TORSDOF 27
ENDMDL
