MODEL 1
REMARK VINA RESULT:      -9.5      0.000      0.000
REMARK SMILES COC(=O)C[C@H](c1ccc(C(=O)OCCOCCOCCOCCOC(=O)c2ccc(-c3c4nc(c(-c5c(F)c(F)c(F)c(F)c5F)c5ccc([nH]5)c(-c5c(F)c(F)c(F)c(F)c5F)c5nc(c(-c6c(F)c(F)c(F)c(F)c6F)c6ccc3[nH]6)C=C5)C=C4)cc2)cc1)c1c(O)n[nH]c1C
REMARK SMILES IDX 18 1 17 2 16 3 15 4 14 5 13 6 11 7 12 8 10 9 7 10 8 11 92 12
REMARK SMILES IDX 9 13 91 14 6 15 5 16 3 17 4 18 2 19 1 20 93 21 94 22 98 23
REMARK SMILES IDX 96 24 97 25 99 26 95 28 19 30 20 31 21 32 22 33 23 34 24 35
REMARK SMILES IDX 25 36 26 37 27 38 28 39 29 40 90 41 30 42 89 43 31 44 32 45
REMARK SMILES IDX 33 46 83 47 34 48 88 49 82 50 84 51 35 52 87 53 81 54 80 55
REMARK SMILES IDX 36 57 68 58 48 59 67 60 49 61 52 62 66 63 85 64 50 65 51 66
REMARK SMILES IDX 65 68 86 69 53 70 37 71 38 72 46 73 39 74 40 75 44 76 47 77
REMARK SMILES IDX 41 78 42 79 45 80 43 81 69 82 70 83 78 84 71 85 72 86 76 87
REMARK SMILES IDX 79 88 73 89 74 90 77 91 75 92 54 93 55 94 63 95 56 96 57 97
REMARK SMILES IDX 61 98 64 99 58 100 59 101 62 102 60 103
REMARK H PARENT 97 27 95 29 84 56 52 67
REMARK Flexibility Score: inf
ROOT
ATOM      1  C   UNL A   1      33.573  30.946  27.389  1.00  0.00     0.188 C 
ENDROOT
BRANCH   1   2
ATOM      2  C   UNL A   1      32.942  29.745  26.652  1.00  0.00     0.188 C 
BRANCH   2   3
ATOM      3  O   UNL A   1      33.401  29.583  25.319  1.00  0.00    -0.376 OA
BRANCH   3   4
ATOM      4  C   UNL A   1      32.710  28.693  24.463  1.00  0.00     0.202 C 
BRANCH   4   5
ATOM      5  C   UNL A   1      31.202  28.501  24.683  1.00  0.00     0.261 C 
BRANCH   5   6
ATOM      6  O   UNL A   1      30.775  27.149  24.880  1.00  0.00    -0.460 OA
BRANCH   6   7
ATOM      7  C   UNL A   1      31.056  26.607  26.085  1.00  0.00     0.338 C 
ATOM      8  O   UNL A   1      30.741  27.063  27.171  1.00  0.00    -0.246 OA
BRANCH   7   9
ATOM      9  C   UNL A   1      31.633  25.258  25.877  1.00  0.00     0.060 A 
ATOM     10  C   UNL A   1      32.886  22.772  25.475  1.00  0.00    -0.040 A 
ATOM     11  C   UNL A   1      33.348  23.659  26.463  1.00  0.00     0.005 A 
ATOM     12  C   UNL A   1      31.714  23.109  24.769  1.00  0.00     0.005 A 
ATOM     13  C   UNL A   1      32.734  24.894  26.656  1.00  0.00     0.016 A 
ATOM     14  C   UNL A   1      31.092  24.345  24.966  1.00  0.00     0.016 A 
BRANCH  10  15
ATOM     15  C   UNL A   1      33.773  21.651  24.942  1.00  0.00     0.068 C 
BRANCH  15  16
ATOM     16  C   UNL A   1      32.934  20.650  24.129  1.00  0.00     0.136 C 
BRANCH  16  17
ATOM     17  C   UNL A   1      33.277  19.225  24.485  1.00  0.00     0.306 C 
ATOM     18  O   UNL A   1      34.413  18.769  24.474  1.00  0.00    -0.252 OA
BRANCH  17  19
ATOM     19  O   UNL A   1      32.160  18.534  24.847  1.00  0.00    -0.469 OA
ATOM     20  C   UNL A   1      32.427  17.218  25.338  1.00  0.00     0.282 C 
ENDBRANCH  17  19
ENDBRANCH  16  17
ENDBRANCH  15  16
BRANCH  15  21
ATOM     21  C   UNL A   1      34.961  22.166  24.172  1.00  0.00     0.044 A 
ATOM     22  C   UNL A   1      35.106  22.995  23.044  1.00  0.00     0.234 A 
ATOM     23  C   UNL A   1      36.290  21.843  24.459  1.00  0.00     0.040 A 
ATOM     24  N   UNL A   1      36.352  23.182  22.636  1.00  0.00    -0.137 NA
ATOM     25  N   UNL A   1      37.063  22.464  23.516  1.00  0.00    -0.279 N 
ATOM     26  C   UNL A   1      36.893  21.000  25.521  1.00  0.00     0.066 C 
ATOM     27  H   UNL A   1      38.045  22.391  23.486  1.00  0.00     0.190 HD
BRANCH  22  28
ATOM     28  O   UNL A   1      34.208  23.620  22.291  1.00  0.00    -0.492 OA
ATOM     29  H   UNL A   1      33.542  24.141  22.693  1.00  0.00     0.295 HD
ENDBRANCH  22  28
ENDBRANCH  15  21
ENDBRANCH  10  15
ENDBRANCH   7   9
ENDBRANCH   6   7
ENDBRANCH   5   6
ENDBRANCH   4   5
ENDBRANCH   3   4
ENDBRANCH   2   3
ENDBRANCH   1   2
BRANCH   1  30
ATOM     30  O   UNL A   1      34.972  30.936  27.639  1.00  0.00    -0.377 OA
BRANCH  30  31
ATOM     31  C   UNL A   1      35.544  31.910  28.509  1.00  0.00     0.188 C 
BRANCH  31  32
ATOM     32  C   UNL A   1      34.676  32.812  29.420  1.00  0.00     0.188 C 
BRANCH  32  33
ATOM     33  O   UNL A   1      34.541  32.356  30.752  1.00  0.00    -0.376 OA
BRANCH  33  34
ATOM     34  C   UNL A   1      35.666  32.465  31.604  1.00  0.00     0.202 C 
BRANCH  34  35
ATOM     35  C   UNL A   1      35.924  31.299  32.567  1.00  0.00     0.261 C 
BRANCH  35  36
ATOM     36  O   UNL A   1      36.246  30.036  31.962  1.00  0.00    -0.460 OA
BRANCH  36  37
ATOM     37  C   UNL A   1      37.367  29.409  32.379  1.00  0.00     0.338 C 
ATOM     38  O   UNL A   1      37.443  28.368  33.009  1.00  0.00    -0.246 OA
BRANCH  37  39
ATOM     39  C   UNL A   1      38.516  30.114  31.774  1.00  0.00     0.060 A 
ATOM     40  C   UNL A   1      38.531  30.352  30.392  1.00  0.00     0.016 A 
ATOM     41  C   UNL A   1      39.565  30.564  32.579  1.00  0.00     0.016 A 
ATOM     42  C   UNL A   1      39.606  31.027  29.811  1.00  0.00     0.010 A 
ATOM     43  C   UNL A   1      40.650  31.217  31.992  1.00  0.00     0.010 A 
ATOM     44  C   UNL A   1      40.689  31.432  30.604  1.00  0.00    -0.014 A 
BRANCH  44  45
ATOM     45  C   UNL A   1      41.933  31.930  29.971  1.00  0.00     0.031 A 
ATOM     46  C   UNL A   1      42.950  30.928  29.501  1.00  0.00     0.074 A 
ATOM     47  C   UNL A   1      42.162  33.246  29.818  1.00  0.00     0.049 A 
ATOM     48  N   UNL A   1      44.144  31.121  29.001  1.00  0.00    -0.248 NA
ATOM     49  C   UNL A   1      42.567  29.513  29.615  1.00  0.00     0.031 C 
ATOM     50  C   UNL A   1      41.237  34.313  30.192  1.00  0.00     0.029 A 
ATOM     51  N   UNL A   1      43.258  33.908  29.321  1.00  0.00    -0.354 N 
ATOM     52  C   UNL A   1      44.655  29.854  28.751  1.00  0.00     0.074 A 
ATOM     53  C   UNL A   1      43.656  28.900  29.180  1.00  0.00     0.031 C 
ATOM     54  C   UNL A   1      41.812  35.499  29.926  1.00  0.00     0.029 A 
ATOM     55  C   UNL A   1      43.159  35.274  29.403  1.00  0.00     0.049 A 
ATOM     56  H   UNL A   1      44.040  33.446  28.941  1.00  0.00     0.167 HD
ATOM     57  C   UNL A   1      45.850  29.520  28.206  1.00  0.00     0.037 A 
ATOM     58  C   UNL A   1      44.066  36.230  29.118  1.00  0.00     0.037 A 
ATOM     59  C   UNL A   1      46.842  30.474  27.788  1.00  0.00     0.049 A 
ATOM     60  C   UNL A   1      45.424  35.829  28.597  1.00  0.00     0.074 A 
ATOM     61  C   UNL A   1      48.077  30.237  27.208  1.00  0.00     0.029 A 
ATOM     62  N   UNL A   1      46.721  31.850  27.919  1.00  0.00    -0.354 N 
ATOM     63  N   UNL A   1      45.894  34.632  28.337  1.00  0.00    -0.248 NA
ATOM     64  C   UNL A   1      46.379  36.915  28.331  1.00  0.00     0.031 C 
ATOM     65  C   UNL A   1      48.728  31.464  27.049  1.00  0.00     0.029 A 
ATOM     66  C   UNL A   1      47.873  32.472  27.464  1.00  0.00     0.049 A 
ATOM     67  H   UNL A   1      45.933  32.316  28.282  1.00  0.00     0.167 HD
ATOM     68  C   UNL A   1      47.181  34.822  27.849  1.00  0.00     0.074 A 
ATOM     69  C   UNL A   1      47.413  36.251  27.834  1.00  0.00     0.031 C 
ATOM     70  C   UNL A   1      48.090  33.897  27.450  1.00  0.00     0.037 A 
BRANCH  57  71
ATOM     71  C   UNL A   1      46.162  28.058  28.064  1.00  0.00     0.064 A 
ATOM     72  C   UNL A   1      45.861  27.345  26.893  1.00  0.00     0.173 A 
ATOM     73  C   UNL A   1      46.803  27.367  29.105  1.00  0.00     0.173 A 
ATOM     74  F   UNL A   1      45.236  27.954  25.874  1.00  0.00    -0.203 F 
ATOM     75  C   UNL A   1      46.165  25.991  26.780  1.00  0.00     0.198 A 
ATOM     76  C   UNL A   1      47.136  26.022  28.975  1.00  0.00     0.198 A 
ATOM     77  F   UNL A   1      47.117  28.001  30.244  1.00  0.00    -0.203 F 
ATOM     78  F   UNL A   1      45.822  25.319  25.672  1.00  0.00    -0.200 F 
ATOM     79  C   UNL A   1      46.809  25.333  27.817  1.00  0.00     0.200 A 
ATOM     80  F   UNL A   1      47.772  25.392  29.972  1.00  0.00    -0.200 F 
ATOM     81  F   UNL A   1      47.110  24.032  27.703  1.00  0.00    -0.200 F 
ENDBRANCH  57  71
BRANCH  58  82
ATOM     82  C   UNL A   1      43.734  37.664  29.340  1.00  0.00     0.064 A 
ATOM     83  C   UNL A   1      43.980  38.283  30.574  1.00  0.00     0.173 A 
ATOM     84  C   UNL A   1      43.135  38.436  28.334  1.00  0.00     0.173 A 
ATOM     85  F   UNL A   1      44.523  37.580  31.579  1.00  0.00    -0.203 F 
ATOM     86  C   UNL A   1      43.622  39.611  30.799  1.00  0.00     0.198 A 
ATOM     87  C   UNL A   1      42.808  39.773  28.549  1.00  0.00     0.198 A 
ATOM     88  F   UNL A   1      42.870  37.893  27.136  1.00  0.00    -0.203 F 
ATOM     89  F   UNL A   1      43.817  40.160  32.005  1.00  0.00    -0.200 F 
ATOM     90  C   UNL A   1      43.042  40.357  29.785  1.00  0.00     0.200 A 
ATOM     91  F   UNL A   1      42.259  40.494  27.561  1.00  0.00    -0.200 F 
ATOM     92  F   UNL A   1      42.700  41.635  30.001  1.00  0.00    -0.200 F 
ENDBRANCH  58  82
BRANCH  70  93
ATOM     93  C   UNL A   1      49.407  34.400  26.926  1.00  0.00     0.064 A 
ATOM     94  C   UNL A   1      49.543  34.892  25.618  1.00  0.00     0.173 A 
ATOM     95  C   UNL A   1      50.539  34.426  27.756  1.00  0.00     0.173 A 
ATOM     96  F   UNL A   1      48.498  34.879  24.779  1.00  0.00    -0.203 F 
ATOM     97  C   UNL A   1      50.771  35.362  25.155  1.00  0.00     0.198 A 
ATOM     98  C   UNL A   1      51.754  34.930  27.300  1.00  0.00     0.198 A 
ATOM     99  F   UNL A   1      50.462  33.976  29.017  1.00  0.00    -0.203 F 
ATOM    100  F   UNL A   1      50.890  35.775  23.886  1.00  0.00    -0.200 F 
ATOM    101  C   UNL A   1      51.871  35.389  25.997  1.00  0.00     0.200 A 
ATOM    102  F   UNL A   1      52.811  34.971  28.123  1.00  0.00    -0.200 F 
ATOM    103  F   UNL A   1      53.048  35.849  25.552  1.00  0.00    -0.200 F 
ENDBRANCH  70  93
ENDBRANCH  44  45
ENDBRANCH  37  39
ENDBRANCH  36  37
ENDBRANCH  35  36
ENDBRANCH  34  35
ENDBRANCH  33  34
ENDBRANCH  32  33
ENDBRANCH  31  32
ENDBRANCH  30  31
ENDBRANCH   1  30
TORSDOF 26
ENDMDL
MODEL 2
REMARK VINA RESULT:      -9.1      6.695     11.000
REMARK SMILES COC(=O)C[C@H](c1ccc(C(=O)OCCOCCOCCOCCOC(=O)c2ccc(-c3c4nc(c(-c5c(F)c(F)c(F)c(F)c5F)c5ccc([nH]5)c(-c5c(F)c(F)c(F)c(F)c5F)c5nc(c(-c6c(F)c(F)c(F)c(F)c6F)c6ccc3[nH]6)C=C5)C=C4)cc2)cc1)c1c(O)n[nH]c1C
REMARK SMILES IDX 18 1 17 2 16 3 15 4 14 5 13 6 11 7 12 8 10 9 7 10 8 11 92 12
REMARK SMILES IDX 9 13 91 14 6 15 5 16 3 17 4 18 2 19 1 20 93 21 94 22 98 23
REMARK SMILES IDX 96 24 97 25 99 26 95 28 19 30 20 31 21 32 22 33 23 34 24 35
REMARK SMILES IDX 25 36 26 37 27 38 28 39 29 40 90 41 30 42 89 43 31 44 32 45
REMARK SMILES IDX 33 46 83 47 34 48 88 49 82 50 84 51 35 52 87 53 81 54 80 55
REMARK SMILES IDX 36 57 68 58 48 59 67 60 49 61 52 62 66 63 85 64 50 65 51 66
REMARK SMILES IDX 65 68 86 69 53 70 37 71 38 72 46 73 39 74 40 75 44 76 47 77
REMARK SMILES IDX 41 78 42 79 45 80 43 81 69 82 70 83 78 84 71 85 72 86 76 87
REMARK SMILES IDX 79 88 73 89 74 90 77 91 75 92 54 93 55 94 63 95 56 96 57 97
REMARK SMILES IDX 61 98 64 99 58 100 59 101 62 102 60 103
REMARK H PARENT 97 27 95 29 84 56 52 67
REMARK Flexibility Score: inf
ROOT
ATOM      1  C   UNL A   1      32.038  28.229  27.265  1.00  0.00     0.188 C 
ENDROOT
BRANCH   1   2
ATOM      2  C   UNL A   1      31.339  27.506  26.093  1.00  0.00     0.188 C 
BRANCH   2   3
ATOM      3  O   UNL A   1      31.492  28.157  24.842  1.00  0.00    -0.376 OA
BRANCH   3   4
ATOM      4  C   UNL A   1      30.687  27.743  23.755  1.00  0.00     0.202 C 
BRANCH   4   5
ATOM      5  C   UNL A   1      31.346  27.616  22.372  1.00  0.00     0.261 C 
BRANCH   5   6
ATOM      6  O   UNL A   1      31.272  26.319  21.771  1.00  0.00    -0.460 OA
BRANCH   6   7
ATOM      7  C   UNL A   1      32.450  25.686  21.580  1.00  0.00     0.338 C 
ATOM      8  O   UNL A   1      33.436  26.148  21.031  1.00  0.00    -0.246 OA
BRANCH   7   9
ATOM      9  C   UNL A   1      32.431  24.408  22.329  1.00  0.00     0.060 A 
ATOM     10  C   UNL A   1      32.371  22.074  23.898  1.00  0.00    -0.040 A 
ATOM     11  C   UNL A   1      31.373  23.054  24.029  1.00  0.00     0.005 A 
ATOM     12  C   UNL A   1      33.338  22.235  22.886  1.00  0.00     0.005 A 
ATOM     13  C   UNL A   1      31.406  24.215  23.260  1.00  0.00     0.016 A 
ATOM     14  C   UNL A   1      33.370  23.395  22.107  1.00  0.00     0.016 A 
BRANCH  10  15
ATOM     15  C   UNL A   1      32.617  21.044  24.997  1.00  0.00     0.068 C 
BRANCH  15  16
ATOM     16  C   UNL A   1      33.381  19.835  24.431  1.00  0.00     0.136 C 
BRANCH  16  17
ATOM     17  C   UNL A   1      32.450  18.689  24.122  1.00  0.00     0.306 C 
ATOM     18  O   UNL A   1      32.127  18.354  22.990  1.00  0.00    -0.252 OA
BRANCH  17  19
ATOM     19  O   UNL A   1      32.050  18.068  25.266  1.00  0.00    -0.469 OA
ATOM     20  C   UNL A   1      32.656  16.790  25.474  1.00  0.00     0.282 C 
ENDBRANCH  17  19
ENDBRANCH  16  17
ENDBRANCH  15  16
BRANCH  15  21
ATOM     21  C   UNL A   1      33.290  21.634  26.208  1.00  0.00     0.044 A 
ATOM     22  C   UNL A   1      32.816  22.220  27.396  1.00  0.00     0.234 A 
ATOM     23  C   UNL A   1      34.673  21.745  26.369  1.00  0.00     0.040 A 
ATOM     24  N   UNL A   1      33.752  22.668  28.219  1.00  0.00    -0.137 NA
ATOM     25  N   UNL A   1      34.885  22.370  27.569  1.00  0.00    -0.279 N 
ATOM     26  C   UNL A   1      35.805  21.334  25.500  1.00  0.00     0.066 C 
ATOM     27  H   UNL A   1      35.781  22.579  27.920  1.00  0.00     0.190 HD
BRANCH  22  28
ATOM     28  O   UNL A   1      31.583  22.427  27.844  1.00  0.00    -0.492 OA
ATOM     29  H   UNL A   1      31.447  22.906  28.637  1.00  0.00     0.295 HD
ENDBRANCH  22  28
ENDBRANCH  15  21
ENDBRANCH  10  15
ENDBRANCH   7   9
ENDBRANCH   6   7
ENDBRANCH   5   6
ENDBRANCH   4   5
ENDBRANCH   3   4
ENDBRANCH   2   3
ENDBRANCH   1   2
BRANCH   1  30
ATOM     30  O   UNL A   1      33.162  29.053  26.986  1.00  0.00    -0.377 OA
BRANCH  30  31
ATOM     31  C   UNL A   1      33.018  30.472  26.980  1.00  0.00     0.188 C 
BRANCH  31  32
ATOM     32  C   UNL A   1      33.969  31.399  27.775  1.00  0.00     0.188 C 
BRANCH  32  33
ATOM     33  O   UNL A   1      35.341  31.252  27.461  1.00  0.00    -0.376 OA
BRANCH  33  34
ATOM     34  C   UNL A   1      36.137  30.470  28.333  1.00  0.00     0.202 C 
BRANCH  34  35
ATOM     35  C   UNL A   1      37.210  31.209  29.144  1.00  0.00     0.261 C 
BRANCH  35  36
ATOM     36  O   UNL A   1      36.811  32.455  29.738  1.00  0.00    -0.460 OA
BRANCH  36  37
ATOM     37  C   UNL A   1      36.140  32.405  30.908  1.00  0.00     0.338 C 
ATOM     38  O   UNL A   1      34.932  32.383  31.070  1.00  0.00    -0.246 OA
BRANCH  37  39
ATOM     39  C   UNL A   1      37.138  32.194  31.979  1.00  0.00     0.060 A 
ATOM     40  C   UNL A   1      38.443  32.679  31.811  1.00  0.00     0.016 A 
ATOM     41  C   UNL A   1      36.772  31.541  33.158  1.00  0.00     0.016 A 
ATOM     42  C   UNL A   1      39.390  32.495  32.820  1.00  0.00     0.010 A 
ATOM     43  C   UNL A   1      37.728  31.338  34.155  1.00  0.00     0.010 A 
ATOM     44  C   UNL A   1      39.047  31.792  33.982  1.00  0.00    -0.014 A 
BRANCH  44  45
ATOM     45  C   UNL A   1      40.097  31.385  34.947  1.00  0.00     0.031 A 
ATOM     46  C   UNL A   1      40.429  32.315  36.080  1.00  0.00     0.074 A 
ATOM     47  C   UNL A   1      40.749  30.216  34.820  1.00  0.00     0.049 A 
ATOM     48  N   UNL A   1      41.362  32.220  36.992  1.00  0.00    -0.248 NA
ATOM     49  C   UNL A   1      39.593  33.520  36.197  1.00  0.00     0.031 C 
ATOM     50  C   UNL A   1      40.489  29.212  33.792  1.00  0.00     0.029 A 
ATOM     51  N   UNL A   1      41.780  29.686  35.557  1.00  0.00    -0.354 N 
ATOM     52  C   UNL A   1      41.231  33.354  37.783  1.00  0.00     0.074 A 
ATOM     53  C   UNL A   1      40.149  34.137  37.228  1.00  0.00     0.031 C 
ATOM     54  C   UNL A   1      41.350  28.192  33.953  1.00  0.00     0.029 A 
ATOM     55  C   UNL A   1      42.247  28.492  35.069  1.00  0.00     0.049 A 
ATOM     56  H   UNL A   1      42.147  30.122  36.361  1.00  0.00     0.167 HD
ATOM     57  C   UNL A   1      41.948  33.706  38.877  1.00  0.00     0.037 A 
ATOM     58  C   UNL A   1      43.300  27.746  35.460  1.00  0.00     0.037 A 
ATOM     59  C   UNL A   1      43.028  32.927  39.421  1.00  0.00     0.049 A 
ATOM     60  C   UNL A   1      44.139  28.205  36.627  1.00  0.00     0.074 A 
ATOM     61  C   UNL A   1      43.804  33.188  40.537  1.00  0.00     0.029 A 
ATOM     62  N   UNL A   1      43.497  31.739  38.878  1.00  0.00    -0.354 N 
ATOM     63  N   UNL A   1      43.995  29.264  37.388  1.00  0.00    -0.248 NA
ATOM     64  C   UNL A   1      45.288  27.362  36.988  1.00  0.00     0.031 C 
ATOM     65  C   UNL A   1      44.783  32.194  40.631  1.00  0.00     0.029 A 
ATOM     66  C   UNL A   1      44.575  31.274  39.616  1.00  0.00     0.049 A 
ATOM     67  H   UNL A   1      43.120  31.292  38.086  1.00  0.00     0.167 HD
ATOM     68  C   UNL A   1      45.012  29.198  38.333  1.00  0.00     0.074 A 
ATOM     69  C   UNL A   1      45.756  27.986  38.060  1.00  0.00     0.031 C 
ATOM     70  C   UNL A   1      45.305  30.063  39.336  1.00  0.00     0.037 A 
BRANCH  57  71
ATOM     71  C   UNL A   1      41.606  35.011  39.539  1.00  0.00     0.064 A 
ATOM     72  C   UNL A   1      42.270  36.204  39.214  1.00  0.00     0.173 A 
ATOM     73  C   UNL A   1      40.576  35.073  40.491  1.00  0.00     0.173 A 
ATOM     74  F   UNL A   1      43.271  36.198  38.321  1.00  0.00    -0.203 F 
ATOM     75  C   UNL A   1      41.933  37.403  39.836  1.00  0.00     0.198 A 
ATOM     76  C   UNL A   1      40.220  36.279  41.086  1.00  0.00     0.198 A 
ATOM     77  F   UNL A   1      39.907  33.963  40.836  1.00  0.00    -0.203 F 
ATOM     78  F   UNL A   1      42.615  38.521  39.546  1.00  0.00    -0.200 F 
ATOM     79  C   UNL A   1      40.904  37.442  40.764  1.00  0.00     0.200 A 
ATOM     80  F   UNL A   1      39.215  36.318  41.971  1.00  0.00    -0.200 F 
ATOM     81  F   UNL A   1      40.575  38.599  41.355  1.00  0.00    -0.200 F 
ENDBRANCH  57  71
BRANCH  58  82
ATOM     82  C   UNL A   1      43.640  26.495  34.729  1.00  0.00     0.064 A 
ATOM     83  C   UNL A   1      44.459  26.519  33.591  1.00  0.00     0.173 A 
ATOM     84  C   UNL A   1      43.127  25.253  35.134  1.00  0.00     0.173 A 
ATOM     85  F   UNL A   1      44.949  27.685  33.144  1.00  0.00    -0.203 F 
ATOM     86  C   UNL A   1      44.735  25.355  32.876  1.00  0.00     0.198 A 
ATOM     87  C   UNL A   1      43.432  24.085  34.438  1.00  0.00     0.198 A 
ATOM     88  F   UNL A   1      42.333  25.172  36.212  1.00  0.00    -0.203 F 
ATOM     89  F   UNL A   1      45.475  25.417  31.761  1.00  0.00    -0.200 F 
ATOM     90  C   UNL A   1      44.228  24.138  33.304  1.00  0.00     0.200 A 
ATOM     91  F   UNL A   1      42.948  22.909  34.862  1.00  0.00    -0.200 F 
ATOM     92  F   UNL A   1      44.495  23.019  32.617  1.00  0.00    -0.200 F 
ENDBRANCH  58  82
BRANCH  70  93
ATOM     93  C   UNL A   1      46.454  29.715  40.240  1.00  0.00     0.064 A 
ATOM     94  C   UNL A   1      47.751  30.200  40.010  1.00  0.00     0.173 A 
ATOM     95  C   UNL A   1      46.248  28.915  41.376  1.00  0.00     0.173 A 
ATOM     96  F   UNL A   1      48.008  30.958  38.933  1.00  0.00    -0.203 F 
ATOM     97  C   UNL A   1      48.801  29.872  40.866  1.00  0.00     0.198 A 
ATOM     98  C   UNL A   1      47.292  28.621  42.248  1.00  0.00     0.198 A 
ATOM     99  F   UNL A   1      45.026  28.432  41.649  1.00  0.00    -0.203 F 
ATOM    100  F   UNL A   1      50.041  30.302  40.595  1.00  0.00    -0.200 F 
ATOM    101  C   UNL A   1      48.569  29.092  41.987  1.00  0.00     0.200 A 
ATOM    102  F   UNL A   1      47.060  27.881  43.341  1.00  0.00    -0.200 F 
ATOM    103  F   UNL A   1      49.579  28.785  42.813  1.00  0.00    -0.200 F 
ENDBRANCH  70  93
ENDBRANCH  44  45
ENDBRANCH  37  39
ENDBRANCH  36  37
ENDBRANCH  35  36
ENDBRANCH  34  35
ENDBRANCH  33  34
ENDBRANCH  32  33
ENDBRANCH  31  32
ENDBRANCH  30  31
ENDBRANCH   1  30
TORSDOF 26
ENDMDL
MODEL 3
REMARK VINA RESULT:      -9.0      0.770      7.081
REMARK SMILES COC(=O)C[C@H](c1ccc(C(=O)OCCOCCOCCOCCOC(=O)c2ccc(-c3c4nc(c(-c5c(F)c(F)c(F)c(F)c5F)c5ccc([nH]5)c(-c5c(F)c(F)c(F)c(F)c5F)c5nc(c(-c6c(F)c(F)c(F)c(F)c6F)c6ccc3[nH]6)C=C5)C=C4)cc2)cc1)c1c(O)n[nH]c1C
REMARK SMILES IDX 18 1 17 2 16 3 15 4 14 5 13 6 11 7 12 8 10 9 7 10 8 11 92 12
REMARK SMILES IDX 9 13 91 14 6 15 5 16 3 17 4 18 2 19 1 20 93 21 94 22 98 23
REMARK SMILES IDX 96 24 97 25 99 26 95 28 19 30 20 31 21 32 22 33 23 34 24 35
REMARK SMILES IDX 25 36 26 37 27 38 28 39 29 40 90 41 30 42 89 43 31 44 32 45
REMARK SMILES IDX 33 46 83 47 34 48 88 49 82 50 84 51 35 52 87 53 81 54 80 55
REMARK SMILES IDX 36 57 68 58 48 59 67 60 49 61 52 62 66 63 85 64 50 65 51 66
REMARK SMILES IDX 65 68 86 69 53 70 37 71 38 72 46 73 39 74 40 75 44 76 47 77
REMARK SMILES IDX 41 78 42 79 45 80 43 81 69 82 70 83 78 84 71 85 72 86 76 87
REMARK SMILES IDX 79 88 73 89 74 90 77 91 75 92 54 93 55 94 63 95 56 96 57 97
REMARK SMILES IDX 61 98 64 99 58 100 59 101 62 102 60 103
REMARK H PARENT 97 27 95 29 84 56 52 67
REMARK Flexibility Score: inf
ROOT
ATOM      1  C   UNL A   1      33.637  30.783  27.245  1.00  0.00     0.188 C 
ENDROOT
BRANCH   1   2
ATOM      2  C   UNL A   1      33.123  29.529  26.504  1.00  0.00     0.188 C 
BRANCH   2   3
ATOM      3  O   UNL A   1      33.220  29.616  25.091  1.00  0.00    -0.376 OA
BRANCH   3   4
ATOM      4  C   UNL A   1      32.539  28.660  24.301  1.00  0.00     0.202 C 
BRANCH   4   5
ATOM      5  C   UNL A   1      31.041  28.440  24.563  1.00  0.00     0.261 C 
BRANCH   5   6
ATOM      6  O   UNL A   1      30.650  27.084  24.802  1.00  0.00    -0.460 OA
BRANCH   6   7
ATOM      7  C   UNL A   1      30.984  26.575  26.008  1.00  0.00     0.338 C 
ATOM      8  O   UNL A   1      30.768  27.089  27.092  1.00  0.00    -0.246 OA
BRANCH   7   9
ATOM      9  C   UNL A   1      31.473  25.188  25.821  1.00  0.00     0.060 A 
ATOM     10  C   UNL A   1      32.564  22.623  25.444  1.00  0.00    -0.040 A 
ATOM     11  C   UNL A   1      33.131  23.517  26.368  1.00  0.00     0.005 A 
ATOM     12  C   UNL A   1      31.371  23.000  24.795  1.00  0.00     0.005 A 
ATOM     13  C   UNL A   1      32.598  24.792  26.548  1.00  0.00     0.016 A 
ATOM     14  C   UNL A   1      30.830  24.275  24.979  1.00  0.00     0.016 A 
BRANCH  10  15
ATOM     15  C   UNL A   1      33.355  21.436  24.904  1.00  0.00     0.068 C 
BRANCH  15  16
ATOM     16  C   UNL A   1      32.532  20.686  23.843  1.00  0.00     0.136 C 
BRANCH  16  17
ATOM     17  C   UNL A   1      32.442  19.212  24.152  1.00  0.00     0.306 C 
ATOM     18  O   UNL A   1      32.254  18.757  25.273  1.00  0.00    -0.252 OA
BRANCH  17  19
ATOM     19  O   UNL A   1      32.568  18.470  23.017  1.00  0.00    -0.469 OA
ATOM     20  C   UNL A   1      33.152  17.183  23.229  1.00  0.00     0.282 C 
ENDBRANCH  17  19
ENDBRANCH  16  17
ENDBRANCH  15  16
BRANCH  15  21
ATOM     21  C   UNL A   1      34.721  21.825  24.404  1.00  0.00     0.044 A 
ATOM     22  C   UNL A   1      36.026  21.386  24.693  1.00  0.00     0.234 A 
ATOM     23  C   UNL A   1      34.963  22.839  23.473  1.00  0.00     0.040 A 
ATOM     24  N   UNL A   1      36.994  22.026  24.055  1.00  0.00    -0.137 NA
ATOM     25  N   UNL A   1      36.320  22.916  23.314  1.00  0.00    -0.279 N 
ATOM     26  C   UNL A   1      34.044  23.742  22.736  1.00  0.00     0.066 C 
ATOM     27  H   UNL A   1      36.759  23.562  22.714  1.00  0.00     0.190 HD
BRANCH  22  28
ATOM     28  O   UNL A   1      36.474  20.443  25.515  1.00  0.00    -0.492 OA
ATOM     29  H   UNL A   1      35.874  19.838  25.905  1.00  0.00     0.295 HD
ENDBRANCH  22  28
ENDBRANCH  15  21
ENDBRANCH  10  15
ENDBRANCH   7   9
ENDBRANCH   6   7
ENDBRANCH   5   6
ENDBRANCH   4   5
ENDBRANCH   3   4
ENDBRANCH   2   3
ENDBRANCH   1   2
BRANCH   1  30
ATOM     30  O   UNL A   1      35.040  30.973  27.373  1.00  0.00    -0.377 OA
BRANCH  30  31
ATOM     31  C   UNL A   1      35.542  32.016  28.205  1.00  0.00     0.188 C 
BRANCH  31  32
ATOM     32  C   UNL A   1      34.615  33.082  28.838  1.00  0.00     0.188 C 
BRANCH  32  33
ATOM     33  O   UNL A   1      34.258  32.834  30.184  1.00  0.00    -0.376 OA
BRANCH  33  34
ATOM     34  C   UNL A   1      35.261  32.983  31.171  1.00  0.00     0.202 C 
BRANCH  34  35
ATOM     35  C   UNL A   1      35.586  31.749  32.024  1.00  0.00     0.261 C 
BRANCH  35  36
ATOM     36  O   UNL A   1      36.143  30.624  31.325  1.00  0.00    -0.460 OA
BRANCH  36  37
ATOM     37  C   UNL A   1      37.113  29.919  31.945  1.00  0.00     0.338 C 
ATOM     38  O   UNL A   1      36.982  28.907  32.613  1.00  0.00    -0.246 OA
BRANCH  37  39
ATOM     39  C   UNL A   1      38.410  30.486  31.520  1.00  0.00     0.060 A 
ATOM     40  C   UNL A   1      38.614  30.806  30.170  1.00  0.00     0.016 A 
ATOM     41  C   UNL A   1      39.412  30.726  32.462  1.00  0.00     0.016 A 
ATOM     42  C   UNL A   1      39.831  31.352  29.758  1.00  0.00     0.010 A 
ATOM     43  C   UNL A   1      40.637  31.250  32.043  1.00  0.00     0.010 A 
ATOM     44  C   UNL A   1      40.861  31.544  30.687  1.00  0.00    -0.014 A 
BRANCH  44  45
ATOM     45  C   UNL A   1      42.226  31.895  30.227  1.00  0.00     0.031 A 
ATOM     46  C   UNL A   1      42.602  33.348  30.139  1.00  0.00     0.074 A 
ATOM     47  C   UNL A   1      43.117  30.946  29.890  1.00  0.00     0.049 A 
ATOM     48  N   UNL A   1      43.697  33.901  29.684  1.00  0.00    -0.248 NA
ATOM     49  C   UNL A   1      41.600  34.308  30.627  1.00  0.00     0.031 C 
ATOM     50  C   UNL A   1      42.889  29.506  29.974  1.00  0.00     0.029 A 
ATOM     51  N   UNL A   1      44.391  31.058  29.390  1.00  0.00    -0.354 N 
ATOM     52  C   UNL A   1      43.511  35.270  29.824  1.00  0.00     0.074 A 
ATOM     53  C   UNL A   1      42.189  35.466  30.377  1.00  0.00     0.031 C 
ATOM     54  C   UNL A   1      43.982  28.865  29.524  1.00  0.00     0.029 A 
ATOM     55  C   UNL A   1      44.969  29.851  29.083  1.00  0.00     0.049 A 
ATOM     56  H   UNL A   1      44.848  31.922  29.265  1.00  0.00     0.167 HD
ATOM     57  C   UNL A   1      44.371  36.273  29.522  1.00  0.00     0.037 A 
ATOM     58  C   UNL A   1      46.146  29.578  28.484  1.00  0.00     0.037 A 
ATOM     59  C   UNL A   1      45.683  36.072  28.965  1.00  0.00     0.049 A 
ATOM     60  C   UNL A   1      47.048  30.716  28.074  1.00  0.00     0.074 A 
ATOM     61  C   UNL A   1      46.637  37.021  28.641  1.00  0.00     0.029 A 
ATOM     62  N   UNL A   1      46.221  34.837  28.635  1.00  0.00    -0.354 N 
ATOM     63  N   UNL A   1      46.881  32.008  28.232  1.00  0.00    -0.248 NA
ATOM     64  C   UNL A   1      48.304  30.356  27.402  1.00  0.00     0.031 C 
ATOM     65  C   UNL A   1      47.724  36.365  28.054  1.00  0.00     0.029 A 
ATOM     66  C   UNL A   1      47.479  35.002  28.077  1.00  0.00     0.049 A 
ATOM     67  H   UNL A   1      45.774  33.970  28.775  1.00  0.00     0.167 HD
ATOM     68  C   UNL A   1      48.019  32.610  27.709  1.00  0.00     0.074 A 
ATOM     69  C   UNL A   1      48.878  31.541  27.244  1.00  0.00     0.031 C 
ATOM     70  C   UNL A   1      48.326  33.928  27.621  1.00  0.00     0.037 A 
BRANCH  57  71
ATOM     71  C   UNL A   1      43.904  37.681  29.756  1.00  0.00     0.064 A 
ATOM     72  C   UNL A   1      43.199  38.401  28.780  1.00  0.00     0.173 A 
ATOM     73  C   UNL A   1      44.139  38.308  30.990  1.00  0.00     0.173 A 
ATOM     74  F   UNL A   1      42.960  37.853  27.578  1.00  0.00    -0.203 F 
ATOM     75  C   UNL A   1      42.770  39.704  29.020  1.00  0.00     0.198 A 
ATOM     76  C   UNL A   1      43.679  39.598  31.239  1.00  0.00     0.198 A 
ATOM     77  F   UNL A   1      44.805  37.664  31.960  1.00  0.00    -0.203 F 
ATOM     78  F   UNL A   1      42.142  40.390  28.054  1.00  0.00    -0.200 F 
ATOM     79  C   UNL A   1      43.003  40.298  30.252  1.00  0.00     0.200 A 
ATOM     80  F   UNL A   1      43.891  40.164  32.435  1.00  0.00    -0.200 F 
ATOM     81  F   UNL A   1      42.581  41.548  30.485  1.00  0.00    -0.200 F 
ENDBRANCH  57  71
BRANCH  58  82
ATOM     82  C   UNL A   1      46.534  28.168  28.211  1.00  0.00     0.064 A 
ATOM     83  C   UNL A   1      46.223  27.553  26.990  1.00  0.00     0.173 A 
ATOM     84  C   UNL A   1      47.198  27.396  29.177  1.00  0.00     0.173 A 
ATOM     85  F   UNL A   1      45.561  28.238  26.046  1.00  0.00    -0.203 F 
ATOM     86  C   UNL A   1      46.540  26.217  26.754  1.00  0.00     0.198 A 
ATOM     87  C   UNL A   1      47.546  26.070  28.926  1.00  0.00     0.198 A 
ATOM     88  F   UNL A   1      47.516  27.932  30.365  1.00  0.00    -0.203 F 
ATOM     89  F   UNL A   1      46.180  25.639  25.600  1.00  0.00    -0.200 F 
ATOM     90  C   UNL A   1      47.208  25.478  27.719  1.00  0.00     0.200 A 
ATOM     91  F   UNL A   1      48.202  25.364  29.858  1.00  0.00    -0.200 F 
ATOM     92  F   UNL A   1      47.515  24.194  27.490  1.00  0.00    -0.200 F 
ENDBRANCH  58  82
BRANCH  70  93
ATOM     93  C   UNL A   1      49.662  34.292  27.035  1.00  0.00     0.064 A 
ATOM     94  C   UNL A   1      50.843  34.235  27.791  1.00  0.00     0.173 A 
ATOM     95  C   UNL A   1      49.768  34.664  25.685  1.00  0.00     0.173 A 
ATOM     96  F   UNL A   1      50.798  33.898  29.089  1.00  0.00    -0.203 F 
ATOM     97  C   UNL A   1      52.073  34.568  27.226  1.00  0.00     0.198 A 
ATOM     98  C   UNL A   1      51.003  34.960  25.115  1.00  0.00     0.198 A 
ATOM     99  F   UNL A   1      48.672  34.725  24.913  1.00  0.00    -0.203 F 
ATOM    100  F   UNL A   1      53.178  34.560  27.983  1.00  0.00    -0.200 F 
ATOM    101  C   UNL A   1      52.153  34.921  25.888  1.00  0.00     0.200 A 
ATOM    102  F   UNL A   1      51.079  35.282  23.816  1.00  0.00    -0.200 F 
ATOM    103  F   UNL A   1      53.337  35.231  25.344  1.00  0.00    -0.200 F 
ENDBRANCH  70  93
ENDBRANCH  44  45
ENDBRANCH  37  39
ENDBRANCH  36  37
ENDBRANCH  35  36
ENDBRANCH  34  35
ENDBRANCH  33  34
ENDBRANCH  32  33
ENDBRANCH  31  32
ENDBRANCH  30  31
ENDBRANCH   1  30
TORSDOF 26
ENDMDL
