MODEL 1
REMARK VINA RESULT:      -8.6      0.000      0.000
REMARK SMILES CC[C@@H](C)[C@@H](C)Nc1cccc(F)c1C(=O)OCCOCCOCCOCCOC(=O)c1ccc(-c2c3nc(c(-c4c(F)c(F)c(F)c(F)c4F)c4ccc([nH]4)c(-c4c(F)c(F)c(F)c(F)c4F)c4nc(c(-c5c(F)c(F)c(F)c(F)c5F)c5ccc2[nH]5)C=C4)C=C3)cc1
REMARK SMILES IDX 22 1 21 2 20 3 19 4 18 5 17 6 15 7 16 8 14 9 8 10 9 11 10 12
REMARK SMILES IDX 12 13 11 14 13 15 7 16 5 18 6 19 3 20 4 21 2 22 1 23 23 24
REMARK SMILES IDX 24 25 25 26 26 27 27 28 28 29 29 30 30 31 31 32 32 33 33 34
REMARK SMILES IDX 94 35 34 36 93 37 35 38 36 39 37 40 87 41 38 42 92 43 86 44
REMARK SMILES IDX 88 45 39 46 91 47 85 48 84 49 40 51 72 52 52 53 71 54 53 55
REMARK SMILES IDX 56 56 70 57 89 58 54 59 55 60 69 62 90 63 57 64 41 65 42 66
REMARK SMILES IDX 50 67 43 68 44 69 48 70 51 71 45 72 46 73 49 74 47 75 73 76
REMARK SMILES IDX 74 77 82 78 75 79 76 80 80 81 83 82 77 83 78 84 81 85 79 86
REMARK SMILES IDX 58 87 59 88 67 89 60 90 61 91 65 92 68 93 62 94 63 95 66 96
REMARK SMILES IDX 64 97
REMARK H PARENT 7 17 88 50 56 61
REMARK Flexibility Score: inf
ROOT
ATOM      1  C   UNL A   1      45.411  17.311  39.714  1.00  0.00     0.188 C 
ENDROOT
BRANCH   1   2
ATOM      2  C   UNL A   1      44.792  17.010  38.325  1.00  0.00     0.188 C 
BRANCH   2   3
ATOM      3  O   UNL A   1      44.536  18.133  37.496  1.00  0.00    -0.376 OA
BRANCH   3   4
ATOM      4  C   UNL A   1      45.454  18.415  36.454  1.00  0.00     0.202 C 
BRANCH   4   5
ATOM      5  C   UNL A   1      44.894  19.273  35.314  1.00  0.00     0.261 C 
BRANCH   5   6
ATOM      6  O   UNL A   1      45.750  20.348  34.897  1.00  0.00    -0.460 OA
BRANCH   6   7
ATOM      7  C   UNL A   1      45.723  21.457  35.672  1.00  0.00     0.343 C 
ATOM      8  O   UNL A   1      45.800  21.454  36.889  1.00  0.00    -0.246 OA
BRANCH   7   9
ATOM      9  C   UNL A   1      45.809  22.668  34.819  1.00  0.00     0.118 A 
ATOM     10  C   UNL A   1      47.006  23.422  34.729  1.00  0.00     0.052 A 
ATOM     11  C   UNL A   1      47.009  24.544  33.884  1.00  0.00     0.027 A 
ATOM     12  C   UNL A   1      45.883  24.894  33.131  1.00  0.00     0.005 A 
ATOM     13  C   UNL A   1      44.686  23.035  34.072  1.00  0.00     0.139 A 
ATOM     14  C   UNL A   1      44.722  24.136  33.224  1.00  0.00     0.040 A 
ATOM     15  F   UNL A   1      43.542  22.338  34.154  1.00  0.00    -0.206 F 
BRANCH  10  16
ATOM     16  N   UNL A   1      48.165  23.060  35.418  1.00  0.00    -0.382 N 
ATOM     17  H   UNL A   1      48.439  23.600  36.194  1.00  0.00     0.160 HD
BRANCH  16  18
ATOM     18  C   UNL A   1      48.992  21.906  35.033  1.00  0.00     0.079 C 
ATOM     19  C   UNL A   1      49.534  21.260  36.311  1.00  0.00     0.031 C 
BRANCH  18  20
ATOM     20  C   UNL A   1      50.118  22.448  34.095  1.00  0.00     0.008 C 
ATOM     21  C   UNL A   1      51.051  21.304  33.654  1.00  0.00     0.010 C 
BRANCH  20  22
ATOM     22  C   UNL A   1      50.960  23.585  34.700  1.00  0.00     0.002 C 
ATOM     23  C   UNL A   1      52.448  23.246  34.739  1.00  0.00     0.004 C 
ENDBRANCH  20  22
ENDBRANCH  18  20
ENDBRANCH  16  18
ENDBRANCH  10  16
ENDBRANCH   7   9
ENDBRANCH   6   7
ENDBRANCH   5   6
ENDBRANCH   4   5
ENDBRANCH   3   4
ENDBRANCH   2   3
ENDBRANCH   1   2
BRANCH   1  24
ATOM     24  O   UNL A   1      46.426  18.291  39.918  1.00  0.00    -0.377 OA
BRANCH  24  25
ATOM     25  C   UNL A   1      46.052  19.613  40.264  1.00  0.00     0.188 C 
BRANCH  25  26
ATOM     26  C   UNL A   1      47.097  20.711  39.983  1.00  0.00     0.188 C 
BRANCH  26  27
ATOM     27  O   UNL A   1      46.642  22.013  40.317  1.00  0.00    -0.376 OA
BRANCH  27  28
ATOM     28  C   UNL A   1      46.880  23.063  39.397  1.00  0.00     0.202 C 
BRANCH  28  29
ATOM     29  C   UNL A   1      45.851  24.197  39.249  1.00  0.00     0.261 C 
BRANCH  29  30
ATOM     30  O   UNL A   1      45.714  24.799  37.953  1.00  0.00    -0.460 OA
BRANCH  30  31
ATOM     31  C   UNL A   1      45.958  26.119  37.829  1.00  0.00     0.338 C 
ATOM     32  O   UNL A   1      46.796  26.779  38.417  1.00  0.00    -0.246 OA
BRANCH  31  33
ATOM     33  C   UNL A   1      45.144  26.599  36.691  1.00  0.00     0.060 A 
ATOM     34  C   UNL A   1      45.610  27.667  35.909  1.00  0.00     0.016 A 
ATOM     35  C   UNL A   1      43.943  25.961  36.373  1.00  0.00     0.016 A 
ATOM     36  C   UNL A   1      44.856  28.121  34.826  1.00  0.00     0.010 A 
ATOM     37  C   UNL A   1      43.174  26.436  35.312  1.00  0.00     0.010 A 
ATOM     38  C   UNL A   1      43.610  27.541  34.559  1.00  0.00    -0.014 A 
BRANCH  38  39
ATOM     39  C   UNL A   1      42.646  28.234  33.673  1.00  0.00     0.031 A 
ATOM     40  C   UNL A   1      41.727  29.241  34.306  1.00  0.00     0.074 A 
ATOM     41  C   UNL A   1      42.578  27.980  32.356  1.00  0.00     0.049 A 
ATOM     42  N   UNL A   1      40.719  29.891  33.786  1.00  0.00    -0.248 NA
ATOM     43  C   UNL A   1      41.979  29.554  35.724  1.00  0.00     0.031 C 
ATOM     44  C   UNL A   1      43.457  27.074  31.623  1.00  0.00     0.029 A 
ATOM     45  N   UNL A   1      41.712  28.459  31.404  1.00  0.00    -0.354 N 
ATOM     46  C   UNL A   1      40.212  30.676  34.813  1.00  0.00     0.074 A 
ATOM     47  C   UNL A   1      41.003  30.406  35.992  1.00  0.00     0.031 C 
ATOM     48  C   UNL A   1      43.074  27.047  30.334  1.00  0.00     0.029 A 
ATOM     49  C   UNL A   1      41.898  27.901  30.163  1.00  0.00     0.049 A 
ATOM     50  H   UNL A   1      41.023  29.137  31.593  1.00  0.00     0.167 HD
ATOM     51  C   UNL A   1      39.181  31.549  34.771  1.00  0.00     0.037 A 
ATOM     52  C   UNL A   1      41.177  28.043  29.032  1.00  0.00     0.037 A 
ATOM     53  C   UNL A   1      38.403  31.814  33.593  1.00  0.00     0.049 A 
ATOM     54  C   UNL A   1      39.973  28.953  29.031  1.00  0.00     0.074 A 
ATOM     55  C   UNL A   1      37.343  32.689  33.443  1.00  0.00     0.029 A 
ATOM     56  N   UNL A   1      38.599  31.201  32.365  1.00  0.00    -0.354 N 
ATOM     57  N   UNL A   1      39.497  29.695  30.003  1.00  0.00    -0.248 NA
ATOM     58  C   UNL A   1      39.200  29.041  27.783  1.00  0.00     0.031 C 
ATOM     59  C   UNL A   1      36.859  32.562  32.140  1.00  0.00     0.029 A 
ATOM     60  C   UNL A   1      37.659  31.659  31.458  1.00  0.00     0.049 A 
ATOM     61  H   UNL A   1      39.300  30.540  32.167  1.00  0.00     0.167 HD
ATOM     62  C   UNL A   1      38.395  30.358  29.476  1.00  0.00     0.074 A 
ATOM     63  C   UNL A   1      38.272  29.935  28.098  1.00  0.00     0.031 C 
ATOM     64  C   UNL A   1      37.564  31.242  30.081  1.00  0.00     0.037 A 
BRANCH  51  65
ATOM     65  C   UNL A   1      38.818  32.269  36.035  1.00  0.00     0.064 A 
ATOM     66  C   UNL A   1      39.253  33.585  36.249  1.00  0.00     0.173 A 
ATOM     67  C   UNL A   1      38.102  31.638  37.062  1.00  0.00     0.173 A 
ATOM     68  F   UNL A   1      39.941  34.234  35.296  1.00  0.00    -0.203 F 
ATOM     69  C   UNL A   1      39.004  34.235  37.454  1.00  0.00     0.198 A 
ATOM     70  C   UNL A   1      37.828  32.302  38.255  1.00  0.00     0.198 A 
ATOM     71  F   UNL A   1      37.649  30.386  36.898  1.00  0.00    -0.203 F 
ATOM     72  F   UNL A   1      39.464  35.478  37.650  1.00  0.00    -0.200 F 
ATOM     73  C   UNL A   1      38.290  33.593  38.455  1.00  0.00     0.200 A 
ATOM     74  F   UNL A   1      37.115  31.690  39.211  1.00  0.00    -0.200 F 
ATOM     75  F   UNL A   1      38.045  34.222  39.612  1.00  0.00    -0.200 F 
ENDBRANCH  51  65
BRANCH  52  76
ATOM     76  C   UNL A   1      41.574  27.298  27.808  1.00  0.00     0.064 A 
ATOM     77  C   UNL A   1      41.136  25.985  27.578  1.00  0.00     0.173 A 
ATOM     78  C   UNL A   1      42.412  27.881  26.848  1.00  0.00     0.173 A 
ATOM     79  F   UNL A   1      40.326  25.382  28.461  1.00  0.00    -0.203 F 
ATOM     80  C   UNL A   1      41.543  25.275  26.449  1.00  0.00     0.198 A 
ATOM     81  C   UNL A   1      42.796  27.181  25.705  1.00  0.00     0.198 A 
ATOM     82  F   UNL A   1      42.834  29.145  27.007  1.00  0.00    -0.203 F 
ATOM     83  F   UNL A   1      41.138  24.010  26.273  1.00  0.00    -0.200 F 
ATOM     84  C   UNL A   1      42.369  25.876  25.512  1.00  0.00     0.200 A 
ATOM     85  F   UNL A   1      43.571  27.775  24.788  1.00  0.00    -0.200 F 
ATOM     86  F   UNL A   1      42.751  25.198  24.421  1.00  0.00    -0.200 F 
ENDBRANCH  52  76
BRANCH  64  87
ATOM     87  C   UNL A   1      36.462  31.855  29.268  1.00  0.00     0.064 A 
ATOM     88  C   UNL A   1      36.461  33.236  29.012  1.00  0.00     0.173 A 
ATOM     89  C   UNL A   1      35.347  31.111  28.860  1.00  0.00     0.173 A 
ATOM     90  F   UNL A   1      37.499  33.996  29.394  1.00  0.00    -0.203 F 
ATOM     91  C   UNL A   1      35.371  33.853  28.407  1.00  0.00     0.198 A 
ATOM     92  C   UNL A   1      34.271  31.726  28.227  1.00  0.00     0.198 A 
ATOM     93  F   UNL A   1      35.305  29.788  29.073  1.00  0.00    -0.203 F 
ATOM     94  F   UNL A   1      35.368  35.181  28.225  1.00  0.00    -0.200 F 
ATOM     95  C   UNL A   1      34.275  33.098  28.016  1.00  0.00     0.200 A 
ATOM     96  F   UNL A   1      33.221  30.993  27.832  1.00  0.00    -0.200 F 
ATOM     97  F   UNL A   1      33.223  33.693  27.439  1.00  0.00    -0.200 F 
ENDBRANCH  64  87
ENDBRANCH  38  39
ENDBRANCH  31  33
ENDBRANCH  30  31
ENDBRANCH  29  30
ENDBRANCH  28  29
ENDBRANCH  27  28
ENDBRANCH  26  27
ENDBRANCH  25  26
ENDBRANCH  24  25
ENDBRANCH   1  24
TORSDOF 24
ENDMDL
MODEL 2
REMARK VINA RESULT:      -8.0      5.238     11.248
REMARK SMILES CC[C@@H](C)[C@@H](C)Nc1cccc(F)c1C(=O)OCCOCCOCCOCCOC(=O)c1ccc(-c2c3nc(c(-c4c(F)c(F)c(F)c(F)c4F)c4ccc([nH]4)c(-c4c(F)c(F)c(F)c(F)c4F)c4nc(c(-c5c(F)c(F)c(F)c(F)c5F)c5ccc2[nH]5)C=C4)C=C3)cc1
REMARK SMILES IDX 22 1 21 2 20 3 19 4 18 5 17 6 15 7 16 8 14 9 8 10 9 11 10 12
REMARK SMILES IDX 12 13 11 14 13 15 7 16 5 18 6 19 3 20 4 21 2 22 1 23 23 24
REMARK SMILES IDX 24 25 25 26 26 27 27 28 28 29 29 30 30 31 31 32 32 33 33 34
REMARK SMILES IDX 94 35 34 36 93 37 35 38 36 39 37 40 87 41 38 42 92 43 86 44
REMARK SMILES IDX 88 45 39 46 91 47 85 48 84 49 40 51 72 52 52 53 71 54 53 55
REMARK SMILES IDX 56 56 70 57 89 58 54 59 55 60 69 62 90 63 57 64 41 65 42 66
REMARK SMILES IDX 50 67 43 68 44 69 48 70 51 71 45 72 46 73 49 74 47 75 73 76
REMARK SMILES IDX 74 77 82 78 75 79 76 80 80 81 83 82 77 83 78 84 81 85 79 86
REMARK SMILES IDX 58 87 59 88 67 89 60 90 61 91 65 92 68 93 62 94 63 95 66 96
REMARK SMILES IDX 64 97
REMARK H PARENT 7 17 88 50 56 61
REMARK Flexibility Score: inf
ROOT
ATOM      1  C   UNL A   1      41.722  25.532  28.157  1.00  0.00     0.188 C 
ENDROOT
BRANCH   1   2
ATOM      2  C   UNL A   1      40.829  26.624  27.514  1.00  0.00     0.188 C 
BRANCH   2   3
ATOM      3  O   UNL A   1      39.708  27.045  28.276  1.00  0.00    -0.376 OA
BRANCH   3   4
ATOM      4  C   UNL A   1      39.947  27.657  29.532  1.00  0.00     0.202 C 
BRANCH   4   5
ATOM      5  C   UNL A   1      38.686  28.030  30.319  1.00  0.00     0.261 C 
BRANCH   5   6
ATOM      6  O   UNL A   1      38.009  29.204  29.845  1.00  0.00    -0.460 OA
BRANCH   6   7
ATOM      7  C   UNL A   1      36.923  29.586  30.557  1.00  0.00     0.343 C 
ATOM      8  O   UNL A   1      36.631  29.154  31.660  1.00  0.00    -0.246 OA
BRANCH   7   9
ATOM      9  C   UNL A   1      36.278  30.750  29.902  1.00  0.00     0.118 A 
ATOM     10  C   UNL A   1      36.384  32.054  30.448  1.00  0.00     0.052 A 
ATOM     11  C   UNL A   1      35.759  33.105  29.757  1.00  0.00     0.027 A 
ATOM     12  C   UNL A   1      35.079  32.884  28.554  1.00  0.00     0.005 A 
ATOM     13  C   UNL A   1      35.585  30.541  28.707  1.00  0.00     0.139 A 
ATOM     14  C   UNL A   1      34.995  31.600  28.029  1.00  0.00     0.040 A 
ATOM     15  F   UNL A   1      35.465  29.311  28.184  1.00  0.00    -0.206 F 
BRANCH  10  16
ATOM     16  N   UNL A   1      37.110  32.316  31.611  1.00  0.00    -0.382 N 
ATOM     17  H   UNL A   1      36.617  32.476  32.448  1.00  0.00     0.160 HD
BRANCH  16  18
ATOM     18  C   UNL A   1      38.580  32.361  31.639  1.00  0.00     0.079 C 
ATOM     19  C   UNL A   1      39.068  31.382  32.710  1.00  0.00     0.031 C 
BRANCH  18  20
ATOM     20  C   UNL A   1      38.983  33.842  31.932  1.00  0.00     0.008 C 
ATOM     21  C   UNL A   1      37.748  34.665  32.348  1.00  0.00     0.010 C 
BRANCH  20  22
ATOM     22  C   UNL A   1      39.696  34.551  30.767  1.00  0.00     0.002 C 
ATOM     23  C   UNL A   1      38.843  34.584  29.501  1.00  0.00     0.004 C 
ENDBRANCH  20  22
ENDBRANCH  18  20
ENDBRANCH  16  18
ENDBRANCH  10  16
ENDBRANCH   7   9
ENDBRANCH   6   7
ENDBRANCH   5   6
ENDBRANCH   4   5
ENDBRANCH   3   4
ENDBRANCH   2   3
ENDBRANCH   1   2
BRANCH   1  24
ATOM     24  O   UNL A   1      42.673  24.769  27.417  1.00  0.00    -0.377 OA
BRANCH  24  25
ATOM     25  C   UNL A   1      42.213  23.810  26.481  1.00  0.00     0.188 C 
BRANCH  25  26
ATOM     26  C   UNL A   1      43.120  23.561  25.261  1.00  0.00     0.188 C 
BRANCH  26  27
ATOM     27  O   UNL A   1      44.232  22.729  25.553  1.00  0.00    -0.376 OA
BRANCH  27  28
ATOM     28  C   UNL A   1      45.254  22.608  24.580  1.00  0.00     0.202 C 
BRANCH  28  29
ATOM     29  C   UNL A   1      46.429  23.601  24.578  1.00  0.00     0.261 C 
BRANCH  29  30
ATOM     30  O   UNL A   1      46.331  24.742  25.443  1.00  0.00    -0.460 OA
BRANCH  30  31
ATOM     31  C   UNL A   1      46.669  25.951  24.953  1.00  0.00     0.338 C 
ATOM     32  O   UNL A   1      47.186  26.200  23.879  1.00  0.00    -0.246 OA
BRANCH  31  33
ATOM     33  C   UNL A   1      46.116  26.959  25.883  1.00  0.00     0.060 A 
ATOM     34  C   UNL A   1      46.987  27.711  26.687  1.00  0.00     0.016 A 
ATOM     35  C   UNL A   1      44.739  27.188  25.926  1.00  0.00     0.016 A 
ATOM     36  C   UNL A   1      46.477  28.672  27.560  1.00  0.00     0.010 A 
ATOM     37  C   UNL A   1      44.227  28.125  26.824  1.00  0.00     0.010 A 
ATOM     38  C   UNL A   1      45.091  28.842  27.670  1.00  0.00    -0.014 A 
BRANCH  38  39
ATOM     39  C   UNL A   1      44.524  29.568  28.829  1.00  0.00     0.031 A 
ATOM     40  C   UNL A   1      44.378  31.059  28.707  1.00  0.00     0.074 A 
ATOM     41  C   UNL A   1      44.155  28.936  29.955  1.00  0.00     0.049 A 
ATOM     42  N   UNL A   1      44.028  31.938  29.608  1.00  0.00    -0.248 NA
ATOM     43  C   UNL A   1      44.674  31.637  27.384  1.00  0.00     0.031 C 
ATOM     44  C   UNL A   1      44.190  27.492  30.165  1.00  0.00     0.029 A 
ATOM     45  N   UNL A   1      43.687  29.441  31.144  1.00  0.00    -0.354 N 
ATOM     46  C   UNL A   1      44.074  33.168  28.966  1.00  0.00     0.074 A 
ATOM     47  C   UNL A   1      44.508  32.930  27.609  1.00  0.00     0.031 C 
ATOM     48  C   UNL A   1      43.778  27.225  31.417  1.00  0.00     0.029 A 
ATOM     49  C   UNL A   1      43.492  28.483  32.108  1.00  0.00     0.049 A 
ATOM     50  H   UNL A   1      43.510  30.398  31.290  1.00  0.00     0.167 HD
ATOM     51  C   UNL A   1      43.773  34.388  29.467  1.00  0.00     0.037 A 
ATOM     52  C   UNL A   1      43.153  28.617  33.407  1.00  0.00     0.037 A 
ATOM     53  C   UNL A   1      43.339  34.615  30.817  1.00  0.00     0.049 A 
ATOM     54  C   UNL A   1      42.912  29.996  33.970  1.00  0.00     0.074 A 
ATOM     55  C   UNL A   1      42.999  35.812  31.420  1.00  0.00     0.029 A 
ATOM     56  N   UNL A   1      43.190  33.623  31.775  1.00  0.00    -0.354 N 
ATOM     57  N   UNL A   1      42.954  31.156  33.361  1.00  0.00    -0.248 NA
ATOM     58  C   UNL A   1      42.583  30.087  35.401  1.00  0.00     0.031 C 
ATOM     59  C   UNL A   1      42.702  35.552  32.759  1.00  0.00     0.029 A 
ATOM     60  C   UNL A   1      42.789  34.186  32.974  1.00  0.00     0.049 A 
ATOM     61  H   UNL A   1      43.345  32.662  31.624  1.00  0.00     0.167 HD
ATOM     62  C   UNL A   1      42.628  32.107  34.321  1.00  0.00     0.074 A 
ATOM     63  C   UNL A   1      42.387  31.390  35.554  1.00  0.00     0.031 C 
ATOM     64  C   UNL A   1      42.532  33.453  34.188  1.00  0.00     0.037 A 
BRANCH  51  65
ATOM     65  C   UNL A   1      43.921  35.574  28.563  1.00  0.00     0.064 A 
ATOM     66  C   UNL A   1      45.172  36.188  28.402  1.00  0.00     0.173 A 
ATOM     67  C   UNL A   1      42.819  36.146  27.911  1.00  0.00     0.173 A 
ATOM     68  F   UNL A   1      46.258  35.679  29.003  1.00  0.00    -0.203 F 
ATOM     69  C   UNL A   1      45.309  37.344  27.640  1.00  0.00     0.198 A 
ATOM     70  C   UNL A   1      42.966  37.285  27.125  1.00  0.00     0.198 A 
ATOM     71  F   UNL A   1      41.605  35.585  28.019  1.00  0.00    -0.203 F 
ATOM     72  F   UNL A   1      46.507  37.936  27.533  1.00  0.00    -0.200 F 
ATOM     73  C   UNL A   1      44.207  37.891  27.001  1.00  0.00     0.200 A 
ATOM     74  F   UNL A   1      41.904  37.797  26.486  1.00  0.00    -0.200 F 
ATOM     75  F   UNL A   1      44.341  39.001  26.262  1.00  0.00    -0.200 F 
ENDBRANCH  51  65
BRANCH  52  76
ATOM     76  C   UNL A   1      43.031  27.408  34.264  1.00  0.00     0.064 A 
ATOM     77  C   UNL A   1      41.782  26.826  34.534  1.00  0.00     0.173 A 
ATOM     78  C   UNL A   1      44.162  26.815  34.842  1.00  0.00     0.173 A 
ATOM     79  F   UNL A   1      40.668  27.349  33.999  1.00  0.00    -0.203 F 
ATOM     80  C   UNL A   1      41.667  25.717  35.370  1.00  0.00     0.198 A 
ATOM     81  C   UNL A   1      44.049  25.688  35.655  1.00  0.00     0.198 A 
ATOM     82  F   UNL A   1      45.381  27.315  34.591  1.00  0.00    -0.203 F 
ATOM     83  F   UNL A   1      40.459  25.205  35.638  1.00  0.00    -0.200 F 
ATOM     84  C   UNL A   1      42.802  25.147  35.926  1.00  0.00     0.200 A 
ATOM     85  F   UNL A   1      45.150  25.123  36.168  1.00  0.00    -0.200 F 
ATOM     86  F   UNL A   1      42.693  24.073  36.720  1.00  0.00    -0.200 F 
ENDBRANCH  52  76
BRANCH  64  87
ATOM     87  C   UNL A   1      42.116  34.259  35.384  1.00  0.00     0.064 A 
ATOM     88  C   UNL A   1      40.753  34.452  35.662  1.00  0.00     0.173 A 
ATOM     89  C   UNL A   1      43.050  34.945  36.170  1.00  0.00     0.173 A 
ATOM     90  F   UNL A   1      39.818  33.827  34.930  1.00  0.00    -0.203 F 
ATOM     91  C   UNL A   1      40.342  35.329  36.661  1.00  0.00     0.198 A 
ATOM     92  C   UNL A   1      42.637  35.799  37.189  1.00  0.00     0.198 A 
ATOM     93  F   UNL A   1      44.364  34.786  35.949  1.00  0.00    -0.203 F 
ATOM     94  F   UNL A   1      39.036  35.541  36.870  1.00  0.00    -0.200 F 
ATOM     95  C   UNL A   1      41.284  36.003  37.424  1.00  0.00     0.200 A 
ATOM     96  F   UNL A   1      43.548  36.435  37.939  1.00  0.00    -0.200 F 
ATOM     97  F   UNL A   1      40.888  36.851  38.382  1.00  0.00    -0.200 F 
ENDBRANCH  64  87
ENDBRANCH  38  39
ENDBRANCH  31  33
ENDBRANCH  30  31
ENDBRANCH  29  30
ENDBRANCH  28  29
ENDBRANCH  27  28
ENDBRANCH  26  27
ENDBRANCH  25  26
ENDBRANCH  24  25
ENDBRANCH   1  24
TORSDOF 24
ENDMDL
MODEL 3
REMARK VINA RESULT:      -7.8      9.421     14.723
REMARK SMILES CC[C@@H](C)[C@@H](C)Nc1cccc(F)c1C(=O)OCCOCCOCCOCCOC(=O)c1ccc(-c2c3nc(c(-c4c(F)c(F)c(F)c(F)c4F)c4ccc([nH]4)c(-c4c(F)c(F)c(F)c(F)c4F)c4nc(c(-c5c(F)c(F)c(F)c(F)c5F)c5ccc2[nH]5)C=C4)C=C3)cc1
REMARK SMILES IDX 22 1 21 2 20 3 19 4 18 5 17 6 15 7 16 8 14 9 8 10 9 11 10 12
REMARK SMILES IDX 12 13 11 14 13 15 7 16 5 18 6 19 3 20 4 21 2 22 1 23 23 24
REMARK SMILES IDX 24 25 25 26 26 27 27 28 28 29 29 30 30 31 31 32 32 33 33 34
REMARK SMILES IDX 94 35 34 36 93 37 35 38 36 39 37 40 87 41 38 42 92 43 86 44
REMARK SMILES IDX 88 45 39 46 91 47 85 48 84 49 40 51 72 52 52 53 71 54 53 55
REMARK SMILES IDX 56 56 70 57 89 58 54 59 55 60 69 62 90 63 57 64 41 65 42 66
REMARK SMILES IDX 50 67 43 68 44 69 48 70 51 71 45 72 46 73 49 74 47 75 73 76
REMARK SMILES IDX 74 77 82 78 75 79 76 80 80 81 83 82 77 83 78 84 81 85 79 86
REMARK SMILES IDX 58 87 59 88 67 89 60 90 61 91 65 92 68 93 62 94 63 95 66 96
REMARK SMILES IDX 64 97
REMARK H PARENT 7 17 88 50 56 61
REMARK Flexibility Score: inf
ROOT
ATOM      1  C   UNL A   1      38.542  21.492  25.716  1.00  0.00     0.188 C 
ENDROOT
BRANCH   1   2
ATOM      2  C   UNL A   1      37.242  21.182  24.932  1.00  0.00     0.188 C 
BRANCH   2   3
ATOM      3  O   UNL A   1      36.107  21.966  25.265  1.00  0.00    -0.376 OA
BRANCH   3   4
ATOM      4  C   UNL A   1      35.451  21.702  26.493  1.00  0.00     0.202 C 
BRANCH   4   5
ATOM      5  C   UNL A   1      34.418  22.754  26.914  1.00  0.00     0.261 C 
BRANCH   5   6
ATOM      6  O   UNL A   1      33.153  22.217  27.332  1.00  0.00    -0.460 OA
BRANCH   6   7
ATOM      7  C   UNL A   1      32.058  22.823  26.816  1.00  0.00     0.343 C 
ATOM      8  O   UNL A   1      31.238  23.446  27.471  1.00  0.00    -0.246 OA
BRANCH   7   9
ATOM      9  C   UNL A   1      32.124  22.803  25.334  1.00  0.00     0.118 A 
ATOM     10  C   UNL A   1      32.184  24.005  24.584  1.00  0.00     0.052 A 
ATOM     11  C   UNL A   1      32.263  23.899  23.186  1.00  0.00     0.027 A 
ATOM     12  C   UNL A   1      32.313  22.653  22.550  1.00  0.00     0.005 A 
ATOM     13  C   UNL A   1      32.162  21.566  24.687  1.00  0.00     0.139 A 
ATOM     14  C   UNL A   1      32.265  21.486  23.304  1.00  0.00     0.040 A 
ATOM     15  F   UNL A   1      32.095  20.420  25.382  1.00  0.00    -0.206 F 
BRANCH  10  16
ATOM     16  N   UNL A   1      32.201  25.260  25.193  1.00  0.00    -0.382 N 
ATOM     17  H   UNL A   1      32.255  25.308  26.175  1.00  0.00     0.160 HD
BRANCH  16  18
ATOM     18  C   UNL A   1      32.143  26.517  24.429  1.00  0.00     0.079 C 
ATOM     19  C   UNL A   1      33.566  27.068  24.308  1.00  0.00     0.031 C 
BRANCH  18  20
ATOM     20  C   UNL A   1      31.178  27.473  25.202  1.00  0.00     0.008 C 
ATOM     21  C   UNL A   1      31.347  28.923  24.710  1.00  0.00     0.010 C 
BRANCH  20  22
ATOM     22  C   UNL A   1      31.334  27.434  26.733  1.00  0.00     0.002 C 
ATOM     23  C   UNL A   1      31.926  28.728  27.287  1.00  0.00     0.004 C 
ENDBRANCH  20  22
ENDBRANCH  18  20
ENDBRANCH  16  18
ENDBRANCH  10  16
ENDBRANCH   7   9
ENDBRANCH   6   7
ENDBRANCH   5   6
ENDBRANCH   4   5
ENDBRANCH   3   4
ENDBRANCH   2   3
ENDBRANCH   1   2
BRANCH   1  24
ATOM     24  O   UNL A   1      38.817  22.764  26.297  1.00  0.00    -0.377 OA
BRANCH  24  25
ATOM     25  C   UNL A   1      39.936  22.907  27.154  1.00  0.00     0.188 C 
BRANCH  25  26
ATOM     26  C   UNL A   1      40.643  21.604  27.573  1.00  0.00     0.188 C 
BRANCH  26  27
ATOM     27  O   UNL A   1      42.041  21.624  27.329  1.00  0.00    -0.376 OA
BRANCH  27  28
ATOM     28  C   UNL A   1      42.594  22.759  26.688  1.00  0.00     0.202 C 
BRANCH  28  29
ATOM     29  C   UNL A   1      43.046  22.664  25.220  1.00  0.00     0.261 C 
BRANCH  29  30
ATOM     30  O   UNL A   1      44.334  23.202  24.889  1.00  0.00    -0.460 OA
BRANCH  30  31
ATOM     31  C   UNL A   1      45.328  23.090  25.793  1.00  0.00     0.338 C 
ATOM     32  O   UNL A   1      45.782  22.069  26.278  1.00  0.00    -0.246 OA
BRANCH  31  33
ATOM     33  C   UNL A   1      45.915  24.439  25.951  1.00  0.00     0.060 A 
ATOM     34  C   UNL A   1      45.868  25.343  24.879  1.00  0.00     0.016 A 
ATOM     35  C   UNL A   1      46.472  24.820  27.173  1.00  0.00     0.016 A 
ATOM     36  C   UNL A   1      46.409  26.622  25.019  1.00  0.00     0.010 A 
ATOM     37  C   UNL A   1      47.042  26.085  27.303  1.00  0.00     0.010 A 
ATOM     38  C   UNL A   1      47.046  26.976  26.215  1.00  0.00    -0.014 A 
BRANCH  38  39
ATOM     39  C   UNL A   1      47.936  28.159  26.257  1.00  0.00     0.031 A 
ATOM     40  C   UNL A   1      47.295  29.496  26.504  1.00  0.00     0.074 A 
ATOM     41  C   UNL A   1      49.263  28.060  26.078  1.00  0.00     0.049 A 
ATOM     42  N   UNL A   1      47.823  30.692  26.467  1.00  0.00    -0.248 NA
ATOM     43  C   UNL A   1      45.859  29.482  26.831  1.00  0.00     0.031 C 
ATOM     44  C   UNL A   1      50.002  26.814  25.896  1.00  0.00     0.029 A 
ATOM     45  N   UNL A   1      50.225  29.039  26.009  1.00  0.00    -0.354 N 
ATOM     46  C   UNL A   1      46.784  31.567  26.754  1.00  0.00     0.074 A 
ATOM     47  C   UNL A   1      45.590  30.773  26.938  1.00  0.00     0.031 C 
ATOM     48  C   UNL A   1      51.303  27.103  25.716  1.00  0.00     0.029 A 
ATOM     49  C   UNL A   1      51.480  28.556  25.729  1.00  0.00     0.049 A 
ATOM     50  H   UNL A   1      50.032  29.994  26.146  1.00  0.00     0.167 HD
ATOM     51  C   UNL A   1      46.826  32.914  26.861  1.00  0.00     0.037 A 
ATOM     52  C   UNL A   1      52.628  29.219  25.481  1.00  0.00     0.037 A 
ATOM     53  C   UNL A   1      48.018  33.694  26.680  1.00  0.00     0.049 A 
ATOM     54  C   UNL A   1      52.633  30.727  25.513  1.00  0.00     0.074 A 
ATOM     55  C   UNL A   1      48.169  35.065  26.777  1.00  0.00     0.029 A 
ATOM     56  N   UNL A   1      49.263  33.172  26.361  1.00  0.00    -0.354 N 
ATOM     57  N   UNL A   1      51.650  31.552  25.786  1.00  0.00    -0.248 NA
ATOM     58  C   UNL A   1      53.902  31.400  25.197  1.00  0.00     0.031 C 
ATOM     59  C   UNL A   1      49.492  35.378  26.457  1.00  0.00     0.029 A 
ATOM     60  C   UNL A   1      50.182  34.198  26.229  1.00  0.00     0.049 A 
ATOM     61  H   UNL A   1      49.462  32.215  26.246  1.00  0.00     0.167 HD
ATOM     62  C   UNL A   1      52.186  32.831  25.707  1.00  0.00     0.074 A 
ATOM     63  C   UNL A   1      53.584  32.678  25.363  1.00  0.00     0.031 C 
ATOM     64  C   UNL A   1      51.576  34.025  25.906  1.00  0.00     0.037 A 
BRANCH  51  65
ATOM     65  C   UNL A   1      45.548  33.635  27.167  1.00  0.00     0.064 A 
ATOM     66  C   UNL A   1      45.113  33.770  28.493  1.00  0.00     0.173 A 
ATOM     67  C   UNL A   1      44.720  34.130  26.149  1.00  0.00     0.173 A 
ATOM     68  F   UNL A   1      45.870  33.313  29.503  1.00  0.00    -0.203 F 
ATOM     69  C   UNL A   1      43.885  34.354  28.788  1.00  0.00     0.198 A 
ATOM     70  C   UNL A   1      43.506  34.741  26.450  1.00  0.00     0.198 A 
ATOM     71  F   UNL A   1      45.101  34.041  24.866  1.00  0.00    -0.203 F 
ATOM     72  F   UNL A   1      43.473  34.437  30.061  1.00  0.00    -0.200 F 
ATOM     73  C   UNL A   1      43.084  34.841  27.767  1.00  0.00     0.200 A 
ATOM     74  F   UNL A   1      42.745  35.236  25.464  1.00  0.00    -0.200 F 
ATOM     75  F   UNL A   1      41.904  35.410  28.052  1.00  0.00    -0.200 F 
ENDBRANCH  51  65
BRANCH  52  76
ATOM     76  C   UNL A   1      53.866  28.455  25.171  1.00  0.00     0.064 A 
ATOM     77  C   UNL A   1      54.227  28.153  23.850  1.00  0.00     0.173 A 
ATOM     78  C   UNL A   1      54.707  28.000  26.196  1.00  0.00     0.173 A 
ATOM     79  F   UNL A   1      53.461  28.572  22.831  1.00  0.00    -0.203 F 
ATOM     80  C   UNL A   1      55.367  27.403  23.566  1.00  0.00     0.198 A 
ATOM     81  C   UNL A   1      55.863  27.274  25.910  1.00  0.00     0.198 A 
ATOM     82  F   UNL A   1      54.422  28.288  27.474  1.00  0.00    -0.203 F 
ATOM     83  F   UNL A   1      55.669  27.099  22.296  1.00  0.00    -0.200 F 
ATOM     84  C   UNL A   1      56.186  26.968  24.597  1.00  0.00     0.200 A 
ATOM     85  F   UNL A   1      56.666  26.880  26.907  1.00  0.00    -0.200 F 
ATOM     86  F   UNL A   1      57.288  26.257  24.324  1.00  0.00    -0.200 F 
ENDBRANCH  52  76
BRANCH  64  87
ATOM     87  C   UNL A   1      52.401  35.274  25.800  1.00  0.00     0.064 A 
ATOM     88  C   UNL A   1      52.919  35.875  26.958  1.00  0.00     0.173 A 
ATOM     89  C   UNL A   1      52.566  35.946  24.581  1.00  0.00     0.173 A 
ATOM     90  F   UNL A   1      52.777  35.279  28.152  1.00  0.00    -0.203 F 
ATOM     91  C   UNL A   1      53.542  37.118  26.904  1.00  0.00     0.198 A 
ATOM     92  C   UNL A   1      53.217  37.175  24.526  1.00  0.00     0.198 A 
ATOM     93  F   UNL A   1      52.097  35.407  23.446  1.00  0.00    -0.203 F 
ATOM     94  F   UNL A   1      53.977  37.699  28.031  1.00  0.00    -0.200 F 
ATOM     95  C   UNL A   1      53.690  37.768  25.688  1.00  0.00     0.200 A 
ATOM     96  F   UNL A   1      53.376  37.793  23.348  1.00  0.00    -0.200 F 
ATOM     97  F   UNL A   1      54.285  38.967  25.637  1.00  0.00    -0.200 F 
ENDBRANCH  64  87
ENDBRANCH  38  39
ENDBRANCH  31  33
ENDBRANCH  30  31
ENDBRANCH  29  30
ENDBRANCH  28  29
ENDBRANCH  27  28
ENDBRANCH  26  27
ENDBRANCH  25  26
ENDBRANCH  24  25
ENDBRANCH   1  24
TORSDOF 24
ENDMDL
