MODEL 1
REMARK VINA RESULT:     -10.5      0.000      0.000
REMARK SMILES O=C(OCCOCCOCCOCCOC(=O)c1cccc(N[C@H]2CCCC[C@@H]2O)c1)c1ccc(-c2c3nc(c(-c4c(F)c(F)c(F)c(F)c4F)c4ccc([nH]4)c(-c4c(F)c(F)c(F)c(F)c4F)c4nc(c(-c5c(F)c(F)c(F)c(F)c5F)c5ccc2[nH]5)C=C4)C=C3)cc1
REMARK SMILES IDX 10 1 9 2 8 3 7 4 6 5 5 6 4 7 3 8 2 9 1 10 32 11 33 12 94 13
REMARK SMILES IDX 34 14 93 15 35 16 36 17 37 18 87 19 38 20 92 21 86 22 88 23
REMARK SMILES IDX 39 24 91 25 85 26 84 27 40 29 72 30 52 31 71 32 53 33 56 34
REMARK SMILES IDX 70 35 89 36 54 37 55 38 69 40 90 41 57 42 41 43 42 44 50 45
REMARK SMILES IDX 43 46 44 47 48 48 51 49 45 50 46 51 49 52 47 53 73 54 74 55
REMARK SMILES IDX 82 56 75 57 76 58 80 59 83 60 77 61 78 62 81 63 79 64 58 65
REMARK SMILES IDX 59 66 67 67 60 68 61 69 65 70 68 71 62 72 63 73 66 74 64 75
REMARK SMILES IDX 11 76 12 77 13 78 14 79 15 80 16 81 17 82 18 83 19 84 31 85
REMARK SMILES IDX 20 86 22 87 21 88 23 89 24 91 25 92 29 93 26 94 28 95 27 96
REMARK SMILES IDX 30 97
REMARK H PARENT 88 28 56 39 23 90 30 98
REMARK Flexibility Score: inf
ROOT
ATOM      1  C   UNL A   1      34.423  22.581  24.064  1.00  0.00     0.188 C 
ENDROOT
BRANCH   1   2
ATOM      2  O   UNL A   1      35.649  22.649  23.344  1.00  0.00    -0.377 OA
BRANCH   2   3
ATOM      3  C   UNL A   1      36.667  23.480  23.898  1.00  0.00     0.188 C 
BRANCH   3   4
ATOM      4  C   UNL A   1      37.361  22.915  25.136  1.00  0.00     0.188 C 
BRANCH   4   5
ATOM      5  O   UNL A   1      37.663  21.535  24.937  1.00  0.00    -0.376 OA
BRANCH   5   6
ATOM      6  C   UNL A   1      38.701  20.988  25.743  1.00  0.00     0.202 C 
BRANCH   6   7
ATOM      7  C   UNL A   1      39.182  19.592  25.329  1.00  0.00     0.261 C 
BRANCH   7   8
ATOM      8  O   UNL A   1      40.228  19.070  26.167  1.00  0.00    -0.460 OA
BRANCH   8   9
ATOM      9  C   UNL A   1      41.561  19.327  26.091  1.00  0.00     0.338 C 
ATOM     10  O   UNL A   1      42.322  18.448  25.695  1.00  0.00    -0.246 OA
BRANCH   9  11
ATOM     11  C   UNL A   1      42.143  20.654  26.435  1.00  0.00     0.060 A 
ATOM     12  C   UNL A   1      42.479  21.041  27.728  1.00  0.00     0.016 A 
ATOM     13  C   UNL A   1      42.439  21.543  25.391  1.00  0.00     0.016 A 
ATOM     14  C   UNL A   1      42.928  22.313  28.017  1.00  0.00     0.010 A 
ATOM     15  C   UNL A   1      42.986  22.805  25.661  1.00  0.00     0.010 A 
ATOM     16  C   UNL A   1      43.186  23.209  26.988  1.00  0.00    -0.014 A 
BRANCH  16  17
ATOM     17  C   UNL A   1      43.515  24.594  27.376  1.00  0.00     0.031 A 
ATOM     18  C   UNL A   1      44.881  25.113  27.041  1.00  0.00     0.074 A 
ATOM     19  C   UNL A   1      42.541  25.412  27.820  1.00  0.00     0.049 A 
ATOM     20  N   UNL A   1      45.413  26.276  27.300  1.00  0.00    -0.248 NA
ATOM     21  C   UNL A   1      45.768  24.201  26.296  1.00  0.00     0.031 C 
ATOM     22  C   UNL A   1      41.141  25.022  28.028  1.00  0.00     0.029 A 
ATOM     23  N   UNL A   1      42.560  26.747  28.124  1.00  0.00    -0.354 N 
ATOM     24  C   UNL A   1      46.700  26.221  26.784  1.00  0.00     0.074 A 
ATOM     25  C   UNL A   1      46.880  24.912  26.205  1.00  0.00     0.031 C 
ATOM     26  C   UNL A   1      40.431  26.105  28.379  1.00  0.00     0.029 A 
ATOM     27  C   UNL A   1      41.338  27.237  28.517  1.00  0.00     0.049 A 
ATOM     28  H   UNL A   1      43.371  27.302  28.066  1.00  0.00     0.167 HD
ATOM     29  C   UNL A   1      47.645  27.189  26.800  1.00  0.00     0.037 A 
ATOM     30  C   UNL A   1      41.008  28.456  28.980  1.00  0.00     0.037 A 
ATOM     31  C   UNL A   1      47.427  28.487  27.374  1.00  0.00     0.049 A 
ATOM     32  C   UNL A   1      42.108  29.480  29.083  1.00  0.00     0.074 A 
ATOM     33  C   UNL A   1      48.325  29.521  27.554  1.00  0.00     0.029 A 
ATOM     34  N   UNL A   1      46.199  28.928  27.854  1.00  0.00    -0.354 N 
ATOM     35  N   UNL A   1      43.362  29.388  28.706  1.00  0.00    -0.248 NA
ATOM     36  C   UNL A   1      41.757  30.767  29.694  1.00  0.00     0.031 C 
ATOM     37  C   UNL A   1      47.646  30.576  28.175  1.00  0.00     0.029 A 
ATOM     38  C   UNL A   1      46.316  30.219  28.337  1.00  0.00     0.049 A 
ATOM     39  H   UNL A   1      45.368  28.399  27.850  1.00  0.00     0.167 HD
ATOM     40  C   UNL A   1      43.949  30.602  29.029  1.00  0.00     0.074 A 
ATOM     41  C   UNL A   1      42.901  31.427  29.597  1.00  0.00     0.031 C 
ATOM     42  C   UNL A   1      45.238  31.000  28.888  1.00  0.00     0.037 A 
BRANCH  29  43
ATOM     43  C   UNL A   1      48.992  26.837  26.246  1.00  0.00     0.064 A 
ATOM     44  C   UNL A   1      49.989  26.245  27.034  1.00  0.00     0.173 A 
ATOM     45  C   UNL A   1      49.304  27.135  24.910  1.00  0.00     0.173 A 
ATOM     46  F   UNL A   1      49.756  25.974  28.327  1.00  0.00    -0.203 F 
ATOM     47  C   UNL A   1      51.256  25.988  26.514  1.00  0.00     0.198 A 
ATOM     48  C   UNL A   1      50.562  26.852  24.385  1.00  0.00     0.198 A 
ATOM     49  F   UNL A   1      48.390  27.714  24.116  1.00  0.00    -0.203 F 
ATOM     50  F   UNL A   1      52.212  25.476  27.302  1.00  0.00    -0.200 F 
ATOM     51  C   UNL A   1      51.539  26.287  25.189  1.00  0.00     0.200 A 
ATOM     52  F   UNL A   1      50.833  27.144  23.105  1.00  0.00    -0.200 F 
ATOM     53  F   UNL A   1      52.761  26.046  24.692  1.00  0.00    -0.200 F 
ENDBRANCH  29  43
BRANCH  30  54
ATOM     54  C   UNL A   1      39.627  28.743  29.459  1.00  0.00     0.064 A 
ATOM     55  C   UNL A   1      38.666  29.332  28.625  1.00  0.00     0.173 A 
ATOM     56  C   UNL A   1      39.250  28.471  30.785  1.00  0.00     0.173 A 
ATOM     57  F   UNL A   1      38.975  29.635  27.356  1.00  0.00    -0.203 F 
ATOM     58  C   UNL A   1      37.397  29.661  29.105  1.00  0.00     0.198 A 
ATOM     59  C   UNL A   1      37.971  28.765  31.253  1.00  0.00     0.198 A 
ATOM     60  F   UNL A   1      40.126  27.915  31.634  1.00  0.00    -0.203 F 
ATOM     61  F   UNL A   1      36.521  30.283  28.303  1.00  0.00    -0.200 F 
ATOM     62  C   UNL A   1      37.049  29.373  30.416  1.00  0.00     0.200 A 
ATOM     63  F   UNL A   1      37.637  28.469  32.516  1.00  0.00    -0.200 F 
ATOM     64  F   UNL A   1      35.834  29.695  30.877  1.00  0.00    -0.200 F 
ENDBRANCH  30  54
BRANCH  42  65
ATOM     65  C   UNL A   1      45.559  32.393  29.336  1.00  0.00     0.064 A 
ATOM     66  C   UNL A   1      46.014  32.658  30.635  1.00  0.00     0.173 A 
ATOM     67  C   UNL A   1      45.434  33.468  28.444  1.00  0.00     0.173 A 
ATOM     68  F   UNL A   1      46.132  31.661  31.525  1.00  0.00    -0.203 F 
ATOM     69  C   UNL A   1      46.302  33.958  31.036  1.00  0.00     0.198 A 
ATOM     70  C   UNL A   1      45.756  34.762  28.840  1.00  0.00     0.198 A 
ATOM     71  F   UNL A   1      45.010  33.261  27.189  1.00  0.00    -0.203 F 
ATOM     72  F   UNL A   1      46.681  34.198  32.299  1.00  0.00    -0.200 F 
ATOM     73  C   UNL A   1      46.179  35.007  30.137  1.00  0.00     0.200 A 
ATOM     74  F   UNL A   1      45.650  35.772  27.966  1.00  0.00    -0.200 F 
ATOM     75  F   UNL A   1      46.462  36.258  30.525  1.00  0.00    -0.200 F 
ENDBRANCH  42  65
ENDBRANCH  16  17
ENDBRANCH   9  11
ENDBRANCH   8   9
ENDBRANCH   7   8
ENDBRANCH   6   7
ENDBRANCH   5   6
ENDBRANCH   4   5
ENDBRANCH   3   4
ENDBRANCH   2   3
ENDBRANCH   1   2
BRANCH   1  76
ATOM     76  C   UNL A   1      33.990  21.224  24.663  1.00  0.00     0.188 C 
BRANCH  76  77
ATOM     77  O   UNL A   1      32.746  21.238  25.351  1.00  0.00    -0.376 OA
BRANCH  77  78
ATOM     78  C   UNL A   1      31.674  21.863  24.651  1.00  0.00     0.202 C 
BRANCH  78  79
ATOM     79  C   UNL A   1      30.968  22.997  25.408  1.00  0.00     0.261 C 
BRANCH  79  80
ATOM     80  O   UNL A   1      31.290  24.329  24.971  1.00  0.00    -0.460 OA
BRANCH  80  81
ATOM     81  C   UNL A   1      31.416  25.303  25.899  1.00  0.00     0.338 C 
ATOM     82  O   UNL A   1      31.266  25.197  27.105  1.00  0.00    -0.246 OA
BRANCH  81  83
ATOM     83  C   UNL A   1      32.042  26.454  25.210  1.00  0.00     0.062 A 
ATOM     84  C   UNL A   1      33.310  26.278  24.647  1.00  0.00     0.016 A 
ATOM     85  C   UNL A   1      31.315  27.630  24.972  1.00  0.00     0.041 A 
ATOM     86  C   UNL A   1      33.783  27.218  23.741  1.00  0.00     0.003 A 
ATOM     87  C   UNL A   1      31.833  28.639  24.149  1.00  0.00     0.035 A 
ATOM     88  C   UNL A   1      33.034  28.368  23.480  1.00  0.00     0.026 A 
BRANCH  87  89
ATOM     89  N   UNL A   1      31.177  29.856  24.088  1.00  0.00    -0.380 N 
ATOM     90  H   UNL A   1      31.658  30.640  24.439  1.00  0.00     0.160 HD
BRANCH  89  91
ATOM     91  C   UNL A   1      29.823  30.092  23.546  1.00  0.00     0.107 C 
ATOM     92  C   UNL A   1      29.168  31.368  24.106  1.00  0.00     0.027 C 
ATOM     93  C   UNL A   1      29.824  29.975  22.004  1.00  0.00     0.136 C 
ATOM     94  C   UNL A   1      27.869  31.734  23.401  1.00  0.00     0.002 C 
ATOM     95  C   UNL A   1      28.490  30.384  21.387  1.00  0.00     0.034 C 
ATOM     96  C   UNL A   1      28.044  31.751  21.887  1.00  0.00     0.003 C 
BRANCH  93  97
ATOM     97  O   UNL A   1      30.092  28.617  21.630  1.00  0.00    -0.391 OA
ATOM     98  H   UNL A   1      31.010  28.396  21.849  1.00  0.00     0.211 HD
ENDBRANCH  93  97
ENDBRANCH  89  91
ENDBRANCH  87  89
ENDBRANCH  81  83
ENDBRANCH  80  81
ENDBRANCH  79  80
ENDBRANCH  78  79
ENDBRANCH  77  78
ENDBRANCH  76  77
ENDBRANCH   1  76
TORSDOF 23
ENDMDL
MODEL 2
REMARK VINA RESULT:     -10.2      3.708      9.255
REMARK SMILES O=C(OCCOCCOCCOCCOC(=O)c1cccc(N[C@H]2CCCC[C@@H]2O)c1)c1ccc(-c2c3nc(c(-c4c(F)c(F)c(F)c(F)c4F)c4ccc([nH]4)c(-c4c(F)c(F)c(F)c(F)c4F)c4nc(c(-c5c(F)c(F)c(F)c(F)c5F)c5ccc2[nH]5)C=C4)C=C3)cc1
REMARK SMILES IDX 10 1 9 2 8 3 7 4 6 5 5 6 4 7 3 8 2 9 1 10 32 11 33 12 94 13
REMARK SMILES IDX 34 14 93 15 35 16 36 17 37 18 87 19 38 20 92 21 86 22 88 23
REMARK SMILES IDX 39 24 91 25 85 26 84 27 40 29 72 30 52 31 71 32 53 33 56 34
REMARK SMILES IDX 70 35 89 36 54 37 55 38 69 40 90 41 57 42 41 43 42 44 50 45
REMARK SMILES IDX 43 46 44 47 48 48 51 49 45 50 46 51 49 52 47 53 73 54 74 55
REMARK SMILES IDX 82 56 75 57 76 58 80 59 83 60 77 61 78 62 81 63 79 64 58 65
REMARK SMILES IDX 59 66 67 67 60 68 61 69 65 70 68 71 62 72 63 73 66 74 64 75
REMARK SMILES IDX 11 76 12 77 13 78 14 79 15 80 16 81 17 82 18 83 19 84 31 85
REMARK SMILES IDX 20 86 22 87 21 88 23 89 24 91 25 92 29 93 26 94 28 95 27 96
REMARK SMILES IDX 30 97
REMARK H PARENT 88 28 56 39 23 90 30 98
REMARK Flexibility Score: inf
ROOT
ATOM      1  C   UNL A   1      34.019  34.437  29.220  1.00  0.00     0.188 C 
ENDROOT
BRANCH   1   2
ATOM      2  O   UNL A   1      32.821  34.852  29.865  1.00  0.00    -0.377 OA
BRANCH   2   3
ATOM      3  C   UNL A   1      32.900  36.036  30.655  1.00  0.00     0.188 C 
BRANCH   3   4
ATOM      4  C   UNL A   1      32.769  35.820  32.162  1.00  0.00     0.188 C 
BRANCH   4   5
ATOM      5  O   UNL A   1      33.963  36.244  32.818  1.00  0.00    -0.376 OA
BRANCH   5   6
ATOM      6  C   UNL A   1      35.027  35.300  32.875  1.00  0.00     0.202 C 
BRANCH   6   7
ATOM      7  C   UNL A   1      34.792  34.105  33.806  1.00  0.00     0.261 C 
BRANCH   7   8
ATOM      8  O   UNL A   1      35.613  32.964  33.500  1.00  0.00    -0.460 OA
BRANCH   8   9
ATOM      9  C   UNL A   1      35.713  32.307  32.315  1.00  0.00     0.338 C 
ATOM     10  O   UNL A   1      34.691  32.012  31.702  1.00  0.00    -0.246 OA
BRANCH   9  11
ATOM     11  C   UNL A   1      37.024  31.955  31.700  1.00  0.00     0.060 A 
ATOM     12  C   UNL A   1      37.466  32.456  30.480  1.00  0.00     0.016 A 
ATOM     13  C   UNL A   1      37.898  31.128  32.420  1.00  0.00     0.016 A 
ATOM     14  C   UNL A   1      38.644  32.034  29.900  1.00  0.00     0.010 A 
ATOM     15  C   UNL A   1      39.143  30.767  31.885  1.00  0.00     0.010 A 
ATOM     16  C   UNL A   1      39.495  31.185  30.595  1.00  0.00    -0.014 A 
BRANCH  16  17
ATOM     17  C   UNL A   1      40.658  30.654  29.858  1.00  0.00     0.031 A 
ATOM     18  C   UNL A   1      41.895  31.497  29.793  1.00  0.00     0.074 A 
ATOM     19  C   UNL A   1      40.658  29.371  29.449  1.00  0.00     0.049 A 
ATOM     20  N   UNL A   1      43.027  31.264  29.187  1.00  0.00    -0.248 NA
ATOM     21  C   UNL A   1      41.860  32.775  30.527  1.00  0.00     0.031 C 
ATOM     22  C   UNL A   1      39.543  28.431  29.613  1.00  0.00     0.029 A 
ATOM     23  N   UNL A   1      41.640  28.617  28.864  1.00  0.00    -0.354 N 
ATOM     24  C   UNL A   1      43.820  32.376  29.436  1.00  0.00     0.074 A 
ATOM     25  C   UNL A   1      43.044  33.290  30.239  1.00  0.00     0.031 C 
ATOM     26  C   UNL A   1      39.922  27.218  29.183  1.00  0.00     0.029 A 
ATOM     27  C   UNL A   1      41.264  27.316  28.624  1.00  0.00     0.049 A 
ATOM     28  H   UNL A   1      42.530  28.971  28.637  1.00  0.00     0.167 HD
ATOM     29  C   UNL A   1      45.087  32.603  29.022  1.00  0.00     0.037 A 
ATOM     30  C   UNL A   1      41.922  26.335  27.981  1.00  0.00     0.037 A 
ATOM     31  C   UNL A   1      45.834  31.664  28.234  1.00  0.00     0.049 A 
ATOM     32  C   UNL A   1      43.290  26.654  27.442  1.00  0.00     0.074 A 
ATOM     33  C   UNL A   1      47.082  31.809  27.659  1.00  0.00     0.029 A 
ATOM     34  N   UNL A   1      45.391  30.384  27.924  1.00  0.00    -0.354 N 
ATOM     35  N   UNL A   1      43.995  27.754  27.573  1.00  0.00    -0.248 NA
ATOM     36  C   UNL A   1      43.948  25.610  26.647  1.00  0.00     0.031 C 
ATOM     37  C   UNL A   1      47.377  30.627  26.970  1.00  0.00     0.029 A 
ATOM     38  C   UNL A   1      46.338  29.728  27.158  1.00  0.00     0.049 A 
ATOM     39  H   UNL A   1      44.529  30.001  28.208  1.00  0.00     0.167 HD
ATOM     40  C   UNL A   1      45.179  27.534  26.884  1.00  0.00     0.074 A 
ATOM     41  C   UNL A   1      45.110  26.181  26.369  1.00  0.00     0.031 C 
ATOM     42  C   UNL A   1      46.222  28.375  26.676  1.00  0.00     0.037 A 
BRANCH  29  43
ATOM     43  C   UNL A   1      45.687  33.934  29.361  1.00  0.00     0.064 A 
ATOM     44  C   UNL A   1      46.434  34.137  30.531  1.00  0.00     0.173 A 
ATOM     45  C   UNL A   1      45.477  35.037  28.519  1.00  0.00     0.173 A 
ATOM     46  F   UNL A   1      46.633  33.126  31.389  1.00  0.00    -0.203 F 
ATOM     47  C   UNL A   1      46.926  35.400  30.857  1.00  0.00     0.198 A 
ATOM     48  C   UNL A   1      45.992  36.291  28.834  1.00  0.00     0.198 A 
ATOM     49  F   UNL A   1      44.758  34.900  27.394  1.00  0.00    -0.203 F 
ATOM     50  F   UNL A   1      47.585  35.584  32.009  1.00  0.00    -0.200 F 
ATOM     51  C   UNL A   1      46.708  36.474  30.006  1.00  0.00     0.200 A 
ATOM     52  F   UNL A   1      45.778  37.328  28.011  1.00  0.00    -0.200 F 
ATOM     53  F   UNL A   1      47.175  37.690  30.325  1.00  0.00    -0.200 F 
ENDBRANCH  29  43
BRANCH  30  54
ATOM     54  C   UNL A   1      41.274  25.016  27.736  1.00  0.00     0.064 A 
ATOM     55  C   UNL A   1      41.745  23.840  28.337  1.00  0.00     0.173 A 
ATOM     56  C   UNL A   1      40.187  24.897  26.854  1.00  0.00     0.173 A 
ATOM     57  F   UNL A   1      42.795  23.888  29.171  1.00  0.00    -0.203 F 
ATOM     58  C   UNL A   1      41.175  22.600  28.045  1.00  0.00     0.198 A 
ATOM     59  C   UNL A   1      39.594  23.664  26.591  1.00  0.00     0.198 A 
ATOM     60  F   UNL A   1      39.694  25.983  26.242  1.00  0.00    -0.203 F 
ATOM     61  F   UNL A   1      41.689  21.486  28.584  1.00  0.00    -0.200 F 
ATOM     62  C   UNL A   1      40.098  22.513  27.177  1.00  0.00     0.200 A 
ATOM     63  F   UNL A   1      38.543  23.590  25.764  1.00  0.00    -0.200 F 
ATOM     64  F   UNL A   1      39.555  21.322  26.892  1.00  0.00    -0.200 F 
ENDBRANCH  30  54
BRANCH  42  65
ATOM     65  C   UNL A   1      47.369  27.831  25.880  1.00  0.00     0.064 A 
ATOM     66  C   UNL A   1      48.496  27.278  26.504  1.00  0.00     0.173 A 
ATOM     67  C   UNL A   1      47.325  27.840  24.479  1.00  0.00     0.173 A 
ATOM     68  F   UNL A   1      48.588  27.264  27.842  1.00  0.00    -0.203 F 
ATOM     69  C   UNL A   1      49.555  26.782  25.750  1.00  0.00     0.198 A 
ATOM     70  C   UNL A   1      48.370  27.313  23.729  1.00  0.00     0.198 A 
ATOM     71  F   UNL A   1      46.262  28.352  23.839  1.00  0.00    -0.203 F 
ATOM     72  F   UNL A   1      50.648  26.310  26.365  1.00  0.00    -0.200 F 
ATOM     73  C   UNL A   1      49.488  26.794  24.365  1.00  0.00     0.200 A 
ATOM     74  F   UNL A   1      48.298  27.312  22.391  1.00  0.00    -0.200 F 
ATOM     75  F   UNL A   1      50.507  26.312  23.641  1.00  0.00    -0.200 F 
ENDBRANCH  42  65
ENDBRANCH  16  17
ENDBRANCH   9  11
ENDBRANCH   8   9
ENDBRANCH   7   8
ENDBRANCH   6   7
ENDBRANCH   5   6
ENDBRANCH   4   5
ENDBRANCH   3   4
ENDBRANCH   2   3
ENDBRANCH   1   2
BRANCH   1  76
ATOM     76  C   UNL A   1      33.998  33.141  28.379  1.00  0.00     0.188 C 
BRANCH  76  77
ATOM     77  O   UNL A   1      35.277  32.601  28.070  1.00  0.00    -0.376 OA
BRANCH  77  78
ATOM     78  C   UNL A   1      35.320  31.182  27.942  1.00  0.00     0.202 C 
BRANCH  78  79
ATOM     79  C   UNL A   1      34.063  30.538  27.340  1.00  0.00     0.261 C 
BRANCH  79  80
ATOM     80  O   UNL A   1      34.295  29.394  26.500  1.00  0.00    -0.460 OA
BRANCH  80  81
ATOM     81  C   UNL A   1      33.373  28.406  26.479  1.00  0.00     0.338 C 
ATOM     82  O   UNL A   1      32.605  28.096  27.374  1.00  0.00    -0.246 OA
BRANCH  81  83
ATOM     83  C   UNL A   1      33.277  27.957  25.072  1.00  0.00     0.062 A 
ATOM     84  C   UNL A   1      33.135  28.929  24.076  1.00  0.00     0.016 A 
ATOM     85  C   UNL A   1      33.502  26.615  24.730  1.00  0.00     0.041 A 
ATOM     86  C   UNL A   1      33.354  28.575  22.751  1.00  0.00     0.003 A 
ATOM     87  C   UNL A   1      33.611  26.226  23.389  1.00  0.00     0.035 A 
ATOM     88  C   UNL A   1      33.616  27.241  22.423  1.00  0.00     0.026 A 
BRANCH  87  89
ATOM     89  N   UNL A   1      33.644  24.876  23.083  1.00  0.00    -0.380 N 
ATOM     90  H   UNL A   1      33.699  24.637  22.130  1.00  0.00     0.160 HD
BRANCH  89  91
ATOM     91  C   UNL A   1      33.604  23.761  24.051  1.00  0.00     0.107 C 
ATOM     92  C   UNL A   1      32.197  23.155  24.207  1.00  0.00     0.027 C 
ATOM     93  C   UNL A   1      34.729  22.742  23.757  1.00  0.00     0.136 C 
ATOM     94  C   UNL A   1      32.183  21.877  25.035  1.00  0.00     0.002 C 
ATOM     95  C   UNL A   1      34.620  21.487  24.617  1.00  0.00     0.034 C 
ATOM     96  C   UNL A   1      33.225  20.881  24.539  1.00  0.00     0.003 C 
BRANCH  93  97
ATOM     97  O   UNL A   1      36.002  23.352  24.017  1.00  0.00    -0.391 OA
ATOM     98  H   UNL A   1      36.545  22.751  24.550  1.00  0.00     0.211 HD
ENDBRANCH  93  97
ENDBRANCH  89  91
ENDBRANCH  87  89
ENDBRANCH  81  83
ENDBRANCH  80  81
ENDBRANCH  79  80
ENDBRANCH  78  79
ENDBRANCH  77  78
ENDBRANCH  76  77
ENDBRANCH   1  76
TORSDOF 23
ENDMDL
MODEL 3
REMARK VINA RESULT:     -10.2      5.244      9.922
REMARK SMILES O=C(OCCOCCOCCOCCOC(=O)c1cccc(N[C@H]2CCCC[C@@H]2O)c1)c1ccc(-c2c3nc(c(-c4c(F)c(F)c(F)c(F)c4F)c4ccc([nH]4)c(-c4c(F)c(F)c(F)c(F)c4F)c4nc(c(-c5c(F)c(F)c(F)c(F)c5F)c5ccc2[nH]5)C=C4)C=C3)cc1
REMARK SMILES IDX 10 1 9 2 8 3 7 4 6 5 5 6 4 7 3 8 2 9 1 10 32 11 33 12 94 13
REMARK SMILES IDX 34 14 93 15 35 16 36 17 37 18 87 19 38 20 92 21 86 22 88 23
REMARK SMILES IDX 39 24 91 25 85 26 84 27 40 29 72 30 52 31 71 32 53 33 56 34
REMARK SMILES IDX 70 35 89 36 54 37 55 38 69 40 90 41 57 42 41 43 42 44 50 45
REMARK SMILES IDX 43 46 44 47 48 48 51 49 45 50 46 51 49 52 47 53 73 54 74 55
REMARK SMILES IDX 82 56 75 57 76 58 80 59 83 60 77 61 78 62 81 63 79 64 58 65
REMARK SMILES IDX 59 66 67 67 60 68 61 69 65 70 68 71 62 72 63 73 66 74 64 75
REMARK SMILES IDX 11 76 12 77 13 78 14 79 15 80 16 81 17 82 18 83 19 84 31 85
REMARK SMILES IDX 20 86 22 87 21 88 23 89 24 91 25 92 29 93 26 94 28 95 27 96
REMARK SMILES IDX 30 97
REMARK H PARENT 88 28 56 39 23 90 30 98
REMARK Flexibility Score: inf
ROOT
ATOM      1  C   UNL A   1      41.033  20.167  26.514  1.00  0.00     0.188 C 
ENDROOT
BRANCH   1   2
ATOM      2  O   UNL A   1      42.452  20.063  26.557  1.00  0.00    -0.377 OA
BRANCH   2   3
ATOM      3  C   UNL A   1      43.093  19.606  25.369  1.00  0.00     0.188 C 
BRANCH   3   4
ATOM      4  C   UNL A   1      44.609  19.445  25.472  1.00  0.00     0.188 C 
BRANCH   4   5
ATOM      5  O   UNL A   1      45.238  20.038  24.337  1.00  0.00    -0.376 OA
BRANCH   5   6
ATOM      6  C   UNL A   1      45.355  21.457  24.343  1.00  0.00     0.202 C 
BRANCH   6   7
ATOM      7  C   UNL A   1      45.538  22.092  25.726  1.00  0.00     0.261 C 
BRANCH   7   8
ATOM      8  O   UNL A   1      45.169  23.481  25.778  1.00  0.00    -0.460 OA
BRANCH   8   9
ATOM      9  C   UNL A   1      43.928  24.017  25.638  1.00  0.00     0.338 C 
ATOM     10  O   UNL A   1      43.234  23.688  24.680  1.00  0.00    -0.246 OA
BRANCH   9  11
ATOM     11  C   UNL A   1      43.349  24.970  26.627  1.00  0.00     0.060 A 
ATOM     12  C   UNL A   1      43.760  26.291  26.761  1.00  0.00     0.016 A 
ATOM     13  C   UNL A   1      42.278  24.536  27.422  1.00  0.00     0.016 A 
ATOM     14  C   UNL A   1      43.265  27.114  27.752  1.00  0.00     0.010 A 
ATOM     15  C   UNL A   1      41.699  25.392  28.370  1.00  0.00     0.010 A 
ATOM     16  C   UNL A   1      42.230  26.674  28.567  1.00  0.00    -0.014 A 
BRANCH  16  17
ATOM     17  C   UNL A   1      41.856  27.544  29.699  1.00  0.00     0.031 A 
ATOM     18  C   UNL A   1      40.613  28.372  29.569  1.00  0.00     0.074 A 
ATOM     19  C   UNL A   1      42.502  27.423  30.874  1.00  0.00     0.049 A 
ATOM     20  N   UNL A   1      40.096  29.227  30.408  1.00  0.00    -0.248 NA
ATOM     21  C   UNL A   1      39.835  28.202  28.329  1.00  0.00     0.031 C 
ATOM     22  C   UNL A   1      43.631  26.520  31.129  1.00  0.00     0.029 A 
ATOM     23  N   UNL A   1      42.272  28.013  32.088  1.00  0.00    -0.354 N 
ATOM     24  C   UNL A   1      38.958  29.720  29.784  1.00  0.00     0.074 A 
ATOM     25  C   UNL A   1      38.859  29.080  28.494  1.00  0.00     0.031 C 
ATOM     26  C   UNL A   1      43.962  26.584  32.427  1.00  0.00     0.029 A 
ATOM     27  C   UNL A   1      43.139  27.599  33.072  1.00  0.00     0.049 A 
ATOM     28  H   UNL A   1      41.555  28.670  32.243  1.00  0.00     0.167 HD
ATOM     29  C   UNL A   1      38.077  30.631  30.258  1.00  0.00     0.037 A 
ATOM     30  C   UNL A   1      43.275  28.034  34.338  1.00  0.00     0.037 A 
ATOM     31  C   UNL A   1      38.200  31.238  31.553  1.00  0.00     0.049 A 
ATOM     32  C   UNL A   1      42.345  29.124  34.801  1.00  0.00     0.074 A 
ATOM     33  C   UNL A   1      37.444  32.249  32.115  1.00  0.00     0.029 A 
ATOM     34  N   UNL A   1      39.148  30.868  32.499  1.00  0.00    -0.354 N 
ATOM     35  N   UNL A   1      41.340  29.680  34.164  1.00  0.00    -0.248 NA
ATOM     36  C   UNL A   1      42.578  29.665  36.145  1.00  0.00     0.031 C 
ATOM     37  C   UNL A   1      37.960  32.513  33.389  1.00  0.00     0.029 A 
ATOM     38  C   UNL A   1      39.003  31.634  33.640  1.00  0.00     0.049 A 
ATOM     39  H   UNL A   1      39.825  30.162  32.374  1.00  0.00     0.167 HD
ATOM     40  C   UNL A   1      40.818  30.630  35.029  1.00  0.00     0.074 A 
ATOM     41  C   UNL A   1      41.596  30.546  36.250  1.00  0.00     0.031 C 
ATOM     42  C   UNL A   1      39.802  31.506  34.833  1.00  0.00     0.037 A 
BRANCH  29  43
ATOM     43  C   UNL A   1      36.973  31.055  29.338  1.00  0.00     0.064 A 
ATOM     44  C   UNL A   1      36.937  32.331  28.758  1.00  0.00     0.173 A 
ATOM     45  C   UNL A   1      35.910  30.181  29.065  1.00  0.00     0.173 A 
ATOM     46  F   UNL A   1      37.909  33.219  29.016  1.00  0.00    -0.203 F 
ATOM     47  C   UNL A   1      35.865  32.725  27.959  1.00  0.00     0.198 A 
ATOM     48  C   UNL A   1      34.853  30.568  28.245  1.00  0.00     0.198 A 
ATOM     49  F   UNL A   1      35.888  28.953  29.606  1.00  0.00    -0.203 F 
ATOM     50  F   UNL A   1      35.822  33.970  27.463  1.00  0.00    -0.200 F 
ATOM     51  C   UNL A   1      34.827  31.842  27.699  1.00  0.00     0.200 A 
ATOM     52  F   UNL A   1      33.851  29.713  27.997  1.00  0.00    -0.200 F 
ATOM     53  F   UNL A   1      33.793  32.225  26.937  1.00  0.00    -0.200 F 
ENDBRANCH  29  43
BRANCH  30  54
ATOM     54  C   UNL A   1      44.367  27.517  35.209  1.00  0.00     0.064 A 
ATOM     55  C   UNL A   1      45.642  28.101  35.218  1.00  0.00     0.173 A 
ATOM     56  C   UNL A   1      44.169  26.392  36.027  1.00  0.00     0.173 A 
ATOM     57  F   UNL A   1      45.897  29.164  34.440  1.00  0.00    -0.203 F 
ATOM     58  C   UNL A   1      46.677  27.565  35.985  1.00  0.00     0.198 A 
ATOM     59  C   UNL A   1      45.192  25.880  36.821  1.00  0.00     0.198 A 
ATOM     60  F   UNL A   1      42.974  25.784  36.058  1.00  0.00    -0.203 F 
ATOM     61  F   UNL A   1      47.903  28.105  35.922  1.00  0.00    -0.200 F 
ATOM     62  C   UNL A   1      46.451  26.458  36.789  1.00  0.00     0.200 A 
ATOM     63  F   UNL A   1      44.961  24.821  37.608  1.00  0.00    -0.200 F 
ATOM     64  F   UNL A   1      47.446  25.941  37.520  1.00  0.00    -0.200 F 
ENDBRANCH  30  54
BRANCH  42  65
ATOM     65  C   UNL A   1      39.474  32.414  35.979  1.00  0.00     0.064 A 
ATOM     66  C   UNL A   1      40.141  33.633  36.162  1.00  0.00     0.173 A 
ATOM     67  C   UNL A   1      38.461  32.070  36.886  1.00  0.00     0.173 A 
ATOM     68  F   UNL A   1      41.128  33.994  35.327  1.00  0.00    -0.203 F 
ATOM     69  C   UNL A   1      39.829  34.462  37.234  1.00  0.00     0.198 A 
ATOM     70  C   UNL A   1      38.128  32.917  37.937  1.00  0.00     0.198 A 
ATOM     71  F   UNL A   1      37.790  30.917  36.745  1.00  0.00    -0.203 F 
ATOM     72  F   UNL A   1      40.517  35.596  37.424  1.00  0.00    -0.200 F 
ATOM     73  C   UNL A   1      38.818  34.106  38.116  1.00  0.00     0.200 A 
ATOM     74  F   UNL A   1      37.143  32.579  38.780  1.00  0.00    -0.200 F 
ATOM     75  F   UNL A   1      38.516  34.908  39.145  1.00  0.00    -0.200 F 
ENDBRANCH  42  65
ENDBRANCH  16  17
ENDBRANCH   9  11
ENDBRANCH   8   9
ENDBRANCH   7   8
ENDBRANCH   6   7
ENDBRANCH   5   6
ENDBRANCH   4   5
ENDBRANCH   3   4
ENDBRANCH   2   3
ENDBRANCH   1   2
BRANCH   1  76
ATOM     76  C   UNL A   1      40.363  21.426  27.111  1.00  0.00     0.188 C 
BRANCH  76  77
ATOM     77  O   UNL A   1      39.834  22.337  26.157  1.00  0.00    -0.376 OA
BRANCH  77  78
ATOM     78  C   UNL A   1      38.412  22.430  26.132  1.00  0.00     0.202 C 
BRANCH  78  79
ATOM     79  C   UNL A   1      37.771  22.338  24.740  1.00  0.00     0.261 C 
BRANCH  79  80
ATOM     80  O   UNL A   1      36.863  23.401  24.404  1.00  0.00    -0.460 OA
BRANCH  80  81
ATOM     81  C   UNL A   1      35.657  23.085  23.883  1.00  0.00     0.338 C 
ATOM     82  O   UNL A   1      35.371  22.975  22.702  1.00  0.00    -0.246 OA
BRANCH  81  83
ATOM     83  C   UNL A   1      34.823  22.623  25.014  1.00  0.00     0.062 A 
ATOM     84  C   UNL A   1      34.349  23.578  25.920  1.00  0.00     0.016 A 
ATOM     85  C   UNL A   1      34.371  21.296  25.078  1.00  0.00     0.041 A 
ATOM     86  C   UNL A   1      33.327  23.231  26.793  1.00  0.00     0.003 A 
ATOM     87  C   UNL A   1      33.422  20.907  26.032  1.00  0.00     0.035 A 
ATOM     88  C   UNL A   1      32.855  21.916  26.823  1.00  0.00     0.026 A 
BRANCH  87  89
ATOM     89  N   UNL A   1      33.141  19.561  26.188  1.00  0.00    -0.380 N 
ATOM     90  H   UNL A   1      33.184  19.200  27.103  1.00  0.00     0.160 HD
BRANCH  89  91
ATOM     91  C   UNL A   1      32.785  18.614  25.112  1.00  0.00     0.107 C 
ATOM     92  C   UNL A   1      32.527  19.309  23.763  1.00  0.00     0.027 C 
ATOM     93  C   UNL A   1      33.789  17.439  25.065  1.00  0.00     0.136 C 
ATOM     94  C   UNL A   1      32.368  18.332  22.606  1.00  0.00     0.002 C 
ATOM     95  C   UNL A   1      33.567  16.529  23.860  1.00  0.00     0.034 C 
ATOM     96  C   UNL A   1      33.513  17.327  22.565  1.00  0.00     0.003 C 
BRANCH  93  97
ATOM     97  O   UNL A   1      33.652  16.648  26.253  1.00  0.00    -0.391 OA
ATOM     98  H   UNL A   1      32.937  17.008  26.801  1.00  0.00     0.211 HD
ENDBRANCH  93  97
ENDBRANCH  89  91
ENDBRANCH  87  89
ENDBRANCH  81  83
ENDBRANCH  80  81
ENDBRANCH  79  80
ENDBRANCH  78  79
ENDBRANCH  77  78
ENDBRANCH  76  77
ENDBRANCH   1  76
TORSDOF 23
ENDMDL
