MODEL 1
REMARK VINA RESULT:     -11.0      0.000      0.000
REMARK SMILES CC[C@@](C)(NC(=O)c1c(C)cc(C)[nH]c1=O)C(=O)OCCOCCOCCOCCOC(=O)c1ccc(-c2c3nc(c(-c4c(F)c(F)c(F)c(F)c4F)c4ccc([nH]4)c(-c4c(F)c(F)c(F)c(F)c4F)c4nc(c(-c5c(F)c(F)c(F)c(F)c5F)c5ccc2[nH]5)C=C4)C=C3)cc1
REMARK SMILES IDX 25 1 24 2 23 3 22 4 21 5 20 6 19 7 17 8 18 9 3 10 4 11 2 12
REMARK SMILES IDX 1 13 5 14 6 15 7 17 8 18 9 19 15 20 10 21 11 22 14 23 16 24
REMARK SMILES IDX 12 25 13 27 26 28 27 29 28 30 29 31 30 32 31 33 32 34 33 35
REMARK SMILES IDX 34 36 35 37 96 38 36 39 95 40 37 41 38 42 39 43 89 44 40 45
REMARK SMILES IDX 94 46 88 47 90 48 41 49 93 50 87 51 86 52 42 54 74 55 54 56
REMARK SMILES IDX 73 57 55 58 58 59 72 60 91 61 56 62 57 63 71 65 92 66 59 67
REMARK SMILES IDX 43 68 44 69 52 70 45 71 46 72 50 73 53 74 47 75 48 76 51 77
REMARK SMILES IDX 49 78 75 79 76 80 84 81 77 82 78 83 82 84 85 85 79 86 80 87
REMARK SMILES IDX 83 88 81 89 60 90 61 91 69 92 62 93 63 94 67 95 70 96 64 97
REMARK SMILES IDX 65 98 68 99 66 100
REMARK H PARENT 5 16 14 26 90 53 58 64
REMARK Flexibility Score: inf
ROOT
ATOM      1  O   UNL A   1      39.250  21.353  26.240  1.00  0.00    -0.377 OA
ENDROOT
BRANCH   1   2
ATOM      2  C   UNL A   1      38.206  22.037  25.523  1.00  0.00     0.188 C 
BRANCH   2   3
ATOM      3  C   UNL A   1      36.559  21.740  25.752  1.00  0.00     0.188 C 
BRANCH   3   4
ATOM      4  O   UNL A   1      35.777  20.663  25.237  1.00  0.00    -0.376 OA
BRANCH   4   5
ATOM      5  C   UNL A   1      34.398  20.253  25.114  1.00  0.00     0.202 C 
BRANCH   5   6
ATOM      6  C   UNL A   1      33.119  20.888  25.736  1.00  0.00     0.261 C 
BRANCH   6   7
ATOM      7  O   UNL A   1      32.017  20.891  24.872  1.00  0.00    -0.462 OA
BRANCH   7   8
ATOM      8  C   UNL A   1      32.160  21.744  23.845  1.00  0.00     0.331 C 
ATOM      9  O   UNL A   1      32.575  21.426  22.740  1.00  0.00    -0.249 OA
BRANCH   8  10
ATOM     10  C   UNL A   1      31.700  23.124  24.297  1.00  0.00     0.135 C 
ATOM     11  C   UNL A   1      30.648  23.545  23.244  1.00  0.00     0.047 C 
BRANCH  10  12
ATOM     12  C   UNL A   1      30.895  23.122  25.672  1.00  0.00     0.037 C 
ATOM     13  C   UNL A   1      31.503  23.915  26.843  1.00  0.00     0.007 C 
ENDBRANCH  10  12
BRANCH  10  14
ATOM     14  N   UNL A   1      32.850  24.176  24.254  1.00  0.00    -0.336 N 
ATOM     15  C   UNL A   1      33.175  25.522  24.147  1.00  0.00     0.258 C 
ATOM     16  H   UNL A   1      33.697  23.681  24.340  1.00  0.00     0.165 HD
ATOM     17  O   UNL A   1      34.410  25.662  24.286  1.00  0.00    -0.269 OA
BRANCH  15  18
ATOM     18  C   UNL A   1      32.363  26.898  24.000  1.00  0.00     0.107 A 
ATOM     19  C   UNL A   1      31.797  27.905  24.800  1.00  0.00    -0.031 A 
ATOM     20  C   UNL A   1      31.875  26.964  22.529  1.00  0.00     0.261 A 
ATOM     21  C   UNL A   1      31.631  28.409  26.295  1.00  0.00     0.045 C 
ATOM     22  C   UNL A   1      31.020  28.985  24.192  1.00  0.00     0.025 A 
ATOM     23  N   UNL A   1      30.982  27.941  22.152  1.00  0.00    -0.326 N 
ATOM     24  O   UNL A   1      32.250  26.161  21.675  1.00  0.00    -0.269 OA
ATOM     25  C   UNL A   1      30.571  28.956  22.951  1.00  0.00     0.015 A 
ATOM     26  H   UNL A   1      30.616  27.901  21.239  1.00  0.00     0.169 HD
ATOM     27  C   UNL A   1      29.657  30.028  22.470  1.00  0.00     0.064 C 
ENDBRANCH  15  18
ENDBRANCH  10  14
ENDBRANCH   8  10
ENDBRANCH   7   8
ENDBRANCH   6   7
ENDBRANCH   5   6
ENDBRANCH   4   5
ENDBRANCH   3   4
ENDBRANCH   2   3
ENDBRANCH   1   2
BRANCH   1  28
ATOM     28  C   UNL A   1      40.111  20.437  25.547  1.00  0.00     0.188 C 
BRANCH  28  29
ATOM     29  C   UNL A   1      41.092  19.672  26.461  1.00  0.00     0.188 C 
BRANCH  29  30
ATOM     30  O   UNL A   1      42.434  20.100  26.649  1.00  0.00    -0.376 OA
BRANCH  30  31
ATOM     31  C   UNL A   1      42.712  21.488  26.650  1.00  0.00     0.202 C 
BRANCH  31  32
ATOM     32  C   UNL A   1      43.479  22.033  25.436  1.00  0.00     0.261 C 
BRANCH  32  33
ATOM     33  O   UNL A   1      42.951  23.254  24.889  1.00  0.00    -0.460 OA
BRANCH  33  34
ATOM     34  C   UNL A   1      43.681  24.374  25.109  1.00  0.00     0.338 C 
ATOM     35  O   UNL A   1      44.723  24.690  24.551  1.00  0.00    -0.246 OA
BRANCH  34  36
ATOM     36  C   UNL A   1      42.869  25.292  25.956  1.00  0.00     0.060 A 
ATOM     37  C   UNL A   1      43.365  26.590  26.158  1.00  0.00     0.016 A 
ATOM     38  C   UNL A   1      41.570  24.974  26.379  1.00  0.00     0.016 A 
ATOM     39  C   UNL A   1      42.585  27.555  26.804  1.00  0.00     0.010 A 
ATOM     40  C   UNL A   1      40.807  25.927  27.078  1.00  0.00     0.010 A 
ATOM     41  C   UNL A   1      41.330  27.209  27.332  1.00  0.00    -0.014 A 
BRANCH  41  42
ATOM     42  C   UNL A   1      40.824  28.027  28.473  1.00  0.00     0.031 A 
ATOM     43  C   UNL A   1      41.609  27.902  29.759  1.00  0.00     0.074 A 
ATOM     44  C   UNL A   1      39.802  28.903  28.401  1.00  0.00     0.049 A 
ATOM     45  N   UNL A   1      41.478  28.551  30.887  1.00  0.00    -0.248 NA
ATOM     46  C   UNL A   1      42.714  26.924  29.758  1.00  0.00     0.031 C 
ATOM     47  C   UNL A   1      38.980  29.175  27.226  1.00  0.00     0.029 A 
ATOM     48  N   UNL A   1      39.292  29.746  29.368  1.00  0.00    -0.354 N 
ATOM     49  C   UNL A   1      42.496  28.079  31.706  1.00  0.00     0.074 A 
ATOM     50  C   UNL A   1      43.221  27.074  30.968  1.00  0.00     0.031 C 
ATOM     51  C   UNL A   1      38.063  30.111  27.543  1.00  0.00     0.029 A 
ATOM     52  C   UNL A   1      38.219  30.498  28.948  1.00  0.00     0.049 A 
ATOM     53  H   UNL A   1      39.662  29.805  30.277  1.00  0.00     0.167 HD
ATOM     54  C   UNL A   1      42.817  28.453  32.961  1.00  0.00     0.037 A 
ATOM     55  C   UNL A   1      37.448  31.378  29.627  1.00  0.00     0.037 A 
ATOM     56  C   UNL A   1      42.103  29.433  33.723  1.00  0.00     0.049 A 
ATOM     57  C   UNL A   1      37.754  31.687  31.080  1.00  0.00     0.074 A 
ATOM     58  C   UNL A   1      42.369  29.875  35.006  1.00  0.00     0.029 A 
ATOM     59  N   UNL A   1      40.978  30.105  33.282  1.00  0.00    -0.354 N 
ATOM     60  N   UNL A   1      38.757  31.283  31.822  1.00  0.00    -0.248 NA
ATOM     61  C   UNL A   1      36.815  32.572  31.794  1.00  0.00     0.031 C 
ATOM     62  C   UNL A   1      41.364  30.771  35.368  1.00  0.00     0.029 A 
ATOM     63  C   UNL A   1      40.508  30.927  34.290  1.00  0.00     0.049 A 
ATOM     64  H   UNL A   1      40.574  30.011  32.390  1.00  0.00     0.167 HD
ATOM     65  C   UNL A   1      38.578  31.875  33.070  1.00  0.00     0.074 A 
ATOM     66  C   UNL A   1      37.387  32.687  32.985  1.00  0.00     0.031 C 
ATOM     67  C   UNL A   1      39.331  31.747  34.190  1.00  0.00     0.037 A 
BRANCH  54  68
ATOM     68  C   UNL A   1      43.988  27.787  33.609  1.00  0.00     0.064 A 
ATOM     69  C   UNL A   1      43.841  26.593  34.328  1.00  0.00     0.173 A 
ATOM     70  C   UNL A   1      45.279  28.303  33.433  1.00  0.00     0.173 A 
ATOM     71  F   UNL A   1      42.619  26.079  34.541  1.00  0.00    -0.203 F 
ATOM     72  C   UNL A   1      44.951  25.931  34.841  1.00  0.00     0.198 A 
ATOM     73  C   UNL A   1      46.389  27.626  33.925  1.00  0.00     0.198 A 
ATOM     74  F   UNL A   1      45.463  29.448  32.758  1.00  0.00    -0.203 F 
ATOM     75  F   UNL A   1      44.791  24.799  35.539  1.00  0.00    -0.200 F 
ATOM     76  C   UNL A   1      46.224  26.440  34.626  1.00  0.00     0.200 A 
ATOM     77  F   UNL A   1      47.618  28.112  33.708  1.00  0.00    -0.200 F 
ATOM     78  F   UNL A   1      47.295  25.784  35.095  1.00  0.00    -0.200 F 
ENDBRANCH  54  68
BRANCH  55  79
ATOM     79  C   UNL A   1      36.270  32.024  28.973  1.00  0.00     0.064 A 
ATOM     80  C   UNL A   1      36.208  33.413  28.783  1.00  0.00     0.173 A 
ATOM     81  C   UNL A   1      35.142  31.272  28.613  1.00  0.00     0.173 A 
ATOM     82  F   UNL A   1      37.241  34.186  29.152  1.00  0.00    -0.203 F 
ATOM     83  C   UNL A   1      35.059  34.025  28.283  1.00  0.00     0.198 A 
ATOM     84  C   UNL A   1      34.004  31.882  28.082  1.00  0.00     0.198 A 
ATOM     85  F   UNL A   1      35.131  29.945  28.798  1.00  0.00    -0.203 F 
ATOM     86  F   UNL A   1      35.003  35.360  28.180  1.00  0.00    -0.200 F 
ATOM     87  C   UNL A   1      33.959  33.259  27.928  1.00  0.00     0.200 A 
ATOM     88  F   UNL A   1      32.943  31.137  27.745  1.00  0.00    -0.200 F 
ATOM     89  F   UNL A   1      32.851  33.848  27.459  1.00  0.00    -0.200 F 
ENDBRANCH  55  79
BRANCH  67  90
ATOM     90  C   UNL A   1      38.917  32.486  35.431  1.00  0.00     0.064 A 
ATOM     91  C   UNL A   1      38.275  31.825  36.487  1.00  0.00     0.173 A 
ATOM     92  C   UNL A   1      39.308  33.820  35.630  1.00  0.00     0.173 A 
ATOM     93  F   UNL A   1      37.878  30.551  36.345  1.00  0.00    -0.203 F 
ATOM     94  C   UNL A   1      38.043  32.471  37.699  1.00  0.00     0.198 A 
ATOM     95  C   UNL A   1      39.101  34.453  36.852  1.00  0.00     0.198 A 
ATOM     96  F   UNL A   1      39.943  34.491  34.657  1.00  0.00    -0.203 F 
ATOM     97  F   UNL A   1      37.419  31.823  38.692  1.00  0.00    -0.200 F 
ATOM     98  C   UNL A   1      38.471  33.778  37.886  1.00  0.00     0.200 A 
ATOM     99  F   UNL A   1      39.539  35.705  37.041  1.00  0.00    -0.200 F 
ATOM    100  F   UNL A   1      38.282  34.383  39.067  1.00  0.00    -0.200 F 
ENDBRANCH  67  90
ENDBRANCH  41  42
ENDBRANCH  34  36
ENDBRANCH  33  34
ENDBRANCH  32  33
ENDBRANCH  31  32
ENDBRANCH  30  31
ENDBRANCH  29  30
ENDBRANCH  28  29
ENDBRANCH   1  28
TORSDOF 23
ENDMDL
MODEL 2
REMARK VINA RESULT:     -11.0      4.313      8.768
REMARK SMILES CC[C@@](C)(NC(=O)c1c(C)cc(C)[nH]c1=O)C(=O)OCCOCCOCCOCCOC(=O)c1ccc(-c2c3nc(c(-c4c(F)c(F)c(F)c(F)c4F)c4ccc([nH]4)c(-c4c(F)c(F)c(F)c(F)c4F)c4nc(c(-c5c(F)c(F)c(F)c(F)c5F)c5ccc2[nH]5)C=C4)C=C3)cc1
REMARK SMILES IDX 25 1 24 2 23 3 22 4 21 5 20 6 19 7 17 8 18 9 3 10 4 11 2 12
REMARK SMILES IDX 1 13 5 14 6 15 7 17 8 18 9 19 15 20 10 21 11 22 14 23 16 24
REMARK SMILES IDX 12 25 13 27 26 28 27 29 28 30 29 31 30 32 31 33 32 34 33 35
REMARK SMILES IDX 34 36 35 37 96 38 36 39 95 40 37 41 38 42 39 43 89 44 40 45
REMARK SMILES IDX 94 46 88 47 90 48 41 49 93 50 87 51 86 52 42 54 74 55 54 56
REMARK SMILES IDX 73 57 55 58 58 59 72 60 91 61 56 62 57 63 71 65 92 66 59 67
REMARK SMILES IDX 43 68 44 69 52 70 45 71 46 72 50 73 53 74 47 75 48 76 51 77
REMARK SMILES IDX 49 78 75 79 76 80 84 81 77 82 78 83 82 84 85 85 79 86 80 87
REMARK SMILES IDX 83 88 81 89 60 90 61 91 69 92 62 93 63 94 67 95 70 96 64 97
REMARK SMILES IDX 65 98 68 99 66 100
REMARK H PARENT 5 16 14 26 90 53 58 64
REMARK Flexibility Score: inf
ROOT
ATOM      1  O   UNL A   1      34.844  22.679  27.067  1.00  0.00    -0.377 OA
ENDROOT
BRANCH   1   2
ATOM      2  C   UNL A   1      33.707  23.403  26.561  1.00  0.00     0.188 C 
BRANCH   2   3
ATOM      3  C   UNL A   1      32.104  22.991  26.898  1.00  0.00     0.188 C 
BRANCH   3   4
ATOM      4  O   UNL A   1      31.011  23.861  27.189  1.00  0.00    -0.376 OA
BRANCH   4   5
ATOM      5  C   UNL A   1      29.925  24.539  26.523  1.00  0.00     0.202 C 
BRANCH   5   6
ATOM      6  C   UNL A   1      29.902  25.943  25.847  1.00  0.00     0.261 C 
BRANCH   6   7
ATOM      7  O   UNL A   1      31.150  26.578  25.828  1.00  0.00    -0.462 OA
BRANCH   7   8
ATOM      8  C   UNL A   1      31.232  27.542  24.896  1.00  0.00     0.331 C 
ATOM      9  O   UNL A   1      30.266  28.111  24.410  1.00  0.00    -0.249 OA
BRANCH   8  10
ATOM     10  C   UNL A   1      32.703  27.797  24.594  1.00  0.00     0.135 C 
ATOM     11  C   UNL A   1      32.813  29.336  24.477  1.00  0.00     0.047 C 
BRANCH  10  12
ATOM     12  C   UNL A   1      33.685  27.425  25.793  1.00  0.00     0.037 C 
ATOM     13  C   UNL A   1      34.214  28.586  26.654  1.00  0.00     0.007 C 
ENDBRANCH  10  12
BRANCH  10  14
ATOM     14  N   UNL A   1      33.141  27.192  23.226  1.00  0.00    -0.336 N 
ATOM     15  C   UNL A   1      33.425  26.030  22.520  1.00  0.00     0.258 C 
ATOM     16  H   UNL A   1      33.267  27.945  22.604  1.00  0.00     0.165 HD
ATOM     17  O   UNL A   1      33.653  26.317  21.324  1.00  0.00    -0.269 OA
BRANCH  15  18
ATOM     18  C   UNL A   1      33.426  24.457  22.837  1.00  0.00     0.107 A 
ATOM     19  C   UNL A   1      34.315  23.370  22.890  1.00  0.00    -0.031 A 
ATOM     20  C   UNL A   1      31.941  24.010  22.843  1.00  0.00     0.261 A 
ATOM     21  C   UNL A   1      35.842  22.959  22.763  1.00  0.00     0.045 C 
ATOM     22  C   UNL A   1      33.817  22.018  23.144  1.00  0.00     0.025 A 
ATOM     23  N   UNL A   1      31.634  22.669  22.895  1.00  0.00    -0.326 N 
ATOM     24  O   UNL A   1      31.011  24.815  22.792  1.00  0.00    -0.269 OA
ATOM     25  C   UNL A   1      32.544  21.680  23.067  1.00  0.00     0.015 A 
ATOM     26  H   UNL A   1      30.689  22.410  22.801  1.00  0.00     0.169 HD
ATOM     27  C   UNL A   1      32.151  20.249  23.188  1.00  0.00     0.064 C 
ENDBRANCH  15  18
ENDBRANCH  10  14
ENDBRANCH   8  10
ENDBRANCH   7   8
ENDBRANCH   6   7
ENDBRANCH   5   6
ENDBRANCH   4   5
ENDBRANCH   3   4
ENDBRANCH   2   3
ENDBRANCH   1   2
BRANCH   1  28
ATOM     28  C   UNL A   1      35.508  21.719  26.231  1.00  0.00     0.188 C 
BRANCH  28  29
ATOM     29  C   UNL A   1      36.978  22.066  25.910  1.00  0.00     0.188 C 
BRANCH  29  30
ATOM     30  O   UNL A   1      37.732  21.332  24.956  1.00  0.00    -0.376 OA
BRANCH  30  31
ATOM     31  C   UNL A   1      37.685  19.918  24.991  1.00  0.00     0.202 C 
BRANCH  31  32
ATOM     32  C   UNL A   1      38.983  19.198  25.385  1.00  0.00     0.261 C 
BRANCH  32  33
ATOM     33  O   UNL A   1      39.651  19.748  26.534  1.00  0.00    -0.460 OA
BRANCH  33  34
ATOM     34  C   UNL A   1      40.997  19.871  26.442  1.00  0.00     0.338 C 
ATOM     35  O   UNL A   1      41.773  19.069  25.940  1.00  0.00    -0.246 OA
BRANCH  34  36
ATOM     36  C   UNL A   1      41.357  21.268  26.816  1.00  0.00     0.060 A 
ATOM     37  C   UNL A   1      40.778  22.305  26.066  1.00  0.00     0.016 A 
ATOM     38  C   UNL A   1      42.076  21.574  27.980  1.00  0.00     0.016 A 
ATOM     39  C   UNL A   1      40.940  23.638  26.457  1.00  0.00     0.010 A 
ATOM     40  C   UNL A   1      42.286  22.917  28.342  1.00  0.00     0.010 A 
ATOM     41  C   UNL A   1      41.755  23.957  27.556  1.00  0.00    -0.014 A 
BRANCH  41  42
ATOM     42  C   UNL A   1      42.368  25.317  27.575  1.00  0.00     0.031 A 
ATOM     43  C   UNL A   1      41.552  26.387  28.263  1.00  0.00     0.074 A 
ATOM     44  C   UNL A   1      43.599  25.616  27.112  1.00  0.00     0.049 A 
ATOM     45  N   UNL A   1      41.853  27.633  28.525  1.00  0.00    -0.248 NA
ATOM     46  C   UNL A   1      40.217  25.982  28.745  1.00  0.00     0.031 C 
ATOM     47  C   UNL A   1      44.526  24.691  26.469  1.00  0.00     0.029 A 
ATOM     48  N   UNL A   1      44.282  26.815  27.130  1.00  0.00    -0.354 N 
ATOM     49  C   UNL A   1      40.762  28.138  29.223  1.00  0.00     0.074 A 
ATOM     50  C   UNL A   1      39.781  27.087  29.323  1.00  0.00     0.031 C 
ATOM     51  C   UNL A   1      45.653  25.357  26.146  1.00  0.00     0.029 A 
ATOM     52  C   UNL A   1      45.525  26.762  26.544  1.00  0.00     0.049 A 
ATOM     53  H   UNL A   1      43.913  27.635  27.529  1.00  0.00     0.167 HD
ATOM     54  C   UNL A   1      40.589  29.367  29.750  1.00  0.00     0.037 A 
ATOM     55  C   UNL A   1      46.439  27.738  26.340  1.00  0.00     0.037 A 
ATOM     56  C   UNL A   1      41.538  30.434  29.648  1.00  0.00     0.049 A 
ATOM     57  C   UNL A   1      46.163  29.146  26.833  1.00  0.00     0.074 A 
ATOM     58  C   UNL A   1      41.440  31.714  30.162  1.00  0.00     0.029 A 
ATOM     59  N   UNL A   1      42.743  30.354  28.976  1.00  0.00    -0.354 N 
ATOM     60  N   UNL A   1      45.159  29.596  27.545  1.00  0.00    -0.248 NA
ATOM     61  C   UNL A   1      47.149  30.187  26.486  1.00  0.00     0.031 C 
ATOM     62  C   UNL A   1      42.561  32.431  29.746  1.00  0.00     0.029 A 
ATOM     63  C   UNL A   1      43.381  31.581  29.022  1.00  0.00     0.049 A 
ATOM     64  H   UNL A   1      43.093  29.548  28.532  1.00  0.00     0.167 HD
ATOM     65  C   UNL A   1      45.401  30.952  27.744  1.00  0.00     0.074 A 
ATOM     66  C   UNL A   1      46.659  31.254  27.102  1.00  0.00     0.031 C 
ATOM     67  C   UNL A   1      44.642  31.868  28.394  1.00  0.00     0.037 A 
BRANCH  54  68
ATOM     68  C   UNL A   1      39.311  29.640  30.476  1.00  0.00     0.064 A 
ATOM     69  C   UNL A   1      39.219  29.499  31.867  1.00  0.00     0.173 A 
ATOM     70  C   UNL A   1      38.197  30.130  29.781  1.00  0.00     0.173 A 
ATOM     71  F   UNL A   1      40.254  29.009  32.567  1.00  0.00    -0.203 F 
ATOM     72  C   UNL A   1      38.055  29.851  32.541  1.00  0.00     0.198 A 
ATOM     73  C   UNL A   1      37.044  30.505  30.460  1.00  0.00     0.198 A 
ATOM     74  F   UNL A   1      38.241  30.272  28.448  1.00  0.00    -0.203 F 
ATOM     75  F   UNL A   1      37.979  29.697  33.869  1.00  0.00    -0.200 F 
ATOM     76  C   UNL A   1      36.974  30.368  31.839  1.00  0.00     0.200 A 
ATOM     77  F   UNL A   1      36.005  31.013  29.784  1.00  0.00    -0.200 F 
ATOM     78  F   UNL A   1      35.864  30.736  32.494  1.00  0.00    -0.200 F 
ENDBRANCH  54  68
BRANCH  55  79
ATOM     79  C   UNL A   1      47.704  27.457  25.598  1.00  0.00     0.064 A 
ATOM     80  C   UNL A   1      48.896  27.150  26.272  1.00  0.00     0.173 A 
ATOM     81  C   UNL A   1      47.767  27.583  24.202  1.00  0.00     0.173 A 
ATOM     82  F   UNL A   1      48.905  27.062  27.611  1.00  0.00    -0.203 F 
ATOM     83  C   UNL A   1      50.101  27.005  25.584  1.00  0.00     0.198 A 
ATOM     84  C   UNL A   1      48.966  27.406  23.511  1.00  0.00     0.198 A 
ATOM     85  F   UNL A   1      46.667  27.903  23.505  1.00  0.00    -0.203 F 
ATOM     86  F   UNL A   1      51.236  26.784  26.262  1.00  0.00    -0.200 F 
ATOM     87  C   UNL A   1      50.135  27.129  24.204  1.00  0.00     0.200 A 
ATOM     88  F   UNL A   1      48.994  27.530  22.177  1.00  0.00    -0.200 F 
ATOM     89  F   UNL A   1      51.294  27.002  23.544  1.00  0.00    -0.200 F 
ENDBRANCH  55  79
BRANCH  67  90
ATOM     90  C   UNL A   1      45.119  33.291  28.460  1.00  0.00     0.064 A 
ATOM     91  C   UNL A   1      44.646  34.255  27.560  1.00  0.00     0.173 A 
ATOM     92  C   UNL A   1      45.925  33.724  29.525  1.00  0.00     0.173 A 
ATOM     93  F   UNL A   1      43.875  33.892  26.524  1.00  0.00    -0.203 F 
ATOM     94  C   UNL A   1      44.958  35.603  27.726  1.00  0.00     0.198 A 
ATOM     95  C   UNL A   1      46.212  35.074  29.705  1.00  0.00     0.198 A 
ATOM     96  F   UNL A   1      46.388  32.842  30.425  1.00  0.00    -0.203 F 
ATOM     97  F   UNL A   1      44.503  36.506  26.849  1.00  0.00    -0.200 F 
ATOM     98  C   UNL A   1      45.727  36.012  28.807  1.00  0.00     0.200 A 
ATOM     99  F   UNL A   1      46.931  35.471  30.764  1.00  0.00    -0.200 F 
ATOM    100  F   UNL A   1      45.993  37.314  28.986  1.00  0.00    -0.200 F 
ENDBRANCH  67  90
ENDBRANCH  41  42
ENDBRANCH  34  36
ENDBRANCH  33  34
ENDBRANCH  32  33
ENDBRANCH  31  32
ENDBRANCH  30  31
ENDBRANCH  29  30
ENDBRANCH  28  29
ENDBRANCH   1  28
TORSDOF 23
ENDMDL
MODEL 3
REMARK VINA RESULT:     -10.3      4.706      7.046
REMARK SMILES CC[C@@](C)(NC(=O)c1c(C)cc(C)[nH]c1=O)C(=O)OCCOCCOCCOCCOC(=O)c1ccc(-c2c3nc(c(-c4c(F)c(F)c(F)c(F)c4F)c4ccc([nH]4)c(-c4c(F)c(F)c(F)c(F)c4F)c4nc(c(-c5c(F)c(F)c(F)c(F)c5F)c5ccc2[nH]5)C=C4)C=C3)cc1
REMARK SMILES IDX 25 1 24 2 23 3 22 4 21 5 20 6 19 7 17 8 18 9 3 10 4 11 2 12
REMARK SMILES IDX 1 13 5 14 6 15 7 17 8 18 9 19 15 20 10 21 11 22 14 23 16 24
REMARK SMILES IDX 12 25 13 27 26 28 27 29 28 30 29 31 30 32 31 33 32 34 33 35
REMARK SMILES IDX 34 36 35 37 96 38 36 39 95 40 37 41 38 42 39 43 89 44 40 45
REMARK SMILES IDX 94 46 88 47 90 48 41 49 93 50 87 51 86 52 42 54 74 55 54 56
REMARK SMILES IDX 73 57 55 58 58 59 72 60 91 61 56 62 57 63 71 65 92 66 59 67
REMARK SMILES IDX 43 68 44 69 52 70 45 71 46 72 50 73 53 74 47 75 48 76 51 77
REMARK SMILES IDX 49 78 75 79 76 80 84 81 77 82 78 83 82 84 85 85 79 86 80 87
REMARK SMILES IDX 83 88 81 89 60 90 61 91 69 92 62 93 63 94 67 95 70 96 64 97
REMARK SMILES IDX 65 98 68 99 66 100
REMARK H PARENT 5 16 14 26 90 53 58 64
REMARK Flexibility Score: inf
ROOT
ATOM      1  O   UNL A   1      38.926  22.165  26.174  1.00  0.00    -0.377 OA
ENDROOT
BRANCH   1   2
ATOM      2  C   UNL A   1      37.738  22.431  25.404  1.00  0.00     0.188 C 
BRANCH   2   3
ATOM      3  C   UNL A   1      36.199  21.887  25.833  1.00  0.00     0.188 C 
BRANCH   3   4
ATOM      4  O   UNL A   1      35.525  20.707  25.394  1.00  0.00    -0.376 OA
BRANCH   4   5
ATOM      5  C   UNL A   1      34.232  20.281  24.916  1.00  0.00     0.202 C 
BRANCH   5   6
ATOM      6  C   UNL A   1      32.833  20.427  25.586  1.00  0.00     0.261 C 
BRANCH   6   7
ATOM      7  O   UNL A   1      32.042  21.435  25.021  1.00  0.00    -0.462 OA
BRANCH   7   8
ATOM      8  C   UNL A   1      32.164  22.613  25.655  1.00  0.00     0.331 C 
ATOM      9  O   UNL A   1      32.082  22.753  26.865  1.00  0.00    -0.249 OA
BRANCH   8  10
ATOM     10  C   UNL A   1      32.440  23.693  24.615  1.00  0.00     0.135 C 
ATOM     11  C   UNL A   1      33.663  24.460  25.171  1.00  0.00     0.047 C 
BRANCH  10  12
ATOM     12  C   UNL A   1      32.939  23.129  23.211  1.00  0.00     0.037 C 
ATOM     13  C   UNL A   1      33.231  24.158  22.104  1.00  0.00     0.007 C 
ENDBRANCH  10  12
BRANCH  10  14
ATOM     14  N   UNL A   1      31.266  24.710  24.492  1.00  0.00    -0.336 N 
ATOM     15  C   UNL A   1      30.877  26.038  24.611  1.00  0.00     0.258 C 
ATOM     16  H   UNL A   1      30.470  24.201  24.215  1.00  0.00     0.165 HD
ATOM     17  O   UNL A   1      29.688  26.157  24.242  1.00  0.00    -0.269 OA
BRANCH  15  18
ATOM     18  C   UNL A   1      31.595  27.423  24.992  1.00  0.00     0.107 A 
ATOM     19  C   UNL A   1      32.360  28.439  24.395  1.00  0.00    -0.031 A 
ATOM     20  C   UNL A   1      31.626  27.488  26.541  1.00  0.00     0.261 A 
ATOM     21  C   UNL A   1      32.954  28.949  23.016  1.00  0.00     0.045 C 
ATOM     22  C   UNL A   1      32.911  29.524  25.207  1.00  0.00     0.025 A 
ATOM     23  N   UNL A   1      32.356  28.473  27.166  1.00  0.00    -0.326 N 
ATOM     24  O   UNL A   1      31.024  26.678  27.246  1.00  0.00    -0.269 OA
ATOM     25  C   UNL A   1      32.974  29.494  26.524  1.00  0.00     0.015 A 
ATOM     26  H   UNL A   1      32.437  28.433  28.146  1.00  0.00     0.169 HD
ATOM     27  C   UNL A   1      33.693  30.575  27.254  1.00  0.00     0.064 C 
ENDBRANCH  15  18
ENDBRANCH  10  14
ENDBRANCH   8  10
ENDBRANCH   7   8
ENDBRANCH   6   7
ENDBRANCH   5   6
ENDBRANCH   4   5
ENDBRANCH   3   4
ENDBRANCH   2   3
ENDBRANCH   1   2
BRANCH   1  28
ATOM     28  C   UNL A   1      39.537  20.867  26.117  1.00  0.00     0.188 C 
BRANCH  28  29
ATOM     29  C   UNL A   1      41.052  20.865  26.412  1.00  0.00     0.188 C 
BRANCH  29  30
ATOM     30  O   UNL A   1      41.982  20.198  25.570  1.00  0.00    -0.376 OA
BRANCH  30  31
ATOM     31  C   UNL A   1      42.421  18.902  25.932  1.00  0.00     0.202 C 
BRANCH  31  32
ATOM     32  C   UNL A   1      43.755  18.438  25.331  1.00  0.00     0.261 C 
BRANCH  32  33
ATOM     33  O   UNL A   1      44.180  19.172  24.169  1.00  0.00    -0.460 OA
BRANCH  33  34
ATOM     34  C   UNL A   1      45.357  19.835  24.277  1.00  0.00     0.338 C 
ATOM     35  O   UNL A   1      46.416  19.538  23.741  1.00  0.00    -0.246 OA
BRANCH  34  36
ATOM     36  C   UNL A   1      45.089  21.140  24.945  1.00  0.00     0.060 A 
ATOM     37  C   UNL A   1      44.573  22.177  24.150  1.00  0.00     0.016 A 
ATOM     38  C   UNL A   1      45.148  21.299  26.337  1.00  0.00     0.016 A 
ATOM     39  C   UNL A   1      44.148  23.373  24.735  1.00  0.00     0.010 A 
ATOM     40  C   UNL A   1      44.773  22.523  26.920  1.00  0.00     0.010 A 
ATOM     41  C   UNL A   1      44.312  23.582  26.115  1.00  0.00    -0.014 A 
BRANCH  41  42
ATOM     42  C   UNL A   1      44.416  24.996  26.581  1.00  0.00     0.031 A 
ATOM     43  C   UNL A   1      45.788  25.619  26.462  1.00  0.00     0.074 A 
ATOM     44  C   UNL A   1      43.380  25.748  27.002  1.00  0.00     0.049 A 
ATOM     45  N   UNL A   1      46.174  26.847  26.692  1.00  0.00    -0.248 NA
ATOM     46  C   UNL A   1      46.870  24.732  25.991  1.00  0.00     0.031 C 
ATOM     47  C   UNL A   1      41.993  25.313  27.126  1.00  0.00     0.029 A 
ATOM     48  N   UNL A   1      43.351  27.070  27.397  1.00  0.00    -0.354 N 
ATOM     49  C   UNL A   1      47.525  26.878  26.365  1.00  0.00     0.074 A 
ATOM     50  C   UNL A   1      47.905  25.551  25.950  1.00  0.00     0.031 C 
ATOM     51  C   UNL A   1      41.250  26.345  27.576  1.00  0.00     0.029 A 
ATOM     52  C   UNL A   1      42.109  27.513  27.788  1.00  0.00     0.049 A 
ATOM     53  H   UNL A   1      44.149  27.646  27.398  1.00  0.00     0.167 HD
ATOM     54  C   UNL A   1      48.380  27.920  26.393  1.00  0.00     0.037 A 
ATOM     55  C   UNL A   1      41.721  28.714  28.275  1.00  0.00     0.037 A 
ATOM     56  C   UNL A   1      48.034  29.242  26.820  1.00  0.00     0.049 A 
ATOM     57  C   UNL A   1      42.734  29.835  28.416  1.00  0.00     0.074 A 
ATOM     58  C   UNL A   1      48.845  30.361  26.873  1.00  0.00     0.029 A 
ATOM     59  N   UNL A   1      46.786  29.618  27.282  1.00  0.00    -0.354 N 
ATOM     60  N   UNL A   1      43.991  29.871  28.045  1.00  0.00    -0.248 NA
ATOM     61  C   UNL A   1      42.274  31.084  29.052  1.00  0.00     0.031 C 
ATOM     62  C   UNL A   1      48.103  31.403  27.429  1.00  0.00     0.029 A 
ATOM     63  C   UNL A   1      46.817  30.946  27.668  1.00  0.00     0.049 A 
ATOM     64  H   UNL A   1      45.997  29.031  27.329  1.00  0.00     0.167 HD
ATOM     65  C   UNL A   1      44.458  31.139  28.382  1.00  0.00     0.074 A 
ATOM     66  C   UNL A   1      43.349  31.856  28.965  1.00  0.00     0.031 C 
ATOM     67  C   UNL A   1      45.702  31.657  28.231  1.00  0.00     0.037 A 
BRANCH  54  68
ATOM     68  C   UNL A   1      49.791  27.675  25.966  1.00  0.00     0.064 A 
ATOM     69  C   UNL A   1      50.803  27.428  26.904  1.00  0.00     0.173 A 
ATOM     70  C   UNL A   1      50.113  27.601  24.605  1.00  0.00     0.173 A 
ATOM     71  F   UNL A   1      50.543  27.514  28.218  1.00  0.00    -0.203 F 
ATOM     72  C   UNL A   1      52.090  27.104  26.491  1.00  0.00     0.198 A 
ATOM     73  C   UNL A   1      51.395  27.252  24.195  1.00  0.00     0.198 A 
ATOM     74  F   UNL A   1      49.176  27.838  23.674  1.00  0.00    -0.203 F 
ATOM     75  F   UNL A   1      53.049  26.885  27.401  1.00  0.00    -0.200 F 
ATOM     76  C   UNL A   1      52.381  27.001  25.138  1.00  0.00     0.200 A 
ATOM     77  F   UNL A   1      51.672  27.142  22.889  1.00  0.00    -0.200 F 
ATOM     78  F   UNL A   1      53.615  26.657  24.742  1.00  0.00    -0.200 F 
ENDBRANCH  54  68
BRANCH  55  79
ATOM     79  C   UNL A   1      40.312  28.941  28.714  1.00  0.00     0.064 A 
ATOM     80  C   UNL A   1      39.915  28.720  30.043  1.00  0.00     0.173 A 
ATOM     81  C   UNL A   1      39.314  29.291  27.793  1.00  0.00     0.173 A 
ATOM     82  F   UNL A   1      40.819  28.339  30.957  1.00  0.00    -0.203 F 
ATOM     83  C   UNL A   1      38.577  28.817  30.424  1.00  0.00     0.198 A 
ATOM     84  C   UNL A   1      37.980  29.419  28.181  1.00  0.00     0.198 A 
ATOM     85  F   UNL A   1      39.628  29.486  26.504  1.00  0.00    -0.203 F 
ATOM     86  F   UNL A   1      38.218  28.530  31.683  1.00  0.00    -0.200 F 
ATOM     87  C   UNL A   1      37.611  29.171  29.495  1.00  0.00     0.200 A 
ATOM     88  F   UNL A   1      37.051  29.758  27.278  1.00  0.00    -0.200 F 
ATOM     89  F   UNL A   1      36.324  29.251  29.858  1.00  0.00    -0.200 F 
ENDBRANCH  55  79
BRANCH  67  90
ATOM     90  C   UNL A   1      45.963  33.063  28.693  1.00  0.00     0.064 A 
ATOM     91  C   UNL A   1      45.595  34.163  27.906  1.00  0.00     0.173 A 
ATOM     92  C   UNL A   1      46.433  33.311  29.992  1.00  0.00     0.173 A 
ATOM     93  F   UNL A   1      45.144  33.979  26.656  1.00  0.00    -0.203 F 
ATOM     94  C   UNL A   1      45.684  35.461  28.405  1.00  0.00     0.198 A 
ATOM     95  C   UNL A   1      46.492  34.606  30.499  1.00  0.00     0.198 A 
ATOM     96  F   UNL A   1      46.779  32.291  30.793  1.00  0.00    -0.203 F 
ATOM     97  F   UNL A   1      45.336  36.498  27.632  1.00  0.00    -0.200 F 
ATOM     98  C   UNL A   1      46.116  35.679  29.706  1.00  0.00     0.200 A 
ATOM     99  F   UNL A   1      46.884  34.814  31.763  1.00  0.00    -0.200 F 
ATOM    100  F   UNL A   1      46.163  36.926  30.196  1.00  0.00    -0.200 F 
ENDBRANCH  67  90
ENDBRANCH  41  42
ENDBRANCH  34  36
ENDBRANCH  33  34
ENDBRANCH  32  33
ENDBRANCH  31  32
ENDBRANCH  30  31
ENDBRANCH  29  30
ENDBRANCH  28  29
ENDBRANCH   1  28
TORSDOF 23
ENDMDL
