MODEL 1
REMARK VINA RESULT:      -8.5      0.000      0.000
REMARK SMILES C[C@H](NC(=O)c1cc(S(=O)(=O)N(C)C)cs1)C(=O)OCCOCCOCCOCCOC(=O)c1ccc(-c2c3nc(c(-c4c(F)c(F)c(F)c(F)c4F)c4ccc([nH]4)c(-c4c(F)c(F)c(F)c(F)c4F)c4nc(c(-c5c(F)c(F)c(F)c(F)c5F)c5ccc2[nH]5)C=C4)C=C3)cc1
REMARK SMILES IDX 24 1 23 2 22 3 21 4 20 5 19 6 17 7 18 8 2 9 1 10 3 11 4 12
REMARK SMILES IDX 5 14 6 15 7 16 16 17 8 18 15 19 9 20 10 21 11 22 12 23 13 24
REMARK SMILES IDX 14 25 25 26 26 27 27 28 28 29 29 30 30 31 31 32 32 33 33 34
REMARK SMILES IDX 34 35 35 36 96 37 36 38 95 39 37 40 38 41 39 42 89 43 40 44
REMARK SMILES IDX 94 45 88 46 90 47 41 48 93 49 87 50 86 51 42 53 74 54 54 55
REMARK SMILES IDX 73 56 55 57 58 58 72 59 91 60 56 61 57 62 71 64 92 65 59 66
REMARK SMILES IDX 43 67 44 68 52 69 45 70 46 71 50 72 53 73 47 74 48 75 51 76
REMARK SMILES IDX 49 77 75 78 76 79 84 80 77 81 78 82 82 83 85 84 79 85 80 86
REMARK SMILES IDX 83 87 81 88 60 89 61 90 69 91 62 92 63 93 67 94 70 95 64 96
REMARK SMILES IDX 65 97 68 98 66 99
REMARK H PARENT 3 13 90 52 58 63
REMARK Flexibility Score: inf
ROOT
ATOM      1  C   UNL A   1      33.884  35.374  30.473  1.00  0.00     0.188 C 
ENDROOT
BRANCH   1   2
ATOM      2  C   UNL A   1      33.276  35.312  29.059  1.00  0.00     0.188 C 
BRANCH   2   3
ATOM      3  O   UNL A   1      32.633  34.124  28.608  1.00  0.00    -0.376 OA
BRANCH   3   4
ATOM      4  C   UNL A   1      33.294  33.247  27.699  1.00  0.00     0.202 C 
BRANCH   4   5
ATOM      5  C   UNL A   1      32.839  31.792  27.622  1.00  0.00     0.261 C 
BRANCH   5   6
ATOM      6  O   UNL A   1      33.472  31.073  26.551  1.00  0.00    -0.462 OA
BRANCH   6   7
ATOM      7  C   UNL A   1      33.538  29.725  26.695  1.00  0.00     0.328 C 
ATOM      8  O   UNL A   1      34.037  29.141  27.652  1.00  0.00    -0.250 OA
BRANCH   7   9
ATOM      9  C   UNL A   1      33.034  28.986  25.451  1.00  0.00     0.189 C 
ATOM     10  C   UNL A   1      34.278  28.760  24.587  1.00  0.00     0.043 C 
BRANCH   9  11
ATOM     11  N   UNL A   1      31.917  29.660  24.765  1.00  0.00    -0.338 N 
ATOM     12  C   UNL A   1      30.756  29.156  24.217  1.00  0.00     0.262 C 
ATOM     13  H   UNL A   1      32.015  30.636  24.687  1.00  0.00     0.164 HD
ATOM     14  O   UNL A   1      29.897  29.957  23.851  1.00  0.00    -0.268 OA
BRANCH  12  15
ATOM     15  C   UNL A   1      30.653  27.723  24.021  1.00  0.00     0.093 A 
ATOM     16  C   UNL A   1      30.367  26.714  24.919  1.00  0.00     0.047 A 
ATOM     17  S   UNL A   1      31.028  27.083  22.471  1.00  0.00    -0.137 S 
ATOM     18  C   UNL A   1      30.811  25.449  24.427  1.00  0.00     0.094 A 
ATOM     19  C   UNL A   1      31.161  25.497  23.095  1.00  0.00     0.087 A 
BRANCH  18  20
ATOM     20  S   UNL A   1      31.080  24.056  25.425  1.00  0.00     0.243 S 
ATOM     21  O   UNL A   1      30.424  24.364  26.671  1.00  0.00    -0.207 OA
ATOM     22  O   UNL A   1      30.646  22.971  24.566  1.00  0.00    -0.207 OA
BRANCH  20  23
ATOM     23  N   UNL A   1      32.759  23.884  25.696  1.00  0.00    -0.204 NA
ATOM     24  C   UNL A   1      33.439  25.126  26.126  1.00  0.00     0.124 C 
ATOM     25  C   UNL A   1      33.106  22.736  26.563  1.00  0.00     0.124 C 
ENDBRANCH  20  23
ENDBRANCH  18  20
ENDBRANCH  12  15
ENDBRANCH   9  11
ENDBRANCH   7   9
ENDBRANCH   6   7
ENDBRANCH   5   6
ENDBRANCH   4   5
ENDBRANCH   3   4
ENDBRANCH   2   3
ENDBRANCH   1   2
BRANCH   1  26
ATOM     26  O   UNL A   1      34.816  34.343  30.749  1.00  0.00    -0.377 OA
BRANCH  26  27
ATOM     27  C   UNL A   1      34.339  33.312  31.624  1.00  0.00     0.188 C 
BRANCH  27  28
ATOM     28  C   UNL A   1      35.409  32.461  32.334  1.00  0.00     0.188 C 
BRANCH  28  29
ATOM     29  O   UNL A   1      36.390  33.276  32.981  1.00  0.00    -0.376 OA
BRANCH  29  30
ATOM     30  C   UNL A   1      36.025  33.765  34.273  1.00  0.00     0.202 C 
BRANCH  30  31
ATOM     31  C   UNL A   1      37.023  33.400  35.383  1.00  0.00     0.261 C 
BRANCH  31  32
ATOM     32  O   UNL A   1      38.229  32.770  34.911  1.00  0.00    -0.460 OA
BRANCH  32  33
ATOM     33  C   UNL A   1      38.343  31.441  35.117  1.00  0.00     0.338 C 
ATOM     34  O   UNL A   1      37.783  30.774  35.968  1.00  0.00    -0.246 OA
BRANCH  33  35
ATOM     35  C   UNL A   1      39.131  30.871  34.007  1.00  0.00     0.060 A 
ATOM     36  C   UNL A   1      40.164  29.976  34.313  1.00  0.00     0.016 A 
ATOM     37  C   UNL A   1      38.878  31.240  32.684  1.00  0.00     0.016 A 
ATOM     38  C   UNL A   1      40.978  29.482  33.294  1.00  0.00     0.010 A 
ATOM     39  C   UNL A   1      39.705  30.758  31.668  1.00  0.00     0.010 A 
ATOM     40  C   UNL A   1      40.778  29.905  31.973  1.00  0.00    -0.014 A 
BRANCH  40  41
ATOM     41  C   UNL A   1      41.798  29.608  30.941  1.00  0.00     0.031 A 
ATOM     42  C   UNL A   1      41.622  28.379  30.094  1.00  0.00     0.074 A 
ATOM     43  C   UNL A   1      42.863  30.408  30.762  1.00  0.00     0.049 A 
ATOM     44  N   UNL A   1      42.397  27.897  29.155  1.00  0.00    -0.248 NA
ATOM     45  C   UNL A   1      40.407  27.584  30.338  1.00  0.00     0.031 C 
ATOM     46  C   UNL A   1      43.134  31.634  31.505  1.00  0.00     0.029 A 
ATOM     47  N   UNL A   1      43.925  30.291  29.900  1.00  0.00    -0.354 N 
ATOM     48  C   UNL A   1      41.763  26.750  28.696  1.00  0.00     0.074 A 
ATOM     49  C   UNL A   1      40.552  26.592  29.471  1.00  0.00     0.031 C 
ATOM     50  C   UNL A   1      44.302  32.151  31.081  1.00  0.00     0.029 A 
ATOM     51  C   UNL A   1      44.866  31.278  30.052  1.00  0.00     0.049 A 
ATOM     52  H   UNL A   1      44.004  29.568  29.236  1.00  0.00     0.167 HD
ATOM     53  C   UNL A   1      42.152  25.908  27.711  1.00  0.00     0.037 A 
ATOM     54  C   UNL A   1      46.057  31.441  29.442  1.00  0.00     0.037 A 
ATOM     55  C   UNL A   1      43.360  26.054  26.947  1.00  0.00     0.049 A 
ATOM     56  C   UNL A   1      46.499  30.449  28.397  1.00  0.00     0.074 A 
ATOM     57  C   UNL A   1      43.828  25.263  25.912  1.00  0.00     0.029 A 
ATOM     58  N   UNL A   1      44.299  27.053  27.147  1.00  0.00    -0.354 N 
ATOM     59  N   UNL A   1      45.872  29.394  27.937  1.00  0.00    -0.248 NA
ATOM     60  C   UNL A   1      47.820  30.671  27.789  1.00  0.00     0.031 C 
ATOM     61  C   UNL A   1      45.071  25.762  25.510  1.00  0.00     0.029 A 
ATOM     62  C   UNL A   1      45.359  26.885  26.270  1.00  0.00     0.049 A 
ATOM     63  H   UNL A   1      44.225  27.775  27.811  1.00  0.00     0.167 HD
ATOM     64  C   UNL A   1      46.706  28.843  26.973  1.00  0.00     0.074 A 
ATOM     65  C   UNL A   1      47.881  29.685  26.905  1.00  0.00     0.031 C 
ATOM     66  C   UNL A   1      46.515  27.738  26.212  1.00  0.00     0.037 A 
BRANCH  53  67
ATOM     67  C   UNL A   1      41.263  24.740  27.415  1.00  0.00     0.064 A 
ATOM     68  C   UNL A   1      40.102  24.885  26.643  1.00  0.00     0.173 A 
ATOM     69  C   UNL A   1      41.597  23.458  27.874  1.00  0.00     0.173 A 
ATOM     70  F   UNL A   1      39.735  26.097  26.197  1.00  0.00    -0.203 F 
ATOM     71  C   UNL A   1      39.297  23.788  26.352  1.00  0.00     0.198 A 
ATOM     72  C   UNL A   1      40.799  22.360  27.565  1.00  0.00     0.198 A 
ATOM     73  F   UNL A   1      42.698  23.272  28.616  1.00  0.00    -0.203 F 
ATOM     74  F   UNL A   1      38.175  23.953  25.639  1.00  0.00    -0.200 F 
ATOM     75  C   UNL A   1      39.649  22.526  26.807  1.00  0.00     0.200 A 
ATOM     76  F   UNL A   1      41.144  21.140  28.001  1.00  0.00    -0.200 F 
ATOM     77  F   UNL A   1      38.877  21.470  26.521  1.00  0.00    -0.200 F 
ENDBRANCH  53  67
BRANCH  54  78
ATOM     78  C   UNL A   1      46.932  32.582  29.811  1.00  0.00     0.064 A 
ATOM     79  C   UNL A   1      47.841  32.481  30.872  1.00  0.00     0.173 A 
ATOM     80  C   UNL A   1      46.849  33.808  29.135  1.00  0.00     0.173 A 
ATOM     81  F   UNL A   1      47.934  31.338  31.568  1.00  0.00    -0.203 F 
ATOM     82  C   UNL A   1      48.622  33.570  31.256  1.00  0.00     0.198 A 
ATOM     83  C   UNL A   1      47.646  34.888  29.504  1.00  0.00     0.198 A 
ATOM     84  F   UNL A   1      45.988  33.955  28.117  1.00  0.00    -0.203 F 
ATOM     85  F   UNL A   1      49.449  33.461  32.305  1.00  0.00    -0.200 F 
ATOM     86  C   UNL A   1      48.526  34.771  30.569  1.00  0.00     0.200 A 
ATOM     87  F   UNL A   1      47.554  36.047  28.836  1.00  0.00    -0.200 F 
ATOM     88  F   UNL A   1      49.273  35.819  30.943  1.00  0.00    -0.200 F 
ENDBRANCH  54  78
BRANCH  66  89
ATOM     89  C   UNL A   1      47.586  27.390  25.222  1.00  0.00     0.064 A 
ATOM     90  C   UNL A   1      47.491  27.775  23.876  1.00  0.00     0.173 A 
ATOM     91  C   UNL A   1      48.741  26.710  25.633  1.00  0.00     0.173 A 
ATOM     92  F   UNL A   1      46.398  28.415  23.433  1.00  0.00    -0.203 F 
ATOM     93  C   UNL A   1      48.509  27.475  22.975  1.00  0.00     0.198 A 
ATOM     94  C   UNL A   1      49.767  26.432  24.734  1.00  0.00     0.198 A 
ATOM     95  F   UNL A   1      48.881  26.326  26.912  1.00  0.00    -0.203 F 
ATOM     96  F   UNL A   1      48.383  27.821  21.686  1.00  0.00    -0.200 F 
ATOM     97  C   UNL A   1      49.647  26.811  23.405  1.00  0.00     0.200 A 
ATOM     98  F   UNL A   1      50.871  25.800  25.153  1.00  0.00    -0.200 F 
ATOM     99  F   UNL A   1      50.629  26.530  22.537  1.00  0.00    -0.200 F 
ENDBRANCH  66  89
ENDBRANCH  40  41
ENDBRANCH  33  35
ENDBRANCH  32  33
ENDBRANCH  31  32
ENDBRANCH  30  31
ENDBRANCH  29  30
ENDBRANCH  28  29
ENDBRANCH  27  28
ENDBRANCH  26  27
ENDBRANCH   1  26
TORSDOF 24
ENDMDL
MODEL 2
REMARK VINA RESULT:      -8.4      6.125     13.160
REMARK SMILES C[C@H](NC(=O)c1cc(S(=O)(=O)N(C)C)cs1)C(=O)OCCOCCOCCOCCOC(=O)c1ccc(-c2c3nc(c(-c4c(F)c(F)c(F)c(F)c4F)c4ccc([nH]4)c(-c4c(F)c(F)c(F)c(F)c4F)c4nc(c(-c5c(F)c(F)c(F)c(F)c5F)c5ccc2[nH]5)C=C4)C=C3)cc1
REMARK SMILES IDX 24 1 23 2 22 3 21 4 20 5 19 6 17 7 18 8 2 9 1 10 3 11 4 12
REMARK SMILES IDX 5 14 6 15 7 16 16 17 8 18 15 19 9 20 10 21 11 22 12 23 13 24
REMARK SMILES IDX 14 25 25 26 26 27 27 28 28 29 29 30 30 31 31 32 32 33 33 34
REMARK SMILES IDX 34 35 35 36 96 37 36 38 95 39 37 40 38 41 39 42 89 43 40 44
REMARK SMILES IDX 94 45 88 46 90 47 41 48 93 49 87 50 86 51 42 53 74 54 54 55
REMARK SMILES IDX 73 56 55 57 58 58 72 59 91 60 56 61 57 62 71 64 92 65 59 66
REMARK SMILES IDX 43 67 44 68 52 69 45 70 46 71 50 72 53 73 47 74 48 75 51 76
REMARK SMILES IDX 49 77 75 78 76 79 84 80 77 81 78 82 82 83 85 84 79 85 80 86
REMARK SMILES IDX 83 87 81 88 60 89 61 90 69 91 62 92 63 93 67 94 70 95 64 96
REMARK SMILES IDX 65 97 68 98 66 99
REMARK H PARENT 3 13 90 52 58 63
REMARK Flexibility Score: inf
ROOT
ATOM      1  C   UNL A   1      48.597  26.636  30.036  1.00  0.00     0.188 C 
ENDROOT
BRANCH   1   2
ATOM      2  C   UNL A   1      50.006  27.222  29.821  1.00  0.00     0.188 C 
BRANCH   2   3
ATOM      3  O   UNL A   1      50.588  28.064  30.810  1.00  0.00    -0.376 OA
BRANCH   3   4
ATOM      4  C   UNL A   1      50.894  29.424  30.510  1.00  0.00     0.202 C 
BRANCH   4   5
ATOM      5  C   UNL A   1      50.461  29.992  29.160  1.00  0.00     0.261 C 
BRANCH   5   6
ATOM      6  O   UNL A   1      49.089  30.420  29.157  1.00  0.00    -0.462 OA
BRANCH   6   7
ATOM      7  C   UNL A   1      48.700  31.167  28.093  1.00  0.00     0.328 C 
ATOM      8  O   UNL A   1      49.348  32.085  27.600  1.00  0.00    -0.250 OA
BRANCH   7   9
ATOM      9  C   UNL A   1      47.275  30.829  27.641  1.00  0.00     0.189 C 
ATOM     10  C   UNL A   1      47.291  29.325  27.359  1.00  0.00     0.043 C 
BRANCH   9  11
ATOM     11  N   UNL A   1      46.784  31.664  26.531  1.00  0.00    -0.338 N 
ATOM     12  C   UNL A   1      45.625  32.399  26.396  1.00  0.00     0.262 C 
ATOM     13  H   UNL A   1      47.387  31.704  25.753  1.00  0.00     0.164 HD
ATOM     14  O   UNL A   1      45.532  33.154  25.428  1.00  0.00    -0.268 OA
BRANCH  12  15
ATOM     15  C   UNL A   1      44.554  32.176  27.346  1.00  0.00     0.093 A 
ATOM     16  C   UNL A   1      44.143  32.930  28.427  1.00  0.00     0.047 A 
ATOM     17  S   UNL A   1      43.663  30.710  27.240  1.00  0.00    -0.137 S 
ATOM     18  C   UNL A   1      43.379  32.142  29.341  1.00  0.00     0.094 A 
ATOM     19  C   UNL A   1      43.014  30.925  28.808  1.00  0.00     0.087 A 
BRANCH  18  20
ATOM     20  S   UNL A   1      43.110  32.564  31.002  1.00  0.00     0.243 S 
ATOM     21  O   UNL A   1      41.718  32.937  31.065  1.00  0.00    -0.207 OA
ATOM     22  O   UNL A   1      43.637  31.410  31.704  1.00  0.00    -0.207 OA
BRANCH  20  23
ATOM     23  N   UNL A   1      44.077  33.916  31.394  1.00  0.00    -0.204 NA
ATOM     24  C   UNL A   1      43.324  35.075  31.922  1.00  0.00     0.124 C 
ATOM     25  C   UNL A   1      45.246  33.585  32.240  1.00  0.00     0.124 C 
ENDBRANCH  20  23
ENDBRANCH  18  20
ENDBRANCH  12  15
ENDBRANCH   9  11
ENDBRANCH   7   9
ENDBRANCH   6   7
ENDBRANCH   5   6
ENDBRANCH   4   5
ENDBRANCH   3   4
ENDBRANCH   2   3
ENDBRANCH   1   2
BRANCH   1  26
ATOM     26  O   UNL A   1      48.282  25.552  29.178  1.00  0.00    -0.377 OA
BRANCH  26  27
ATOM     27  C   UNL A   1      48.547  25.783  27.788  1.00  0.00     0.188 C 
BRANCH  27  28
ATOM     28  C   UNL A   1      47.475  25.299  26.793  1.00  0.00     0.188 C 
BRANCH  28  29
ATOM     29  O   UNL A   1      47.984  25.235  25.458  1.00  0.00    -0.376 OA
BRANCH  29  30
ATOM     30  C   UNL A   1      47.285  24.353  24.578  1.00  0.00     0.202 C 
BRANCH  30  31
ATOM     31  C   UNL A   1      45.934  23.866  25.126  1.00  0.00     0.261 C 
BRANCH  31  32
ATOM     32  O   UNL A   1      44.788  24.448  24.475  1.00  0.00    -0.460 OA
BRANCH  32  33
ATOM     33  C   UNL A   1      43.580  23.946  24.807  1.00  0.00     0.338 C 
ATOM     34  O   UNL A   1      43.138  22.844  24.540  1.00  0.00    -0.246 OA
BRANCH  33  35
ATOM     35  C   UNL A   1      42.926  24.898  25.727  1.00  0.00     0.060 A 
ATOM     36  C   UNL A   1      43.369  26.227  25.736  1.00  0.00     0.016 A 
ATOM     37  C   UNL A   1      41.914  24.479  26.593  1.00  0.00     0.016 A 
ATOM     38  C   UNL A   1      42.828  27.132  26.649  1.00  0.00     0.010 A 
ATOM     39  C   UNL A   1      41.386  25.382  27.518  1.00  0.00     0.010 A 
ATOM     40  C   UNL A   1      41.865  26.702  27.572  1.00  0.00    -0.014 A 
BRANCH  40  41
ATOM     41  C   UNL A   1      41.493  27.573  28.710  1.00  0.00     0.031 A 
ATOM     42  C   UNL A   1      42.298  27.477  29.977  1.00  0.00     0.074 A 
ATOM     43  C   UNL A   1      40.460  28.428  28.627  1.00  0.00     0.049 A 
ATOM     44  N   UNL A   1      42.142  28.111  31.112  1.00  0.00    -0.248 NA
ATOM     45  C   UNL A   1      43.432  26.539  29.962  1.00  0.00     0.031 C 
ATOM     46  C   UNL A   1      39.619  28.626  27.450  1.00  0.00     0.029 A 
ATOM     47  N   UNL A   1      39.937  29.282  29.565  1.00  0.00    -0.354 N 
ATOM     48  C   UNL A   1      43.157  27.654  31.941  1.00  0.00     0.074 A 
ATOM     49  C   UNL A   1      43.911  26.672  31.191  1.00  0.00     0.031 C 
ATOM     50  C   UNL A   1      38.668  29.532  27.742  1.00  0.00     0.029 A 
ATOM     51  C   UNL A   1      38.824  29.959  29.132  1.00  0.00     0.049 A 
ATOM     52  H   UNL A   1      40.323  29.398  30.464  1.00  0.00     0.167 HD
ATOM     53  C   UNL A   1      43.440  28.023  33.211  1.00  0.00     0.037 A 
ATOM     54  C   UNL A   1      38.016  30.809  29.794  1.00  0.00     0.037 A 
ATOM     55  C   UNL A   1      42.687  28.987  33.964  1.00  0.00     0.049 A 
ATOM     56  C   UNL A   1      38.313  31.151  31.232  1.00  0.00     0.074 A 
ATOM     57  C   UNL A   1      42.910  29.445  35.251  1.00  0.00     0.029 A 
ATOM     58  N   UNL A   1      41.553  29.634  33.499  1.00  0.00    -0.354 N 
ATOM     59  N   UNL A   1      39.302  30.749  31.992  1.00  0.00    -0.248 NA
ATOM     60  C   UNL A   1      37.377  32.065  31.903  1.00  0.00     0.031 C 
ATOM     61  C   UNL A   1      41.889  30.341  35.579  1.00  0.00     0.029 A 
ATOM     62  C   UNL A   1      41.050  30.469  34.483  1.00  0.00     0.049 A 
ATOM     63  H   UNL A   1      41.162  29.518  32.603  1.00  0.00     0.167 HD
ATOM     64  C   UNL A   1      39.121  31.377  33.218  1.00  0.00     0.074 A 
ATOM     65  C   UNL A   1      37.934  32.195  33.098  1.00  0.00     0.031 C 
ATOM     66  C   UNL A   1      39.872  31.282  34.343  1.00  0.00     0.037 A 
BRANCH  53  67
ATOM     67  C   UNL A   1      44.611  27.366  33.873  1.00  0.00     0.064 A 
ATOM     68  C   UNL A   1      45.891  27.936  33.824  1.00  0.00     0.173 A 
ATOM     69  C   UNL A   1      44.444  26.176  34.596  1.00  0.00     0.173 A 
ATOM     70  F   UNL A   1      46.101  29.065  33.130  1.00  0.00    -0.203 F 
ATOM     71  C   UNL A   1      46.967  27.330  34.465  1.00  0.00     0.198 A 
ATOM     72  C   UNL A   1      45.519  25.583  35.252  1.00  0.00     0.198 A 
ATOM     73  F   UNL A   1      43.238  25.594  34.670  1.00  0.00    -0.203 F 
ATOM     74  F   UNL A   1      48.188  27.874  34.380  1.00  0.00    -0.200 F 
ATOM     75  C   UNL A   1      46.779  26.158  35.183  1.00  0.00     0.200 A 
ATOM     76  F   UNL A   1      45.335  24.453  35.950  1.00  0.00    -0.200 F 
ATOM     77  F   UNL A   1      47.815  25.579  35.805  1.00  0.00    -0.200 F 
ENDBRANCH  53  67
BRANCH  54  78
ATOM     78  C   UNL A   1      36.831  31.391  29.115  1.00  0.00     0.064 A 
ATOM     79  C   UNL A   1      36.802  32.742  28.746  1.00  0.00     0.173 A 
ATOM     80  C   UNL A   1      35.690  30.617  28.857  1.00  0.00     0.173 A 
ATOM     81  F   UNL A   1      37.858  33.529  29.000  1.00  0.00    -0.203 F 
ATOM     82  C   UNL A   1      35.668  33.303  28.160  1.00  0.00     0.198 A 
ATOM     83  C   UNL A   1      34.566  31.173  28.251  1.00  0.00     0.198 A 
ATOM     84  F   UNL A   1      35.668  29.320  29.199  1.00  0.00    -0.203 F 
ATOM     85  F   UNL A   1      35.648  34.609  27.860  1.00  0.00    -0.200 F 
ATOM     86  C   UNL A   1      34.553  32.516  27.910  1.00  0.00     0.200 A 
ATOM     87  F   UNL A   1      33.492  30.409  28.007  1.00  0.00    -0.200 F 
ATOM     88  F   UNL A   1      33.461  33.058  27.353  1.00  0.00    -0.200 F 
ENDBRANCH  54  78
BRANCH  66  89
ATOM     89  C   UNL A   1      39.450  32.104  35.524  1.00  0.00     0.064 A 
ATOM     90  C   UNL A   1      39.938  33.404  35.723  1.00  0.00     0.173 A 
ATOM     91  C   UNL A   1      38.510  31.605  36.437  1.00  0.00     0.173 A 
ATOM     92  F   UNL A   1      40.850  33.918  34.882  1.00  0.00    -0.203 F 
ATOM     93  C   UNL A   1      39.512  34.169  36.805  1.00  0.00     0.198 A 
ATOM     94  C   UNL A   1      38.069  32.381  37.506  1.00  0.00     0.198 A 
ATOM     95  F   UNL A   1      38.010  30.370  36.286  1.00  0.00    -0.203 F 
ATOM     96  F   UNL A   1      40.016  35.395  36.996  1.00  0.00    -0.200 F 
ATOM     97  C   UNL A   1      38.573  33.660  37.691  1.00  0.00     0.200 A 
ATOM     98  F   UNL A   1      37.154  31.893  38.354  1.00  0.00    -0.200 F 
ATOM     99  F   UNL A   1      38.159  34.401  38.728  1.00  0.00    -0.200 F 
ENDBRANCH  66  89
ENDBRANCH  40  41
ENDBRANCH  33  35
ENDBRANCH  32  33
ENDBRANCH  31  32
ENDBRANCH  30  31
ENDBRANCH  29  30
ENDBRANCH  28  29
ENDBRANCH  27  28
ENDBRANCH  26  27
ENDBRANCH   1  26
TORSDOF 24
ENDMDL
MODEL 3
REMARK VINA RESULT:      -8.2      6.570     12.325
REMARK SMILES C[C@H](NC(=O)c1cc(S(=O)(=O)N(C)C)cs1)C(=O)OCCOCCOCCOCCOC(=O)c1ccc(-c2c3nc(c(-c4c(F)c(F)c(F)c(F)c4F)c4ccc([nH]4)c(-c4c(F)c(F)c(F)c(F)c4F)c4nc(c(-c5c(F)c(F)c(F)c(F)c5F)c5ccc2[nH]5)C=C4)C=C3)cc1
REMARK SMILES IDX 24 1 23 2 22 3 21 4 20 5 19 6 17 7 18 8 2 9 1 10 3 11 4 12
REMARK SMILES IDX 5 14 6 15 7 16 16 17 8 18 15 19 9 20 10 21 11 22 12 23 13 24
REMARK SMILES IDX 14 25 25 26 26 27 27 28 28 29 29 30 30 31 31 32 32 33 33 34
REMARK SMILES IDX 34 35 35 36 96 37 36 38 95 39 37 40 38 41 39 42 89 43 40 44
REMARK SMILES IDX 94 45 88 46 90 47 41 48 93 49 87 50 86 51 42 53 74 54 54 55
REMARK SMILES IDX 73 56 55 57 58 58 72 59 91 60 56 61 57 62 71 64 92 65 59 66
REMARK SMILES IDX 43 67 44 68 52 69 45 70 46 71 50 72 53 73 47 74 48 75 51 76
REMARK SMILES IDX 49 77 75 78 76 79 84 80 77 81 78 82 82 83 85 84 79 85 80 86
REMARK SMILES IDX 83 87 81 88 60 89 61 90 69 91 62 92 63 93 67 94 70 95 64 96
REMARK SMILES IDX 65 97 68 98 66 99
REMARK H PARENT 3 13 90 52 58 63
REMARK Flexibility Score: inf
ROOT
ATOM      1  C   UNL A   1      39.292  29.785  28.607  1.00  0.00     0.188 C 
ENDROOT
BRANCH   1   2
ATOM      2  C   UNL A   1      39.131  28.392  27.968  1.00  0.00     0.188 C 
BRANCH   2   3
ATOM      3  O   UNL A   1      40.209  27.464  27.998  1.00  0.00    -0.376 OA
BRANCH   3   4
ATOM      4  C   UNL A   1      41.025  27.268  26.845  1.00  0.00     0.202 C 
BRANCH   4   5
ATOM      5  C   UNL A   1      42.543  27.265  27.013  1.00  0.00     0.261 C 
BRANCH   5   6
ATOM      6  O   UNL A   1      43.068  25.950  27.258  1.00  0.00    -0.462 OA
BRANCH   6   7
ATOM      7  C   UNL A   1      44.417  25.857  27.368  1.00  0.00     0.328 C 
ATOM      8  O   UNL A   1      45.181  26.807  27.509  1.00  0.00    -0.250 OA
BRANCH   7   9
ATOM      9  C   UNL A   1      44.916  24.423  27.161  1.00  0.00     0.189 C 
ATOM     10  C   UNL A   1      45.859  24.153  28.335  1.00  0.00     0.043 C 
BRANCH   9  11
ATOM     11  N   UNL A   1      45.495  24.176  25.829  1.00  0.00    -0.338 N 
ATOM     12  C   UNL A   1      45.074  23.367  24.795  1.00  0.00     0.262 C 
ATOM     13  H   UNL A   1      46.324  24.675  25.646  1.00  0.00     0.164 HD
ATOM     14  O   UNL A   1      45.648  23.471  23.711  1.00  0.00    -0.268 OA
BRANCH  12  15
ATOM     15  C   UNL A   1      44.044  22.384  25.066  1.00  0.00     0.093 A 
ATOM     16  C   UNL A   1      42.705  22.546  25.363  1.00  0.00     0.047 A 
ATOM     17  S   UNL A   1      44.499  20.729  25.146  1.00  0.00    -0.137 S 
ATOM     18  C   UNL A   1      42.176  21.381  25.998  1.00  0.00     0.094 A 
ATOM     19  C   UNL A   1      43.032  20.304  25.916  1.00  0.00     0.087 A 
BRANCH  18  20
ATOM     20  S   UNL A   1      40.722  21.362  26.943  1.00  0.00     0.243 S 
ATOM     21  O   UNL A   1      39.668  21.650  26.001  1.00  0.00    -0.207 OA
ATOM     22  O   UNL A   1      40.819  20.091  27.635  1.00  0.00    -0.207 OA
BRANCH  20  23
ATOM     23  N   UNL A   1      40.800  22.612  28.105  1.00  0.00    -0.204 NA
ATOM     24  C   UNL A   1      42.146  22.830  28.680  1.00  0.00     0.124 C 
ATOM     25  C   UNL A   1      40.179  23.879  27.657  1.00  0.00     0.124 C 
ENDBRANCH  20  23
ENDBRANCH  18  20
ENDBRANCH  12  15
ENDBRANCH   9  11
ENDBRANCH   7   9
ENDBRANCH   6   7
ENDBRANCH   5   6
ENDBRANCH   4   5
ENDBRANCH   3   4
ENDBRANCH   2   3
ENDBRANCH   1   2
BRANCH   1  26
ATOM     26  O   UNL A   1      38.099  30.307  29.168  1.00  0.00    -0.377 OA
BRANCH  26  27
ATOM     27  C   UNL A   1      36.929  29.507  28.955  1.00  0.00     0.188 C 
BRANCH  27  28
ATOM     28  C   UNL A   1      36.071  29.855  27.724  1.00  0.00     0.188 C 
BRANCH  28  29
ATOM     29  O   UNL A   1      35.846  31.263  27.616  1.00  0.00    -0.376 OA
BRANCH  29  30
ATOM     30  C   UNL A   1      34.527  31.700  27.946  1.00  0.00     0.202 C 
BRANCH  30  31
ATOM     31  C   UNL A   1      34.476  32.724  29.091  1.00  0.00     0.261 C 
BRANCH  31  32
ATOM     32  O   UNL A   1      35.077  32.270  30.318  1.00  0.00    -0.460 OA
BRANCH  32  33
ATOM     33  C   UNL A   1      35.613  33.214  31.120  1.00  0.00     0.338 C 
ATOM     34  O   UNL A   1      35.186  34.334  31.331  1.00  0.00    -0.246 OA
BRANCH  33  35
ATOM     35  C   UNL A   1      36.729  32.601  31.867  1.00  0.00     0.060 A 
ATOM     36  C   UNL A   1      36.429  31.782  32.962  1.00  0.00     0.016 A 
ATOM     37  C   UNL A   1      38.056  32.859  31.513  1.00  0.00     0.016 A 
ATOM     38  C   UNL A   1      37.461  31.252  33.736  1.00  0.00     0.010 A 
ATOM     39  C   UNL A   1      39.087  32.343  32.300  1.00  0.00     0.010 A 
ATOM     40  C   UNL A   1      38.793  31.567  33.433  1.00  0.00    -0.014 A 
BRANCH  40  41
ATOM     41  C   UNL A   1      39.865  31.242  34.401  1.00  0.00     0.031 A 
ATOM     42  C   UNL A   1      40.159  32.225  35.501  1.00  0.00     0.074 A 
ATOM     43  C   UNL A   1      40.570  30.102  34.306  1.00  0.00     0.049 A 
ATOM     44  N   UNL A   1      41.069  32.175  36.440  1.00  0.00    -0.248 NA
ATOM     45  C   UNL A   1      39.311  33.428  35.547  1.00  0.00     0.031 C 
ATOM     46  C   UNL A   1      40.367  29.065  33.299  1.00  0.00     0.029 A 
ATOM     47  N   UNL A   1      41.613  29.638  35.067  1.00  0.00    -0.354 N 
ATOM     48  C   UNL A   1      40.900  33.332  37.189  1.00  0.00     0.074 A 
ATOM     49  C   UNL A   1      39.818  34.079  36.584  1.00  0.00     0.031 C 
ATOM     50  C   UNL A   1      41.274  28.089  33.492  1.00  0.00     0.029 A 
ATOM     51  C   UNL A   1      42.131  28.447  34.621  1.00  0.00     0.049 A 
ATOM     52  H   UNL A   1      41.959  30.113  35.857  1.00  0.00     0.167 HD
ATOM     53  C   UNL A   1      41.582  33.734  38.286  1.00  0.00     0.037 A 
ATOM     54  C   UNL A   1      43.189  27.743  35.067  1.00  0.00     0.037 A 
ATOM     55  C   UNL A   1      42.665  33.004  38.883  1.00  0.00     0.049 A 
ATOM     56  C   UNL A   1      43.976  28.248  36.249  1.00  0.00     0.074 A 
ATOM     57  C   UNL A   1      43.402  33.319  40.011  1.00  0.00     0.029 A 
ATOM     58  N   UNL A   1      43.175  31.814  38.389  1.00  0.00    -0.354 N 
ATOM     59  N   UNL A   1      43.780  29.319  36.978  1.00  0.00    -0.248 NA
ATOM     60  C   UNL A   1      45.135  27.444  36.667  1.00  0.00     0.031 C 
ATOM     61  C   UNL A   1      44.385  32.338  40.178  1.00  0.00     0.029 A 
ATOM     62  C   UNL A   1      44.235  31.393  39.175  1.00  0.00     0.049 A 
ATOM     63  H   UNL A   1      42.835  31.337  37.598  1.00  0.00     0.167 HD
ATOM     64  C   UNL A   1      44.771  29.305  37.952  1.00  0.00     0.074 A 
ATOM     65  C   UNL A   1      45.561  28.114  37.727  1.00  0.00     0.031 C 
ATOM     66  C   UNL A   1      45.005  30.201  38.942  1.00  0.00     0.037 A 
BRANCH  53  67
ATOM     67  C   UNL A   1      41.181  35.037  38.905  1.00  0.00     0.064 A 
ATOM     68  C   UNL A   1      40.104  35.120  39.798  1.00  0.00     0.173 A 
ATOM     69  C   UNL A   1      41.905  36.207  38.632  1.00  0.00     0.173 A 
ATOM     70  F   UNL A   1      39.373  34.030  40.076  1.00  0.00    -0.203 F 
ATOM     71  C   UNL A   1      39.757  36.332  40.388  1.00  0.00     0.198 A 
ATOM     72  C   UNL A   1      41.567  37.413  39.238  1.00  0.00     0.198 A 
ATOM     73  F   UNL A   1      42.942  36.176  37.782  1.00  0.00    -0.203 F 
ATOM     74  F   UNL A   1      38.705  36.396  41.215  1.00  0.00    -0.200 F 
ATOM     75  C   UNL A   1      40.492  37.476  40.112  1.00  0.00     0.200 A 
ATOM     76  F   UNL A   1      42.281  38.517  38.975  1.00  0.00    -0.200 F 
ATOM     77  F   UNL A   1      40.160  38.640  40.685  1.00  0.00    -0.200 F 
ENDBRANCH  53  67
BRANCH  54  78
ATOM     78  C   UNL A   1      43.586  26.485  34.384  1.00  0.00     0.064 A 
ATOM     79  C   UNL A   1      44.422  26.506  33.260  1.00  0.00     0.173 A 
ATOM     80  C   UNL A   1      43.106  25.241  34.820  1.00  0.00     0.173 A 
ATOM     81  F   UNL A   1      44.881  27.675  32.789  1.00  0.00    -0.203 F 
ATOM     82  C   UNL A   1      44.748  25.331  32.585  1.00  0.00     0.198 A 
ATOM     83  C   UNL A   1      43.451  24.065  34.157  1.00  0.00     0.198 A 
ATOM     84  F   UNL A   1      42.297  25.171  35.887  1.00  0.00    -0.203 F 
ATOM     85  F   UNL A   1      45.510  25.384  31.483  1.00  0.00    -0.200 F 
ATOM     86  C   UNL A   1      44.265  24.112  33.037  1.00  0.00     0.200 A 
ATOM     87  F   UNL A   1      42.986  22.888  34.599  1.00  0.00    -0.200 F 
ATOM     88  F   UNL A   1      44.574  22.984  32.383  1.00  0.00    -0.200 F 
ENDBRANCH  54  78
BRANCH  66  89
ATOM     89  C   UNL A   1      46.142  29.914  39.875  1.00  0.00     0.064 A 
ATOM     90  C   UNL A   1      45.971  29.110  41.012  1.00  0.00     0.173 A 
ATOM     91  C   UNL A   1      47.427  30.405  39.603  1.00  0.00     0.173 A 
ATOM     92  F   UNL A   1      44.757  28.629  41.321  1.00  0.00    -0.203 F 
ATOM     93  C   UNL A   1      47.044  28.823  41.852  1.00  0.00     0.198 A 
ATOM     94  C   UNL A   1      48.502  30.098  40.432  1.00  0.00     0.198 A 
ATOM     95  F   UNL A   1      47.642  31.173  38.524  1.00  0.00    -0.203 F 
ATOM     96  F   UNL A   1      46.852  28.082  42.952  1.00  0.00    -0.200 F 
ATOM     97  C   UNL A   1      48.308  29.311  41.558  1.00  0.00     0.200 A 
ATOM     98  F   UNL A   1      49.725  30.561  40.141  1.00  0.00    -0.200 F 
ATOM     99  F   UNL A   1      49.341  29.028  42.364  1.00  0.00    -0.200 F 
ENDBRANCH  66  89
ENDBRANCH  40  41
ENDBRANCH  33  35
ENDBRANCH  32  33
ENDBRANCH  31  32
ENDBRANCH  30  31
ENDBRANCH  29  30
ENDBRANCH  28  29
ENDBRANCH  27  28
ENDBRANCH  26  27
ENDBRANCH   1  26
TORSDOF 24
ENDMDL
