MODEL 1
REMARK VINA RESULT:     -10.8      0.000      0.000
REMARK SMILES C[C@H]1[C@H](C(=O)OCCOCCOCCOCCOC(=O)c2ccc(-c3c4nc(c(-c5c(F)c(F)c(F)c(F)c5F)c5ccc([nH]5)c(-c5c(F)c(F)c(F)c(F)c5F)c5nc(c(-c6c(F)c(F)c(F)c(F)c6F)c6ccc3[nH]6)C=C5)C=C4)cc2)CC[N@@H+]1CC(=O)N1CCCC1
REMARK SMILES IDX 12 1 11 2 10 3 9 4 8 5 7 6 6 7 4 8 5 9 3 10 1 11 2 12 86 13
REMARK SMILES IDX 84 14 85 15 87 17 88 18 89 19 90 20 91 21 94 22 92 23 93 24
REMARK SMILES IDX 13 25 14 26 15 27 16 28 17 29 18 30 19 31 20 32 21 33 22 34
REMARK SMILES IDX 83 35 23 36 82 37 24 38 25 39 26 40 76 41 27 42 81 43 75 44
REMARK SMILES IDX 77 45 28 46 80 47 74 48 73 49 29 51 61 52 41 53 60 54 42 55
REMARK SMILES IDX 45 56 59 57 78 58 43 59 44 60 58 62 79 63 46 64 30 65 31 66
REMARK SMILES IDX 39 67 32 68 33 69 37 70 40 71 34 72 35 73 38 74 36 75 62 76
REMARK SMILES IDX 63 77 71 78 64 79 65 80 69 81 72 82 66 83 67 84 70 85 68 86
REMARK SMILES IDX 47 87 48 88 56 89 49 90 50 91 54 92 57 93 51 94 52 95 55 96
REMARK SMILES IDX 53 97
REMARK H PARENT 86 16 77 50 45 61
REMARK Flexibility Score: inf
ROOT
ATOM      1  O   UNL A   1      41.663  20.825  26.696  1.00  0.00    -0.377 OA
ENDROOT
BRANCH   1   2
ATOM      2  C   UNL A   1      40.269  20.875  26.449  1.00  0.00     0.188 C 
BRANCH   2   3
ATOM      3  C   UNL A   1      39.544  22.223  26.347  1.00  0.00     0.188 C 
BRANCH   3   4
ATOM      4  O   UNL A   1      38.170  22.251  26.004  1.00  0.00    -0.376 OA
BRANCH   4   5
ATOM      5  C   UNL A   1      37.615  23.512  25.619  1.00  0.00     0.202 C 
BRANCH   5   6
ATOM      6  C   UNL A   1      36.200  23.842  26.109  1.00  0.00     0.261 C 
BRANCH   6   7
ATOM      7  O   UNL A   1      35.228  23.728  25.041  1.00  0.00    -0.463 OA
BRANCH   7   8
ATOM      8  C   UNL A   1      34.024  24.334  25.229  1.00  0.00     0.315 C 
ATOM      9  O   UNL A   1      33.085  23.827  25.832  1.00  0.00    -0.252 OA
BRANCH   8  10
ATOM     10  C   UNL A   1      33.953  25.727  24.640  1.00  0.00     0.162 C 
ATOM     11  C   UNL A   1      32.989  25.836  22.283  1.00  0.00     0.076 C 
ATOM     12  C   UNL A   1      32.720  26.034  23.777  1.00  0.00     0.195 C 
ATOM     13  N   UNL A   1      32.428  27.447  24.029  1.00  0.00    -0.324 N 
ATOM     14  C   UNL A   1      33.942  26.816  25.702  1.00  0.00     0.083 C 
ATOM     15  C   UNL A   1      33.396  28.015  24.951  1.00  0.00     0.264 C 
ATOM     16  H   UNL A   1      32.573  27.915  23.134  1.00  0.00     0.348 HD
BRANCH  13  17
ATOM     17  C   UNL A   1      31.031  27.880  24.131  1.00  0.00     0.364 C 
BRANCH  17  18
ATOM     18  C   UNL A   1      30.353  28.435  22.859  1.00  0.00     0.277 C 
ATOM     19  O   UNL A   1      30.449  27.836  21.782  1.00  0.00    -0.268 OA
ATOM     20  N   UNL A   1      29.548  29.546  22.974  1.00  0.00    -0.338 N 
ATOM     21  C   UNL A   1      29.627  30.554  24.001  1.00  0.00     0.119 C 
ATOM     22  C   UNL A   1      28.586  29.923  21.953  1.00  0.00     0.119 C 
ATOM     23  C   UNL A   1      28.831  31.729  23.461  1.00  0.00     0.023 C 
ATOM     24  C   UNL A   1      27.791  31.056  22.589  1.00  0.00     0.023 C 
ENDBRANCH  17  18
ENDBRANCH  13  17
ENDBRANCH   8  10
ENDBRANCH   7   8
ENDBRANCH   6   7
ENDBRANCH   5   6
ENDBRANCH   4   5
ENDBRANCH   3   4
ENDBRANCH   2   3
ENDBRANCH   1   2
BRANCH   1  25
ATOM     25  C   UNL A   1      42.327  19.569  26.624  1.00  0.00     0.188 C 
BRANCH  25  26
ATOM     26  C   UNL A   1      43.177  19.194  25.403  1.00  0.00     0.188 C 
BRANCH  26  27
ATOM     27  O   UNL A   1      44.502  19.687  25.440  1.00  0.00    -0.376 OA
BRANCH  27  28
ATOM     28  C   UNL A   1      44.719  20.904  24.730  1.00  0.00     0.202 C 
BRANCH  28  29
ATOM     29  C   UNL A   1      44.756  22.209  25.553  1.00  0.00     0.261 C 
BRANCH  29  30
ATOM     30  O   UNL A   1      43.871  23.263  25.132  1.00  0.00    -0.460 OA
BRANCH  30  31
ATOM     31  C   UNL A   1      44.379  24.507  25.123  1.00  0.00     0.338 C 
ATOM     32  O   UNL A   1      45.393  24.886  24.541  1.00  0.00    -0.246 OA
BRANCH  31  33
ATOM     33  C   UNL A   1      43.472  25.417  25.844  1.00  0.00     0.060 A 
ATOM     34  C   UNL A   1      43.907  26.716  26.127  1.00  0.00     0.016 A 
ATOM     35  C   UNL A   1      42.258  24.950  26.359  1.00  0.00     0.016 A 
ATOM     36  C   UNL A   1      43.165  27.528  26.985  1.00  0.00     0.010 A 
ATOM     37  C   UNL A   1      41.520  25.761  27.231  1.00  0.00     0.010 A 
ATOM     38  C   UNL A   1      42.004  27.031  27.595  1.00  0.00    -0.014 A 
BRANCH  38  39
ATOM     39  C   UNL A   1      41.473  27.733  28.793  1.00  0.00     0.031 A 
ATOM     40  C   UNL A   1      42.218  27.580  30.095  1.00  0.00     0.074 A 
ATOM     41  C   UNL A   1      40.408  28.551  28.723  1.00  0.00     0.049 A 
ATOM     42  N   UNL A   1      41.998  28.143  31.256  1.00  0.00    -0.248 NA
ATOM     43  C   UNL A   1      43.375  26.669  30.080  1.00  0.00     0.031 C 
ATOM     44  C   UNL A   1      39.620  28.814  27.523  1.00  0.00     0.029 A 
ATOM     45  N   UNL A   1      39.813  29.320  29.693  1.00  0.00    -0.354 N 
ATOM     46  C   UNL A   1      42.990  27.663  32.103  1.00  0.00     0.074 A 
ATOM     47  C   UNL A   1      43.788  26.732  31.336  1.00  0.00     0.031 C 
ATOM     48  C   UNL A   1      38.642  29.686  27.826  1.00  0.00     0.029 A 
ATOM     49  C   UNL A   1      38.726  30.029  29.247  1.00  0.00     0.049 A 
ATOM     50  H   UNL A   1      40.136  29.359  30.623  1.00  0.00     0.167 HD
ATOM     51  C   UNL A   1      43.228  27.979  33.398  1.00  0.00     0.037 A 
ATOM     52  C   UNL A   1      37.896  30.857  29.912  1.00  0.00     0.037 A 
ATOM     53  C   UNL A   1      42.434  28.897  34.168  1.00  0.00     0.049 A 
ATOM     54  C   UNL A   1      38.143  31.144  31.372  1.00  0.00     0.074 A 
ATOM     55  C   UNL A   1      42.596  29.286  35.486  1.00  0.00     0.029 A 
ATOM     56  N   UNL A   1      41.319  29.567  33.688  1.00  0.00    -0.354 N 
ATOM     57  N   UNL A   1      39.105  30.714  32.153  1.00  0.00    -0.248 NA
ATOM     58  C   UNL A   1      37.192  32.045  32.040  1.00  0.00     0.031 C 
ATOM     59  C   UNL A   1      41.551  30.155  35.819  1.00  0.00     0.029 A 
ATOM     60  C   UNL A   1      40.770  30.351  34.690  1.00  0.00     0.049 A 
ATOM     61  H   UNL A   1      40.969  29.496  32.770  1.00  0.00     0.167 HD
ATOM     62  C   UNL A   1      38.895  31.315  33.388  1.00  0.00     0.074 A 
ATOM     63  C   UNL A   1      37.722  32.152  33.250  1.00  0.00     0.031 C 
ATOM     64  C   UNL A   1      39.608  31.187  34.535  1.00  0.00     0.037 A 
BRANCH  51  65
ATOM     65  C   UNL A   1      44.388  27.301  34.068  1.00  0.00     0.064 A 
ATOM     66  C   UNL A   1      45.672  27.867  34.066  1.00  0.00     0.173 A 
ATOM     67  C   UNL A   1      44.208  26.081  34.735  1.00  0.00     0.173 A 
ATOM     68  F   UNL A   1      45.899  29.025  33.427  1.00  0.00    -0.203 F 
ATOM     69  C   UNL A   1      46.740  27.221  34.683  1.00  0.00     0.198 A 
ATOM     70  C   UNL A   1      45.273  25.451  35.375  1.00  0.00     0.198 A 
ATOM     71  F   UNL A   1      43.001  25.498  34.768  1.00  0.00    -0.203 F 
ATOM     72  F   UNL A   1      47.968  27.754  34.626  1.00  0.00    -0.200 F 
ATOM     73  C   UNL A   1      46.538  26.017  35.342  1.00  0.00     0.200 A 
ATOM     74  F   UNL A   1      45.074  24.293  36.020  1.00  0.00    -0.200 F 
ATOM     75  F   UNL A   1      47.567  25.397  35.938  1.00  0.00    -0.200 F 
ENDBRANCH  51  65
BRANCH  52  76
ATOM     76  C   UNL A   1      36.745  31.484  29.207  1.00  0.00     0.064 A 
ATOM     77  C   UNL A   1      36.727  32.858  28.926  1.00  0.00     0.173 A 
ATOM     78  C   UNL A   1      35.625  30.728  28.834  1.00  0.00     0.173 A 
ATOM     79  F   UNL A   1      37.763  33.629  29.289  1.00  0.00    -0.203 F 
ATOM     80  C   UNL A   1      35.623  33.453  28.319  1.00  0.00     0.198 A 
ATOM     81  C   UNL A   1      34.534  31.320  28.201  1.00  0.00     0.198 A 
ATOM     82  F   UNL A   1      35.591  29.410  29.085  1.00  0.00    -0.203 F 
ATOM     83  F   UNL A   1      35.611  34.777  28.108  1.00  0.00    -0.200 F 
ATOM     84  C   UNL A   1      34.530  32.684  27.952  1.00  0.00     0.200 A 
ATOM     85  F   UNL A   1      33.483  30.570  27.841  1.00  0.00    -0.200 F 
ATOM     86  F   UNL A   1      33.469  33.257  27.369  1.00  0.00    -0.200 F 
ENDBRANCH  52  76
BRANCH  64  87
ATOM     87  C   UNL A   1      39.169  32.002  35.718  1.00  0.00     0.064 A 
ATOM     88  C   UNL A   1      39.581  33.331  35.895  1.00  0.00     0.173 A 
ATOM     89  C   UNL A   1      38.297  31.453  36.671  1.00  0.00     0.173 A 
ATOM     90  F   UNL A   1      40.423  33.898  35.020  1.00  0.00    -0.203 F 
ATOM     91  C   UNL A   1      39.163  34.068  37.000  1.00  0.00     0.198 A 
ATOM     92  C   UNL A   1      37.855  32.204  37.757  1.00  0.00     0.198 A 
ATOM     93  F   UNL A   1      37.863  30.190  36.543  1.00  0.00    -0.203 F 
ATOM     94  F   UNL A   1      39.612  35.319  37.178  1.00  0.00    -0.200 F 
ATOM     95  C   UNL A   1      38.296  33.507  37.926  1.00  0.00     0.200 A 
ATOM     96  F   UNL A   1      37.006  31.664  38.643  1.00  0.00    -0.200 F 
ATOM     97  F   UNL A   1      37.893  34.220  38.987  1.00  0.00    -0.200 F 
ENDBRANCH  64  87
ENDBRANCH  38  39
ENDBRANCH  31  33
ENDBRANCH  30  31
ENDBRANCH  29  30
ENDBRANCH  28  29
ENDBRANCH  27  28
ENDBRANCH  26  27
ENDBRANCH  25  26
ENDBRANCH   1  25
TORSDOF 22
ENDMDL
MODEL 2
REMARK VINA RESULT:     -10.6      1.418      2.162
REMARK SMILES C[C@H]1[C@H](C(=O)OCCOCCOCCOCCOC(=O)c2ccc(-c3c4nc(c(-c5c(F)c(F)c(F)c(F)c5F)c5ccc([nH]5)c(-c5c(F)c(F)c(F)c(F)c5F)c5nc(c(-c6c(F)c(F)c(F)c(F)c6F)c6ccc3[nH]6)C=C5)C=C4)cc2)CC[N@@H+]1CC(=O)N1CCCC1
REMARK SMILES IDX 12 1 11 2 10 3 9 4 8 5 7 6 6 7 4 8 5 9 3 10 1 11 2 12 86 13
REMARK SMILES IDX 84 14 85 15 87 17 88 18 89 19 90 20 91 21 94 22 92 23 93 24
REMARK SMILES IDX 13 25 14 26 15 27 16 28 17 29 18 30 19 31 20 32 21 33 22 34
REMARK SMILES IDX 83 35 23 36 82 37 24 38 25 39 26 40 76 41 27 42 81 43 75 44
REMARK SMILES IDX 77 45 28 46 80 47 74 48 73 49 29 51 61 52 41 53 60 54 42 55
REMARK SMILES IDX 45 56 59 57 78 58 43 59 44 60 58 62 79 63 46 64 30 65 31 66
REMARK SMILES IDX 39 67 32 68 33 69 37 70 40 71 34 72 35 73 38 74 36 75 62 76
REMARK SMILES IDX 63 77 71 78 64 79 65 80 69 81 72 82 66 83 67 84 70 85 68 86
REMARK SMILES IDX 47 87 48 88 56 89 49 90 50 91 54 92 57 93 51 94 52 95 55 96
REMARK SMILES IDX 53 97
REMARK H PARENT 86 16 77 50 45 61
REMARK Flexibility Score: inf
ROOT
ATOM      1  O   UNL A   1      42.229  20.398  26.733  1.00  0.00    -0.377 OA
ENDROOT
BRANCH   1   2
ATOM      2  C   UNL A   1      41.264  21.196  26.071  1.00  0.00     0.188 C 
BRANCH   2   3
ATOM      3  C   UNL A   1      39.980  21.625  26.794  1.00  0.00     0.188 C 
BRANCH   3   4
ATOM      4  O   UNL A   1      39.345  22.837  26.427  1.00  0.00    -0.376 OA
BRANCH   4   5
ATOM      5  C   UNL A   1      37.962  22.771  26.066  1.00  0.00     0.202 C 
BRANCH   5   6
ATOM      6  C   UNL A   1      37.461  21.473  25.419  1.00  0.00     0.261 C 
BRANCH   6   7
ATOM      7  O   UNL A   1      36.845  21.726  24.132  1.00  0.00    -0.463 OA
BRANCH   7   8
ATOM      8  C   UNL A   1      35.684  22.436  24.129  1.00  0.00     0.315 C 
ATOM      9  O   UNL A   1      35.529  23.501  23.542  1.00  0.00    -0.252 OA
BRANCH   8  10
ATOM     10  C   UNL A   1      34.569  21.768  24.906  1.00  0.00     0.162 C 
ATOM     11  C   UNL A   1      34.393  22.492  27.344  1.00  0.00     0.076 C 
ATOM     12  C   UNL A   1      33.835  22.651  25.928  1.00  0.00     0.195 C 
ATOM     13  N   UNL A   1      32.448  22.180  25.902  1.00  0.00    -0.324 N 
ATOM     14  C   UNL A   1      33.460  21.240  24.009  1.00  0.00     0.083 C 
ATOM     15  C   UNL A   1      32.297  21.077  24.970  1.00  0.00     0.264 C 
ATOM     16  H   UNL A   1      32.278  21.798  26.833  1.00  0.00     0.348 HD
BRANCH  13  17
ATOM     17  C   UNL A   1      31.361  23.158  26.007  1.00  0.00     0.364 C 
BRANCH  17  18
ATOM     18  C   UNL A   1      31.169  24.151  24.840  1.00  0.00     0.277 C 
ATOM     19  O   UNL A   1      30.773  23.757  23.737  1.00  0.00    -0.268 OA
ATOM     20  N   UNL A   1      31.338  25.495  25.085  1.00  0.00    -0.338 N 
ATOM     21  C   UNL A   1      32.136  26.077  26.134  1.00  0.00     0.119 C 
ATOM     22  C   UNL A   1      30.830  26.523  24.191  1.00  0.00     0.119 C 
ATOM     23  C   UNL A   1      32.317  27.530  25.730  1.00  0.00     0.023 C 
ATOM     24  C   UNL A   1      31.050  27.823  24.954  1.00  0.00     0.023 C 
ENDBRANCH  17  18
ENDBRANCH  13  17
ENDBRANCH   8  10
ENDBRANCH   7   8
ENDBRANCH   6   7
ENDBRANCH   5   6
ENDBRANCH   4   5
ENDBRANCH   3   4
ENDBRANCH   2   3
ENDBRANCH   1   2
BRANCH   1  25
ATOM     25  C   UNL A   1      42.609  19.159  26.148  1.00  0.00     0.188 C 
BRANCH  25  26
ATOM     26  C   UNL A   1      43.697  19.096  25.068  1.00  0.00     0.188 C 
BRANCH  26  27
ATOM     27  O   UNL A   1      44.919  19.707  25.432  1.00  0.00    -0.376 OA
BRANCH  27  28
ATOM     28  C   UNL A   1      45.202  20.941  24.777  1.00  0.00     0.202 C 
BRANCH  28  29
ATOM     29  C   UNL A   1      45.434  22.180  25.667  1.00  0.00     0.261 C 
BRANCH  29  30
ATOM     30  O   UNL A   1      44.304  23.047  25.876  1.00  0.00    -0.460 OA
BRANCH  30  31
ATOM     31  C   UNL A   1      44.356  24.254  25.288  1.00  0.00     0.338 C 
ATOM     32  O   UNL A   1      44.972  24.553  24.269  1.00  0.00    -0.246 OA
BRANCH  31  33
ATOM     33  C   UNL A   1      43.459  25.186  25.994  1.00  0.00     0.060 A 
ATOM     34  C   UNL A   1      43.903  26.489  26.243  1.00  0.00     0.016 A 
ATOM     35  C   UNL A   1      42.245  24.739  26.527  1.00  0.00     0.016 A 
ATOM     36  C   UNL A   1      43.172  27.325  27.087  1.00  0.00     0.010 A 
ATOM     37  C   UNL A   1      41.518  25.574  27.385  1.00  0.00     0.010 A 
ATOM     38  C   UNL A   1      42.012  26.849  27.716  1.00  0.00    -0.014 A 
BRANCH  38  39
ATOM     39  C   UNL A   1      41.493  27.583  28.900  1.00  0.00     0.031 A 
ATOM     40  C   UNL A   1      42.244  27.453  30.202  1.00  0.00     0.074 A 
ATOM     41  C   UNL A   1      40.434  28.407  28.817  1.00  0.00     0.049 A 
ATOM     42  N   UNL A   1      42.035  28.044  31.351  1.00  0.00    -0.248 NA
ATOM     43  C   UNL A   1      43.394  26.533  30.201  1.00  0.00     0.031 C 
ATOM     44  C   UNL A   1      39.642  28.650  27.616  1.00  0.00     0.029 A 
ATOM     45  N   UNL A   1      39.851  29.203  29.774  1.00  0.00    -0.354 N 
ATOM     46  C   UNL A   1      43.028  27.575  32.203  1.00  0.00     0.074 A 
ATOM     47  C   UNL A   1      43.814  26.620  31.453  1.00  0.00     0.031 C 
ATOM     48  C   UNL A   1      38.672  29.536  27.905  1.00  0.00     0.029 A 
ATOM     49  C   UNL A   1      38.766  29.910  29.317  1.00  0.00     0.049 A 
ATOM     50  H   UNL A   1      40.179  29.260  30.700  1.00  0.00     0.167 HD
ATOM     51  C   UNL A   1      43.275  27.918  33.489  1.00  0.00     0.037 A 
ATOM     52  C   UNL A   1      37.947  30.759  29.967  1.00  0.00     0.037 A 
ATOM     53  C   UNL A   1      42.493  28.860  34.242  1.00  0.00     0.049 A 
ATOM     54  C   UNL A   1      38.204  31.078  31.420  1.00  0.00     0.074 A 
ATOM     55  C   UNL A   1      42.665  29.277  35.551  1.00  0.00     0.029 A 
ATOM     56  N   UNL A   1      41.380  29.527  33.754  1.00  0.00    -0.354 N 
ATOM     57  N   UNL A   1      39.167  30.657  32.204  1.00  0.00    -0.248 NA
ATOM     58  C   UNL A   1      37.263  32.001  32.072  1.00  0.00     0.031 C 
ATOM     59  C   UNL A   1      41.628  30.161  35.869  1.00  0.00     0.029 A 
ATOM     60  C   UNL A   1      40.843  30.338  34.741  1.00  0.00     0.049 A 
ATOM     61  H   UNL A   1      41.024  29.439  32.840  1.00  0.00     0.167 HD
ATOM     62  C   UNL A   1      38.968  31.288  33.427  1.00  0.00     0.074 A 
ATOM     63  C   UNL A   1      37.801  32.131  33.276  1.00  0.00     0.031 C 
ATOM     64  C   UNL A   1      39.687  31.180  34.572  1.00  0.00     0.037 A 
BRANCH  51  65
ATOM     65  C   UNL A   1      44.433  27.247  34.168  1.00  0.00     0.064 A 
ATOM     66  C   UNL A   1      45.749  27.704  34.004  1.00  0.00     0.173 A 
ATOM     67  C   UNL A   1      44.221  26.144  35.008  1.00  0.00     0.173 A 
ATOM     68  F   UNL A   1      46.006  28.745  33.197  1.00  0.00    -0.203 F 
ATOM     69  C   UNL A   1      46.814  27.064  34.632  1.00  0.00     0.198 A 
ATOM     70  C   UNL A   1      45.285  25.522  35.657  1.00  0.00     0.198 A 
ATOM     71  F   UNL A   1      42.982  25.667  35.201  1.00  0.00    -0.203 F 
ATOM     72  F   UNL A   1      48.068  27.487  34.421  1.00  0.00    -0.200 F 
ATOM     73  C   UNL A   1      46.581  25.978  35.462  1.00  0.00     0.200 A 
ATOM     74  F   UNL A   1      45.057  24.480  36.468  1.00  0.00    -0.200 F 
ATOM     75  F   UNL A   1      47.606  25.364  36.069  1.00  0.00    -0.200 F 
ENDBRANCH  51  65
BRANCH  52  76
ATOM     76  C   UNL A   1      36.797  31.379  29.255  1.00  0.00     0.064 A 
ATOM     77  C   UNL A   1      36.805  32.738  28.909  1.00  0.00     0.173 A 
ATOM     78  C   UNL A   1      35.653  30.634  28.939  1.00  0.00     0.173 A 
ATOM     79  F   UNL A   1      37.865  33.501  29.214  1.00  0.00    -0.203 F 
ATOM     80  C   UNL A   1      35.703  33.331  28.294  1.00  0.00     0.198 A 
ATOM     81  C   UNL A   1      34.563  31.220  28.299  1.00  0.00     0.198 A 
ATOM     82  F   UNL A   1      35.594  29.331  29.253  1.00  0.00    -0.203 F 
ATOM     83  F   UNL A   1      35.718  34.643  28.020  1.00  0.00    -0.200 F 
ATOM     84  C   UNL A   1      34.586  32.571  27.985  1.00  0.00     0.200 A 
ATOM     85  F   UNL A   1      33.489  30.480  27.994  1.00  0.00    -0.200 F 
ATOM     86  F   UNL A   1      33.527  33.141  27.395  1.00  0.00    -0.200 F 
ENDBRANCH  52  76
BRANCH  64  87
ATOM     87  C   UNL A   1      39.260  32.025  35.740  1.00  0.00     0.064 A 
ATOM     88  C   UNL A   1      39.743  33.328  35.924  1.00  0.00     0.173 A 
ATOM     89  C   UNL A   1      38.330  31.532  36.667  1.00  0.00     0.173 A 
ATOM     90  F   UNL A   1      40.643  33.842  35.073  1.00  0.00    -0.203 F 
ATOM     91  C   UNL A   1      39.336  34.095  37.014  1.00  0.00     0.198 A 
ATOM     92  C   UNL A   1      37.900  32.312  37.738  1.00  0.00     0.198 A 
ATOM     93  F   UNL A   1      37.828  30.295  36.531  1.00  0.00    -0.203 F 
ATOM     94  F   UNL A   1      39.851  35.318  37.201  1.00  0.00    -0.200 F 
ATOM     95  C   UNL A   1      38.411  33.589  37.915  1.00  0.00     0.200 A 
ATOM     96  F   UNL A   1      36.995  31.827  38.600  1.00  0.00    -0.200 F 
ATOM     97  F   UNL A   1      38.018  34.329  38.961  1.00  0.00    -0.200 F 
ENDBRANCH  64  87
ENDBRANCH  38  39
ENDBRANCH  31  33
ENDBRANCH  30  31
ENDBRANCH  29  30
ENDBRANCH  28  29
ENDBRANCH  27  28
ENDBRANCH  26  27
ENDBRANCH  25  26
ENDBRANCH   1  25
TORSDOF 22
ENDMDL
MODEL 3
REMARK VINA RESULT:     -10.5      5.196     10.953
REMARK SMILES C[C@H]1[C@H](C(=O)OCCOCCOCCOCCOC(=O)c2ccc(-c3c4nc(c(-c5c(F)c(F)c(F)c(F)c5F)c5ccc([nH]5)c(-c5c(F)c(F)c(F)c(F)c5F)c5nc(c(-c6c(F)c(F)c(F)c(F)c6F)c6ccc3[nH]6)C=C5)C=C4)cc2)CC[N@@H+]1CC(=O)N1CCCC1
REMARK SMILES IDX 12 1 11 2 10 3 9 4 8 5 7 6 6 7 4 8 5 9 3 10 1 11 2 12 86 13
REMARK SMILES IDX 84 14 85 15 87 17 88 18 89 19 90 20 91 21 94 22 92 23 93 24
REMARK SMILES IDX 13 25 14 26 15 27 16 28 17 29 18 30 19 31 20 32 21 33 22 34
REMARK SMILES IDX 83 35 23 36 82 37 24 38 25 39 26 40 76 41 27 42 81 43 75 44
REMARK SMILES IDX 77 45 28 46 80 47 74 48 73 49 29 51 61 52 41 53 60 54 42 55
REMARK SMILES IDX 45 56 59 57 78 58 43 59 44 60 58 62 79 63 46 64 30 65 31 66
REMARK SMILES IDX 39 67 32 68 33 69 37 70 40 71 34 72 35 73 38 74 36 75 62 76
REMARK SMILES IDX 63 77 71 78 64 79 65 80 69 81 72 82 66 83 67 84 70 85 68 86
REMARK SMILES IDX 47 87 48 88 56 89 49 90 50 91 54 92 57 93 51 94 52 95 55 96
REMARK SMILES IDX 53 97
REMARK H PARENT 86 16 77 50 45 61
REMARK Flexibility Score: inf
ROOT
ATOM      1  O   UNL A   1      33.960  35.463  28.490  1.00  0.00    -0.377 OA
ENDROOT
BRANCH   1   2
ATOM      2  C   UNL A   1      33.507  34.122  28.445  1.00  0.00     0.188 C 
BRANCH   2   3
ATOM      3  C   UNL A   1      34.487  32.979  28.151  1.00  0.00     0.188 C 
BRANCH   3   4
ATOM      4  O   UNL A   1      34.081  31.639  28.372  1.00  0.00    -0.376 OA
BRANCH   4   5
ATOM      5  C   UNL A   1      33.943  30.797  27.223  1.00  0.00     0.202 C 
BRANCH   5   6
ATOM      6  C   UNL A   1      32.545  30.248  26.912  1.00  0.00     0.261 C 
BRANCH   6   7
ATOM      7  O   UNL A   1      32.365  30.032  25.490  1.00  0.00    -0.463 OA
BRANCH   7   8
ATOM      8  C   UNL A   1      32.611  28.780  25.017  1.00  0.00     0.315 C 
ATOM      9  O   UNL A   1      33.711  28.389  24.643  1.00  0.00    -0.252 OA
BRANCH   8  10
ATOM     10  C   UNL A   1      31.389  27.885  25.019  1.00  0.00     0.162 C 
ATOM     11  C   UNL A   1      30.226  27.671  22.761  1.00  0.00     0.076 C 
ATOM     12  C   UNL A   1      31.181  27.022  23.766  1.00  0.00     0.195 C 
ATOM     13  N   UNL A   1      30.586  25.779  24.260  1.00  0.00    -0.324 N 
ATOM     14  C   UNL A   1      31.396  26.882  26.163  1.00  0.00     0.083 C 
ATOM     15  C   UNL A   1      30.399  25.836  25.700  1.00  0.00     0.264 C 
ATOM     16  H   UNL A   1      29.653  25.746  23.849  1.00  0.00     0.348 HD
BRANCH  13  17
ATOM     17  C   UNL A   1      30.993  24.504  23.660  1.00  0.00     0.364 C 
BRANCH  17  18
ATOM     18  C   UNL A   1      32.490  24.306  23.334  1.00  0.00     0.277 C 
ATOM     19  O   UNL A   1      32.914  24.479  22.186  1.00  0.00    -0.268 OA
ATOM     20  N   UNL A   1      33.360  24.045  24.370  1.00  0.00    -0.338 N 
ATOM     21  C   UNL A   1      33.021  23.449  25.638  1.00  0.00     0.119 C 
ATOM     22  C   UNL A   1      34.798  24.211  24.244  1.00  0.00     0.119 C 
ATOM     23  C   UNL A   1      34.348  23.013  26.233  1.00  0.00     0.023 C 
ATOM     24  C   UNL A   1      35.320  24.025  25.663  1.00  0.00     0.023 C 
ENDBRANCH  17  18
ENDBRANCH  13  17
ENDBRANCH   8  10
ENDBRANCH   7   8
ENDBRANCH   6   7
ENDBRANCH   5   6
ENDBRANCH   4   5
ENDBRANCH   3   4
ENDBRANCH   2   3
ENDBRANCH   1   2
BRANCH   1  25
ATOM     25  C   UNL A   1      33.274  36.390  29.323  1.00  0.00     0.188 C 
BRANCH  25  26
ATOM     26  C   UNL A   1      32.888  36.022  30.762  1.00  0.00     0.188 C 
BRANCH  26  27
ATOM     27  O   UNL A   1      33.619  36.710  31.758  1.00  0.00    -0.376 OA
BRANCH  27  28
ATOM     28  C   UNL A   1      34.497  35.900  32.537  1.00  0.00     0.202 C 
BRANCH  28  29
ATOM     29  C   UNL A   1      34.345  34.369  32.416  1.00  0.00     0.261 C 
BRANCH  29  30
ATOM     30  O   UNL A   1      35.508  33.636  31.989  1.00  0.00    -0.460 OA
BRANCH  30  31
ATOM     31  C   UNL A   1      35.978  32.707  32.837  1.00  0.00     0.338 C 
ATOM     32  O   UNL A   1      35.717  32.599  34.033  1.00  0.00    -0.246 OA
BRANCH  31  33
ATOM     33  C   UNL A   1      36.798  31.732  32.097  1.00  0.00     0.060 A 
ATOM     34  C   UNL A   1      37.801  31.037  32.783  1.00  0.00     0.016 A 
ATOM     35  C   UNL A   1      36.673  31.605  30.709  1.00  0.00     0.016 A 
ATOM     36  C   UNL A   1      38.727  30.271  32.075  1.00  0.00     0.010 A 
ATOM     37  C   UNL A   1      37.612  30.846  29.998  1.00  0.00     0.010 A 
ATOM     38  C   UNL A   1      38.679  30.227  30.674  1.00  0.00    -0.014 A 
BRANCH  38  39
ATOM     39  C   UNL A   1      39.883  29.766  29.935  1.00  0.00     0.031 A 
ATOM     40  C   UNL A   1      41.035  30.728  29.783  1.00  0.00     0.074 A 
ATOM     41  C   UNL A   1      39.998  28.506  29.478  1.00  0.00     0.049 A 
ATOM     42  N   UNL A   1      42.214  30.543  29.246  1.00  0.00    -0.248 NA
ATOM     43  C   UNL A   1      40.826  32.084  30.318  1.00  0.00     0.031 C 
ATOM     44  C   UNL A   1      38.977  27.470  29.589  1.00  0.00     0.029 A 
ATOM     45  N   UNL A   1      41.040  27.888  28.831  1.00  0.00    -0.354 N 
ATOM     46  C   UNL A   1      42.887  31.751  29.386  1.00  0.00     0.074 A 
ATOM     47  C   UNL A   1      41.972  32.675  30.019  1.00  0.00     0.031 C 
ATOM     48  C   UNL A   1      39.442  26.339  29.028  1.00  0.00     0.029 A 
ATOM     49  C   UNL A   1      40.788  26.578  28.505  1.00  0.00     0.049 A 
ATOM     50  H   UNL A   1      41.889  28.340  28.621  1.00  0.00     0.167 HD
ATOM     51  C   UNL A   1      44.157  32.063  29.034  1.00  0.00     0.037 A 
ATOM     52  C   UNL A   1      41.557  25.681  27.858  1.00  0.00     0.037 A 
ATOM     53  C   UNL A   1      45.068  31.152  28.396  1.00  0.00     0.049 A 
ATOM     54  C   UNL A   1      42.947  26.070  27.418  1.00  0.00     0.074 A 
ATOM     55  C   UNL A   1      46.377  31.372  28.003  1.00  0.00     0.029 A 
ATOM     56  N   UNL A   1      44.761  29.845  28.050  1.00  0.00    -0.354 N 
ATOM     57  N   UNL A   1      43.585  27.203  27.588  1.00  0.00    -0.248 NA
ATOM     58  C   UNL A   1      43.727  25.048  26.704  1.00  0.00     0.031 C 
ATOM     59  C   UNL A   1      46.846  30.212  27.376  1.00  0.00     0.029 A 
ATOM     60  C   UNL A   1      45.848  29.252  27.429  1.00  0.00     0.049 A 
ATOM     61  H   UNL A   1      43.898  29.403  28.221  1.00  0.00     0.167 HD
ATOM     62  C   UNL A   1      44.847  27.019  27.035  1.00  0.00     0.074 A 
ATOM     63  C   UNL A   1      44.890  25.660  26.537  1.00  0.00     0.031 C 
ATOM     64  C   UNL A   1      45.880  27.895  26.948  1.00  0.00     0.037 A 
BRANCH  51  65
ATOM     65  C   UNL A   1      44.624  33.461  29.314  1.00  0.00     0.064 A 
ATOM     66  C   UNL A   1      44.433  34.500  28.390  1.00  0.00     0.173 A 
ATOM     67  C   UNL A   1      45.254  33.770  30.528  1.00  0.00     0.173 A 
ATOM     68  F   UNL A   1      43.852  34.252  27.206  1.00  0.00    -0.203 F 
ATOM     69  C   UNL A   1      44.882  35.790  28.660  1.00  0.00     0.198 A 
ATOM     70  C   UNL A   1      45.676  35.067  30.807  1.00  0.00     0.198 A 
ATOM     71  F   UNL A   1      45.458  32.814  31.447  1.00  0.00    -0.203 F 
ATOM     72  F   UNL A   1      44.735  36.755  27.743  1.00  0.00    -0.200 F 
ATOM     73  C   UNL A   1      45.497  36.073  29.870  1.00  0.00     0.200 A 
ATOM     74  F   UNL A   1      46.261  35.342  31.981  1.00  0.00    -0.200 F 
ATOM     75  F   UNL A   1      45.926  37.317  30.130  1.00  0.00    -0.200 F 
ENDBRANCH  51  65
BRANCH  52  76
ATOM     76  C   UNL A   1      41.038  24.314  27.582  1.00  0.00     0.064 A 
ATOM     77  C   UNL A   1      41.578  23.189  28.222  1.00  0.00     0.173 A 
ATOM     78  C   UNL A   1      40.016  24.103  26.646  1.00  0.00     0.173 A 
ATOM     79  F   UNL A   1      42.576  23.337  29.105  1.00  0.00    -0.203 F 
ATOM     80  C   UNL A   1      41.130  21.905  27.919  1.00  0.00     0.198 A 
ATOM     81  C   UNL A   1      39.549  22.820  26.365  1.00  0.00     0.198 A 
ATOM     82  F   UNL A   1      39.469  25.146  26.003  1.00  0.00    -0.203 F 
ATOM     83  F   UNL A   1      41.699  20.844  28.508  1.00  0.00    -0.200 F 
ATOM     84  C   UNL A   1      40.113  21.721  26.995  1.00  0.00     0.200 A 
ATOM     85  F   UNL A   1      38.560  22.649  25.477  1.00  0.00    -0.200 F 
ATOM     86  F   UNL A   1      39.684  20.486  26.704  1.00  0.00    -0.200 F 
ENDBRANCH  52  76
BRANCH  64  87
ATOM     87  C   UNL A   1      47.157  27.400  26.331  1.00  0.00     0.064 A 
ATOM     88  C   UNL A   1      47.425  27.555  24.962  1.00  0.00     0.173 A 
ATOM     89  C   UNL A   1      48.140  26.793  27.126  1.00  0.00     0.173 A 
ATOM     90  F   UNL A   1      46.513  28.119  24.156  1.00  0.00    -0.203 F 
ATOM     91  C   UNL A   1      48.615  27.089  24.409  1.00  0.00     0.198 A 
ATOM     92  C   UNL A   1      49.343  26.357  26.576  1.00  0.00     0.198 A 
ATOM     93  F   UNL A   1      47.939  26.630  28.443  1.00  0.00    -0.203 F 
ATOM     94  F   UNL A   1      48.827  27.199  23.090  1.00  0.00    -0.200 F 
ATOM     95  C   UNL A   1      49.575  26.497  25.216  1.00  0.00     0.200 A 
ATOM     96  F   UNL A   1      50.275  25.798  27.360  1.00  0.00    -0.200 F 
ATOM     97  F   UNL A   1      50.720  26.052  24.682  1.00  0.00    -0.200 F 
ENDBRANCH  64  87
ENDBRANCH  38  39
ENDBRANCH  31  33
ENDBRANCH  30  31
ENDBRANCH  29  30
ENDBRANCH  28  29
ENDBRANCH  27  28
ENDBRANCH  26  27
ENDBRANCH  25  26
ENDBRANCH   1  25
TORSDOF 22
ENDMDL
