MODEL 1
REMARK VINA RESULT:     -10.8      0.000      0.000
REMARK SMILES O=C(CCN1C(=O)S/C(=C\c2ccc(F)cc2)C1=O)Nc1ccc(O)cc1C(=O)OCCOCCOCCOCCOC(=O)c1ccc(-c2c3nc(c(-c4c(F)c(F)c(F)c(F)c4F)c4ccc([nH]4)c(-c4c(F)c(F)c(F)c(F)c4F)c4nc(c(-c5c(F)c(F)c(F)c(F)c5F)c5ccc2[nH]5)C=C4)C=C3)cc1
REMARK SMILES IDX 34 1 33 2 32 3 31 4 30 5 28 6 29 7 27 8 21 9 22 10 23 11
REMARK SMILES IDX 26 12 24 13 20 14 1 15 2 16 3 18 4 19 5 20 6 21 18 22 7 23
REMARK SMILES IDX 8 24 9 25 19 26 10 27 11 28 12 29 17 30 13 31 16 32 14 33
REMARK SMILES IDX 15 34 25 35 35 37 36 38 37 39 38 40 39 41 40 42 41 43 42 44
REMARK SMILES IDX 43 45 44 46 45 47 46 48 107 49 47 50 106 51 48 52 49 53
REMARK SMILES IDX 50 54 100 55 51 56 105 57 99 58 101 59 52 60 104 61 98 62
REMARK SMILES IDX 97 63 53 65 85 66 65 67 84 68 66 69 69 70 83 71 102 72 67 73
REMARK SMILES IDX 68 74 82 76 103 77 70 78 54 79 55 80 63 81 56 82 57 83 61 84
REMARK SMILES IDX 64 85 58 86 59 87 62 88 60 89 86 90 87 91 95 92 88 93 89 94
REMARK SMILES IDX 93 95 96 96 90 97 91 98 94 99 92 100 71 101 72 102 80 103
REMARK SMILES IDX 73 104 74 105 78 106 81 107 75 108 76 109 79 110 77 111
REMARK H PARENT 20 17 25 36 101 64 69 75
REMARK Flexibility Score: inf
ROOT
ATOM      1  C   UNL A   1      41.059  19.209  26.161  1.00  0.00     0.188 C 
ENDROOT
BRANCH   1   2
ATOM      2  O   UNL A   1      39.784  19.368  25.565  1.00  0.00    -0.376 OA
BRANCH   2   3
ATOM      3  C   UNL A   1      39.070  20.582  25.669  1.00  0.00     0.202 C 
BRANCH   3   4
ATOM      4  C   UNL A   1      37.719  20.854  24.988  1.00  0.00     0.261 C 
BRANCH   4   5
ATOM      5  O   UNL A   1      36.721  19.836  25.004  1.00  0.00    -0.460 OA
BRANCH   5   6
ATOM      6  C   UNL A   1      35.446  20.271  24.983  1.00  0.00     0.340 C 
ATOM      7  O   UNL A   1      35.078  21.428  25.088  1.00  0.00    -0.246 OA
BRANCH   6   8
ATOM      8  C   UNL A   1      34.561  19.148  24.591  1.00  0.00     0.087 A 
ATOM      9  C   UNL A   1      33.208  19.257  24.191  1.00  0.00     0.056 A 
ATOM     10  C   UNL A   1      32.545  18.070  23.838  1.00  0.00     0.031 A 
ATOM     11  C   UNL A   1      33.154  16.818  23.981  1.00  0.00     0.048 A 
ATOM     12  C   UNL A   1      35.160  17.886  24.751  1.00  0.00     0.064 A 
ATOM     13  C   UNL A   1      34.445  16.735  24.474  1.00  0.00     0.116 A 
BRANCH   9  14
ATOM     14  N   UNL A   1      32.535  20.515  24.164  1.00  0.00    -0.325 N 
ATOM     15  O   UNL A   1      32.146  20.781  21.895  1.00  0.00    -0.275 OA
ATOM     16  C   UNL A   1      32.122  21.216  23.047  1.00  0.00     0.226 C 
ATOM     17  H   UNL A   1      32.346  20.929  25.038  1.00  0.00     0.169 HD
BRANCH  16  18
ATOM     18  C   UNL A   1      31.665  22.656  23.262  1.00  0.00     0.122 C 
BRANCH  18  19
ATOM     19  C   UNL A   1      32.718  23.688  23.656  1.00  0.00     0.140 C 
BRANCH  19  20
ATOM     20  N   UNL A   1      32.309  25.060  23.961  1.00  0.00    -0.268 N 
ATOM     21  C   UNL A   1      32.183  25.583  25.217  1.00  0.00     0.293 C 
ATOM     22  C   UNL A   1      32.072  25.937  22.915  1.00  0.00     0.268 C 
ATOM     23  O   UNL A   1      32.387  25.026  26.286  1.00  0.00    -0.261 OA
ATOM     24  S   UNL A   1      31.579  27.216  25.148  1.00  0.00    -0.022 SA
ATOM     25  C   UNL A   1      31.470  27.204  23.435  1.00  0.00     0.083 C 
ATOM     26  O   UNL A   1      32.256  25.707  21.727  1.00  0.00    -0.268 OA
ATOM     27  C   UNL A   1      30.734  27.990  22.629  1.00  0.00     0.029 C 
BRANCH  27  28
ATOM     28  C   UNL A   1      29.673  28.937  23.044  1.00  0.00    -0.024 A 
ATOM     29  C   UNL A   1      28.301  28.697  22.899  1.00  0.00     0.011 A 
ATOM     30  C   UNL A   1      30.082  30.200  23.517  1.00  0.00     0.011 A 
ATOM     31  C   UNL A   1      27.371  29.719  23.113  1.00  0.00     0.040 A 
ATOM     32  C   UNL A   1      29.151  31.218  23.745  1.00  0.00     0.040 A 
ATOM     33  C   UNL A   1      27.805  30.972  23.520  1.00  0.00     0.123 A 
ATOM     34  F   UNL A   1      26.914  31.957  23.697  1.00  0.00    -0.207 F 
ENDBRANCH  27  28
ENDBRANCH  19  20
ENDBRANCH  18  19
ENDBRANCH  16  18
ENDBRANCH   9  14
BRANCH  13  35
ATOM     35  O   UNL A   1      35.050  15.540  24.711  1.00  0.00    -0.508 OA
ATOM     36  H   UNL A   1      35.958  15.427  24.506  1.00  0.00     0.293 HD
ENDBRANCH  13  35
ENDBRANCH   6   8
ENDBRANCH   5   6
ENDBRANCH   4   5
ENDBRANCH   3   4
ENDBRANCH   2   3
ENDBRANCH   1   2
BRANCH   1  37
ATOM     37  C   UNL A   1      42.115  20.334  26.081  1.00  0.00     0.188 C 
BRANCH  37  38
ATOM     38  O   UNL A   1      43.155  20.099  25.135  1.00  0.00    -0.377 OA
BRANCH  38  39
ATOM     39  C   UNL A   1      44.293  20.948  25.266  1.00  0.00     0.188 C 
BRANCH  39  40
ATOM     40  C   UNL A   1      44.496  22.007  24.162  1.00  0.00     0.188 C 
BRANCH  40  41
ATOM     41  O   UNL A   1      43.414  22.920  24.061  1.00  0.00    -0.376 OA
BRANCH  41  42
ATOM     42  C   UNL A   1      43.019  23.651  25.210  1.00  0.00     0.202 C 
BRANCH  42  43
ATOM     43  C   UNL A   1      43.542  25.090  25.355  1.00  0.00     0.261 C 
BRANCH  43  44
ATOM     44  O   UNL A   1      44.869  25.230  25.884  1.00  0.00    -0.460 OA
BRANCH  44  45
ATOM     45  C   UNL A   1      45.154  24.525  26.999  1.00  0.00     0.338 C 
ATOM     46  O   UNL A   1      45.659  23.420  27.057  1.00  0.00    -0.246 OA
BRANCH  45  47
ATOM     47  C   UNL A   1      44.937  25.399  28.172  1.00  0.00     0.060 A 
ATOM     48  C   UNL A   1      44.166  24.906  29.230  1.00  0.00     0.016 A 
ATOM     49  C   UNL A   1      45.450  26.699  28.217  1.00  0.00     0.016 A 
ATOM     50  C   UNL A   1      43.848  25.732  30.305  1.00  0.00     0.010 A 
ATOM     51  C   UNL A   1      45.117  27.533  29.291  1.00  0.00     0.010 A 
ATOM     52  C   UNL A   1      44.274  27.068  30.316  1.00  0.00    -0.014 A 
BRANCH  52  53
ATOM     53  C   UNL A   1      43.676  27.996  31.308  1.00  0.00     0.031 A 
ATOM     54  C   UNL A   1      42.370  28.669  30.979  1.00  0.00     0.074 A 
ATOM     55  C   UNL A   1      44.237  28.165  32.518  1.00  0.00     0.049 A 
ATOM     56  N   UNL A   1      41.634  29.461  31.718  1.00  0.00    -0.248 NA
ATOM     57  C   UNL A   1      41.813  28.411  29.641  1.00  0.00     0.031 C 
ATOM     58  C   UNL A   1      45.476  27.536  32.967  1.00  0.00     0.029 A 
ATOM     59  N   UNL A   1      43.824  28.910  33.596  1.00  0.00    -0.354 N 
ATOM     60  C   UNL A   1      40.534  29.792  30.937  1.00  0.00     0.074 A 
ATOM     61  C   UNL A   1      40.712  29.148  29.654  1.00  0.00     0.031 C 
ATOM     62  C   UNL A   1      45.721  27.916  34.233  1.00  0.00     0.029 A 
ATOM     63  C   UNL A   1      44.671  28.834  34.673  1.00  0.00     0.049 A 
ATOM     64  H   UNL A   1      42.998  29.446  33.597  1.00  0.00     0.167 HD
ATOM     65  C   UNL A   1      39.462  30.552  31.267  1.00  0.00     0.037 A 
ATOM     66  C   UNL A   1      44.611  29.443  35.875  1.00  0.00     0.037 A 
ATOM     67  C   UNL A   1      39.279  31.179  32.550  1.00  0.00     0.049 A 
ATOM     68  C   UNL A   1      43.433  30.327  36.198  1.00  0.00     0.074 A 
ATOM     69  C   UNL A   1      38.210  31.941  32.988  1.00  0.00     0.029 A 
ATOM     70  N   UNL A   1      40.188  31.124  33.596  1.00  0.00    -0.354 N 
ATOM     71  N   UNL A   1      42.383  30.608  35.465  1.00  0.00    -0.248 NA
ATOM     72  C   UNL A   1      43.428  30.970  37.520  1.00  0.00     0.031 C 
ATOM     73  C   UNL A   1      38.502  32.405  34.274  1.00  0.00     0.029 A 
ATOM     74  C   UNL A   1      39.720  31.873  34.666  1.00  0.00     0.049 A 
ATOM     75  H   UNL A   1      41.038  30.629  33.582  1.00  0.00     0.167 HD
ATOM     76  C   UNL A   1      41.587  31.444  36.239  1.00  0.00     0.074 A 
ATOM     77  C   UNL A   1      42.263  31.599  37.510  1.00  0.00     0.031 C 
ATOM     78  C   UNL A   1      40.407  32.033  35.923  1.00  0.00     0.037 A 
BRANCH  65  79
ATOM     79  C   UNL A   1      38.400  30.767  30.228  1.00  0.00     0.064 A 
ATOM     80  C   UNL A   1      38.303  32.000  29.564  1.00  0.00     0.173 A 
ATOM     81  C   UNL A   1      37.425  29.797  29.953  1.00  0.00     0.173 A 
ATOM     82  F   UNL A   1      39.209  32.963  29.791  1.00  0.00    -0.203 F 
ATOM     83  C   UNL A   1      37.256  32.262  28.685  1.00  0.00     0.198 A 
ATOM     84  C   UNL A   1      36.395  30.051  29.050  1.00  0.00     0.198 A 
ATOM     85  F   UNL A   1      37.480  28.596  30.549  1.00  0.00    -0.203 F 
ATOM     86  F   UNL A   1      37.161  33.463  28.098  1.00  0.00    -0.200 F 
ATOM     87  C   UNL A   1      36.304  31.288  28.427  1.00  0.00     0.200 A 
ATOM     88  F   UNL A   1      35.489  29.101  28.783  1.00  0.00    -0.200 F 
ATOM     89  F   UNL A   1      35.297  31.541  27.580  1.00  0.00    -0.200 F 
ENDBRANCH  65  79
BRANCH  66  90
ATOM     90  C   UNL A   1      45.704  29.230  36.860  1.00  0.00     0.064 A 
ATOM     91  C   UNL A   1      45.644  28.178  37.788  1.00  0.00     0.173 A 
ATOM     92  C   UNL A   1      46.820  30.076  36.908  1.00  0.00     0.173 A 
ATOM     93  F   UNL A   1      44.600  27.337  37.786  1.00  0.00    -0.203 F 
ATOM     94  C   UNL A   1      46.644  27.998  38.741  1.00  0.00     0.198 A 
ATOM     95  C   UNL A   1      47.837  29.874  37.841  1.00  0.00     0.198 A 
ATOM     96  F   UNL A   1      46.938  31.080  36.026  1.00  0.00    -0.203 F 
ATOM     97  F   UNL A   1      46.537  27.013  39.643  1.00  0.00    -0.200 F 
ATOM     98  C   UNL A   1      47.743  28.844  38.764  1.00  0.00     0.200 A 
ATOM     99  F   UNL A   1      48.910  30.677  37.841  1.00  0.00    -0.200 F 
ATOM    100  F   UNL A   1      48.709  28.664  39.673  1.00  0.00    -0.200 F 
ENDBRANCH  66  90
BRANCH  78 101
ATOM    101  C   UNL A   1      39.762  32.904  36.967  1.00  0.00     0.064 A 
ATOM    102  C   UNL A   1      40.263  34.188  37.236  1.00  0.00     0.173 A 
ATOM    103  C   UNL A   1      38.681  32.449  37.738  1.00  0.00     0.173 A 
ATOM    104  F   UNL A   1      41.303  34.669  36.540  1.00  0.00    -0.203 F 
ATOM    105  C   UNL A   1      39.708  34.979  38.239  1.00  0.00     0.198 A 
ATOM    106  C   UNL A   1      38.105  33.258  38.712  1.00  0.00     0.198 A 
ATOM    107  F   UNL A   1      38.160  31.233  37.518  1.00  0.00    -0.203 F 
ATOM    108  F   UNL A   1      40.224  36.188  38.498  1.00  0.00    -0.200 F 
ATOM    109  C   UNL A   1      38.623  34.519  38.969  1.00  0.00     0.200 A 
ATOM    110  F   UNL A   1      37.037  32.822  39.396  1.00  0.00    -0.200 F 
ATOM    111  F   UNL A   1      38.073  35.292  39.914  1.00  0.00    -0.200 F 
ENDBRANCH  78 101
ENDBRANCH  52  53
ENDBRANCH  45  47
ENDBRANCH  44  45
ENDBRANCH  43  44
ENDBRANCH  42  43
ENDBRANCH  41  42
ENDBRANCH  40  41
ENDBRANCH  39  40
ENDBRANCH  38  39
ENDBRANCH  37  38
ENDBRANCH   1  37
TORSDOF 26
ENDMDL
MODEL 2
REMARK VINA RESULT:     -10.7      4.540      7.446
REMARK SMILES O=C(CCN1C(=O)S/C(=C\c2ccc(F)cc2)C1=O)Nc1ccc(O)cc1C(=O)OCCOCCOCCOCCOC(=O)c1ccc(-c2c3nc(c(-c4c(F)c(F)c(F)c(F)c4F)c4ccc([nH]4)c(-c4c(F)c(F)c(F)c(F)c4F)c4nc(c(-c5c(F)c(F)c(F)c(F)c5F)c5ccc2[nH]5)C=C4)C=C3)cc1
REMARK SMILES IDX 34 1 33 2 32 3 31 4 30 5 28 6 29 7 27 8 21 9 22 10 23 11
REMARK SMILES IDX 26 12 24 13 20 14 1 15 2 16 3 18 4 19 5 20 6 21 18 22 7 23
REMARK SMILES IDX 8 24 9 25 19 26 10 27 11 28 12 29 17 30 13 31 16 32 14 33
REMARK SMILES IDX 15 34 25 35 35 37 36 38 37 39 38 40 39 41 40 42 41 43 42 44
REMARK SMILES IDX 43 45 44 46 45 47 46 48 107 49 47 50 106 51 48 52 49 53
REMARK SMILES IDX 50 54 100 55 51 56 105 57 99 58 101 59 52 60 104 61 98 62
REMARK SMILES IDX 97 63 53 65 85 66 65 67 84 68 66 69 69 70 83 71 102 72 67 73
REMARK SMILES IDX 68 74 82 76 103 77 70 78 54 79 55 80 63 81 56 82 57 83 61 84
REMARK SMILES IDX 64 85 58 86 59 87 62 88 60 89 86 90 87 91 95 92 88 93 89 94
REMARK SMILES IDX 93 95 96 96 90 97 91 98 94 99 92 100 71 101 72 102 80 103
REMARK SMILES IDX 73 104 74 105 78 106 81 107 75 108 76 109 79 110 77 111
REMARK H PARENT 20 17 25 36 101 64 69 75
REMARK Flexibility Score: inf
ROOT
ATOM      1  C   UNL A   1      39.437  22.226  26.491  1.00  0.00     0.188 C 
ENDROOT
BRANCH   1   2
ATOM      2  O   UNL A   1      38.140  22.506  25.994  1.00  0.00    -0.376 OA
BRANCH   2   3
ATOM      3  C   UNL A   1      37.381  21.521  25.324  1.00  0.00     0.202 C 
BRANCH   3   4
ATOM      4  C   UNL A   1      35.905  21.685  24.928  1.00  0.00     0.261 C 
BRANCH   4   5
ATOM      5  O   UNL A   1      34.894  21.297  25.856  1.00  0.00    -0.460 OA
BRANCH   5   6
ATOM      6  C   UNL A   1      33.647  21.720  25.569  1.00  0.00     0.340 C 
ATOM      7  O   UNL A   1      33.117  22.734  25.988  1.00  0.00    -0.246 OA
BRANCH   6   8
ATOM      8  C   UNL A   1      33.090  20.875  24.486  1.00  0.00     0.087 A 
ATOM      9  C   UNL A   1      32.514  21.341  23.281  1.00  0.00     0.056 A 
ATOM     10  C   UNL A   1      32.060  20.374  22.369  1.00  0.00     0.031 A 
ATOM     11  C   UNL A   1      32.070  19.009  22.680  1.00  0.00     0.048 A 
ATOM     12  C   UNL A   1      33.079  19.504  24.801  1.00  0.00     0.064 A 
ATOM     13  C   UNL A   1      32.544  18.590  23.911  1.00  0.00     0.116 A 
BRANCH   9  14
ATOM     14  N   UNL A   1      32.380  22.736  23.008  1.00  0.00    -0.325 N 
ATOM     15  O   UNL A   1      34.521  23.273  22.302  1.00  0.00    -0.275 OA
ATOM     16  C   UNL A   1      33.378  23.608  22.617  1.00  0.00     0.226 C 
ATOM     17  H   UNL A   1      31.478  23.117  23.110  1.00  0.00     0.169 HD
BRANCH  16  18
ATOM     18  C   UNL A   1      33.046  25.097  22.643  1.00  0.00     0.122 C 
BRANCH  18  19
ATOM     19  C   UNL A   1      32.159  25.611  23.772  1.00  0.00     0.140 C 
BRANCH  19  20
ATOM     20  N   UNL A   1      32.444  26.910  24.384  1.00  0.00    -0.268 N 
ATOM     21  C   UNL A   1      32.440  28.107  23.726  1.00  0.00     0.293 C 
ATOM     22  C   UNL A   1      32.693  26.970  25.745  1.00  0.00     0.268 C 
ATOM     23  O   UNL A   1      32.200  28.314  22.545  1.00  0.00    -0.261 OA
ATOM     24  S   UNL A   1      32.928  29.398  24.790  1.00  0.00    -0.022 SA
ATOM     25  C   UNL A   1      33.162  28.340  26.121  1.00  0.00     0.083 C 
ATOM     26  O   UNL A   1      32.612  26.037  26.533  1.00  0.00    -0.268 OA
ATOM     27  C   UNL A   1      33.895  28.529  27.232  1.00  0.00     0.029 C 
BRANCH  27  28
ATOM     28  C   UNL A   1      34.852  29.631  27.485  1.00  0.00    -0.024 A 
ATOM     29  C   UNL A   1      36.227  29.452  27.682  1.00  0.00     0.011 A 
ATOM     30  C   UNL A   1      34.320  30.926  27.640  1.00  0.00     0.011 A 
ATOM     31  C   UNL A   1      37.028  30.509  28.126  1.00  0.00     0.040 A 
ATOM     32  C   UNL A   1      35.124  31.986  28.070  1.00  0.00     0.040 A 
ATOM     33  C   UNL A   1      36.467  31.761  28.330  1.00  0.00     0.123 A 
ATOM     34  F   UNL A   1      37.231  32.764  28.782  1.00  0.00    -0.207 F 
ENDBRANCH  27  28
ENDBRANCH  19  20
ENDBRANCH  18  19
ENDBRANCH  16  18
ENDBRANCH   9  14
BRANCH  13  35
ATOM     35  O   UNL A   1      32.498  17.285  24.294  1.00  0.00    -0.508 OA
ATOM     36  H   UNL A   1      32.195  16.632  23.695  1.00  0.00     0.293 HD
ENDBRANCH  13  35
ENDBRANCH   6   8
ENDBRANCH   5   6
ENDBRANCH   4   5
ENDBRANCH   3   4
ENDBRANCH   2   3
ENDBRANCH   1   2
BRANCH   1  37
ATOM     37  C   UNL A   1      40.101  20.855  26.239  1.00  0.00     0.188 C 
BRANCH  37  38
ATOM     38  O   UNL A   1      41.424  20.929  25.714  1.00  0.00    -0.377 OA
BRANCH  38  39
ATOM     39  C   UNL A   1      42.218  21.997  26.228  1.00  0.00     0.188 C 
BRANCH  39  40
ATOM     40  C   UNL A   1      43.320  22.547  25.301  1.00  0.00     0.188 C 
BRANCH  40  41
ATOM     41  O   UNL A   1      43.064  23.870  24.855  1.00  0.00    -0.376 OA
BRANCH  41  42
ATOM     42  C   UNL A   1      43.401  24.959  25.699  1.00  0.00     0.202 C 
BRANCH  42  43
ATOM     43  C   UNL A   1      42.991  26.369  25.242  1.00  0.00     0.261 C 
BRANCH  43  44
ATOM     44  O   UNL A   1      41.582  26.599  25.089  1.00  0.00    -0.460 OA
BRANCH  44  45
ATOM     45  C   UNL A   1      40.803  26.314  26.153  1.00  0.00     0.338 C 
ATOM     46  O   UNL A   1      40.184  25.285  26.353  1.00  0.00    -0.246 OA
BRANCH  45  47
ATOM     47  C   UNL A   1      40.972  27.387  27.157  1.00  0.00     0.060 A 
ATOM     48  C   UNL A   1      40.508  28.668  26.841  1.00  0.00     0.016 A 
ATOM     49  C   UNL A   1      41.613  27.148  28.376  1.00  0.00     0.016 A 
ATOM     50  C   UNL A   1      40.742  29.729  27.712  1.00  0.00     0.010 A 
ATOM     51  C   UNL A   1      41.861  28.218  29.245  1.00  0.00     0.010 A 
ATOM     52  C   UNL A   1      41.470  29.522  28.892  1.00  0.00    -0.014 A 
BRANCH  52  53
ATOM     53  C   UNL A   1      41.960  30.706  29.641  1.00  0.00     0.031 A 
ATOM     54  C   UNL A   1      43.240  31.366  29.202  1.00  0.00     0.074 A 
ATOM     55  C   UNL A   1      41.231  31.242  30.636  1.00  0.00     0.049 A 
ATOM     56  N   UNL A   1      43.819  32.446  29.662  1.00  0.00    -0.248 NA
ATOM     57  C   UNL A   1      43.964  30.727  28.090  1.00  0.00     0.031 C 
ATOM     58  C   UNL A   1      39.957  30.720  31.123  1.00  0.00     0.029 A 
ATOM     59  N   UNL A   1      41.457  32.358  31.405  1.00  0.00    -0.354 N 
ATOM     60  C   UNL A   1      44.967  32.615  28.898  1.00  0.00     0.074 A 
ATOM     61  C   UNL A   1      45.027  31.508  27.969  1.00  0.00     0.031 C 
ATOM     62  C   UNL A   1      39.508  31.518  32.106  1.00  0.00     0.029 A 
ATOM     63  C   UNL A   1      40.475  32.592  32.335  1.00  0.00     0.049 A 
ATOM     64  H   UNL A   1      42.247  32.936  31.299  1.00  0.00     0.167 HD
ATOM     65  C   UNL A   1      45.881  33.612  28.956  1.00  0.00     0.037 A 
ATOM     66  C   UNL A   1      40.371  33.558  33.270  1.00  0.00     0.037 A 
ATOM     67  C   UNL A   1      45.811  34.722  29.872  1.00  0.00     0.049 A 
ATOM     68  C   UNL A   1      41.430  34.628  33.349  1.00  0.00     0.074 A 
ATOM     69  C   UNL A   1      46.673  35.799  29.982  1.00  0.00     0.029 A 
ATOM     70  N   UNL A   1      44.830  34.893  30.836  1.00  0.00    -0.354 N 
ATOM     71  N   UNL A   1      42.494  34.796  32.602  1.00  0.00    -0.248 NA
ATOM     72  C   UNL A   1      41.267  35.648  34.394  1.00  0.00     0.031 C 
ATOM     73  C   UNL A   1      46.253  36.585  31.059  1.00  0.00     0.029 A 
ATOM     74  C   UNL A   1      45.088  36.039  31.573  1.00  0.00     0.049 A 
ATOM     75  H   UNL A   1      44.065  34.291  30.978  1.00  0.00     0.167 HD
ATOM     76  C   UNL A   1      43.117  35.945  33.074  1.00  0.00     0.074 A 
ATOM     77  C   UNL A   1      42.294  36.449  34.153  1.00  0.00     0.031 C 
ATOM     78  C   UNL A   1      44.269  36.526  32.655  1.00  0.00     0.037 A 
BRANCH  65  79
ATOM     79  C   UNL A   1      47.050  33.557  28.016  1.00  0.00     0.064 A 
ATOM     80  C   UNL A   1      48.234  32.908  28.401  1.00  0.00     0.173 A 
ATOM     81  C   UNL A   1      47.039  34.219  26.780  1.00  0.00     0.173 A 
ATOM     82  F   UNL A   1      48.299  32.260  29.575  1.00  0.00    -0.203 F 
ATOM     83  C   UNL A   1      49.369  32.946  27.596  1.00  0.00     0.198 A 
ATOM     84  C   UNL A   1      48.167  34.230  25.962  1.00  0.00     0.198 A 
ATOM     85  F   UNL A   1      45.928  34.842  26.358  1.00  0.00    -0.203 F 
ATOM     86  F   UNL A   1      50.500  32.356  28.006  1.00  0.00    -0.200 F 
ATOM     87  C   UNL A   1      49.335  33.605  26.377  1.00  0.00     0.200 A 
ATOM     88  F   UNL A   1      48.125  34.847  24.773  1.00  0.00    -0.200 F 
ATOM     89  F   UNL A   1      50.427  33.640  25.602  1.00  0.00    -0.200 F 
ENDBRANCH  65  79
BRANCH  66  90
ATOM     90  C   UNL A   1      39.214  33.553  34.204  1.00  0.00     0.064 A 
ATOM     91  C   UNL A   1      37.994  34.149  33.846  1.00  0.00     0.173 A 
ATOM     92  C   UNL A   1      39.303  32.969  35.475  1.00  0.00     0.173 A 
ATOM     93  F   UNL A   1      37.853  34.720  32.641  1.00  0.00    -0.203 F 
ATOM     94  C   UNL A   1      36.921  34.185  34.732  1.00  0.00     0.198 A 
ATOM     95  C   UNL A   1      38.217  32.976  36.349  1.00  0.00     0.198 A 
ATOM     96  F   UNL A   1      40.438  32.364  35.856  1.00  0.00    -0.203 F 
ATOM     97  F   UNL A   1      35.784  34.800  34.379  1.00  0.00    -0.200 F 
ATOM     98  C   UNL A   1      37.031  33.594  35.982  1.00  0.00     0.200 A 
ATOM     99  F   UNL A   1      38.319  32.379  37.544  1.00  0.00    -0.200 F 
ATOM    100  F   UNL A   1      35.994  33.619  36.830  1.00  0.00    -0.200 F 
ENDBRANCH  66  90
BRANCH  78 101
ATOM    101  C   UNL A   1      44.715  37.776  33.362  1.00  0.00     0.064 A 
ATOM    102  C   UNL A   1      44.292  39.040  32.918  1.00  0.00     0.173 A 
ATOM    103  C   UNL A   1      45.604  37.730  34.448  1.00  0.00     0.173 A 
ATOM    104  F   UNL A   1      43.454  39.145  31.876  1.00  0.00    -0.203 F 
ATOM    105  C   UNL A   1      44.744  40.205  33.531  1.00  0.00     0.198 A 
ATOM    106  C   UNL A   1      46.023  38.896  35.082  1.00  0.00     0.198 A 
ATOM    107  F   UNL A   1      46.034  36.549  34.917  1.00  0.00    -0.203 F 
ATOM    108  F   UNL A   1      44.351  41.400  33.068  1.00  0.00    -0.200 F 
ATOM    109  C   UNL A   1      45.600  40.133  34.619  1.00  0.00     0.200 A 
ATOM    110  F   UNL A   1      46.826  38.822  36.152  1.00  0.00    -0.200 F 
ATOM    111  F   UNL A   1      46.013  41.254  35.225  1.00  0.00    -0.200 F 
ENDBRANCH  78 101
ENDBRANCH  52  53
ENDBRANCH  45  47
ENDBRANCH  44  45
ENDBRANCH  43  44
ENDBRANCH  42  43
ENDBRANCH  41  42
ENDBRANCH  40  41
ENDBRANCH  39  40
ENDBRANCH  38  39
ENDBRANCH  37  38
ENDBRANCH   1  37
TORSDOF 26
ENDMDL
MODEL 3
REMARK VINA RESULT:     -10.4      4.453      6.915
REMARK SMILES O=C(CCN1C(=O)S/C(=C\c2ccc(F)cc2)C1=O)Nc1ccc(O)cc1C(=O)OCCOCCOCCOCCOC(=O)c1ccc(-c2c3nc(c(-c4c(F)c(F)c(F)c(F)c4F)c4ccc([nH]4)c(-c4c(F)c(F)c(F)c(F)c4F)c4nc(c(-c5c(F)c(F)c(F)c(F)c5F)c5ccc2[nH]5)C=C4)C=C3)cc1
REMARK SMILES IDX 34 1 33 2 32 3 31 4 30 5 28 6 29 7 27 8 21 9 22 10 23 11
REMARK SMILES IDX 26 12 24 13 20 14 1 15 2 16 3 18 4 19 5 20 6 21 18 22 7 23
REMARK SMILES IDX 8 24 9 25 19 26 10 27 11 28 12 29 17 30 13 31 16 32 14 33
REMARK SMILES IDX 15 34 25 35 35 37 36 38 37 39 38 40 39 41 40 42 41 43 42 44
REMARK SMILES IDX 43 45 44 46 45 47 46 48 107 49 47 50 106 51 48 52 49 53
REMARK SMILES IDX 50 54 100 55 51 56 105 57 99 58 101 59 52 60 104 61 98 62
REMARK SMILES IDX 97 63 53 65 85 66 65 67 84 68 66 69 69 70 83 71 102 72 67 73
REMARK SMILES IDX 68 74 82 76 103 77 70 78 54 79 55 80 63 81 56 82 57 83 61 84
REMARK SMILES IDX 64 85 58 86 59 87 62 88 60 89 86 90 87 91 95 92 88 93 89 94
REMARK SMILES IDX 93 95 96 96 90 97 91 98 94 99 92 100 71 101 72 102 80 103
REMARK SMILES IDX 73 104 74 105 78 106 81 107 75 108 76 109 79 110 77 111
REMARK H PARENT 20 17 25 36 101 64 69 75
REMARK Flexibility Score: inf
ROOT
ATOM      1  C   UNL A   1      38.600  22.440  25.757  1.00  0.00     0.188 C 
ENDROOT
BRANCH   1   2
ATOM      2  O   UNL A   1      37.184  22.456  25.749  1.00  0.00    -0.376 OA
BRANCH   2   3
ATOM      3  C   UNL A   1      36.436  21.277  25.538  1.00  0.00     0.202 C 
BRANCH   3   4
ATOM      4  C   UNL A   1      34.982  21.250  25.042  1.00  0.00     0.261 C 
BRANCH   4   5
ATOM      5  O   UNL A   1      33.927  21.173  25.999  1.00  0.00    -0.460 OA
BRANCH   5   6
ATOM      6  C   UNL A   1      32.681  21.297  25.503  1.00  0.00     0.340 C 
ATOM      7  O   UNL A   1      31.853  22.127  25.835  1.00  0.00    -0.246 OA
BRANCH   6   8
ATOM      8  C   UNL A   1      32.541  20.403  24.329  1.00  0.00     0.087 A 
ATOM      9  C   UNL A   1      32.218  20.806  23.011  1.00  0.00     0.056 A 
ATOM     10  C   UNL A   1      32.152  19.803  22.031  1.00  0.00     0.031 A 
ATOM     11  C   UNL A   1      32.286  18.448  22.355  1.00  0.00     0.048 A 
ATOM     12  C   UNL A   1      32.655  19.039  24.651  1.00  0.00     0.064 A 
ATOM     13  C   UNL A   1      32.499  18.076  23.671  1.00  0.00     0.116 A 
BRANCH   9  14
ATOM     14  N   UNL A   1      31.950  22.171  22.692  1.00  0.00    -0.325 N 
ATOM     15  O   UNL A   1      34.091  22.989  22.346  1.00  0.00    -0.275 OA
ATOM     16  C   UNL A   1      32.878  23.169  22.457  1.00  0.00     0.226 C 
ATOM     17  H   UNL A   1      31.002  22.430  22.634  1.00  0.00     0.169 HD
BRANCH  16  18
ATOM     18  C   UNL A   1      32.354  24.601  22.398  1.00  0.00     0.122 C 
BRANCH  18  19
ATOM     19  C   UNL A   1      31.371  25.047  23.476  1.00  0.00     0.140 C 
BRANCH  19  20
ATOM     20  N   UNL A   1      31.534  26.357  24.109  1.00  0.00    -0.268 N 
ATOM     21  C   UNL A   1      31.318  27.559  23.497  1.00  0.00     0.293 C 
ATOM     22  C   UNL A   1      31.887  26.415  25.448  1.00  0.00     0.268 C 
ATOM     23  O   UNL A   1      30.954  27.761  22.348  1.00  0.00    -0.261 OA
ATOM     24  S   UNL A   1      31.721  28.876  24.565  1.00  0.00    -0.022 SA
ATOM     25  C   UNL A   1      32.203  27.825  25.833  1.00  0.00     0.083 C 
ATOM     26  O   UNL A   1      31.996  25.460  26.205  1.00  0.00    -0.268 OA
ATOM     27  C   UNL A   1      32.997  28.082  26.888  1.00  0.00     0.029 C 
BRANCH  27  28
ATOM     28  C   UNL A   1      33.819  29.296  27.102  1.00  0.00    -0.024 A 
ATOM     29  C   UNL A   1      35.219  29.301  27.150  1.00  0.00     0.011 A 
ATOM     30  C   UNL A   1      33.138  30.497  27.380  1.00  0.00     0.011 A 
ATOM     31  C   UNL A   1      35.914  30.441  27.568  1.00  0.00     0.040 A 
ATOM     32  C   UNL A   1      33.835  31.641  27.784  1.00  0.00     0.040 A 
ATOM     33  C   UNL A   1      35.216  31.594  27.894  1.00  0.00     0.123 A 
ATOM     34  F   UNL A   1      35.883  32.674  28.322  1.00  0.00    -0.207 F 
ENDBRANCH  27  28
ENDBRANCH  19  20
ENDBRANCH  18  19
ENDBRANCH  16  18
ENDBRANCH   9  14
BRANCH  13  35
ATOM     35  O   UNL A   1      32.553  16.771  24.051  1.00  0.00    -0.508 OA
ATOM     36  H   UNL A   1      33.372  16.389  24.298  1.00  0.00     0.293 HD
ENDBRANCH  13  35
ENDBRANCH   6   8
ENDBRANCH   5   6
ENDBRANCH   4   5
ENDBRANCH   3   4
ENDBRANCH   2   3
ENDBRANCH   1   2
BRANCH   1  37
ATOM     37  C   UNL A   1      39.374  21.161  26.146  1.00  0.00     0.188 C 
BRANCH  37  38
ATOM     38  O   UNL A   1      40.706  21.103  25.641  1.00  0.00    -0.377 OA
BRANCH  38  39
ATOM     39  C   UNL A   1      41.706  21.620  26.518  1.00  0.00     0.188 C 
BRANCH  39  40
ATOM     40  C   UNL A   1      42.769  22.541  25.886  1.00  0.00     0.188 C 
BRANCH  40  41
ATOM     41  O   UNL A   1      42.245  23.790  25.462  1.00  0.00    -0.376 OA
BRANCH  41  42
ATOM     42  C   UNL A   1      42.712  24.979  26.079  1.00  0.00     0.202 C 
BRANCH  42  43
ATOM     43  C   UNL A   1      41.894  26.263  25.862  1.00  0.00     0.261 C 
BRANCH  43  44
ATOM     44  O   UNL A   1      40.485  26.168  26.122  1.00  0.00    -0.460 OA
BRANCH  44  45
ATOM     45  C   UNL A   1      40.121  25.893  27.392  1.00  0.00     0.338 C 
ATOM     46  O   UNL A   1      39.806  24.809  27.845  1.00  0.00    -0.246 OA
BRANCH  45  47
ATOM     47  C   UNL A   1      40.357  27.098  28.217  1.00  0.00     0.060 A 
ATOM     48  C   UNL A   1      39.695  28.280  27.866  1.00  0.00     0.016 A 
ATOM     49  C   UNL A   1      41.245  27.079  29.297  1.00  0.00     0.016 A 
ATOM     50  C   UNL A   1      39.970  29.461  28.550  1.00  0.00     0.010 A 
ATOM     51  C   UNL A   1      41.532  28.271  29.974  1.00  0.00     0.010 A 
ATOM     52  C   UNL A   1      40.931  29.477  29.570  1.00  0.00    -0.014 A 
BRANCH  52  53
ATOM     53  C   UNL A   1      41.417  30.787  30.069  1.00  0.00     0.031 A 
ATOM     54  C   UNL A   1      40.749  31.401  31.271  1.00  0.00     0.074 A 
ATOM     55  C   UNL A   1      42.493  31.378  29.520  1.00  0.00     0.049 A 
ATOM     56  N   UNL A   1      41.049  32.499  31.918  1.00  0.00    -0.248 NA
ATOM     57  C   UNL A   1      39.592  30.677  31.824  1.00  0.00     0.031 C 
ATOM     58  C   UNL A   1      43.249  30.861  28.382  1.00  0.00     0.029 A 
ATOM     59  N   UNL A   1      43.145  32.538  29.861  1.00  0.00    -0.354 N 
ATOM     60  C   UNL A   1      40.122  32.595  32.949  1.00  0.00     0.074 A 
ATOM     61  C   UNL A   1      39.226  31.467  32.822  1.00  0.00     0.031 C 
ATOM     62  C   UNL A   1      44.267  31.698  28.121  1.00  0.00     0.029 A 
ATOM     63  C   UNL A   1      44.220  32.821  29.056  1.00  0.00     0.049 A 
ATOM     64  H   UNL A   1      42.868  33.111  30.612  1.00  0.00     0.167 HD
ATOM     65  C   UNL A   1      40.037  33.532  33.923  1.00  0.00     0.037 A 
ATOM     66  C   UNL A   1      45.065  33.872  29.067  1.00  0.00     0.037 A 
ATOM     67  C   UNL A   1      40.940  34.646  34.056  1.00  0.00     0.049 A 
ATOM     68  C   UNL A   1      44.916  34.930  30.131  1.00  0.00     0.074 A 
ATOM     69  C   UNL A   1      40.954  35.629  35.030  1.00  0.00     0.029 A 
ATOM     70  N   UNL A   1      41.983  34.929  33.186  1.00  0.00    -0.354 N 
ATOM     71  N   UNL A   1      44.058  34.995  31.119  1.00  0.00    -0.248 NA
ATOM     72  C   UNL A   1      45.862  36.054  30.086  1.00  0.00     0.031 C 
ATOM     73  C   UNL A   1      41.959  36.545  34.712  1.00  0.00     0.029 A 
ATOM     74  C   UNL A   1      42.622  36.095  33.581  1.00  0.00     0.049 A 
ATOM     75  H   UNL A   1      42.232  34.385  32.406  1.00  0.00     0.167 HD
ATOM     76  C   UNL A   1      44.367  36.154  31.821  1.00  0.00     0.074 A 
ATOM     77  C   UNL A   1      45.512  36.744  31.162  1.00  0.00     0.031 C 
ATOM     78  C   UNL A   1      43.754  36.683  32.909  1.00  0.00     0.037 A 
BRANCH  65  79
ATOM     79  C   UNL A   1      38.925  33.413  34.924  1.00  0.00     0.064 A 
ATOM     80  C   UNL A   1      37.644  33.901  34.616  1.00  0.00     0.173 A 
ATOM     81  C   UNL A   1      39.139  32.907  36.213  1.00  0.00     0.173 A 
ATOM     82  F   UNL A   1      37.385  34.398  33.397  1.00  0.00    -0.203 F 
ATOM     83  C   UNL A   1      36.631  33.910  35.570  1.00  0.00     0.198 A 
ATOM     84  C   UNL A   1      38.114  32.889  37.157  1.00  0.00     0.198 A 
ATOM     85  F   UNL A   1      40.340  32.415  36.554  1.00  0.00    -0.203 F 
ATOM     86  F   UNL A   1      35.430  34.422  35.265  1.00  0.00    -0.200 F 
ATOM     87  C   UNL A   1      36.865  33.402  36.839  1.00  0.00     0.200 A 
ATOM     88  F   UNL A   1      38.335  32.376  38.375  1.00  0.00    -0.200 F 
ATOM     89  F   UNL A   1      35.888  33.409  37.756  1.00  0.00    -0.200 F 
ENDBRANCH  65  79
BRANCH  66  90
ATOM     90  C   UNL A   1      46.130  33.967  28.034  1.00  0.00     0.064 A 
ATOM     91  C   UNL A   1      47.382  33.362  28.230  1.00  0.00     0.173 A 
ATOM     92  C   UNL A   1      45.929  34.672  26.840  1.00  0.00     0.173 A 
ATOM     93  F   UNL A   1      47.628  32.673  29.354  1.00  0.00    -0.203 F 
ATOM     94  C   UNL A   1      48.399  33.483  27.285  1.00  0.00     0.198 A 
ATOM     95  C   UNL A   1      46.936  34.764  25.880  1.00  0.00     0.198 A 
ATOM     96  F   UNL A   1      44.743  35.246  26.593  1.00  0.00    -0.203 F 
ATOM     97  F   UNL A   1      49.597  32.933  27.520  1.00  0.00    -0.200 F 
ATOM     98  C   UNL A   1      48.173  34.180  26.107  1.00  0.00     0.200 A 
ATOM     99  F   UNL A   1      46.705  35.416  24.732  1.00  0.00    -0.200 F 
ATOM    100  F   UNL A   1      49.146  34.287  25.194  1.00  0.00    -0.200 F 
ENDBRANCH  66  90
BRANCH  78 101
ATOM    101  C   UNL A   1      44.306  37.968  33.463  1.00  0.00     0.064 A 
ATOM    102  C   UNL A   1      45.209  37.954  34.539  1.00  0.00     0.173 A 
ATOM    103  C   UNL A   1      43.902  39.216  32.965  1.00  0.00     0.173 A 
ATOM    104  F   UNL A   1      45.619  36.790  35.064  1.00  0.00    -0.203 F 
ATOM    105  C   UNL A   1      45.682  39.140  35.094  1.00  0.00     0.198 A 
ATOM    106  C   UNL A   1      44.408  40.399  33.498  1.00  0.00     0.198 A 
ATOM    107  F   UNL A   1      43.047  39.287  31.934  1.00  0.00    -0.203 F 
ATOM    108  F   UNL A   1      46.518  39.101  36.141  1.00  0.00    -0.200 F 
ATOM    109  C   UNL A   1      45.290  40.361  34.568  1.00  0.00     0.200 A 
ATOM    110  F   UNL A   1      44.050  41.576  32.968  1.00  0.00    -0.200 F 
ATOM    111  F   UNL A   1      45.767  41.501  35.086  1.00  0.00    -0.200 F 
ENDBRANCH  78 101
ENDBRANCH  52  53
ENDBRANCH  45  47
ENDBRANCH  44  45
ENDBRANCH  43  44
ENDBRANCH  42  43
ENDBRANCH  41  42
ENDBRANCH  40  41
ENDBRANCH  39  40
ENDBRANCH  38  39
ENDBRANCH  37  38
ENDBRANCH   1  37
TORSDOF 26
ENDMDL
