MODEL 1
REMARK VINA RESULT:      -8.4      0.000      0.000
REMARK SMILES C[C@@H](Oc1ccc(/C=N/NC(=O)c2ccc(I)c(O)c2)cc1)C(=O)OCCOCCOCCOCCOC(=O)c1ccc(-c2c3nc(c(-c4c(F)c(F)c(F)c(F)c4F)c4ccc([nH]4)c(-c4c(F)c(F)c(F)c(F)c4F)c4nc(c(-c5c(F)c(F)c(F)c(F)c5F)c5ccc2[nH]5)C=C4)C=C3)cc1
REMARK SMILES IDX 29 1 28 2 27 3 26 4 25 5 23 6 24 7 2 8 1 9 3 10 4 11 5 12
REMARK SMILES IDX 22 13 6 14 21 15 7 16 8 17 9 18 10 19 11 20 12 22 13 23
REMARK SMILES IDX 14 24 20 25 15 26 18 27 16 28 17 29 19 30 30 32 31 33 32 34
REMARK SMILES IDX 33 35 34 36 35 37 36 38 37 39 38 40 39 41 40 42 41 43 102 44
REMARK SMILES IDX 42 45 101 46 43 47 44 48 45 49 95 50 46 51 100 52 94 53
REMARK SMILES IDX 96 54 47 55 99 56 93 57 92 58 48 60 80 61 60 62 79 63 61 64
REMARK SMILES IDX 64 65 78 66 97 67 62 68 63 69 77 71 98 72 65 73 49 74 50 75
REMARK SMILES IDX 58 76 51 77 52 78 56 79 59 80 53 81 54 82 57 83 55 84 81 85
REMARK SMILES IDX 82 86 90 87 83 88 84 89 88 90 91 91 85 92 86 93 89 94 87 95
REMARK SMILES IDX 66 96 67 97 75 98 68 99 69 100 73 101 76 102 70 103 71 104
REMARK SMILES IDX 74 105 72 106
REMARK H PARENT 10 21 19 31 96 59 64 70
REMARK Flexibility Score: inf
ROOT
ATOM      1  C   UNL A   1      40.924  28.558  29.314  1.00  0.00     0.188 C 
ENDROOT
BRANCH   1   2
ATOM      2  O   UNL A   1      40.051  28.982  30.353  1.00  0.00    -0.376 OA
BRANCH   2   3
ATOM      3  C   UNL A   1      38.652  29.093  30.134  1.00  0.00     0.202 C 
BRANCH   3   4
ATOM      4  C   UNL A   1      37.755  29.946  31.047  1.00  0.00     0.261 C 
BRANCH   4   5
ATOM      5  O   UNL A   1      37.515  31.292  30.622  1.00  0.00    -0.461 OA
BRANCH   5   6
ATOM      6  C   UNL A   1      36.218  31.699  30.676  1.00  0.00     0.347 C 
ATOM      7  O   UNL A   1      35.489  31.576  31.655  1.00  0.00    -0.248 OA
BRANCH   6   8
ATOM      8  C   UNL A   1      35.747  32.343  29.376  1.00  0.00     0.279 C 
ATOM      9  C   UNL A   1      36.276  33.758  29.176  1.00  0.00     0.066 C 
BRANCH   8  10
ATOM     10  O   UNL A   1      36.115  31.495  28.277  1.00  0.00    -0.479 OA
BRANCH  10  11
ATOM     11  C   UNL A   1      34.999  30.809  27.882  1.00  0.00     0.120 A 
ATOM     12  C   UNL A   1      33.820  31.504  27.612  1.00  0.00     0.047 A 
ATOM     13  C   UNL A   1      35.106  29.440  27.654  1.00  0.00     0.047 A 
ATOM     14  C   UNL A   1      32.742  30.820  27.056  1.00  0.00     0.013 A 
ATOM     15  C   UNL A   1      34.082  28.788  26.993  1.00  0.00     0.013 A 
ATOM     16  C   UNL A   1      32.897  29.472  26.726  1.00  0.00    -0.005 A 
BRANCH  16  17
ATOM     17  C   UNL A   1      31.785  28.678  26.204  1.00  0.00     0.141 C 
ATOM     18  N   UNL A   1      31.732  28.418  24.939  1.00  0.00    -0.180 NA
BRANCH  18  19
ATOM     19  N   UNL A   1      30.577  27.884  24.453  1.00  0.00    -0.243 N 
ATOM     20  C   UNL A   1      30.156  26.564  24.443  1.00  0.00     0.271 C 
ATOM     21  H   UNL A   1      29.951  28.529  24.052  1.00  0.00     0.194 HD
ATOM     22  O   UNL A   1      29.086  26.253  23.924  1.00  0.00    -0.267 OA
BRANCH  20  23
ATOM     23  C   UNL A   1      30.984  25.489  25.043  1.00  0.00     0.045 A 
ATOM     24  C   UNL A   1      32.315  25.381  24.623  1.00  0.00     0.015 A 
ATOM     25  C   UNL A   1      30.482  24.619  26.017  1.00  0.00     0.061 A 
ATOM     26  C   UNL A   1      33.167  24.454  25.227  1.00  0.00     0.019 A 
ATOM     27  C   UNL A   1      31.340  23.701  26.628  1.00  0.00     0.129 A 
ATOM     28  C   UNL A   1      32.684  23.626  26.245  1.00  0.00     0.055 A 
ATOM     29  I   UNL A   1      34.037  22.346  27.196  1.00  0.00    -0.040 I 
BRANCH  27  30
ATOM     30  O   UNL A   1      30.878  22.930  27.659  1.00  0.00    -0.507 OA
ATOM     31  H   UNL A   1      30.090  22.434  27.557  1.00  0.00     0.293 HD
ENDBRANCH  27  30
ENDBRANCH  20  23
ENDBRANCH  18  19
ENDBRANCH  16  17
ENDBRANCH  10  11
ENDBRANCH   8  10
ENDBRANCH   6   8
ENDBRANCH   5   6
ENDBRANCH   4   5
ENDBRANCH   3   4
ENDBRANCH   2   3
ENDBRANCH   1   2
BRANCH   1  32
ATOM     32  C   UNL A   1      41.538  27.150  29.324  1.00  0.00     0.188 C 
BRANCH  32  33
ATOM     33  O   UNL A   1      41.374  26.443  28.114  1.00  0.00    -0.377 OA
BRANCH  33  34
ATOM     34  C   UNL A   1      40.982  27.237  26.999  1.00  0.00     0.188 C 
BRANCH  34  35
ATOM     35  C   UNL A   1      41.904  27.203  25.757  1.00  0.00     0.188 C 
BRANCH  35  36
ATOM     36  O   UNL A   1      41.868  25.996  25.005  1.00  0.00    -0.376 OA
BRANCH  36  37
ATOM     37  C   UNL A   1      43.007  25.140  25.020  1.00  0.00     0.202 C 
BRANCH  37  38
ATOM     38  C   UNL A   1      44.121  25.426  26.046  1.00  0.00     0.261 C 
BRANCH  38  39
ATOM     39  O   UNL A   1      44.677  24.283  26.719  1.00  0.00    -0.460 OA
BRANCH  39  40
ATOM     40  C   UNL A   1      43.866  23.563  27.521  1.00  0.00     0.338 C 
ATOM     41  O   UNL A   1      43.103  22.672  27.190  1.00  0.00    -0.246 OA
BRANCH  40  42
ATOM     42  C   UNL A   1      44.231  23.873  28.920  1.00  0.00     0.060 A 
ATOM     43  C   UNL A   1      43.465  23.314  29.951  1.00  0.00     0.016 A 
ATOM     44  C   UNL A   1      45.330  24.682  29.217  1.00  0.00     0.016 A 
ATOM     45  C   UNL A   1      43.789  23.565  31.283  1.00  0.00     0.010 A 
ATOM     46  C   UNL A   1      45.632  24.966  30.553  1.00  0.00     0.010 A 
ATOM     47  C   UNL A   1      44.851  24.424  31.591  1.00  0.00    -0.014 A 
BRANCH  47  48
ATOM     48  C   UNL A   1      45.031  24.887  32.988  1.00  0.00     0.031 A 
ATOM     49  C   UNL A   1      44.520  26.251  33.360  1.00  0.00     0.074 A 
ATOM     50  C   UNL A   1      45.612  24.103  33.912  1.00  0.00     0.049 A 
ATOM     51  N   UNL A   1      44.618  26.894  34.495  1.00  0.00    -0.248 NA
ATOM     52  C   UNL A   1      43.798  26.988  32.310  1.00  0.00     0.031 C 
ATOM     53  C   UNL A   1      46.095  22.743  33.684  1.00  0.00     0.029 A 
ATOM     54  N   UNL A   1      45.903  24.348  35.232  1.00  0.00    -0.354 N 
ATOM     55  C   UNL A   1      43.981  28.112  34.292  1.00  0.00     0.074 A 
ATOM     56  C   UNL A   1      43.515  28.127  32.923  1.00  0.00     0.031 C 
ATOM     57  C   UNL A   1      46.645  22.281  34.822  1.00  0.00     0.029 A 
ATOM     58  C   UNL A   1      46.587  23.326  35.843  1.00  0.00     0.049 A 
ATOM     59  H   UNL A   1      45.646  25.178  35.695  1.00  0.00     0.167 HD
ATOM     60  C   UNL A   1      43.800  29.123  35.174  1.00  0.00     0.037 A 
ATOM     61  C   UNL A   1      47.134  23.260  37.073  1.00  0.00     0.037 A 
ATOM     62  C   UNL A   1      44.263  29.100  36.536  1.00  0.00     0.049 A 
ATOM     63  C   UNL A   1      46.995  24.442  38.004  1.00  0.00     0.074 A 
ATOM     64  C   UNL A   1      44.105  30.065  37.515  1.00  0.00     0.029 A 
ATOM     65  N   UNL A   1      44.987  28.064  37.108  1.00  0.00    -0.354 N 
ATOM     66  N   UNL A   1      46.363  25.576  37.819  1.00  0.00    -0.248 NA
ATOM     67  C   UNL A   1      47.647  24.332  39.318  1.00  0.00     0.031 C 
ATOM     68  C   UNL A   1      44.790  29.645  38.658  1.00  0.00     0.029 A 
ATOM     69  C   UNL A   1      45.317  28.386  38.415  1.00  0.00     0.049 A 
ATOM     70  H   UNL A   1      45.229  27.227  36.654  1.00  0.00     0.167 HD
ATOM     71  C   UNL A   1      46.518  26.299  38.997  1.00  0.00     0.074 A 
ATOM     72  C   UNL A   1      47.282  25.465  39.899  1.00  0.00     0.031 C 
ATOM     73  C   UNL A   1      46.073  27.542  39.303  1.00  0.00     0.037 A 
BRANCH  60  74
ATOM     74  C   UNL A   1      43.101  30.359  34.691  1.00  0.00     0.064 A 
ATOM     75  C   UNL A   1      41.714  30.521  34.812  1.00  0.00     0.173 A 
ATOM     76  C   UNL A   1      43.844  31.426  34.163  1.00  0.00     0.173 A 
ATOM     77  F   UNL A   1      40.956  29.525  35.295  1.00  0.00    -0.203 F 
ATOM     78  C   UNL A   1      41.095  31.704  34.414  1.00  0.00     0.198 A 
ATOM     79  C   UNL A   1      43.227  32.618  33.794  1.00  0.00     0.198 A 
ATOM     80  F   UNL A   1      45.175  31.322  34.026  1.00  0.00    -0.203 F 
ATOM     81  F   UNL A   1      39.764  31.826  34.508  1.00  0.00    -0.200 F 
ATOM     82  C   UNL A   1      41.852  32.754  33.916  1.00  0.00     0.200 A 
ATOM     83  F   UNL A   1      43.962  33.636  33.327  1.00  0.00    -0.200 F 
ATOM     84  F   UNL A   1      41.257  33.899  33.552  1.00  0.00    -0.200 F 
ENDBRANCH  60  74
BRANCH  61  85
ATOM     85  C   UNL A   1      47.909  22.060  37.493  1.00  0.00     0.064 A 
ATOM     86  C   UNL A   1      49.294  21.981  37.293  1.00  0.00     0.173 A 
ATOM     87  C   UNL A   1      47.268  20.941  38.048  1.00  0.00     0.173 A 
ATOM     88  F   UNL A   1      49.951  23.012  36.740  1.00  0.00    -0.203 F 
ATOM     89  C   UNL A   1      50.002  20.819  37.596  1.00  0.00     0.198 A 
ATOM     90  C   UNL A   1      47.983  19.793  38.385  1.00  0.00     0.198 A 
ATOM     91  F   UNL A   1      45.943  20.958  38.256  1.00  0.00    -0.203 F 
ATOM     92  F   UNL A   1      51.312  20.746  37.327  1.00  0.00    -0.200 F 
ATOM     93  C   UNL A   1      49.346  19.728  38.146  1.00  0.00     0.200 A 
ATOM     94  F   UNL A   1      47.346  18.746  38.927  1.00  0.00    -0.200 F 
ATOM     95  F   UNL A   1      50.025  18.608  38.430  1.00  0.00    -0.200 F 
ENDBRANCH  61  85
BRANCH  73  96
ATOM     96  C   UNL A   1      46.370  28.066  40.680  1.00  0.00     0.064 A 
ATOM     97  C   UNL A   1      45.538  27.782  41.774  1.00  0.00     0.173 A 
ATOM     98  C   UNL A   1      47.527  28.825  40.919  1.00  0.00     0.173 A 
ATOM     99  F   UNL A   1      44.413  27.070  41.599  1.00  0.00    -0.203 F 
ATOM    100  C   UNL A   1      45.834  28.265  43.046  1.00  0.00     0.198 A 
ATOM    101  C   UNL A   1      47.839  29.276  42.199  1.00  0.00     0.198 A 
ATOM    102  F   UNL A   1      48.363  29.117  39.913  1.00  0.00    -0.203 F 
ATOM    103  F   UNL A   1      44.995  28.027  44.063  1.00  0.00    -0.200 F 
ATOM    104  C   UNL A   1      46.988  29.004  43.258  1.00  0.00     0.200 A 
ATOM    105  F   UNL A   1      48.965  29.973  42.405  1.00  0.00    -0.200 F 
ATOM    106  F   UNL A   1      47.277  29.459  44.485  1.00  0.00    -0.200 F 
ENDBRANCH  73  96
ENDBRANCH  47  48
ENDBRANCH  40  42
ENDBRANCH  39  40
ENDBRANCH  38  39
ENDBRANCH  37  38
ENDBRANCH  36  37
ENDBRANCH  35  36
ENDBRANCH  34  35
ENDBRANCH  33  34
ENDBRANCH  32  33
ENDBRANCH   1  32
TORSDOF 26
ENDMDL
MODEL 2
REMARK VINA RESULT:      -8.3      7.297     16.122
REMARK SMILES C[C@@H](Oc1ccc(/C=N/NC(=O)c2ccc(I)c(O)c2)cc1)C(=O)OCCOCCOCCOCCOC(=O)c1ccc(-c2c3nc(c(-c4c(F)c(F)c(F)c(F)c4F)c4ccc([nH]4)c(-c4c(F)c(F)c(F)c(F)c4F)c4nc(c(-c5c(F)c(F)c(F)c(F)c5F)c5ccc2[nH]5)C=C4)C=C3)cc1
REMARK SMILES IDX 29 1 28 2 27 3 26 4 25 5 23 6 24 7 2 8 1 9 3 10 4 11 5 12
REMARK SMILES IDX 22 13 6 14 21 15 7 16 8 17 9 18 10 19 11 20 12 22 13 23
REMARK SMILES IDX 14 24 20 25 15 26 18 27 16 28 17 29 19 30 30 32 31 33 32 34
REMARK SMILES IDX 33 35 34 36 35 37 36 38 37 39 38 40 39 41 40 42 41 43 102 44
REMARK SMILES IDX 42 45 101 46 43 47 44 48 45 49 95 50 46 51 100 52 94 53
REMARK SMILES IDX 96 54 47 55 99 56 93 57 92 58 48 60 80 61 60 62 79 63 61 64
REMARK SMILES IDX 64 65 78 66 97 67 62 68 63 69 77 71 98 72 65 73 49 74 50 75
REMARK SMILES IDX 58 76 51 77 52 78 56 79 59 80 53 81 54 82 57 83 55 84 81 85
REMARK SMILES IDX 82 86 90 87 83 88 84 89 88 90 91 91 85 92 86 93 89 94 87 95
REMARK SMILES IDX 66 96 67 97 75 98 68 99 69 100 73 101 76 102 70 103 71 104
REMARK SMILES IDX 74 105 72 106
REMARK H PARENT 10 21 19 31 96 59 64 70
REMARK Flexibility Score: inf
ROOT
ATOM      1  C   UNL A   1      47.880  22.846  36.871  1.00  0.00     0.188 C 
ENDROOT
BRANCH   1   2
ATOM      2  O   UNL A   1      47.069  21.763  37.312  1.00  0.00    -0.376 OA
BRANCH   2   3
ATOM      3  C   UNL A   1      46.127  21.935  38.361  1.00  0.00     0.202 C 
BRANCH   3   4
ATOM      4  C   UNL A   1      46.271  21.203  39.706  1.00  0.00     0.261 C 
BRANCH   4   5
ATOM      5  O   UNL A   1      47.493  20.486  39.911  1.00  0.00    -0.461 OA
BRANCH   5   6
ATOM      6  C   UNL A   1      47.420  19.142  39.719  1.00  0.00     0.347 C 
ATOM      7  O   UNL A   1      46.819  18.600  38.797  1.00  0.00    -0.248 OA
BRANCH   6   8
ATOM      8  C   UNL A   1      48.181  18.352  40.780  1.00  0.00     0.279 C 
ATOM      9  C   UNL A   1      49.672  18.233  40.493  1.00  0.00     0.066 C 
BRANCH   8  10
ATOM     10  O   UNL A   1      47.950  18.955  42.063  1.00  0.00    -0.479 OA
BRANCH  10  11
ATOM     11  C   UNL A   1      47.598  17.963  42.937  1.00  0.00     0.120 A 
ATOM     12  C   UNL A   1      46.846  16.878  42.485  1.00  0.00     0.047 A 
ATOM     13  C   UNL A   1      48.099  18.012  44.235  1.00  0.00     0.047 A 
ATOM     14  C   UNL A   1      46.634  15.798  43.339  1.00  0.00     0.013 A 
ATOM     15  C   UNL A   1      47.990  16.892  45.038  1.00  0.00     0.013 A 
ATOM     16  C   UNL A   1      47.234  15.806  44.598  1.00  0.00    -0.005 A 
BRANCH  16  17
ATOM     17  C   UNL A   1      46.997  14.739  45.569  1.00  0.00     0.141 C 
ATOM     18  N   UNL A   1      46.898  13.518  45.156  1.00  0.00    -0.180 NA
BRANCH  18  19
ATOM     19  N   UNL A   1      46.447  12.587  46.042  1.00  0.00    -0.243 N 
ATOM     20  C   UNL A   1      45.257  11.877  46.040  1.00  0.00     0.271 C 
ATOM     21  H   UNL A   1      47.055  12.390  46.791  1.00  0.00     0.194 HD
ATOM     22  O   UNL A   1      44.997  11.092  46.950  1.00  0.00    -0.267 OA
BRANCH  20  23
ATOM     23  C   UNL A   1      44.263  12.048  44.954  1.00  0.00     0.045 A 
ATOM     24  C   UNL A   1      43.837  13.349  44.660  1.00  0.00     0.015 A 
ATOM     25  C   UNL A   1      43.772  10.965  44.216  1.00  0.00     0.061 A 
ATOM     26  C   UNL A   1      42.979  13.579  43.582  1.00  0.00     0.019 A 
ATOM     27  C   UNL A   1      42.923  11.200  43.131  1.00  0.00     0.129 A 
ATOM     28  C   UNL A   1      42.537  12.505  42.804  1.00  0.00     0.055 A 
ATOM     29  I   UNL A   1      41.355  12.924  41.130  1.00  0.00    -0.040 I 
BRANCH  27  30
ATOM     30  O   UNL A   1      42.535  10.152  42.340  1.00  0.00    -0.507 OA
ATOM     31  H   UNL A   1      42.351  10.294  41.433  1.00  0.00     0.293 HD
ENDBRANCH  27  30
ENDBRANCH  20  23
ENDBRANCH  18  19
ENDBRANCH  16  17
ENDBRANCH  10  11
ENDBRANCH   8  10
ENDBRANCH   6   8
ENDBRANCH   5   6
ENDBRANCH   4   5
ENDBRANCH   3   4
ENDBRANCH   2   3
ENDBRANCH   1   2
BRANCH   1  32
ATOM     32  C   UNL A   1      49.403  22.822  37.068  1.00  0.00     0.188 C 
BRANCH  32  33
ATOM     33  O   UNL A   1      50.115  22.291  35.972  1.00  0.00    -0.377 OA
BRANCH  33  34
ATOM     34  C   UNL A   1      49.801  22.870  34.710  1.00  0.00     0.188 C 
BRANCH  34  35
ATOM     35  C   UNL A   1      50.918  23.683  34.013  1.00  0.00     0.188 C 
BRANCH  35  36
ATOM     36  O   UNL A   1      51.009  25.048  34.402  1.00  0.00    -0.376 OA
BRANCH  36  37
ATOM     37  C   UNL A   1      49.812  25.811  34.522  1.00  0.00     0.202 C 
BRANCH  37  38
ATOM     38  C   UNL A   1      49.264  26.093  35.935  1.00  0.00     0.261 C 
BRANCH  38  39
ATOM     39  O   UNL A   1      48.724  27.407  36.159  1.00  0.00    -0.460 OA
BRANCH  39  40
ATOM     40  C   UNL A   1      47.593  27.513  36.887  1.00  0.00     0.338 C 
ATOM     41  O   UNL A   1      47.494  27.513  38.101  1.00  0.00    -0.246 OA
BRANCH  40  42
ATOM     42  C   UNL A   1      46.498  27.872  35.960  1.00  0.00     0.060 A 
ATOM     43  C   UNL A   1      46.735  28.860  34.995  1.00  0.00     0.016 A 
ATOM     44  C   UNL A   1      45.261  27.227  36.019  1.00  0.00     0.016 A 
ATOM     45  C   UNL A   1      45.736  29.212  34.090  1.00  0.00     0.010 A 
ATOM     46  C   UNL A   1      44.246  27.608  35.135  1.00  0.00     0.010 A 
ATOM     47  C   UNL A   1      44.473  28.616  34.180  1.00  0.00    -0.014 A 
BRANCH  47  48
ATOM     48  C   UNL A   1      43.347  29.169  33.390  1.00  0.00     0.031 A 
ATOM     49  C   UNL A   1      42.459  30.196  34.034  1.00  0.00     0.074 A 
ATOM     50  C   UNL A   1      43.136  28.789  32.118  1.00  0.00     0.049 A 
ATOM     51  N   UNL A   1      41.382  30.774  33.568  1.00  0.00    -0.248 NA
ATOM     52  C   UNL A   1      42.838  30.633  35.388  1.00  0.00     0.031 C 
ATOM     53  C   UNL A   1      43.962  27.846  31.369  1.00  0.00     0.029 A 
ATOM     54  N   UNL A   1      42.147  29.147  31.234  1.00  0.00    -0.354 N 
ATOM     55  C   UNL A   1      40.950  31.631  34.572  1.00  0.00     0.074 A 
ATOM     56  C   UNL A   1      41.870  31.487  35.680  1.00  0.00     0.031 C 
ATOM     57  C   UNL A   1      43.433  27.682  30.143  1.00  0.00     0.029 A 
ATOM     58  C   UNL A   1      42.210  28.477  30.038  1.00  0.00     0.049 A 
ATOM     59  H   UNL A   1      41.458  29.821  31.440  1.00  0.00     0.167 HD
ATOM     60  C   UNL A   1      39.884  32.465  34.565  1.00  0.00     0.037 A 
ATOM     61  C   UNL A   1      41.356  28.479  28.995  1.00  0.00     0.037 A 
ATOM     62  C   UNL A   1      38.975  32.606  33.459  1.00  0.00     0.049 A 
ATOM     63  C   UNL A   1      40.125  29.352  29.054  1.00  0.00     0.074 A 
ATOM     64  C   UNL A   1      37.881  33.445  33.347  1.00  0.00     0.029 A 
ATOM     65  N   UNL A   1      39.048  31.881  32.279  1.00  0.00    -0.354 N 
ATOM     66  N   UNL A   1      39.741  30.185  29.991  1.00  0.00    -0.248 NA
ATOM     67  C   UNL A   1      39.207  29.283  27.907  1.00  0.00     0.031 C 
ATOM     68  C   UNL A   1      37.251  33.180  32.128  1.00  0.00     0.029 A 
ATOM     69  C   UNL A   1      37.992  32.225  31.450  1.00  0.00     0.049 A 
ATOM     70  H   UNL A   1      39.745  31.222  32.063  1.00  0.00     0.167 HD
ATOM     71  C   UNL A   1      38.557  30.756  29.536  1.00  0.00     0.074 A 
ATOM     72  C   UNL A   1      38.300  30.194  28.228  1.00  0.00     0.031 C 
ATOM     73  C   UNL A   1      37.753  31.661  30.147  1.00  0.00     0.037 A 
BRANCH  60  74
ATOM     74  C   UNL A   1      39.615  33.269  35.803  1.00  0.00     0.064 A 
ATOM     75  C   UNL A   1      40.148  34.553  35.984  1.00  0.00     0.173 A 
ATOM     76  C   UNL A   1      38.749  32.772  36.790  1.00  0.00     0.173 A 
ATOM     77  F   UNL A   1      40.993  35.067  35.077  1.00  0.00    -0.203 F 
ATOM     78  C   UNL A   1      39.833  35.306  37.112  1.00  0.00     0.198 A 
ATOM     79  C   UNL A   1      38.412  33.538  37.901  1.00  0.00     0.198 A 
ATOM     80  F   UNL A   1      38.211  31.550  36.664  1.00  0.00    -0.203 F 
ATOM     81  F   UNL A   1      40.379  36.518  37.282  1.00  0.00    -0.200 F 
ATOM     82  C   UNL A   1      38.957  34.803  38.063  1.00  0.00     0.200 A 
ATOM     83  F   UNL A   1      37.555  33.057  38.811  1.00  0.00    -0.200 F 
ATOM     84  F   UNL A   1      38.638  35.538  39.139  1.00  0.00    -0.200 F 
ENDBRANCH  60  74
BRANCH  61  85
ATOM     85  C   UNL A   1      41.595  27.596  27.820  1.00  0.00     0.064 A 
ATOM     86  C   UNL A   1      41.140  26.271  27.800  1.00  0.00     0.173 A 
ATOM     87  C   UNL A   1      42.340  28.043  26.716  1.00  0.00     0.173 A 
ATOM     88  F   UNL A   1      40.449  25.785  28.842  1.00  0.00    -0.203 F 
ATOM     89  C   UNL A   1      41.449  25.416  26.743  1.00  0.00     0.198 A 
ATOM     90  C   UNL A   1      42.617  27.199  25.643  1.00  0.00     0.198 A 
ATOM     91  F   UNL A   1      42.806  29.300  26.684  1.00  0.00    -0.203 F 
ATOM     92  F   UNL A   1      41.063  24.134  26.785  1.00  0.00    -0.200 F 
ATOM     93  C   UNL A   1      42.184  25.883  25.663  1.00  0.00     0.200 A 
ATOM     94  F   UNL A   1      43.317  27.659  24.597  1.00  0.00    -0.200 F 
ATOM     95  F   UNL A   1      42.488  25.060  24.650  1.00  0.00    -0.200 F 
ENDBRANCH  61  85
BRANCH  73  96
ATOM     96  C   UNL A   1      36.537  32.126  29.396  1.00  0.00     0.064 A 
ATOM     97  C   UNL A   1      35.453  31.272  29.144  1.00  0.00     0.173 A 
ATOM     98  C   UNL A   1      36.436  33.457  28.960  1.00  0.00     0.173 A 
ATOM     99  F   UNL A   1      35.503  29.987  29.528  1.00  0.00    -0.203 F 
ATOM    100  C   UNL A   1      34.329  31.722  28.457  1.00  0.00     0.198 A 
ATOM    101  C   UNL A   1      35.295  33.913  28.306  1.00  0.00     0.198 A 
ATOM    102  F   UNL A   1      37.437  34.320  29.183  1.00  0.00    -0.203 F 
ATOM    103  F   UNL A   1      33.330  30.872  28.181  1.00  0.00    -0.200 F 
ATOM    104  C   UNL A   1      34.247  33.045  28.047  1.00  0.00     0.200 A 
ATOM    105  F   UNL A   1      35.210  35.197  27.928  1.00  0.00    -0.200 F 
ATOM    106  F   UNL A   1      33.160  33.479  27.395  1.00  0.00    -0.200 F 
ENDBRANCH  73  96
ENDBRANCH  47  48
ENDBRANCH  40  42
ENDBRANCH  39  40
ENDBRANCH  38  39
ENDBRANCH  37  38
ENDBRANCH  36  37
ENDBRANCH  35  36
ENDBRANCH  34  35
ENDBRANCH  33  34
ENDBRANCH  32  33
ENDBRANCH   1  32
TORSDOF 26
ENDMDL
MODEL 3
REMARK VINA RESULT:      -8.3      4.229      6.774
REMARK SMILES C[C@@H](Oc1ccc(/C=N/NC(=O)c2ccc(I)c(O)c2)cc1)C(=O)OCCOCCOCCOCCOC(=O)c1ccc(-c2c3nc(c(-c4c(F)c(F)c(F)c(F)c4F)c4ccc([nH]4)c(-c4c(F)c(F)c(F)c(F)c4F)c4nc(c(-c5c(F)c(F)c(F)c(F)c5F)c5ccc2[nH]5)C=C4)C=C3)cc1
REMARK SMILES IDX 29 1 28 2 27 3 26 4 25 5 23 6 24 7 2 8 1 9 3 10 4 11 5 12
REMARK SMILES IDX 22 13 6 14 21 15 7 16 8 17 9 18 10 19 11 20 12 22 13 23
REMARK SMILES IDX 14 24 20 25 15 26 18 27 16 28 17 29 19 30 30 32 31 33 32 34
REMARK SMILES IDX 33 35 34 36 35 37 36 38 37 39 38 40 39 41 40 42 41 43 102 44
REMARK SMILES IDX 42 45 101 46 43 47 44 48 45 49 95 50 46 51 100 52 94 53
REMARK SMILES IDX 96 54 47 55 99 56 93 57 92 58 48 60 80 61 60 62 79 63 61 64
REMARK SMILES IDX 64 65 78 66 97 67 62 68 63 69 77 71 98 72 65 73 49 74 50 75
REMARK SMILES IDX 58 76 51 77 52 78 56 79 59 80 53 81 54 82 57 83 55 84 81 85
REMARK SMILES IDX 82 86 90 87 83 88 84 89 88 90 91 91 85 92 86 93 89 94 87 95
REMARK SMILES IDX 66 96 67 97 75 98 68 99 69 100 73 101 76 102 70 103 71 104
REMARK SMILES IDX 74 105 72 106
REMARK H PARENT 10 21 19 31 96 59 64 70
REMARK Flexibility Score: inf
ROOT
ATOM      1  C   UNL A   1      46.183  23.480  26.039  1.00  0.00     0.188 C 
ENDROOT
BRANCH   1   2
ATOM      2  O   UNL A   1      45.433  22.296  25.796  1.00  0.00    -0.376 OA
BRANCH   2   3
ATOM      3  C   UNL A   1      44.078  22.362  25.375  1.00  0.00     0.202 C 
BRANCH   3   4
ATOM      4  C   UNL A   1      43.027  21.351  25.864  1.00  0.00     0.261 C 
BRANCH   4   5
ATOM      5  O   UNL A   1      42.622  21.469  27.232  1.00  0.00    -0.461 OA
BRANCH   5   6
ATOM      6  C   UNL A   1      41.843  22.545  27.520  1.00  0.00     0.347 C 
ATOM      7  O   UNL A   1      40.704  22.716  27.095  1.00  0.00    -0.248 OA
BRANCH   6   8
ATOM      8  C   UNL A   1      42.531  23.542  28.447  1.00  0.00     0.279 C 
ATOM      9  C   UNL A   1      43.625  22.916  29.304  1.00  0.00     0.066 C 
BRANCH   8  10
ATOM     10  O   UNL A   1      43.050  24.626  27.661  1.00  0.00    -0.479 OA
BRANCH  10  11
ATOM     11  C   UNL A   1      42.095  25.605  27.610  1.00  0.00     0.120 A 
ATOM     12  C   UNL A   1      41.601  26.150  28.794  1.00  0.00     0.047 A 
ATOM     13  C   UNL A   1      41.724  26.107  26.365  1.00  0.00     0.047 A 
ATOM     14  C   UNL A   1      40.754  27.254  28.730  1.00  0.00     0.013 A 
ATOM     15  C   UNL A   1      40.982  27.271  26.307  1.00  0.00     0.013 A 
ATOM     16  C   UNL A   1      40.477  27.820  27.485  1.00  0.00    -0.005 A 
BRANCH  16  17
ATOM     17  C   UNL A   1      39.542  28.935  27.339  1.00  0.00     0.141 C 
ATOM     18  N   UNL A   1      38.872  29.338  28.369  1.00  0.00    -0.180 NA
BRANCH  18  19
ATOM     19  N   UNL A   1      37.849  30.212  28.153  1.00  0.00    -0.243 N 
ATOM     20  C   UNL A   1      37.147  30.983  29.065  1.00  0.00     0.271 C 
ATOM     21  H   UNL A   1      37.569  30.307  27.214  1.00  0.00     0.194 HD
ATOM     22  O   UNL A   1      36.218  31.698  28.693  1.00  0.00    -0.267 OA
BRANCH  20  23
ATOM     23  C   UNL A   1      37.484  30.964  30.509  1.00  0.00     0.045 A 
ATOM     24  C   UNL A   1      38.051  32.119  31.061  1.00  0.00     0.015 A 
ATOM     25  C   UNL A   1      37.231  29.850  31.317  1.00  0.00     0.061 A 
ATOM     26  C   UNL A   1      38.296  32.191  32.434  1.00  0.00     0.019 A 
ATOM     27  C   UNL A   1      37.466  29.931  32.692  1.00  0.00     0.129 A 
ATOM     28  C   UNL A   1      37.985  31.103  33.254  1.00  0.00     0.055 A 
ATOM     29  I   UNL A   1      38.257  31.316  35.317  1.00  0.00    -0.040 I 
BRANCH  27  30
ATOM     30  O   UNL A   1      37.111  28.883  33.499  1.00  0.00    -0.507 OA
ATOM     31  H   UNL A   1      36.403  28.977  34.104  1.00  0.00     0.293 HD
ENDBRANCH  27  30
ENDBRANCH  20  23
ENDBRANCH  18  19
ENDBRANCH  16  17
ENDBRANCH  10  11
ENDBRANCH   8  10
ENDBRANCH   6   8
ENDBRANCH   5   6
ENDBRANCH   4   5
ENDBRANCH   3   4
ENDBRANCH   2   3
ENDBRANCH   1   2
BRANCH   1  32
ATOM     32  C   UNL A   1      46.710  24.333  24.875  1.00  0.00     0.188 C 
BRANCH  32  33
ATOM     33  O   UNL A   1      45.966  25.508  24.641  1.00  0.00    -0.377 OA
BRANCH  33  34
ATOM     34  C   UNL A   1      46.385  26.647  25.383  1.00  0.00     0.188 C 
BRANCH  34  35
ATOM     35  C   UNL A   1      47.106  27.769  24.596  1.00  0.00     0.188 C 
BRANCH  35  36
ATOM     36  O   UNL A   1      47.183  27.572  23.190  1.00  0.00    -0.376 OA
BRANCH  36  37
ATOM     37  C   UNL A   1      48.464  27.440  22.582  1.00  0.00     0.202 C 
BRANCH  37  38
ATOM     38  C   UNL A   1      49.712  27.530  23.482  1.00  0.00     0.261 C 
BRANCH  38  39
ATOM     39  O   UNL A   1      50.233  26.283  23.975  1.00  0.00    -0.460 OA
BRANCH  39  40
ATOM     40  C   UNL A   1      51.194  26.326  24.921  1.00  0.00     0.338 C 
ATOM     41  O   UNL A   1      52.389  26.493  24.751  1.00  0.00    -0.246 OA
BRANCH  40  42
ATOM     42  C   UNL A   1      50.523  26.375  26.238  1.00  0.00     0.060 A 
ATOM     43  C   UNL A   1      50.776  27.468  27.077  1.00  0.00     0.016 A 
ATOM     44  C   UNL A   1      49.634  25.374  26.633  1.00  0.00     0.016 A 
ATOM     45  C   UNL A   1      50.147  27.562  28.318  1.00  0.00     0.010 A 
ATOM     46  C   UNL A   1      49.033  25.448  27.894  1.00  0.00     0.010 A 
ATOM     47  C   UNL A   1      49.303  26.533  28.750  1.00  0.00    -0.014 A 
BRANCH  47  48
ATOM     48  C   UNL A   1      48.842  26.512  30.158  1.00  0.00     0.031 A 
ATOM     49  C   UNL A   1      47.649  27.346  30.532  1.00  0.00     0.074 A 
ATOM     50  C   UNL A   1      49.452  25.747  31.080  1.00  0.00     0.049 A 
ATOM     51  N   UNL A   1      47.102  27.538  31.705  1.00  0.00    -0.248 NA
ATOM     52  C   UNL A   1      46.978  28.059  29.432  1.00  0.00     0.031 C 
ATOM     53  C   UNL A   1      50.580  24.854  30.825  1.00  0.00     0.029 A 
ATOM     54  N   UNL A   1      49.210  25.609  32.425  1.00  0.00    -0.354 N 
ATOM     55  C   UNL A   1      46.035  28.399  31.486  1.00  0.00     0.074 A 
ATOM     56  C   UNL A   1      46.018  28.707  30.073  1.00  0.00     0.031 C 
ATOM     57  C   UNL A   1      50.948  24.278  31.983  1.00  0.00     0.029 A 
ATOM     58  C   UNL A   1      50.108  24.791  33.064  1.00  0.00     0.049 A 
ATOM     59  H   UNL A   1      48.463  26.056  32.886  1.00  0.00     0.167 HD
ATOM     60  C   UNL A   1      45.147  28.883  32.386  1.00  0.00     0.037 A 
ATOM     61  C   UNL A   1      50.254  24.519  34.376  1.00  0.00     0.037 A 
ATOM     62  C   UNL A   1      45.167  28.570  33.790  1.00  0.00     0.049 A 
ATOM     63  C   UNL A   1      49.305  25.149  35.368  1.00  0.00     0.074 A 
ATOM     64  C   UNL A   1      44.294  28.990  34.777  1.00  0.00     0.029 A 
ATOM     65  N   UNL A   1      46.115  27.769  34.408  1.00  0.00    -0.354 N 
ATOM     66  N   UNL A   1      48.277  25.934  35.152  1.00  0.00    -0.248 NA
ATOM     67  C   UNL A   1      49.537  24.851  36.790  1.00  0.00     0.031 C 
ATOM     68  C   UNL A   1      44.752  28.500  36.003  1.00  0.00     0.029 A 
ATOM     69  C   UNL A   1      45.871  27.717  35.771  1.00  0.00     0.049 A 
ATOM     70  H   UNL A   1      46.851  27.307  33.947  1.00  0.00     0.167 HD
ATOM     71  C   UNL A   1      47.728  26.201  36.401  1.00  0.00     0.074 A 
ATOM     72  C   UNL A   1      48.520  25.473  37.368  1.00  0.00     0.031 C 
ATOM     73  C   UNL A   1      46.666  26.981  36.721  1.00  0.00     0.037 A 
BRANCH  60  74
ATOM     74  C   UNL A   1      44.096  29.833  31.893  1.00  0.00     0.064 A 
ATOM     75  C   UNL A   1      42.786  29.414  31.623  1.00  0.00     0.173 A 
ATOM     76  C   UNL A   1      44.390  31.199  31.759  1.00  0.00     0.173 A 
ATOM     77  F   UNL A   1      42.457  28.117  31.721  1.00  0.00    -0.203 F 
ATOM     78  C   UNL A   1      41.811  30.327  31.227  1.00  0.00     0.198 A 
ATOM     79  C   UNL A   1      43.407  32.113  31.392  1.00  0.00     0.198 A 
ATOM     80  F   UNL A   1      45.629  31.652  32.006  1.00  0.00    -0.203 F 
ATOM     81  F   UNL A   1      40.573  29.901  30.942  1.00  0.00    -0.200 F 
ATOM     82  C   UNL A   1      42.119  31.675  31.123  1.00  0.00     0.200 A 
ATOM     83  F   UNL A   1      43.703  33.417  31.306  1.00  0.00    -0.200 F 
ATOM     84  F   UNL A   1      41.174  32.555  30.761  1.00  0.00    -0.200 F 
ENDBRANCH  60  74
BRANCH  61  85
ATOM     85  C   UNL A   1      51.368  23.651  34.849  1.00  0.00     0.064 A 
ATOM     86  C   UNL A   1      52.569  24.199  35.320  1.00  0.00     0.173 A 
ATOM     87  C   UNL A   1      51.275  22.252  34.782  1.00  0.00     0.173 A 
ATOM     88  F   UNL A   1      52.721  25.531  35.377  1.00  0.00    -0.203 F 
ATOM     89  C   UNL A   1      53.646  23.386  35.669  1.00  0.00     0.198 A 
ATOM     90  C   UNL A   1      52.339  21.439  35.167  1.00  0.00     0.198 A 
ATOM     91  F   UNL A   1      50.152  21.672  34.334  1.00  0.00    -0.203 F 
ATOM     92  F   UNL A   1      54.806  23.939  36.046  1.00  0.00    -0.200 F 
ATOM     93  C   UNL A   1      53.529  22.006  35.596  1.00  0.00     0.200 A 
ATOM     94  F   UNL A   1      52.216  20.105  35.105  1.00  0.00    -0.200 F 
ATOM     95  F   UNL A   1      54.566  21.224  35.925  1.00  0.00    -0.200 F 
ENDBRANCH  61  85
BRANCH  73  96
ATOM     96  C   UNL A   1      46.277  27.064  38.170  1.00  0.00     0.064 A 
ATOM     97  C   UNL A   1      46.535  28.208  38.940  1.00  0.00     0.173 A 
ATOM     98  C   UNL A   1      45.597  26.001  38.786  1.00  0.00     0.173 A 
ATOM     99  F   UNL A   1      47.193  29.248  38.404  1.00  0.00    -0.203 F 
ATOM    100  C   UNL A   1      46.157  28.273  40.279  1.00  0.00     0.198 A 
ATOM    101  C   UNL A   1      45.189  26.084  40.114  1.00  0.00     0.198 A 
ATOM    102  F   UNL A   1      45.315  24.888  38.095  1.00  0.00    -0.203 F 
ATOM    103  F   UNL A   1      46.465  29.354  41.008  1.00  0.00    -0.200 F 
ATOM    104  C   UNL A   1      45.477  27.214  40.862  1.00  0.00     0.200 A 
ATOM    105  F   UNL A   1      44.514  25.067  40.670  1.00  0.00    -0.200 F 
ATOM    106  F   UNL A   1      45.106  27.282  42.147  1.00  0.00    -0.200 F 
ENDBRANCH  73  96
ENDBRANCH  47  48
ENDBRANCH  40  42
ENDBRANCH  39  40
ENDBRANCH  38  39
ENDBRANCH  37  38
ENDBRANCH  36  37
ENDBRANCH  35  36
ENDBRANCH  34  35
ENDBRANCH  33  34
ENDBRANCH  32  33
ENDBRANCH   1  32
TORSDOF 26
ENDMDL
