MODEL 1
REMARK VINA RESULT:     -11.3      0.000      0.000
REMARK SMILES Cc1[nH]c2c(C(=O)N3CC[C@H](O)C[C@@H]3C(=O)OCCOCCOCCOCCOC(=O)c3ccc(-c4c5nc(c(-c6c(F)c(F)c(F)c(F)c6F)c6ccc([nH]6)c(-c6c(F)c(F)c(F)c(F)c6F)c6nc(c(-c7c(F)c(F)c(F)c(F)c7F)c7ccc4[nH]7)C=C6)C=C5)cc3)cccc2c1C
REMARK SMILES IDX 23 1 22 2 21 3 20 4 19 5 18 6 17 7 15 8 16 9 14 10 8 11 9 12
REMARK SMILES IDX 10 13 13 14 11 15 6 16 7 17 5 18 1 19 2 20 3 21 99 22 4 23
REMARK SMILES IDX 98 25 100 26 97 27 95 28 96 29 12 30 24 32 25 33 26 34 27 35
REMARK SMILES IDX 28 36 29 37 30 38 31 39 32 40 33 41 94 42 34 43 93 44 35 45
REMARK SMILES IDX 36 46 37 47 87 48 38 49 92 50 86 51 88 52 39 53 91 54 85 55
REMARK SMILES IDX 84 56 40 58 72 59 52 60 71 61 53 62 56 63 70 64 89 65 54 66
REMARK SMILES IDX 55 67 69 69 90 70 57 71 41 72 42 73 50 74 43 75 44 76 48 77
REMARK SMILES IDX 51 78 45 79 46 80 49 81 47 82 73 83 74 84 82 85 75 86 76 87
REMARK SMILES IDX 80 88 83 89 77 90 78 91 81 92 79 93 58 94 59 95 67 96 60 97
REMARK SMILES IDX 61 98 65 99 68 100 62 101 63 102 66 103 64 104
REMARK H PARENT 3 24 12 31 88 57 56 68
REMARK Flexibility Score: inf
ROOT
ATOM      1  O   UNL A   1      39.883  21.579  26.490  1.00  0.00    -0.377 OA
ENDROOT
BRANCH   1   2
ATOM      2  C   UNL A   1      39.576  22.859  27.048  1.00  0.00     0.188 C 
BRANCH   2   3
ATOM      3  C   UNL A   1      38.751  23.814  26.183  1.00  0.00     0.188 C 
BRANCH   3   4
ATOM      4  O   UNL A   1      37.421  23.971  26.629  1.00  0.00    -0.376 OA
BRANCH   4   5
ATOM      5  C   UNL A   1      36.361  23.492  25.811  1.00  0.00     0.202 C 
BRANCH   5   6
ATOM      6  C   UNL A   1      36.584  22.655  24.536  1.00  0.00     0.261 C 
BRANCH   6   7
ATOM      7  O   UNL A   1      35.429  22.072  23.886  1.00  0.00    -0.462 OA
BRANCH   7   8
ATOM      8  C   UNL A   1      34.628  22.957  23.222  1.00  0.00     0.329 C 
ATOM      9  O   UNL A   1      35.056  24.005  22.738  1.00  0.00    -0.250 OA
BRANCH   8  10
ATOM     10  C   UNL A   1      33.115  22.688  23.310  1.00  0.00     0.198 C 
ATOM     11  N   UNL A   1      32.537  23.635  24.267  1.00  0.00    -0.325 N 
ATOM     12  C   UNL A   1      32.245  23.182  25.625  1.00  0.00     0.123 C 
ATOM     13  C   UNL A   1      31.464  21.873  25.600  1.00  0.00     0.053 C 
ATOM     14  C   UNL A   1      32.545  21.278  23.406  1.00  0.00     0.069 C 
ATOM     15  C   UNL A   1      32.247  20.817  24.827  1.00  0.00     0.118 C 
BRANCH  11  16
ATOM     16  C   UNL A   1      32.056  24.831  23.755  1.00  0.00     0.256 C 
ATOM     17  O   UNL A   1      31.399  24.859  22.717  1.00  0.00    -0.269 OA
BRANCH  16  18
ATOM     18  C   UNL A   1      32.468  26.106  24.399  1.00  0.00     0.064 A 
ATOM     19  C   UNL A   1      29.133  29.585  23.090  1.00  0.00     0.064 C 
ATOM     20  C   UNL A   1      30.258  28.959  23.828  1.00  0.00     0.016 A 
ATOM     21  N   UNL A   1      30.573  27.636  23.672  1.00  0.00    -0.358 N 
ATOM     22  C   UNL A   1      31.135  29.475  24.764  1.00  0.00    -0.023 A 
ATOM     23  C   UNL A   1      31.731  27.307  24.335  1.00  0.00     0.059 A 
ATOM     24  H   UNL A   1      30.035  26.998  23.149  1.00  0.00     0.166 HD
ATOM     25  C   UNL A   1      32.083  28.442  25.068  1.00  0.00     0.003 A 
ATOM     26  C   UNL A   1      31.119  30.846  25.340  1.00  0.00     0.047 C 
ATOM     27  C   UNL A   1      33.205  28.376  25.918  1.00  0.00     0.010 A 
ATOM     28  C   UNL A   1      33.582  26.080  25.256  1.00  0.00     0.016 A 
ATOM     29  C   UNL A   1      33.946  27.195  26.004  1.00  0.00     0.002 A 
ENDBRANCH  16  18
ENDBRANCH  11  16
BRANCH  15  30
ATOM     30  O   UNL A   1      33.454  20.534  25.525  1.00  0.00    -0.393 OA
ATOM     31  H   UNL A   1      33.243  20.210  26.415  1.00  0.00     0.210 HD
ENDBRANCH  15  30
ENDBRANCH   8  10
ENDBRANCH   7   8
ENDBRANCH   6   7
ENDBRANCH   5   6
ENDBRANCH   4   5
ENDBRANCH   3   4
ENDBRANCH   2   3
ENDBRANCH   1   2
BRANCH   1  32
ATOM     32  C   UNL A   1      40.777  20.723  27.211  1.00  0.00     0.188 C 
BRANCH  32  33
ATOM     33  C   UNL A   1      42.009  20.186  26.485  1.00  0.00     0.188 C 
BRANCH  33  34
ATOM     34  O   UNL A   1      42.514  20.949  25.389  1.00  0.00    -0.376 OA
BRANCH  34  35
ATOM     35  C   UNL A   1      43.821  21.508  25.471  1.00  0.00     0.202 C 
BRANCH  35  36
ATOM     36  C   UNL A   1      44.122  22.585  24.435  1.00  0.00     0.261 C 
BRANCH  36  37
ATOM     37  O   UNL A   1      43.324  23.761  24.642  1.00  0.00    -0.460 OA
BRANCH  37  38
ATOM     38  C   UNL A   1      44.016  24.859  25.023  1.00  0.00     0.338 C 
ATOM     39  O   UNL A   1      45.127  25.203  24.661  1.00  0.00    -0.246 OA
BRANCH  38  40
ATOM     40  C   UNL A   1      43.176  25.690  25.903  1.00  0.00     0.060 A 
ATOM     41  C   UNL A   1      43.411  27.070  25.928  1.00  0.00     0.016 A 
ATOM     42  C   UNL A   1      42.254  25.106  26.774  1.00  0.00     0.016 A 
ATOM     43  C   UNL A   1      42.773  27.865  26.876  1.00  0.00     0.010 A 
ATOM     44  C   UNL A   1      41.618  25.902  27.727  1.00  0.00     0.010 A 
ATOM     45  C   UNL A   1      41.913  27.273  27.810  1.00  0.00    -0.014 A 
BRANCH  45  46
ATOM     46  C   UNL A   1      41.466  28.048  28.989  1.00  0.00     0.031 A 
ATOM     47  C   UNL A   1      42.226  27.897  30.277  1.00  0.00     0.074 A 
ATOM     48  C   UNL A   1      40.412  28.877  28.906  1.00  0.00     0.049 A 
ATOM     49  N   UNL A   1      41.982  28.414  31.453  1.00  0.00    -0.248 NA
ATOM     50  C   UNL A   1      43.423  27.039  30.233  1.00  0.00     0.031 C 
ATOM     51  C   UNL A   1      39.633  29.130  27.696  1.00  0.00     0.029 A 
ATOM     52  N   UNL A   1      39.812  29.649  29.866  1.00  0.00    -0.354 N 
ATOM     53  C   UNL A   1      42.988  27.941  32.287  1.00  0.00     0.074 A 
ATOM     54  C   UNL A   1      43.826  27.070  31.494  1.00  0.00     0.031 C 
ATOM     55  C   UNL A   1      38.646  29.993  27.990  1.00  0.00     0.029 A 
ATOM     56  C   UNL A   1      38.704  30.320  29.413  1.00  0.00     0.049 A 
ATOM     57  H   UNL A   1      40.144  29.717  30.790  1.00  0.00     0.167 HD
ATOM     58  C   UNL A   1      43.196  28.219  33.596  1.00  0.00     0.037 A 
ATOM     59  C   UNL A   1      37.825  31.088  30.084  1.00  0.00     0.037 A 
ATOM     60  C   UNL A   1      42.352  29.085  34.377  1.00  0.00     0.049 A 
ATOM     61  C   UNL A   1      38.033  31.316  31.560  1.00  0.00     0.074 A 
ATOM     62  C   UNL A   1      42.473  29.442  35.708  1.00  0.00     0.029 A 
ATOM     63  N   UNL A   1      41.219  29.725  33.892  1.00  0.00    -0.354 N 
ATOM     64  N   UNL A   1      38.993  30.882  32.341  1.00  0.00    -0.248 NA
ATOM     65  C   UNL A   1      37.032  32.145  32.248  1.00  0.00     0.031 C 
ATOM     66  C   UNL A   1      41.385  30.254  36.042  1.00  0.00     0.029 A 
ATOM     67  C   UNL A   1      40.618  30.454  34.904  1.00  0.00     0.049 A 
ATOM     68  H   UNL A   1      40.891  29.668  32.965  1.00  0.00     0.167 HD
ATOM     69  C   UNL A   1      38.733  31.408  33.600  1.00  0.00     0.074 A 
ATOM     70  C   UNL A   1      37.529  32.205  33.475  1.00  0.00     0.031 C 
ATOM     71  C   UNL A   1      39.425  31.249  34.754  1.00  0.00     0.037 A 
BRANCH  58  72
ATOM     72  C   UNL A   1      44.364  27.559  34.269  1.00  0.00     0.064 A 
ATOM     73  C   UNL A   1      45.618  28.183  34.353  1.00  0.00     0.173 A 
ATOM     74  C   UNL A   1      44.221  26.297  34.865  1.00  0.00     0.173 A 
ATOM     75  F   UNL A   1      45.814  29.384  33.787  1.00  0.00    -0.203 F 
ATOM     76  C   UNL A   1      46.691  27.557  34.983  1.00  0.00     0.198 A 
ATOM     77  C   UNL A   1      45.287  25.687  35.522  1.00  0.00     0.198 A 
ATOM     78  F   UNL A   1      43.044  25.655  34.817  1.00  0.00    -0.203 F 
ATOM     79  F   UNL A   1      47.892  28.150  35.007  1.00  0.00    -0.200 F 
ATOM     80  C   UNL A   1      46.522  26.313  35.574  1.00  0.00     0.200 A 
ATOM     81  F   UNL A   1      45.119  24.490  36.102  1.00  0.00    -0.200 F 
ATOM     82  F   UNL A   1      47.554  25.715  36.186  1.00  0.00    -0.200 F 
ENDBRANCH  58  72
BRANCH  59  83
ATOM     83  C   UNL A   1      36.667  31.689  29.373  1.00  0.00     0.064 A 
ATOM     84  C   UNL A   1      36.627  33.062  29.093  1.00  0.00     0.173 A 
ATOM     85  C   UNL A   1      35.574  30.909  28.970  1.00  0.00     0.173 A 
ATOM     86  F   UNL A   1      37.639  33.854  29.478  1.00  0.00    -0.203 F 
ATOM     87  C   UNL A   1      35.530  33.634  28.452  1.00  0.00     0.198 A 
ATOM     88  C   UNL A   1      34.490  31.476  28.303  1.00  0.00     0.198 A 
ATOM     89  F   UNL A   1      35.563  29.590  29.213  1.00  0.00    -0.203 F 
ATOM     90  F   UNL A   1      35.497  34.956  28.238  1.00  0.00    -0.200 F 
ATOM     91  C   UNL A   1      34.465  32.840  28.052  1.00  0.00     0.200 A 
ATOM     92  F   UNL A   1      33.472  30.703  27.905  1.00  0.00    -0.200 F 
ATOM     93  F   UNL A   1      33.413  33.390  27.431  1.00  0.00    -0.200 F 
ENDBRANCH  59  83
BRANCH  71  94
ATOM     94  C   UNL A   1      38.925  31.985  35.965  1.00  0.00     0.064 A 
ATOM     95  C   UNL A   1      38.123  31.361  36.931  1.00  0.00     0.173 A 
ATOM     96  C   UNL A   1      39.294  33.323  36.180  1.00  0.00     0.173 A 
ATOM     97  F   UNL A   1      37.733  30.089  36.765  1.00  0.00    -0.203 F 
ATOM     98  C   UNL A   1      37.685  32.057  38.054  1.00  0.00     0.198 A 
ATOM     99  C   UNL A   1      38.882  34.005  37.321  1.00  0.00     0.198 A 
ATOM    100  F   UNL A   1      40.067  33.964  35.291  1.00  0.00    -0.203 F 
ATOM    101  F   UNL A   1      36.877  31.456  38.938  1.00  0.00    -0.200 F 
ATOM    102  C   UNL A   1      38.070  33.375  38.252  1.00  0.00     0.200 A 
ATOM    103  F   UNL A   1      39.269  35.273  37.519  1.00  0.00    -0.200 F 
ATOM    104  F   UNL A   1      37.654  34.040  39.339  1.00  0.00    -0.200 F 
ENDBRANCH  71  94
ENDBRANCH  45  46
ENDBRANCH  38  40
ENDBRANCH  37  38
ENDBRANCH  36  37
ENDBRANCH  35  36
ENDBRANCH  34  35
ENDBRANCH  33  34
ENDBRANCH  32  33
ENDBRANCH   1  32
TORSDOF 23
ENDMDL
MODEL 2
REMARK VINA RESULT:     -10.8      3.123      9.045
REMARK SMILES Cc1[nH]c2c(C(=O)N3CC[C@H](O)C[C@@H]3C(=O)OCCOCCOCCOCCOC(=O)c3ccc(-c4c5nc(c(-c6c(F)c(F)c(F)c(F)c6F)c6ccc([nH]6)c(-c6c(F)c(F)c(F)c(F)c6F)c6nc(c(-c7c(F)c(F)c(F)c(F)c7F)c7ccc4[nH]7)C=C6)C=C5)cc3)cccc2c1C
REMARK SMILES IDX 23 1 22 2 21 3 20 4 19 5 18 6 17 7 15 8 16 9 14 10 8 11 9 12
REMARK SMILES IDX 10 13 13 14 11 15 6 16 7 17 5 18 1 19 2 20 3 21 99 22 4 23
REMARK SMILES IDX 98 25 100 26 97 27 95 28 96 29 12 30 24 32 25 33 26 34 27 35
REMARK SMILES IDX 28 36 29 37 30 38 31 39 32 40 33 41 94 42 34 43 93 44 35 45
REMARK SMILES IDX 36 46 37 47 87 48 38 49 92 50 86 51 88 52 39 53 91 54 85 55
REMARK SMILES IDX 84 56 40 58 72 59 52 60 71 61 53 62 56 63 70 64 89 65 54 66
REMARK SMILES IDX 55 67 69 69 90 70 57 71 41 72 42 73 50 74 43 75 44 76 48 77
REMARK SMILES IDX 51 78 45 79 46 80 49 81 47 82 73 83 74 84 82 85 75 86 76 87
REMARK SMILES IDX 80 88 83 89 77 90 78 91 81 92 79 93 58 94 59 95 67 96 60 97
REMARK SMILES IDX 61 98 65 99 68 100 62 101 63 102 66 103 64 104
REMARK H PARENT 3 24 12 31 88 57 56 68
REMARK Flexibility Score: inf
ROOT
ATOM      1  O   UNL A   1      28.859  32.586  22.665  1.00  0.00    -0.377 OA
ENDROOT
BRANCH   1   2
ATOM      2  C   UNL A   1      28.497  31.816  21.516  1.00  0.00     0.188 C 
BRANCH   2   3
ATOM      3  C   UNL A   1      28.325  30.309  21.718  1.00  0.00     0.188 C 
BRANCH   3   4
ATOM      4  O   UNL A   1      29.450  29.556  21.318  1.00  0.00    -0.376 OA
BRANCH   4   5
ATOM      5  C   UNL A   1      30.459  29.269  22.277  1.00  0.00     0.202 C 
BRANCH   5   6
ATOM      6  C   UNL A   1      30.726  27.856  22.833  1.00  0.00     0.261 C 
BRANCH   6   7
ATOM      7  O   UNL A   1      30.941  27.708  24.257  1.00  0.00    -0.462 OA
BRANCH   7   8
ATOM      8  C   UNL A   1      32.219  27.393  24.621  1.00  0.00     0.329 C 
ATOM      9  O   UNL A   1      33.186  28.092  24.320  1.00  0.00    -0.250 OA
BRANCH   8  10
ATOM     10  C   UNL A   1      32.416  25.994  25.232  1.00  0.00     0.198 C 
ATOM     11  N   UNL A   1      32.431  25.017  24.141  1.00  0.00    -0.325 N 
ATOM     12  C   UNL A   1      31.224  24.239  23.869  1.00  0.00     0.123 C 
ATOM     13  C   UNL A   1      30.676  23.627  25.153  1.00  0.00     0.053 C 
ATOM     14  C   UNL A   1      31.658  25.534  26.471  1.00  0.00     0.069 C 
ATOM     15  C   UNL A   1      30.400  24.726  26.174  1.00  0.00     0.118 C 
BRANCH  11  16
ATOM     16  C   UNL A   1      33.668  24.697  23.600  1.00  0.00     0.256 C 
ATOM     17  O   UNL A   1      34.023  25.150  22.514  1.00  0.00    -0.269 OA
BRANCH  16  18
ATOM     18  C   UNL A   1      34.509  23.679  24.282  1.00  0.00     0.064 A 
ATOM     19  C   UNL A   1      32.332  19.238  23.591  1.00  0.00     0.064 C 
ATOM     20  C   UNL A   1      33.382  20.218  23.966  1.00  0.00     0.016 A 
ATOM     21  N   UNL A   1      33.255  21.551  23.682  1.00  0.00    -0.358 N 
ATOM     22  C   UNL A   1      34.609  20.051  24.582  1.00  0.00    -0.023 A 
ATOM     23  C   UNL A   1      34.269  22.290  24.244  1.00  0.00     0.059 A 
ATOM     24  H   UNL A   1      32.527  21.934  23.142  1.00  0.00     0.166 HD
ATOM     25  C   UNL A   1      35.161  21.360  24.782  1.00  0.00     0.003 A 
ATOM     26  C   UNL A   1      35.238  18.765  24.981  1.00  0.00     0.047 C 
ATOM     27  C   UNL A   1      36.355  21.829  25.366  1.00  0.00     0.010 A 
ATOM     28  C   UNL A   1      35.709  24.108  24.875  1.00  0.00     0.016 A 
ATOM     29  C   UNL A   1      36.618  23.201  25.409  1.00  0.00     0.002 A 
ENDBRANCH  16  18
ENDBRANCH  11  16
BRANCH  15  30
ATOM     30  O   UNL A   1      29.369  25.570  25.676  1.00  0.00    -0.393 OA
ATOM     31  H   UNL A   1      29.290  26.352  26.244  1.00  0.00     0.210 HD
ENDBRANCH  15  30
ENDBRANCH   8  10
ENDBRANCH   7   8
ENDBRANCH   6   7
ENDBRANCH   5   6
ENDBRANCH   4   5
ENDBRANCH   3   4
ENDBRANCH   2   3
ENDBRANCH   1   2
BRANCH   1  32
ATOM     32  C   UNL A   1      28.902  31.926  23.936  1.00  0.00     0.188 C 
BRANCH  32  33
ATOM     33  C   UNL A   1      30.151  32.098  24.799  1.00  0.00     0.188 C 
BRANCH  33  34
ATOM     34  O   UNL A   1      30.756  30.917  25.328  1.00  0.00    -0.376 OA
BRANCH  34  35
ATOM     35  C   UNL A   1      31.721  31.034  26.368  1.00  0.00     0.202 C 
BRANCH  35  36
ATOM     36  C   UNL A   1      31.801  32.413  27.014  1.00  0.00     0.261 C 
BRANCH  36  37
ATOM     37  O   UNL A   1      33.103  32.999  26.859  1.00  0.00    -0.460 OA
BRANCH  37  38
ATOM     38  C   UNL A   1      33.664  33.447  28.004  1.00  0.00     0.338 C 
ATOM     39  O   UNL A   1      33.225  34.282  28.774  1.00  0.00    -0.246 OA
BRANCH  38  40
ATOM     40  C   UNL A   1      34.898  32.688  28.277  1.00  0.00     0.060 A 
ATOM     41  C   UNL A   1      34.779  31.330  28.595  1.00  0.00     0.016 A 
ATOM     42  C   UNL A   1      36.137  33.331  28.333  1.00  0.00     0.016 A 
ATOM     43  C   UNL A   1      35.893  30.623  29.040  1.00  0.00     0.010 A 
ATOM     44  C   UNL A   1      37.251  32.622  28.783  1.00  0.00     0.010 A 
ATOM     45  C   UNL A   1      37.121  31.282  29.183  1.00  0.00    -0.014 A 
BRANCH  45  46
ATOM     46  C   UNL A   1      38.222  30.628  29.923  1.00  0.00     0.031 A 
ATOM     47  C   UNL A   1      38.447  31.009  31.360  1.00  0.00     0.074 A 
ATOM     48  C   UNL A   1      38.996  29.705  29.327  1.00  0.00     0.049 A 
ATOM     49  N   UNL A   1      39.387  30.628  32.185  1.00  0.00    -0.248 NA
ATOM     50  C   UNL A   1      37.482  31.957  31.943  1.00  0.00     0.031 C 
ATOM     51  C   UNL A   1      38.837  29.231  27.955  1.00  0.00     0.029 A 
ATOM     52  N   UNL A   1      40.078  29.012  29.804  1.00  0.00    -0.354 N 
ATOM     53  C   UNL A   1      39.130  31.290  33.379  1.00  0.00     0.074 A 
ATOM     54  C   UNL A   1      37.969  32.124  33.163  1.00  0.00     0.031 C 
ATOM     55  C   UNL A   1      39.798  28.328  27.694  1.00  0.00     0.029 A 
ATOM     56  C   UNL A   1      40.658  28.193  28.869  1.00  0.00     0.049 A 
ATOM     57  H   UNL A   1      40.407  29.093  30.729  1.00  0.00     0.167 HD
ATOM     58  C   UNL A   1      39.801  31.201  34.551  1.00  0.00     0.037 A 
ATOM     59  C   UNL A   1      41.772  27.443  28.949  1.00  0.00     0.037 A 
ATOM     60  C   UNL A   1      40.960  30.371  34.753  1.00  0.00     0.049 A 
ATOM     61  C   UNL A   1      42.548  27.424  30.241  1.00  0.00     0.074 A 
ATOM     62  C   UNL A   1      41.712  30.200  35.901  1.00  0.00     0.029 A 
ATOM     63  N   UNL A   1      41.538  29.577  33.772  1.00  0.00    -0.354 N 
ATOM     64  N   UNL A   1      42.294  28.038  31.372  1.00  0.00    -0.248 NA
ATOM     65  C   UNL A   1      43.769  26.605  30.268  1.00  0.00     0.031 C 
ATOM     66  C   UNL A   1      42.777  29.344  35.600  1.00  0.00     0.029 A 
ATOM     67  C   UNL A   1      42.652  28.933  34.282  1.00  0.00     0.049 A 
ATOM     68  H   UNL A   1      41.204  29.485  32.850  1.00  0.00     0.167 HD
ATOM     69  C   UNL A   1      43.298  27.657  32.252  1.00  0.00     0.074 A 
ATOM     70  C   UNL A   1      44.161  26.747  31.526  1.00  0.00     0.031 C 
ATOM     71  C   UNL A   1      43.491  28.022  33.543  1.00  0.00     0.037 A 
BRANCH  58  72
ATOM     72  C   UNL A   1      39.315  32.043  35.696  1.00  0.00     0.064 A 
ATOM     73  C   UNL A   1      39.733  33.372  35.866  1.00  0.00     0.173 A 
ATOM     74  C   UNL A   1      38.395  31.525  36.620  1.00  0.00     0.173 A 
ATOM     75  F   UNL A   1      40.624  33.914  35.020  1.00  0.00    -0.203 F 
ATOM     76  C   UNL A   1      39.272  34.139  36.932  1.00  0.00     0.198 A 
ATOM     77  C   UNL A   1      37.910  32.304  37.667  1.00  0.00     0.198 A 
ATOM     78  F   UNL A   1      37.959  30.261  36.504  1.00  0.00    -0.203 F 
ATOM     79  F   UNL A   1      39.723  35.389  37.103  1.00  0.00    -0.200 F 
ATOM     80  C   UNL A   1      38.355  33.607  37.827  1.00  0.00     0.200 A 
ATOM     81  F   UNL A   1      37.016  31.792  38.524  1.00  0.00    -0.200 F 
ATOM     82  F   UNL A   1      37.905  34.349  38.849  1.00  0.00    -0.200 F 
ENDBRANCH  58  72
BRANCH  59  83
ATOM     83  C   UNL A   1      42.226  26.655  27.774  1.00  0.00     0.064 A 
ATOM     84  C   UNL A   1      43.165  27.178  26.873  1.00  0.00     0.173 A 
ATOM     85  C   UNL A   1      41.726  25.369  27.520  1.00  0.00     0.173 A 
ATOM     86  F   UNL A   1      43.657  28.412  27.061  1.00  0.00    -0.203 F 
ATOM     87  C   UNL A   1      43.571  26.454  25.755  1.00  0.00     0.198 A 
ATOM     88  C   UNL A   1      42.154  24.634  26.418  1.00  0.00     0.198 A 
ATOM     89  F   UNL A   1      40.826  24.822  28.351  1.00  0.00    -0.203 F 
ATOM     90  F   UNL A   1      44.434  26.996  24.885  1.00  0.00    -0.200 F 
ATOM     91  C   UNL A   1      43.070  25.180  25.531  1.00  0.00     0.200 A 
ATOM     92  F   UNL A   1      41.679  23.398  26.214  1.00  0.00    -0.200 F 
ATOM     93  F   UNL A   1      43.465  24.481  24.457  1.00  0.00    -0.200 F 
ENDBRANCH  59  83
BRANCH  71  94
ATOM     94  C   UNL A   1      44.653  27.406  34.269  1.00  0.00     0.064 A 
ATOM     95  C   UNL A   1      44.551  26.163  34.909  1.00  0.00     0.173 A 
ATOM     96  C   UNL A   1      45.899  28.053  34.283  1.00  0.00     0.173 A 
ATOM     97  F   UNL A   1      43.378  25.512  34.934  1.00  0.00    -0.203 F 
ATOM     98  C   UNL A   1      45.645  25.602  35.561  1.00  0.00     0.198 A 
ATOM     99  C   UNL A   1      47.000  27.473  34.908  1.00  0.00     0.198 A 
ATOM    100  F   UNL A   1      46.054  29.240  33.679  1.00  0.00    -0.203 F 
ATOM    101  F   UNL A   1      45.510  24.437  36.209  1.00  0.00    -0.200 F 
ATOM    102  C   UNL A   1      46.870  26.253  35.554  1.00  0.00     0.200 A 
ATOM    103  F   UNL A   1      48.187  28.095  34.885  1.00  0.00    -0.200 F 
ATOM    104  F   UNL A   1      47.925  25.706  36.175  1.00  0.00    -0.200 F 
ENDBRANCH  71  94
ENDBRANCH  45  46
ENDBRANCH  38  40
ENDBRANCH  37  38
ENDBRANCH  36  37
ENDBRANCH  35  36
ENDBRANCH  34  35
ENDBRANCH  33  34
ENDBRANCH  32  33
ENDBRANCH   1  32
TORSDOF 23
ENDMDL
MODEL 3
REMARK VINA RESULT:     -10.7      3.540      9.028
REMARK SMILES Cc1[nH]c2c(C(=O)N3CC[C@H](O)C[C@@H]3C(=O)OCCOCCOCCOCCOC(=O)c3ccc(-c4c5nc(c(-c6c(F)c(F)c(F)c(F)c6F)c6ccc([nH]6)c(-c6c(F)c(F)c(F)c(F)c6F)c6nc(c(-c7c(F)c(F)c(F)c(F)c7F)c7ccc4[nH]7)C=C6)C=C5)cc3)cccc2c1C
REMARK SMILES IDX 23 1 22 2 21 3 20 4 19 5 18 6 17 7 15 8 16 9 14 10 8 11 9 12
REMARK SMILES IDX 10 13 13 14 11 15 6 16 7 17 5 18 1 19 2 20 3 21 99 22 4 23
REMARK SMILES IDX 98 25 100 26 97 27 95 28 96 29 12 30 24 32 25 33 26 34 27 35
REMARK SMILES IDX 28 36 29 37 30 38 31 39 32 40 33 41 94 42 34 43 93 44 35 45
REMARK SMILES IDX 36 46 37 47 87 48 38 49 92 50 86 51 88 52 39 53 91 54 85 55
REMARK SMILES IDX 84 56 40 58 72 59 52 60 71 61 53 62 56 63 70 64 89 65 54 66
REMARK SMILES IDX 55 67 69 69 90 70 57 71 41 72 42 73 50 74 43 75 44 76 48 77
REMARK SMILES IDX 51 78 45 79 46 80 49 81 47 82 73 83 74 84 82 85 75 86 76 87
REMARK SMILES IDX 80 88 83 89 77 90 78 91 81 92 79 93 58 94 59 95 67 96 60 97
REMARK SMILES IDX 61 98 65 99 68 100 62 101 63 102 66 103 64 104
REMARK H PARENT 3 24 12 31 88 57 56 68
REMARK Flexibility Score: inf
ROOT
ATOM      1  O   UNL A   1      29.512  30.676  24.418  1.00  0.00    -0.377 OA
ENDROOT
BRANCH   1   2
ATOM      2  C   UNL A   1      29.068  31.066  23.116  1.00  0.00     0.188 C 
BRANCH   2   3
ATOM      3  C   UNL A   1      28.845  29.948  22.096  1.00  0.00     0.188 C 
BRANCH   3   4
ATOM      4  O   UNL A   1      30.031  29.280  21.725  1.00  0.00    -0.376 OA
BRANCH   4   5
ATOM      5  C   UNL A   1      30.294  27.993  22.272  1.00  0.00     0.202 C 
BRANCH   5   6
ATOM      6  C   UNL A   1      29.445  27.356  23.389  1.00  0.00     0.261 C 
BRANCH   6   7
ATOM      7  O   UNL A   1      30.103  26.485  24.340  1.00  0.00    -0.462 OA
BRANCH   7   8
ATOM      8  C   UNL A   1      30.641  25.347  23.809  1.00  0.00     0.329 C 
ATOM      9  O   UNL A   1      29.967  24.514  23.203  1.00  0.00    -0.250 OA
BRANCH   8  10
ATOM     10  C   UNL A   1      32.097  25.044  24.208  1.00  0.00     0.198 C 
ATOM     11  N   UNL A   1      32.174  25.022  25.671  1.00  0.00    -0.325 N 
ATOM     12  C   UNL A   1      32.696  26.194  26.371  1.00  0.00     0.123 C 
ATOM     13  C   UNL A   1      34.013  26.649  25.753  1.00  0.00     0.053 C 
ATOM     14  C   UNL A   1      33.282  25.720  23.530  1.00  0.00     0.069 C 
ATOM     15  C   UNL A   1      33.815  26.942  24.269  1.00  0.00     0.118 C 
BRANCH  11  16
ATOM     16  C   UNL A   1      31.997  23.794  26.291  1.00  0.00     0.256 C 
ATOM     17  O   UNL A   1      31.403  23.704  27.363  1.00  0.00    -0.269 OA
BRANCH  16  18
ATOM     18  C   UNL A   1      32.662  22.595  25.716  1.00  0.00     0.064 A 
ATOM     19  C   UNL A   1      37.582  23.454  25.757  1.00  0.00     0.064 C 
ATOM     20  C   UNL A   1      36.313  22.693  25.632  1.00  0.00     0.016 A 
ATOM     21  N   UNL A   1      35.107  23.248  25.962  1.00  0.00    -0.358 N 
ATOM     22  C   UNL A   1      36.065  21.391  25.238  1.00  0.00    -0.023 A 
ATOM     23  C   UNL A   1      34.059  22.420  25.633  1.00  0.00     0.059 A 
ATOM     24  H   UNL A   1      35.002  24.131  26.383  1.00  0.00     0.166 HD
ATOM     25  C   UNL A   1      34.641  21.222  25.214  1.00  0.00     0.003 A 
ATOM     26  C   UNL A   1      37.075  20.357  24.888  1.00  0.00     0.047 C 
ATOM     27  C   UNL A   1      33.798  20.142  24.881  1.00  0.00     0.010 A 
ATOM     28  C   UNL A   1      31.855  21.497  25.373  1.00  0.00     0.016 A 
ATOM     29  C   UNL A   1      32.411  20.290  24.962  1.00  0.00     0.002 A 
ENDBRANCH  16  18
ENDBRANCH  11  16
BRANCH  15  30
ATOM     30  O   UNL A   1      32.921  28.040  24.130  1.00  0.00    -0.393 OA
ATOM     31  H   UNL A   1      32.956  28.587  24.931  1.00  0.00     0.210 HD
ENDBRANCH  15  30
ENDBRANCH   8  10
ENDBRANCH   7   8
ENDBRANCH   6   7
ENDBRANCH   5   6
ENDBRANCH   4   5
ENDBRANCH   3   4
ENDBRANCH   2   3
ENDBRANCH   1   2
BRANCH   1  32
ATOM     32  C   UNL A   1      30.882  30.916  24.765  1.00  0.00     0.188 C 
BRANCH  32  33
ATOM     33  C   UNL A   1      31.408  30.337  26.076  1.00  0.00     0.188 C 
BRANCH  33  34
ATOM     34  O   UNL A   1      32.822  30.185  26.211  1.00  0.00    -0.376 OA
BRANCH  34  35
ATOM     35  C   UNL A   1      33.523  30.991  27.153  1.00  0.00     0.202 C 
BRANCH  35  36
ATOM     36  C   UNL A   1      32.751  32.207  27.654  1.00  0.00     0.261 C 
BRANCH  36  37
ATOM     37  O   UNL A   1      33.462  33.429  27.404  1.00  0.00    -0.460 OA
BRANCH  37  38
ATOM     38  C   UNL A   1      33.395  34.340  28.401  1.00  0.00     0.338 C 
ATOM     39  O   UNL A   1      32.529  35.174  28.593  1.00  0.00    -0.246 OA
BRANCH  38  40
ATOM     40  C   UNL A   1      34.511  34.126  29.339  1.00  0.00     0.060 A 
ATOM     41  C   UNL A   1      35.814  34.337  28.872  1.00  0.00     0.016 A 
ATOM     42  C   UNL A   1      34.284  33.614  30.619  1.00  0.00     0.016 A 
ATOM     43  C   UNL A   1      36.901  33.970  29.661  1.00  0.00     0.010 A 
ATOM     44  C   UNL A   1      35.373  33.242  31.407  1.00  0.00     0.010 A 
ATOM     45  C   UNL A   1      36.681  33.374  30.910  1.00  0.00    -0.014 A 
BRANCH  45  46
ATOM     46  C   UNL A   1      37.803  32.719  31.619  1.00  0.00     0.031 A 
ATOM     47  C   UNL A   1      38.443  31.514  30.989  1.00  0.00     0.074 A 
ATOM     48  C   UNL A   1      38.246  33.199  32.793  1.00  0.00     0.049 A 
ATOM     49  N   UNL A   1      39.387  30.736  31.452  1.00  0.00    -0.248 NA
ATOM     50  C   UNL A   1      37.946  31.131  29.657  1.00  0.00     0.031 C 
ATOM     51  C   UNL A   1      37.725  34.385  33.468  1.00  0.00     0.029 A 
ATOM     52  N   UNL A   1      39.229  32.736  33.627  1.00  0.00    -0.354 N 
ATOM     53  C   UNL A   1      39.591  29.771  30.473  1.00  0.00     0.074 A 
ATOM     54  C   UNL A   1      38.652  30.039  29.407  1.00  0.00     0.031 C 
ATOM     55  C   UNL A   1      38.390  34.552  34.625  1.00  0.00     0.029 A 
ATOM     56  C   UNL A   1      39.352  33.463  34.784  1.00  0.00     0.049 A 
ATOM     57  H   UNL A   1      39.794  31.957  33.416  1.00  0.00     0.167 HD
ATOM     58  C   UNL A   1      40.490  28.759  30.465  1.00  0.00     0.037 A 
ATOM     59  C   UNL A   1      40.136  33.252  35.858  1.00  0.00     0.037 A 
ATOM     60  C   UNL A   1      41.417  28.499  31.535  1.00  0.00     0.049 A 
ATOM     61  C   UNL A   1      41.071  32.069  35.858  1.00  0.00     0.074 A 
ATOM     62  C   UNL A   1      42.375  27.505  31.627  1.00  0.00     0.029 A 
ATOM     63  N   UNL A   1      41.492  29.239  32.707  1.00  0.00    -0.354 N 
ATOM     64  N   UNL A   1      41.274  31.170  34.926  1.00  0.00    -0.248 NA
ATOM     65  C   UNL A   1      41.889  31.874  37.064  1.00  0.00     0.031 C 
ATOM     66  C   UNL A   1      42.993  27.612  32.877  1.00  0.00     0.029 A 
ATOM     67  C   UNL A   1      42.463  28.709  33.539  1.00  0.00     0.049 A 
ATOM     68  H   UNL A   1      40.937  30.025  32.915  1.00  0.00     0.167 HD
ATOM     69  C   UNL A   1      42.260  30.324  35.414  1.00  0.00     0.074 A 
ATOM     70  C   UNL A   1      42.624  30.826  36.724  1.00  0.00     0.031 C 
ATOM     71  C   UNL A   1      42.817  29.232  34.835  1.00  0.00     0.037 A 
BRANCH  58  72
ATOM     72  C   UNL A   1      40.494  27.843  29.275  1.00  0.00     0.064 A 
ATOM     73  C   UNL A   1      41.321  28.075  28.166  1.00  0.00     0.173 A 
ATOM     74  C   UNL A   1      39.680  26.700  29.255  1.00  0.00     0.173 A 
ATOM     75  F   UNL A   1      42.108  29.162  28.126  1.00  0.00    -0.203 F 
ATOM     76  C   UNL A   1      41.313  27.215  27.071  1.00  0.00     0.198 A 
ATOM     77  C   UNL A   1      39.697  25.824  28.173  1.00  0.00     0.198 A 
ATOM     78  F   UNL A   1      38.870  26.427  30.290  1.00  0.00    -0.203 F 
ATOM     79  F   UNL A   1      42.074  27.484  26.001  1.00  0.00    -0.200 F 
ATOM     80  C   UNL A   1      40.507  26.086  27.079  1.00  0.00     0.200 A 
ATOM     81  F   UNL A   1      38.925  24.727  28.187  1.00  0.00    -0.200 F 
ATOM     82  F   UNL A   1      40.505  25.254  26.027  1.00  0.00    -0.200 F 
ENDBRANCH  58  72
BRANCH  59  83
ATOM     83  C   UNL A   1      40.067  34.172  37.023  1.00  0.00     0.064 A 
ATOM     84  C   UNL A   1      39.157  33.949  38.066  1.00  0.00     0.173 A 
ATOM     85  C   UNL A   1      40.899  35.298  37.113  1.00  0.00     0.173 A 
ATOM     86  F   UNL A   1      38.325  32.898  38.014  1.00  0.00    -0.203 F 
ATOM     87  C   UNL A   1      39.070  34.826  39.144  1.00  0.00     0.198 A 
ATOM     88  C   UNL A   1      40.832  36.158  38.207  1.00  0.00     0.198 A 
ATOM     89  F   UNL A   1      41.788  35.557  36.142  1.00  0.00    -0.203 F 
ATOM     90  F   UNL A   1      38.159  34.614  40.105  1.00  0.00    -0.200 F 
ATOM     91  C   UNL A   1      39.911  35.926  39.217  1.00  0.00     0.200 A 
ATOM     92  F   UNL A   1      41.656  37.210  38.280  1.00  0.00    -0.200 F 
ATOM     93  F   UNL A   1      39.830  36.766  40.258  1.00  0.00    -0.200 F 
ENDBRANCH  59  83
BRANCH  71  94
ATOM     94  C   UNL A   1      43.910  28.531  35.592  1.00  0.00     0.064 A 
ATOM     95  C   UNL A   1      43.640  27.465  36.462  1.00  0.00     0.173 A 
ATOM     96  C   UNL A   1      45.250  28.907  35.407  1.00  0.00     0.173 A 
ATOM     97  F   UNL A   1      42.375  27.077  36.682  1.00  0.00    -0.203 F 
ATOM     98  C   UNL A   1      44.669  26.818  37.140  1.00  0.00     0.198 A 
ATOM     99  C   UNL A   1      46.278  28.236  36.061  1.00  0.00     0.198 A 
ATOM    100  F   UNL A   1      45.562  29.915  34.579  1.00  0.00    -0.203 F 
ATOM    101  F   UNL A   1      44.383  25.836  38.005  1.00  0.00    -0.200 F 
ATOM    102  C   UNL A   1      45.987  27.198  36.934  1.00  0.00     0.200 A 
ATOM    103  F   UNL A   1      47.553  28.593  35.848  1.00  0.00    -0.200 F 
ATOM    104  F   UNL A   1      46.977  26.568  37.582  1.00  0.00    -0.200 F 
ENDBRANCH  71  94
ENDBRANCH  45  46
ENDBRANCH  38  40
ENDBRANCH  37  38
ENDBRANCH  36  37
ENDBRANCH  35  36
ENDBRANCH  34  35
ENDBRANCH  33  34
ENDBRANCH  32  33
ENDBRANCH   1  32
TORSDOF 23
ENDMDL
