MODEL 1
REMARK VINA RESULT:     -10.6      0.000      0.000
REMARK SMILES O=C(OCCOCCOCCOCCOC(=O)c1ccc(-c2c3nc(c(-c4c(F)c(F)c(F)c(F)c4F)c4ccc([nH]4)c(-c4c(F)c(F)c(F)c(F)c4F)c4nc(c(-c5c(F)c(F)c(F)c(F)c5F)c5ccc2[nH]5)C=C4)C=C3)cc1)c1ccc(NS(=O)(=O)C2=Cc3ccccc3CC2)cc1
REMARK SMILES IDX 8 1 7 2 6 3 5 4 4 5 3 6 2 7 1 8 81 9 82 10 100 11 83 12
REMARK SMILES IDX 99 13 84 14 85 15 86 17 87 18 88 19 89 20 90 21 98 22 91 23
REMARK SMILES IDX 97 24 92 25 96 26 93 27 95 28 94 29 9 30 10 31 11 32 12 33
REMARK SMILES IDX 13 34 14 35 15 36 16 37 17 38 18 39 19 40 80 41 20 42 79 43
REMARK SMILES IDX 21 44 22 45 23 46 73 47 24 48 78 49 72 50 74 51 25 52 77 53
REMARK SMILES IDX 71 54 70 55 26 57 58 58 38 59 57 60 39 61 42 62 56 63 75 64
REMARK SMILES IDX 40 65 41 66 55 68 76 69 43 70 27 71 28 72 36 73 29 74 30 75
REMARK SMILES IDX 34 76 37 77 31 78 32 79 35 80 33 81 59 82 60 83 68 84 61 85
REMARK SMILES IDX 62 86 66 87 69 88 63 89 64 90 67 91 65 92 44 93 45 94 53 95
REMARK SMILES IDX 46 96 47 97 51 98 54 99 48 100 49 101 52 102 50 103
REMARK H PARENT 85 16 74 56 42 67
REMARK Flexibility Score: inf
ROOT
ATOM      1  C   UNL A   1      33.251  36.916  29.553  1.00  0.00     0.188 C 
ENDROOT
BRANCH   1   2
ATOM      2  C   UNL A   1      33.449  35.519  28.957  1.00  0.00     0.188 C 
BRANCH   2   3
ATOM      3  O   UNL A   1      34.441  34.778  29.672  1.00  0.00    -0.376 OA
BRANCH   3   4
ATOM      4  C   UNL A   1      35.132  33.777  28.943  1.00  0.00     0.202 C 
BRANCH   4   5
ATOM      5  C   UNL A   1      34.341  32.575  28.426  1.00  0.00     0.261 C 
BRANCH   5   6
ATOM      6  O   UNL A   1      35.020  31.572  27.646  1.00  0.00    -0.460 OA
BRANCH   6   7
ATOM      7  C   UNL A   1      34.949  30.225  27.648  1.00  0.00     0.338 C 
ATOM      8  O   UNL A   1      35.621  29.585  28.453  1.00  0.00    -0.246 OA
BRANCH   7   9
ATOM      9  C   UNL A   1      34.156  29.479  26.642  1.00  0.00     0.060 A 
ATOM     10  C   UNL A   1      33.308  30.080  25.719  1.00  0.00     0.018 A 
ATOM     11  C   UNL A   1      34.246  28.079  26.660  1.00  0.00     0.018 A 
ATOM     12  C   UNL A   1      32.709  29.306  24.720  1.00  0.00     0.027 A 
ATOM     13  C   UNL A   1      33.654  27.315  25.651  1.00  0.00     0.027 A 
ATOM     14  C   UNL A   1      32.954  27.939  24.621  1.00  0.00     0.049 A 
BRANCH  14  15
ATOM     15  N   UNL A   1      32.657  27.150  23.477  1.00  0.00    -0.280 N 
ATOM     16  H   UNL A   1      33.386  27.000  22.834  1.00  0.00     0.180 HD
BRANCH  15  17
ATOM     17  S   UNL A   1      31.172  26.450  23.125  1.00  0.00     0.258 S 
ATOM     18  O   UNL A   1      30.484  26.480  24.404  1.00  0.00    -0.202 OA
ATOM     19  O   UNL A   1      30.624  27.191  22.008  1.00  0.00    -0.202 OA
BRANCH  17  20
ATOM     20  C   UNL A   1      31.475  24.747  22.650  1.00  0.00     0.066 C 
ATOM     21  C   UNL A   1      32.783  24.398  22.586  1.00  0.00     0.026 C 
ATOM     22  C   UNL A   1      30.644  23.694  23.362  1.00  0.00     0.055 C 
ATOM     23  C   UNL A   1      33.375  24.090  23.926  1.00  0.00    -0.021 A 
ATOM     24  C   UNL A   1      31.046  23.610  24.842  1.00  0.00     0.041 C 
ATOM     25  C   UNL A   1      34.759  24.120  24.096  1.00  0.00     0.008 A 
ATOM     26  C   UNL A   1      32.540  23.776  25.025  1.00  0.00    -0.040 A 
ATOM     27  C   UNL A   1      35.308  23.928  25.365  1.00  0.00     0.001 A 
ATOM     28  C   UNL A   1      33.098  23.637  26.299  1.00  0.00     0.004 A 
ATOM     29  C   UNL A   1      34.478  23.721  26.467  1.00  0.00     0.000 A 
ENDBRANCH  17  20
ENDBRANCH  15  17
ENDBRANCH  14  15
ENDBRANCH   7   9
ENDBRANCH   6   7
ENDBRANCH   5   6
ENDBRANCH   4   5
ENDBRANCH   3   4
ENDBRANCH   2   3
ENDBRANCH   1   2
BRANCH   1  30
ATOM     30  O   UNL A   1      32.691  36.948  30.866  1.00  0.00    -0.377 OA
BRANCH  30  31
ATOM     31  C   UNL A   1      33.471  37.550  31.891  1.00  0.00     0.188 C 
BRANCH  31  32
ATOM     32  C   UNL A   1      33.931  36.670  33.069  1.00  0.00     0.188 C 
BRANCH  32  33
ATOM     33  O   UNL A   1      34.492  35.425  32.683  1.00  0.00    -0.376 OA
BRANCH  33  34
ATOM     34  C   UNL A   1      35.595  34.966  33.456  1.00  0.00     0.202 C 
BRANCH  34  35
ATOM     35  C   UNL A   1      35.480  33.544  34.026  1.00  0.00     0.261 C 
BRANCH  35  36
ATOM     36  O   UNL A   1      36.422  32.590  33.505  1.00  0.00    -0.460 OA
BRANCH  36  37
ATOM     37  C   UNL A   1      36.109  31.934  32.367  1.00  0.00     0.338 C 
ATOM     38  O   UNL A   1      35.012  31.844  31.846  1.00  0.00    -0.246 OA
BRANCH  37  39
ATOM     39  C   UNL A   1      37.389  31.540  31.727  1.00  0.00     0.060 A 
ATOM     40  C   UNL A   1      37.568  31.805  30.363  1.00  0.00     0.016 A 
ATOM     41  C   UNL A   1      38.446  31.022  32.484  1.00  0.00     0.016 A 
ATOM     42  C   UNL A   1      38.803  31.558  29.757  1.00  0.00     0.010 A 
ATOM     43  C   UNL A   1      39.676  30.756  31.872  1.00  0.00     0.010 A 
ATOM     44  C   UNL A   1      39.859  31.012  30.502  1.00  0.00    -0.014 A 
BRANCH  44  45
ATOM     45  C   UNL A   1      41.093  30.542  29.824  1.00  0.00     0.031 A 
ATOM     46  C   UNL A   1      41.107  29.144  29.271  1.00  0.00     0.074 A 
ATOM     47  C   UNL A   1      42.185  31.321  29.712  1.00  0.00     0.049 A 
ATOM     48  N   UNL A   1      42.083  28.484  28.699  1.00  0.00    -0.248 NA
ATOM     49  C   UNL A   1      39.850  28.386  29.382  1.00  0.00     0.031 C 
ATOM     50  C   UNL A   1      42.294  32.700  30.180  1.00  0.00     0.029 A 
ATOM     51  N   UNL A   1      43.423  31.047  29.179  1.00  0.00    -0.354 N 
ATOM     52  C   UNL A   1      41.557  27.239  28.383  1.00  0.00     0.074 A 
ATOM     53  C   UNL A   1      40.185  27.224  28.842  1.00  0.00     0.031 C 
ATOM     54  C   UNL A   1      43.541  33.146  29.935  1.00  0.00     0.029 A 
ATOM     55  C   UNL A   1      44.326  32.073  29.322  1.00  0.00     0.049 A 
ATOM     56  H   UNL A   1      43.642  30.195  28.736  1.00  0.00     0.167 HD
ATOM     57  C   UNL A   1      42.162  26.200  27.763  1.00  0.00     0.037 A 
ATOM     58  C   UNL A   1      45.640  32.125  29.022  1.00  0.00     0.037 A 
ATOM     59  C   UNL A   1      43.527  26.205  27.313  1.00  0.00     0.049 A 
ATOM     60  C   UNL A   1      46.313  30.919  28.408  1.00  0.00     0.074 A 
ATOM     61  C   UNL A   1      44.215  25.210  26.639  1.00  0.00     0.029 A 
ATOM     62  N   UNL A   1      44.417  27.249  27.505  1.00  0.00    -0.354 N 
ATOM     63  N   UNL A   1      45.794  29.766  28.062  1.00  0.00    -0.248 NA
ATOM     64  C   UNL A   1      47.758  31.021  28.151  1.00  0.00     0.031 C 
ATOM     65  C   UNL A   1      45.537  25.631  26.473  1.00  0.00     0.029 A 
ATOM     66  C   UNL A   1      45.659  26.908  26.997  1.00  0.00     0.049 A 
ATOM     67  H   UNL A   1      44.199  28.106  27.939  1.00  0.00     0.167 HD
ATOM     68  C   UNL A   1      46.838  29.019  27.530  1.00  0.00     0.074 A 
ATOM     69  C   UNL A   1      48.019  29.854  27.578  1.00  0.00     0.031 C 
ATOM     70  C   UNL A   1      46.824  27.752  27.048  1.00  0.00     0.037 A 
BRANCH  57  71
ATOM     71  C   UNL A   1      41.360  24.953  27.554  1.00  0.00     0.064 A 
ATOM     72  C   UNL A   1      40.300  24.908  26.637  1.00  0.00     0.173 A 
ATOM     73  C   UNL A   1      41.692  23.775  28.239  1.00  0.00     0.173 A 
ATOM     74  F   UNL A   1      39.934  26.014  25.973  1.00  0.00    -0.203 F 
ATOM     75  C   UNL A   1      39.595  23.728  26.419  1.00  0.00     0.198 A 
ATOM     76  C   UNL A   1      41.000  22.591  28.001  1.00  0.00     0.198 A 
ATOM     77  F   UNL A   1      42.698  23.771  29.127  1.00  0.00    -0.203 F 
ATOM     78  F   UNL A   1      38.567  23.712  25.561  1.00  0.00    -0.200 F 
ATOM     79  C   UNL A   1      39.952  22.569  27.094  1.00  0.00     0.200 A 
ATOM     80  F   UNL A   1      41.352  21.471  28.647  1.00  0.00    -0.200 F 
ATOM     81  F   UNL A   1      39.281  21.430  26.873  1.00  0.00    -0.200 F 
ENDBRANCH  57  71
BRANCH  58  82
ATOM     82  C   UNL A   1      46.441  33.341  29.332  1.00  0.00     0.064 A 
ATOM     83  C   UNL A   1      47.057  33.506  30.581  1.00  0.00     0.173 A 
ATOM     84  C   UNL A   1      46.547  34.393  28.411  1.00  0.00     0.173 A 
ATOM     85  F   UNL A   1      46.956  32.543  31.509  1.00  0.00    -0.203 F 
ATOM     86  C   UNL A   1      47.724  34.687  30.906  1.00  0.00     0.198 A 
ATOM     87  C   UNL A   1      47.240  35.561  28.726  1.00  0.00     0.198 A 
ATOM     88  F   UNL A   1      45.969  34.292  27.205  1.00  0.00    -0.203 F 
ATOM     89  F   UNL A   1      48.249  34.842  32.130  1.00  0.00    -0.200 F 
ATOM     90  C   UNL A   1      47.818  35.712  29.978  1.00  0.00     0.200 A 
ATOM     91  F   UNL A   1      47.335  36.546  27.823  1.00  0.00    -0.200 F 
ATOM     92  F   UNL A   1      48.452  36.849  30.293  1.00  0.00    -0.200 F 
ENDBRANCH  58  82
BRANCH  70  93
ATOM     93  C   UNL A   1      48.112  27.194  26.516  1.00  0.00     0.064 A 
ATOM     94  C   UNL A   1      49.024  26.530  27.350  1.00  0.00     0.173 A 
ATOM     95  C   UNL A   1      48.414  27.277  25.148  1.00  0.00     0.173 A 
ATOM     96  F   UNL A   1      48.789  26.436  28.667  1.00  0.00    -0.203 F 
ATOM     97  C   UNL A   1      50.198  25.986  26.837  1.00  0.00     0.198 A 
ATOM     98  C   UNL A   1      49.575  26.707  24.633  1.00  0.00     0.198 A 
ATOM     99  F   UNL A   1      47.571  27.895  24.306  1.00  0.00    -0.203 F 
ATOM    100  F   UNL A   1      51.074  25.391  27.658  1.00  0.00    -0.200 F 
ATOM    101  C   UNL A   1      50.469  26.067  25.478  1.00  0.00     0.200 A 
ATOM    102  F   UNL A   1      49.827  26.773  23.318  1.00  0.00    -0.200 F 
ATOM    103  F   UNL A   1      51.595  25.534  24.985  1.00  0.00    -0.200 F 
ENDBRANCH  70  93
ENDBRANCH  44  45
ENDBRANCH  37  39
ENDBRANCH  36  37
ENDBRANCH  35  36
ENDBRANCH  34  35
ENDBRANCH  33  34
ENDBRANCH  32  33
ENDBRANCH  31  32
ENDBRANCH  30  31
ENDBRANCH   1  30
TORSDOF 23
ENDMDL
MODEL 2
REMARK VINA RESULT:     -10.1      2.976      5.390
REMARK SMILES O=C(OCCOCCOCCOCCOC(=O)c1ccc(-c2c3nc(c(-c4c(F)c(F)c(F)c(F)c4F)c4ccc([nH]4)c(-c4c(F)c(F)c(F)c(F)c4F)c4nc(c(-c5c(F)c(F)c(F)c(F)c5F)c5ccc2[nH]5)C=C4)C=C3)cc1)c1ccc(NS(=O)(=O)C2=Cc3ccccc3CC2)cc1
REMARK SMILES IDX 8 1 7 2 6 3 5 4 4 5 3 6 2 7 1 8 81 9 82 10 100 11 83 12
REMARK SMILES IDX 99 13 84 14 85 15 86 17 87 18 88 19 89 20 90 21 98 22 91 23
REMARK SMILES IDX 97 24 92 25 96 26 93 27 95 28 94 29 9 30 10 31 11 32 12 33
REMARK SMILES IDX 13 34 14 35 15 36 16 37 17 38 18 39 19 40 80 41 20 42 79 43
REMARK SMILES IDX 21 44 22 45 23 46 73 47 24 48 78 49 72 50 74 51 25 52 77 53
REMARK SMILES IDX 71 54 70 55 26 57 58 58 38 59 57 60 39 61 42 62 56 63 75 64
REMARK SMILES IDX 40 65 41 66 55 68 76 69 43 70 27 71 28 72 36 73 29 74 30 75
REMARK SMILES IDX 34 76 37 77 31 78 32 79 35 80 33 81 59 82 60 83 68 84 61 85
REMARK SMILES IDX 62 86 66 87 69 88 63 89 64 90 67 91 65 92 44 93 45 94 53 95
REMARK SMILES IDX 46 96 47 97 51 98 54 99 48 100 49 101 52 102 50 103
REMARK H PARENT 85 16 74 56 42 67
REMARK Flexibility Score: inf
ROOT
ATOM      1  C   UNL A   1      32.914  35.593  30.859  1.00  0.00     0.188 C 
ENDROOT
BRANCH   1   2
ATOM      2  C   UNL A   1      32.890  36.059  29.400  1.00  0.00     0.188 C 
BRANCH   2   3
ATOM      3  O   UNL A   1      34.151  35.846  28.760  1.00  0.00    -0.376 OA
BRANCH   3   4
ATOM      4  C   UNL A   1      34.279  34.664  27.987  1.00  0.00     0.202 C 
BRANCH   4   5
ATOM      5  C   UNL A   1      35.426  33.706  28.308  1.00  0.00     0.261 C 
BRANCH   5   6
ATOM      6  O   UNL A   1      35.557  32.490  27.547  1.00  0.00    -0.460 OA
BRANCH   6   7
ATOM      7  C   UNL A   1      35.351  31.195  27.868  1.00  0.00     0.338 C 
ATOM      8  O   UNL A   1      36.213  30.584  28.495  1.00  0.00    -0.246 OA
BRANCH   7   9
ATOM      9  C   UNL A   1      34.156  30.452  27.405  1.00  0.00     0.060 A 
ATOM     10  C   UNL A   1      32.900  31.024  27.236  1.00  0.00     0.018 A 
ATOM     11  C   UNL A   1      34.306  29.078  27.162  1.00  0.00     0.018 A 
ATOM     12  C   UNL A   1      31.868  30.277  26.663  1.00  0.00     0.027 A 
ATOM     13  C   UNL A   1      33.273  28.341  26.578  1.00  0.00     0.027 A 
ATOM     14  C   UNL A   1      32.073  28.965  26.242  1.00  0.00     0.049 A 
BRANCH  14  15
ATOM     15  N   UNL A   1      31.200  28.253  25.376  1.00  0.00    -0.280 N 
ATOM     16  H   UNL A   1      30.607  27.583  25.788  1.00  0.00     0.180 HD
BRANCH  15  17
ATOM     17  S   UNL A   1      31.088  28.452  23.713  1.00  0.00     0.258 S 
ATOM     18  O   UNL A   1      29.879  29.241  23.558  1.00  0.00    -0.202 OA
ATOM     19  O   UNL A   1      32.356  29.004  23.280  1.00  0.00    -0.202 OA
BRANCH  17  20
ATOM     20  C   UNL A   1      30.840  26.830  22.988  1.00  0.00     0.066 C 
ATOM     21  C   UNL A   1      31.979  26.178  22.648  1.00  0.00     0.026 C 
ATOM     22  C   UNL A   1      29.862  25.918  23.706  1.00  0.00     0.055 C 
ATOM     23  C   UNL A   1      32.646  25.516  23.812  1.00  0.00    -0.021 A 
ATOM     24  C   UNL A   1      30.430  25.493  25.068  1.00  0.00     0.041 C 
ATOM     25  C   UNL A   1      33.995  25.168  23.731  1.00  0.00     0.008 A 
ATOM     26  C   UNL A   1      31.922  25.245  24.997  1.00  0.00    -0.040 A 
ATOM     27  C   UNL A   1      34.645  24.637  24.848  1.00  0.00     0.001 A 
ATOM     28  C   UNL A   1      32.595  24.763  26.124  1.00  0.00     0.004 A 
ATOM     29  C   UNL A   1      33.954  24.468  26.048  1.00  0.00     0.000 A 
ENDBRANCH  17  20
ENDBRANCH  15  17
ENDBRANCH  14  15
ENDBRANCH   7   9
ENDBRANCH   6   7
ENDBRANCH   5   6
ENDBRANCH   4   5
ENDBRANCH   3   4
ENDBRANCH   2   3
ENDBRANCH   1   2
BRANCH   1  30
ATOM     30  O   UNL A   1      34.096  35.924  31.589  1.00  0.00    -0.377 OA
BRANCH  30  31
ATOM     31  C   UNL A   1      34.747  34.871  32.285  1.00  0.00     0.188 C 
BRANCH  31  32
ATOM     32  C   UNL A   1      33.902  33.667  32.744  1.00  0.00     0.188 C 
BRANCH  32  33
ATOM     33  O   UNL A   1      34.147  32.471  32.020  1.00  0.00    -0.376 OA
BRANCH  33  34
ATOM     34  C   UNL A   1      35.508  32.191  31.711  1.00  0.00     0.202 C 
BRANCH  34  35
ATOM     35  C   UNL A   1      36.227  31.206  32.646  1.00  0.00     0.261 C 
BRANCH  35  36
ATOM     36  O   UNL A   1      36.420  29.882  32.118  1.00  0.00    -0.460 OA
BRANCH  36  37
ATOM     37  C   UNL A   1      37.510  29.188  32.509  1.00  0.00     0.338 C 
ATOM     38  O   UNL A   1      37.534  28.118  33.090  1.00  0.00    -0.246 OA
BRANCH  37  39
ATOM     39  C   UNL A   1      38.688  29.844  31.888  1.00  0.00     0.060 A 
ATOM     40  C   UNL A   1      38.704  30.021  30.499  1.00  0.00     0.016 A 
ATOM     41  C   UNL A   1      39.712  30.385  32.674  1.00  0.00     0.016 A 
ATOM     42  C   UNL A   1      39.739  30.742  29.895  1.00  0.00     0.010 A 
ATOM     43  C   UNL A   1      40.758  31.087  32.067  1.00  0.00     0.010 A 
ATOM     44  C   UNL A   1      40.784  31.261  30.672  1.00  0.00    -0.014 A 
BRANCH  44  45
ATOM     45  C   UNL A   1      41.992  31.830  30.023  1.00  0.00     0.031 A 
ATOM     46  C   UNL A   1      43.060  30.879  29.560  1.00  0.00     0.074 A 
ATOM     47  C   UNL A   1      42.156  33.156  29.861  1.00  0.00     0.049 A 
ATOM     48  N   UNL A   1      44.229  31.133  29.029  1.00  0.00    -0.248 NA
ATOM     49  C   UNL A   1      42.770  29.444  29.720  1.00  0.00     0.031 C 
ATOM     50  C   UNL A   1      41.189  34.183  30.240  1.00  0.00     0.029 A 
ATOM     51  N   UNL A   1      43.215  33.866  29.344  1.00  0.00    -0.354 N 
ATOM     52  C   UNL A   1      44.811  29.895  28.794  1.00  0.00     0.074 A 
ATOM     53  C   UNL A   1      43.878  28.890  29.254  1.00  0.00     0.031 C 
ATOM     54  C   UNL A   1      41.709  35.394  29.966  1.00  0.00     0.029 A 
ATOM     55  C   UNL A   1      43.057  35.229  29.421  1.00  0.00     0.049 A 
ATOM     56  H   UNL A   1      44.011  33.437  28.956  1.00  0.00     0.167 HD
ATOM     57  C   UNL A   1      46.013  29.619  28.239  1.00  0.00     0.037 A 
ATOM     58  C   UNL A   1      43.916  36.223  29.116  1.00  0.00     0.037 A 
ATOM     59  C   UNL A   1      46.948  30.614  27.788  1.00  0.00     0.049 A 
ATOM     60  C   UNL A   1      45.287  35.885  28.579  1.00  0.00     0.074 A 
ATOM     61  C   UNL A   1      48.176  30.426  27.177  1.00  0.00     0.029 A 
ATOM     62  N   UNL A   1      46.766  31.981  27.912  1.00  0.00    -0.354 N 
ATOM     63  N   UNL A   1      45.806  34.713  28.307  1.00  0.00    -0.248 NA
ATOM     64  C   UNL A   1      46.195  37.013  28.313  1.00  0.00     0.031 C 
ATOM     65  C   UNL A   1      48.762  31.680  26.983  1.00  0.00     0.029 A 
ATOM     66  C   UNL A   1      47.877  32.650  27.426  1.00  0.00     0.049 A 
ATOM     67  H   UNL A   1      45.967  32.413  28.292  1.00  0.00     0.167 HD
ATOM     68  C   UNL A   1      47.085  34.962  27.822  1.00  0.00     0.074 A 
ATOM     69  C   UNL A   1      47.258  36.398  27.816  1.00  0.00     0.031 C 
ATOM     70  C   UNL A   1      48.034  34.081  27.422  1.00  0.00     0.037 A 
BRANCH  57  71
ATOM     71  C   UNL A   1      46.405  28.180  28.111  1.00  0.00     0.064 A 
ATOM     72  C   UNL A   1      47.065  27.504  29.148  1.00  0.00     0.173 A 
ATOM     73  C   UNL A   1      46.066  27.454  26.961  1.00  0.00     0.173 A 
ATOM     74  F   UNL A   1      47.427  28.162  30.260  1.00  0.00    -0.203 F 
ATOM     75  C   UNL A   1      47.380  26.153  29.033  1.00  0.00     0.198 A 
ATOM     76  C   UNL A   1      46.360  26.097  26.859  1.00  0.00     0.198 A 
ATOM     77  F   UNL A   1      45.435  28.058  25.942  1.00  0.00    -0.203 F 
ATOM     78  F   UNL A   1      48.036  25.533  30.022  1.00  0.00    -0.200 F 
ATOM     79  C   UNL A   1      47.018  25.450  27.893  1.00  0.00     0.200 A 
ATOM     80  F   UNL A   1      46.003  25.417  25.761  1.00  0.00    -0.200 F 
ATOM     81  F   UNL A   1      47.309  24.145  27.789  1.00  0.00    -0.200 F 
ENDBRANCH  57  71
BRANCH  58  82
ATOM     82  C   UNL A   1      43.541  37.645  29.348  1.00  0.00     0.064 A 
ATOM     83  C   UNL A   1      42.883  38.393  28.361  1.00  0.00     0.173 A 
ATOM     84  C   UNL A   1      43.896  38.304  30.534  1.00  0.00     0.173 A 
ATOM     85  F   UNL A   1      42.551  37.819  27.196  1.00  0.00    -0.203 F 
ATOM     86  C   UNL A   1      42.620  39.751  28.541  1.00  0.00     0.198 A 
ATOM     87  C   UNL A   1      43.606  39.655  30.725  1.00  0.00     0.198 A 
ATOM     88  F   UNL A   1      44.536  37.639  31.507  1.00  0.00    -0.203 F 
ATOM     89  F   UNL A   1      42.045  40.456  27.555  1.00  0.00    -0.200 F 
ATOM     90  C   UNL A   1      42.978  40.380  29.723  1.00  0.00     0.200 A 
ATOM     91  F   UNL A   1      43.948  40.256  31.872  1.00  0.00    -0.200 F 
ATOM     92  F   UNL A   1      42.733  41.686  29.892  1.00  0.00    -0.200 F 
ENDBRANCH  58  82
BRANCH  70  93
ATOM     93  C   UNL A   1      49.336  34.637  26.923  1.00  0.00     0.064 A 
ATOM     94  C   UNL A   1      49.482  35.095  25.605  1.00  0.00     0.173 A 
ATOM     95  C   UNL A   1      50.434  34.764  27.787  1.00  0.00     0.173 A 
ATOM     96  F   UNL A   1      48.465  34.983  24.736  1.00  0.00    -0.203 F 
ATOM     97  C   UNL A   1      50.684  35.641  25.166  1.00  0.00     0.198 A 
ATOM     98  C   UNL A   1      51.626  35.337  27.353  1.00  0.00     0.198 A 
ATOM     99  F   UNL A   1      50.345  34.348  29.060  1.00  0.00    -0.203 F 
ATOM    100  F   UNL A   1      50.813  36.035  23.891  1.00  0.00    -0.200 F 
ATOM    101  C   UNL A   1      51.753  35.770  26.042  1.00  0.00     0.200 A 
ATOM    102  F   UNL A   1      52.652  35.475  28.205  1.00  0.00    -0.200 F 
ATOM    103  F   UNL A   1      52.906  36.306  25.619  1.00  0.00    -0.200 F 
ENDBRANCH  70  93
ENDBRANCH  44  45
ENDBRANCH  37  39
ENDBRANCH  36  37
ENDBRANCH  35  36
ENDBRANCH  34  35
ENDBRANCH  33  34
ENDBRANCH  32  33
ENDBRANCH  31  32
ENDBRANCH  30  31
ENDBRANCH   1  30
TORSDOF 23
ENDMDL
MODEL 3
REMARK VINA RESULT:      -9.7      1.899      3.158
REMARK SMILES O=C(OCCOCCOCCOCCOC(=O)c1ccc(-c2c3nc(c(-c4c(F)c(F)c(F)c(F)c4F)c4ccc([nH]4)c(-c4c(F)c(F)c(F)c(F)c4F)c4nc(c(-c5c(F)c(F)c(F)c(F)c5F)c5ccc2[nH]5)C=C4)C=C3)cc1)c1ccc(NS(=O)(=O)C2=Cc3ccccc3CC2)cc1
REMARK SMILES IDX 8 1 7 2 6 3 5 4 4 5 3 6 2 7 1 8 81 9 82 10 100 11 83 12
REMARK SMILES IDX 99 13 84 14 85 15 86 17 87 18 88 19 89 20 90 21 98 22 91 23
REMARK SMILES IDX 97 24 92 25 96 26 93 27 95 28 94 29 9 30 10 31 11 32 12 33
REMARK SMILES IDX 13 34 14 35 15 36 16 37 17 38 18 39 19 40 80 41 20 42 79 43
REMARK SMILES IDX 21 44 22 45 23 46 73 47 24 48 78 49 72 50 74 51 25 52 77 53
REMARK SMILES IDX 71 54 70 55 26 57 58 58 38 59 57 60 39 61 42 62 56 63 75 64
REMARK SMILES IDX 40 65 41 66 55 68 76 69 43 70 27 71 28 72 36 73 29 74 30 75
REMARK SMILES IDX 34 76 37 77 31 78 32 79 35 80 33 81 59 82 60 83 68 84 61 85
REMARK SMILES IDX 62 86 66 87 69 88 63 89 64 90 67 91 65 92 44 93 45 94 53 95
REMARK SMILES IDX 46 96 47 97 51 98 54 99 48 100 49 101 52 102 50 103
REMARK H PARENT 85 16 74 56 42 67
REMARK Flexibility Score: inf
ROOT
ATOM      1  C   UNL A   1      38.059  30.695  28.946  1.00  0.00     0.188 C 
ENDROOT
BRANCH   1   2
ATOM      2  C   UNL A   1      37.522  29.536  28.102  1.00  0.00     0.188 C 
BRANCH   2   3
ATOM      3  O   UNL A   1      36.530  29.978  27.173  1.00  0.00    -0.376 OA
BRANCH   3   4
ATOM      4  C   UNL A   1      35.198  30.051  27.655  1.00  0.00     0.202 C 
BRANCH   4   5
ATOM      5  C   UNL A   1      34.486  31.404  27.624  1.00  0.00     0.261 C 
BRANCH   5   6
ATOM      6  O   UNL A   1      33.051  31.443  27.741  1.00  0.00    -0.460 OA
BRANCH   6   7
ATOM      7  C   UNL A   1      32.064  31.146  26.870  1.00  0.00     0.338 C 
ATOM      8  O   UNL A   1      31.266  32.018  26.540  1.00  0.00    -0.246 OA
BRANCH   7   9
ATOM      9  C   UNL A   1      31.851  29.768  26.365  1.00  0.00     0.060 A 
ATOM     10  C   UNL A   1      31.799  28.642  27.177  1.00  0.00     0.018 A 
ATOM     11  C   UNL A   1      31.735  29.602  24.977  1.00  0.00     0.018 A 
ATOM     12  C   UNL A   1      31.455  27.404  26.626  1.00  0.00     0.027 A 
ATOM     13  C   UNL A   1      31.380  28.364  24.435  1.00  0.00     0.027 A 
ATOM     14  C   UNL A   1      31.150  27.275  25.274  1.00  0.00     0.049 A 
BRANCH  14  15
ATOM     15  N   UNL A   1      30.493  26.153  24.701  1.00  0.00    -0.280 N 
ATOM     16  H   UNL A   1      29.514  26.206  24.604  1.00  0.00     0.180 HD
BRANCH  15  17
ATOM     17  S   UNL A   1      31.235  24.742  24.173  1.00  0.00     0.258 S 
ATOM     18  O   UNL A   1      31.653  24.109  25.411  1.00  0.00    -0.202 OA
ATOM     19  O   UNL A   1      30.277  24.069  23.320  1.00  0.00    -0.202 OA
BRANCH  17  20
ATOM     20  C   UNL A   1      32.683  25.214  23.225  1.00  0.00     0.066 C 
ATOM     21  C   UNL A   1      33.784  25.489  23.966  1.00  0.00     0.026 C 
ATOM     22  C   UNL A   1      33.012  24.342  22.026  1.00  0.00     0.055 C 
ATOM     23  C   UNL A   1      34.518  24.261  24.405  1.00  0.00    -0.021 A 
ATOM     24  C   UNL A   1      33.466  22.950  22.489  1.00  0.00     0.041 C 
ATOM     25  C   UNL A   1      35.400  24.329  25.483  1.00  0.00     0.008 A 
ATOM     26  C   UNL A   1      34.317  23.028  23.739  1.00  0.00    -0.040 A 
ATOM     27  C   UNL A   1      36.013  23.166  25.954  1.00  0.00     0.001 A 
ATOM     28  C   UNL A   1      34.895  21.863  24.253  1.00  0.00     0.004 A 
ATOM     29  C   UNL A   1      35.735  21.934  25.362  1.00  0.00     0.000 A 
ENDBRANCH  17  20
ENDBRANCH  15  17
ENDBRANCH  14  15
ENDBRANCH   7   9
ENDBRANCH   6   7
ENDBRANCH   5   6
ENDBRANCH   4   5
ENDBRANCH   3   4
ENDBRANCH   2   3
ENDBRANCH   1   2
BRANCH   1  30
ATOM     30  O   UNL A   1      37.998  30.505  30.360  1.00  0.00    -0.377 OA
BRANCH  30  31
ATOM     31  C   UNL A   1      36.782  30.002  30.897  1.00  0.00     0.188 C 
BRANCH  31  32
ATOM     32  C   UNL A   1      36.039  30.854  31.943  1.00  0.00     0.188 C 
BRANCH  32  33
ATOM     33  O   UNL A   1      35.251  31.898  31.393  1.00  0.00    -0.376 OA
BRANCH  33  34
ATOM     34  C   UNL A   1      35.074  33.049  32.211  1.00  0.00     0.202 C 
BRANCH  34  35
ATOM     35  C   UNL A   1      36.294  33.973  32.355  1.00  0.00     0.261 C 
BRANCH  35  36
ATOM     36  O   UNL A   1      37.435  33.392  33.011  1.00  0.00    -0.460 OA
BRANCH  36  37
ATOM     37  C   UNL A   1      38.552  34.140  33.136  1.00  0.00     0.338 C 
ATOM     38  O   UNL A   1      38.751  35.041  33.930  1.00  0.00    -0.246 OA
BRANCH  37  39
ATOM     39  C   UNL A   1      39.595  33.506  32.290  1.00  0.00     0.060 A 
ATOM     40  C   UNL A   1      40.461  32.574  32.878  1.00  0.00     0.016 A 
ATOM     41  C   UNL A   1      39.646  33.736  30.911  1.00  0.00     0.016 A 
ATOM     42  C   UNL A   1      41.373  31.869  32.087  1.00  0.00     0.010 A 
ATOM     43  C   UNL A   1      40.574  33.046  30.124  1.00  0.00     0.010 A 
ATOM     44  C   UNL A   1      41.451  32.116  30.709  1.00  0.00    -0.014 A 
BRANCH  44  45
ATOM     45  C   UNL A   1      42.558  31.541  29.904  1.00  0.00     0.031 A 
ATOM     46  C   UNL A   1      42.399  30.143  29.377  1.00  0.00     0.074 A 
ATOM     47  C   UNL A   1      43.689  32.228  29.656  1.00  0.00     0.049 A 
ATOM     48  N   UNL A   1      43.247  29.401  28.710  1.00  0.00    -0.248 NA
ATOM     49  C   UNL A   1      41.106  29.490  29.642  1.00  0.00     0.031 C 
ATOM     50  C   UNL A   1      43.960  33.598  30.084  1.00  0.00     0.029 A 
ATOM     51  N   UNL A   1      44.833  31.851  28.991  1.00  0.00    -0.354 N 
ATOM     52  C   UNL A   1      42.592  28.200  28.477  1.00  0.00     0.074 A 
ATOM     53  C   UNL A   1      41.284  28.300  29.088  1.00  0.00     0.031 C 
ATOM     54  C   UNL A   1      45.203  33.940  29.693  1.00  0.00     0.029 A 
ATOM     55  C   UNL A   1      45.825  32.801  29.014  1.00  0.00     0.049 A 
ATOM     56  H   UNL A   1      44.931  30.981  28.542  1.00  0.00     0.167 HD
ATOM     57  C   UNL A   1      43.037  27.111  27.811  1.00  0.00     0.037 A 
ATOM     58  C   UNL A   1      47.096  32.744  28.567  1.00  0.00     0.037 A 
ATOM     59  C   UNL A   1      44.339  27.001  27.209  1.00  0.00     0.049 A 
ATOM     60  C   UNL A   1      47.596  31.483  27.902  1.00  0.00     0.074 A 
ATOM     61  C   UNL A   1      44.864  25.948  26.480  1.00  0.00     0.029 A 
ATOM     62  N   UNL A   1      45.324  27.971  27.282  1.00  0.00    -0.354 N 
ATOM     63  N   UNL A   1      46.952  30.373  27.637  1.00  0.00    -0.248 NA
ATOM     64  C   UNL A   1      49.007  31.466  27.482  1.00  0.00     0.031 C 
ATOM     65  C   UNL A   1      46.188  26.260  26.159  1.00  0.00     0.029 A 
ATOM     66  C   UNL A   1      46.470  27.526  26.644  1.00  0.00     0.049 A 
ATOM     67  H   UNL A   1      45.226  28.846  27.723  1.00  0.00     0.167 HD
ATOM     68  C   UNL A   1      47.866  29.539  27.003  1.00  0.00     0.074 A 
ATOM     69  C   UNL A   1      49.107  30.277  26.904  1.00  0.00     0.031 C 
ATOM     70  C   UNL A   1      47.697  28.274  26.549  1.00  0.00     0.037 A 
BRANCH  57  71
ATOM     71  C   UNL A   1      42.120  25.931  27.716  1.00  0.00     0.064 A 
ATOM     72  C   UNL A   1      41.055  25.902  26.803  1.00  0.00     0.173 A 
ATOM     73  C   UNL A   1      42.344  24.795  28.507  1.00  0.00     0.173 A 
ATOM     74  F   UNL A   1      40.792  26.972  26.039  1.00  0.00    -0.203 F 
ATOM     75  C   UNL A   1      40.241  24.778  26.693  1.00  0.00     0.198 A 
ATOM     76  C   UNL A   1      41.542  23.665  28.377  1.00  0.00     0.198 A 
ATOM     77  F   UNL A   1      43.349  24.777  29.395  1.00  0.00    -0.203 F 
ATOM     78  F   UNL A   1      39.211  24.781  25.837  1.00  0.00    -0.200 F 
ATOM     79  C   UNL A   1      40.491  23.658  27.473  1.00  0.00     0.200 A 
ATOM     80  F   UNL A   1      41.791  22.581  29.125  1.00  0.00    -0.200 F 
ATOM     81  F   UNL A   1      39.715  22.572  27.356  1.00  0.00    -0.200 F 
ENDBRANCH  57  71
BRANCH  58  82
ATOM     82  C   UNL A   1      48.021  33.894  28.764  1.00  0.00     0.064 A 
ATOM     83  C   UNL A   1      48.166  34.887  27.784  1.00  0.00     0.173 A 
ATOM     84  C   UNL A   1      48.830  33.986  29.906  1.00  0.00     0.173 A 
ATOM     85  F   UNL A   1      47.439  34.827  26.658  1.00  0.00    -0.203 F 
ATOM     86  C   UNL A   1      49.103  35.909  27.925  1.00  0.00     0.198 A 
ATOM     87  C   UNL A   1      49.746  35.026  30.060  1.00  0.00     0.198 A 
ATOM     88  F   UNL A   1      48.740  33.058  30.870  1.00  0.00    -0.203 F 
ATOM     89  F   UNL A   1      49.264  36.809  26.944  1.00  0.00    -0.200 F 
ATOM     90  C   UNL A   1      49.890  35.980  29.064  1.00  0.00     0.200 A 
ATOM     91  F   UNL A   1      50.499  35.094  31.166  1.00  0.00    -0.200 F 
ATOM     92  F   UNL A   1      50.796  36.958  29.197  1.00  0.00    -0.200 F 
ENDBRANCH  58  82
BRANCH  70  93
ATOM     93  C   UNL A   1      48.867  27.609  25.884  1.00  0.00     0.064 A 
ATOM     94  C   UNL A   1      48.961  27.515  24.487  1.00  0.00     0.173 A 
ATOM     95  C   UNL A   1      49.931  27.108  26.648  1.00  0.00     0.173 A 
ATOM     96  F   UNL A   1      47.963  27.967  23.712  1.00  0.00    -0.203 F 
ATOM     97  C   UNL A   1      50.069  26.929  23.882  1.00  0.00     0.198 A 
ATOM     98  C   UNL A   1      51.051  26.548  26.040  1.00  0.00     0.198 A 
ATOM     99  F   UNL A   1      49.895  27.180  27.988  1.00  0.00    -0.203 F 
ATOM    100  F   UNL A   1      50.119  26.814  22.548  1.00  0.00    -0.200 F 
ATOM    101  C   UNL A   1      51.117  26.453  24.658  1.00  0.00     0.200 A 
ATOM    102  F   UNL A   1      52.069  26.103  26.790  1.00  0.00    -0.200 F 
ATOM    103  F   UNL A   1      52.187  25.898  24.073  1.00  0.00    -0.200 F 
ENDBRANCH  70  93
ENDBRANCH  44  45
ENDBRANCH  37  39
ENDBRANCH  36  37
ENDBRANCH  35  36
ENDBRANCH  34  35
ENDBRANCH  33  34
ENDBRANCH  32  33
ENDBRANCH  31  32
ENDBRANCH  30  31
ENDBRANCH   1  30
TORSDOF 23
ENDMDL
