MODEL 1
REMARK VINA RESULT:     -10.7      0.000      0.000
REMARK SMILES Cc1c(Cl)cccc1S(=O)(=O)N[C@H]1C=C[C@@H](C(=O)OCCOCCOCCOCCOC(=O)c2ccc(-c3c4nc(c(-c5c(F)c(F)c(F)c(F)c5F)c5ccc([nH]5)c(-c5c(F)c(F)c(F)c(F)c5F)c5nc(c(-c6c(F)c(F)c(F)c(F)c6F)c6ccc3[nH]6)C=C5)C=C4)cc2)C1
REMARK SMILES IDX 24 1 23 2 22 3 21 4 20 5 19 6 17 7 18 8 16 9 13 10 14 11
REMARK SMILES IDX 97 12 15 13 12 14 9 16 10 17 11 18 8 19 1 20 2 21 3 22 4 23
REMARK SMILES IDX 5 24 7 25 6 26 25 27 26 28 27 29 28 30 29 31 30 32 31 33
REMARK SMILES IDX 32 34 33 35 34 36 35 37 96 38 36 39 95 40 37 41 38 42 39 43
REMARK SMILES IDX 89 44 40 45 94 46 88 47 90 48 41 49 93 50 87 51 86 52 42 54
REMARK SMILES IDX 74 55 54 56 73 57 55 58 58 59 72 60 91 61 56 62 57 63 71 65
REMARK SMILES IDX 92 66 59 67 43 68 44 69 52 70 45 71 46 72 50 73 53 74 47 75
REMARK SMILES IDX 48 76 51 77 49 78 75 79 76 80 84 81 77 82 78 83 82 84 85 85
REMARK SMILES IDX 79 86 80 87 83 88 81 89 60 90 61 91 69 92 62 93 63 94 67 95
REMARK SMILES IDX 70 96 64 97 65 98 68 99 66 100
REMARK H PARENT 12 15 90 53 58 64
REMARK Flexibility Score: inf
ROOT
ATOM      1  C   UNL A   1      32.342  26.430  26.446  1.00  0.00     0.188 C 
ENDROOT
BRANCH   1   2
ATOM      2  C   UNL A   1      31.855  25.031  26.043  1.00  0.00     0.188 C 
BRANCH   2   3
ATOM      3  O   UNL A   1      30.681  24.495  26.634  1.00  0.00    -0.376 OA
BRANCH   3   4
ATOM      4  C   UNL A   1      30.489  23.087  26.645  1.00  0.00     0.202 C 
BRANCH   4   5
ATOM      5  C   UNL A   1      31.675  22.155  26.344  1.00  0.00     0.261 C 
BRANCH   5   6
ATOM      6  O   UNL A   1      31.444  21.082  25.402  1.00  0.00    -0.463 OA
BRANCH   6   7
ATOM      7  C   UNL A   1      32.565  20.490  24.911  1.00  0.00     0.312 C 
ATOM      8  O   UNL A   1      33.118  19.528  25.440  1.00  0.00    -0.252 OA
BRANCH   7   9
ATOM      9  C   UNL A   1      33.162  21.138  23.658  1.00  0.00     0.123 C 
ATOM     10  C   UNL A   1      32.958  23.200  22.285  1.00  0.00     0.093 C 
ATOM     11  C   UNL A   1      34.024  23.304  23.330  1.00  0.00    -0.011 C 
ATOM     12  C   UNL A   1      32.276  21.859  22.632  1.00  0.00     0.043 C 
ATOM     13  C   UNL A   1      34.132  22.202  24.077  1.00  0.00    -0.015 C 
BRANCH  10  14
ATOM     14  N   UNL A   1      32.061  24.343  22.474  1.00  0.00    -0.204 NA
ATOM     15  H   UNL A   1      31.135  24.036  22.177  1.00  0.00     0.142 HD
BRANCH  14  16
ATOM     16  S   UNL A   1      32.347  25.814  21.702  1.00  0.00     0.241 S 
ATOM     17  O   UNL A   1      31.510  25.885  20.527  1.00  0.00    -0.207 OA
ATOM     18  O   UNL A   1      33.785  25.950  21.632  1.00  0.00    -0.207 OA
BRANCH  16  19
ATOM     19  C   UNL A   1      31.794  27.083  22.817  1.00  0.00     0.086 A 
ATOM     20  C   UNL A   1      29.577  25.969  23.493  1.00  0.00     0.047 C 
ATOM     21  C   UNL A   1      30.493  27.141  23.296  1.00  0.00    -0.012 A 
ATOM     22  C   UNL A   1      30.048  28.418  23.628  1.00  0.00     0.045 A 
ATOM     23  Cl  UNL A   1      28.782  29.017  22.615  1.00  0.00    -0.084 Cl
ATOM     24  C   UNL A   1      30.912  29.425  24.046  1.00  0.00     0.021 A 
ATOM     25  C   UNL A   1      32.682  28.147  23.078  1.00  0.00     0.022 A 
ATOM     26  C   UNL A   1      32.262  29.272  23.793  1.00  0.00     0.003 A 
ENDBRANCH  16  19
ENDBRANCH  14  16
ENDBRANCH  10  14
ENDBRANCH   7   9
ENDBRANCH   6   7
ENDBRANCH   5   6
ENDBRANCH   4   5
ENDBRANCH   3   4
ENDBRANCH   2   3
ENDBRANCH   1   2
BRANCH   1  27
ATOM     27  O   UNL A   1      31.424  27.171  27.222  1.00  0.00    -0.377 OA
BRANCH  27  28
ATOM     28  C   UNL A   1      31.752  28.501  27.594  1.00  0.00     0.188 C 
BRANCH  28  29
ATOM     29  C   UNL A   1      33.091  29.101  27.152  1.00  0.00     0.188 C 
BRANCH  29  30
ATOM     30  O   UNL A   1      33.778  30.012  28.005  1.00  0.00    -0.376 OA
BRANCH  30  31
ATOM     31  C   UNL A   1      34.041  31.350  27.595  1.00  0.00     0.202 C 
BRANCH  31  32
ATOM     32  C   UNL A   1      32.930  32.401  27.679  1.00  0.00     0.261 C 
BRANCH  32  33
ATOM     33  O   UNL A   1      33.415  33.745  27.503  1.00  0.00    -0.460 OA
BRANCH  33  34
ATOM     34  C   UNL A   1      33.345  34.521  28.605  1.00  0.00     0.338 C 
ATOM     35  O   UNL A   1      32.425  35.252  28.933  1.00  0.00    -0.246 OA
BRANCH  34  36
ATOM     36  C   UNL A   1      34.493  34.279  29.497  1.00  0.00     0.060 A 
ATOM     37  C   UNL A   1      35.758  34.570  28.979  1.00  0.00     0.016 A 
ATOM     38  C   UNL A   1      34.362  33.621  30.723  1.00  0.00     0.016 A 
ATOM     39  C   UNL A   1      36.899  34.114  29.632  1.00  0.00     0.010 A 
ATOM     40  C   UNL A   1      35.514  33.165  31.382  1.00  0.00     0.010 A 
ATOM     41  C   UNL A   1      36.784  33.352  30.803  1.00  0.00    -0.014 A 
BRANCH  41  42
ATOM     42  C   UNL A   1      37.979  32.597  31.267  1.00  0.00     0.031 A 
ATOM     43  C   UNL A   1      38.532  32.876  32.641  1.00  0.00     0.074 A 
ATOM     44  C   UNL A   1      38.493  31.592  30.535  1.00  0.00     0.049 A 
ATOM     45  N   UNL A   1      39.488  32.261  33.296  1.00  0.00    -0.248 NA
ATOM     46  C   UNL A   1      37.925  33.993  33.382  1.00  0.00     0.031 C 
ATOM     47  C   UNL A   1      38.029  31.191  29.210  1.00  0.00     0.029 A 
ATOM     48  N   UNL A   1      39.511  30.714  30.819  1.00  0.00    -0.354 N 
ATOM     49  C   UNL A   1      39.588  32.910  34.519  1.00  0.00     0.074 A 
ATOM     50  C   UNL A   1      38.632  33.995  34.502  1.00  0.00     0.031 C 
ATOM     51  C   UNL A   1      38.755  30.136  28.797  1.00  0.00     0.029 A 
ATOM     52  C   UNL A   1      39.743  29.802  29.821  1.00  0.00     0.049 A 
ATOM     53  H   UNL A   1      40.024  30.737  31.659  1.00  0.00     0.167 HD
ATOM     54  C   UNL A   1      40.388  32.620  35.574  1.00  0.00     0.037 A 
ATOM     55  C   UNL A   1      40.653  28.810  29.742  1.00  0.00     0.037 A 
ATOM     56  C   UNL A   1      41.337  31.539  35.605  1.00  0.00     0.049 A 
ATOM     57  C   UNL A   1      41.578  28.548  30.903  1.00  0.00     0.074 A 
ATOM     58  C   UNL A   1      42.176  31.156  36.639  1.00  0.00     0.029 A 
ATOM     59  N   UNL A   1      41.581  30.671  34.552  1.00  0.00    -0.354 N 
ATOM     60  N   UNL A   1      41.634  29.140  32.071  1.00  0.00    -0.248 NA
ATOM     61  C   UNL A   1      42.562  27.468  30.735  1.00  0.00     0.031 C 
ATOM     62  C   UNL A   1      42.964  30.091  36.192  1.00  0.00     0.029 A 
ATOM     63  C   UNL A   1      42.577  29.772  34.901  1.00  0.00     0.049 A 
ATOM     64  H   UNL A   1      41.116  30.690  33.685  1.00  0.00     0.167 HD
ATOM     65  C   UNL A   1      42.630  28.486  32.786  1.00  0.00     0.074 A 
ATOM     66  C   UNL A   1      43.144  27.441  31.926  1.00  0.00     0.031 C 
ATOM     67  C   UNL A   1      43.077  28.728  34.042  1.00  0.00     0.037 A 
BRANCH  54  68
ATOM     68  C   UNL A   1      40.283  33.498  36.786  1.00  0.00     0.064 A 
ATOM     69  C   UNL A   1      41.097  34.630  36.950  1.00  0.00     0.173 A 
ATOM     70  C   UNL A   1      39.330  33.226  37.778  1.00  0.00     0.173 A 
ATOM     71  F   UNL A   1      42.033  34.926  36.036  1.00  0.00    -0.203 F 
ATOM     72  C   UNL A   1      40.977  35.441  38.076  1.00  0.00     0.198 A 
ATOM     73  C   UNL A   1      39.192  34.056  38.888  1.00  0.00     0.198 A 
ATOM     74  F   UNL A   1      38.523  32.159  37.667  1.00  0.00    -0.203 F 
ATOM     75  F   UNL A   1      41.796  36.489  38.235  1.00  0.00    -0.200 F 
ATOM     76  C   UNL A   1      40.020  35.158  39.039  1.00  0.00     0.200 A 
ATOM     77  F   UNL A   1      38.259  33.788  39.812  1.00  0.00    -0.200 F 
ATOM     78  F   UNL A   1      39.900  35.944  40.119  1.00  0.00    -0.200 F 
ENDBRANCH  54  68
BRANCH  55  79
ATOM     79  C   UNL A   1      40.737  27.977  28.513  1.00  0.00     0.064 A 
ATOM     80  C   UNL A   1      40.062  26.751  28.419  1.00  0.00     0.173 A 
ATOM     81  C   UNL A   1      41.524  28.375  27.423  1.00  0.00     0.173 A 
ATOM     82  F   UNL A   1      39.318  26.315  29.445  1.00  0.00    -0.203 F 
ATOM     83  C   UNL A   1      40.191  25.946  27.289  1.00  0.00     0.198 A 
ATOM     84  C   UNL A   1      41.629  27.582  26.282  1.00  0.00     0.198 A 
ATOM     85  F   UNL A   1      42.193  29.537  27.466  1.00  0.00    -0.203 F 
ATOM     86  F   UNL A   1      39.578  24.754  27.245  1.00  0.00    -0.200 F 
ATOM     87  C   UNL A   1      40.970  26.363  26.220  1.00  0.00     0.200 A 
ATOM     88  F   UNL A   1      42.374  27.995  25.249  1.00  0.00    -0.200 F 
ATOM     89  F   UNL A   1      41.095  25.588  25.135  1.00  0.00    -0.200 F 
ENDBRANCH  55  79
BRANCH  67  90
ATOM     90  C   UNL A   1      44.151  27.827  34.584  1.00  0.00     0.064 A 
ATOM     91  C   UNL A   1      45.514  28.123  34.430  1.00  0.00     0.173 A 
ATOM     92  C   UNL A   1      43.812  26.668  35.301  1.00  0.00     0.173 A 
ATOM     93  F   UNL A   1      45.894  29.211  33.744  1.00  0.00    -0.203 F 
ATOM     94  C   UNL A   1      46.494  27.278  34.945  1.00  0.00     0.198 A 
ATOM     95  C   UNL A   1      44.793  25.842  35.841  1.00  0.00     0.198 A 
ATOM     96  F   UNL A   1      42.524  26.341  35.486  1.00  0.00    -0.203 F 
ATOM     97  F   UNL A   1      47.789  27.555  34.739  1.00  0.00    -0.200 F 
ATOM     98  C   UNL A   1      46.134  26.143  35.655  1.00  0.00     0.200 A 
ATOM     99  F   UNL A   1      44.443  24.755  36.541  1.00  0.00    -0.200 F 
ATOM    100  F   UNL A   1      47.080  25.335  36.154  1.00  0.00    -0.200 F 
ENDBRANCH  67  90
ENDBRANCH  41  42
ENDBRANCH  34  36
ENDBRANCH  33  34
ENDBRANCH  32  33
ENDBRANCH  31  32
ENDBRANCH  30  31
ENDBRANCH  29  30
ENDBRANCH  28  29
ENDBRANCH  27  28
ENDBRANCH   1  27
TORSDOF 23
ENDMDL
MODEL 2
REMARK VINA RESULT:     -10.7      0.730      7.022
REMARK SMILES Cc1c(Cl)cccc1S(=O)(=O)N[C@H]1C=C[C@@H](C(=O)OCCOCCOCCOCCOC(=O)c2ccc(-c3c4nc(c(-c5c(F)c(F)c(F)c(F)c5F)c5ccc([nH]5)c(-c5c(F)c(F)c(F)c(F)c5F)c5nc(c(-c6c(F)c(F)c(F)c(F)c6F)c6ccc3[nH]6)C=C5)C=C4)cc2)C1
REMARK SMILES IDX 24 1 23 2 22 3 21 4 20 5 19 6 17 7 18 8 16 9 13 10 14 11
REMARK SMILES IDX 97 12 15 13 12 14 9 16 10 17 11 18 8 19 1 20 2 21 3 22 4 23
REMARK SMILES IDX 5 24 7 25 6 26 25 27 26 28 27 29 28 30 29 31 30 32 31 33
REMARK SMILES IDX 32 34 33 35 34 36 35 37 96 38 36 39 95 40 37 41 38 42 39 43
REMARK SMILES IDX 89 44 40 45 94 46 88 47 90 48 41 49 93 50 87 51 86 52 42 54
REMARK SMILES IDX 74 55 54 56 73 57 55 58 58 59 72 60 91 61 56 62 57 63 71 65
REMARK SMILES IDX 92 66 59 67 43 68 44 69 52 70 45 71 46 72 50 73 53 74 47 75
REMARK SMILES IDX 48 76 51 77 49 78 75 79 76 80 84 81 77 82 78 83 82 84 85 85
REMARK SMILES IDX 79 86 80 87 83 88 81 89 60 90 61 91 69 92 62 93 63 94 67 95
REMARK SMILES IDX 70 96 64 97 65 98 68 99 66 100
REMARK H PARENT 12 15 90 53 58 64
REMARK Flexibility Score: inf
ROOT
ATOM      1  C   UNL A   1      32.279  26.228  26.507  1.00  0.00     0.188 C 
ENDROOT
BRANCH   1   2
ATOM      2  C   UNL A   1      31.489  25.023  25.979  1.00  0.00     0.188 C 
BRANCH   2   3
ATOM      3  O   UNL A   1      30.521  24.395  26.807  1.00  0.00    -0.376 OA
BRANCH   3   4
ATOM      4  C   UNL A   1      30.483  22.976  26.878  1.00  0.00     0.202 C 
BRANCH   4   5
ATOM      5  C   UNL A   1      31.680  22.156  26.366  1.00  0.00     0.261 C 
BRANCH   5   6
ATOM      6  O   UNL A   1      31.403  21.139  25.375  1.00  0.00    -0.463 OA
BRANCH   6   7
ATOM      7  C   UNL A   1      32.498  20.531  24.846  1.00  0.00     0.312 C 
ATOM      8  O   UNL A   1      33.041  19.547  25.345  1.00  0.00    -0.252 OA
BRANCH   7   9
ATOM      9  C   UNL A   1      33.079  21.187  23.590  1.00  0.00     0.123 C 
ATOM     10  C   UNL A   1      32.912  23.290  22.276  1.00  0.00     0.093 C 
ATOM     11  C   UNL A   1      34.015  23.325  23.287  1.00  0.00    -0.011 C 
ATOM     12  C   UNL A   1      32.189  21.968  22.612  1.00  0.00     0.043 C 
ATOM     13  C   UNL A   1      34.103  22.200  24.002  1.00  0.00    -0.015 C 
BRANCH  10  14
ATOM     14  N   UNL A   1      32.069  24.463  22.523  1.00  0.00    -0.204 NA
ATOM     15  H   UNL A   1      31.114  24.187  22.290  1.00  0.00     0.142 HD
BRANCH  14  16
ATOM     16  S   UNL A   1      32.351  25.924  21.733  1.00  0.00     0.241 S 
ATOM     17  O   UNL A   1      31.402  26.050  20.651  1.00  0.00    -0.207 OA
ATOM     18  O   UNL A   1      33.780  25.986  21.515  1.00  0.00    -0.207 OA
BRANCH  16  19
ATOM     19  C   UNL A   1      31.983  27.209  22.905  1.00  0.00     0.086 A 
ATOM     20  C   UNL A   1      29.577  26.475  23.438  1.00  0.00     0.047 C 
ATOM     21  C   UNL A   1      30.693  27.472  23.344  1.00  0.00    -0.012 A 
ATOM     22  C   UNL A   1      30.467  28.789  23.738  1.00  0.00     0.045 A 
ATOM     23  Cl  UNL A   1      29.372  29.659  22.723  1.00  0.00    -0.084 Cl
ATOM     24  C   UNL A   1      31.477  29.601  24.246  1.00  0.00     0.021 A 
ATOM     25  C   UNL A   1      33.034  28.081  23.259  1.00  0.00     0.022 A 
ATOM     26  C   UNL A   1      32.788  29.222  24.028  1.00  0.00     0.003 A 
ENDBRANCH  16  19
ENDBRANCH  14  16
ENDBRANCH  10  14
ENDBRANCH   7   9
ENDBRANCH   6   7
ENDBRANCH   5   6
ENDBRANCH   4   5
ENDBRANCH   3   4
ENDBRANCH   2   3
ENDBRANCH   1   2
BRANCH   1  27
ATOM     27  O   UNL A   1      31.502  27.183  27.199  1.00  0.00    -0.377 OA
BRANCH  27  28
ATOM     28  C   UNL A   1      32.113  28.391  27.623  1.00  0.00     0.188 C 
BRANCH  28  29
ATOM     29  C   UNL A   1      33.574  28.670  27.253  1.00  0.00     0.188 C 
BRANCH  29  30
ATOM     30  O   UNL A   1      34.284  29.721  27.903  1.00  0.00    -0.376 OA
BRANCH  30  31
ATOM     31  C   UNL A   1      34.326  31.032  27.350  1.00  0.00     0.202 C 
BRANCH  31  32
ATOM     32  C   UNL A   1      33.245  32.050  27.728  1.00  0.00     0.261 C 
BRANCH  32  33
ATOM     33  O   UNL A   1      33.590  33.398  27.358  1.00  0.00    -0.460 OA
BRANCH  33  34
ATOM     34  C   UNL A   1      33.429  34.312  28.339  1.00  0.00     0.338 C 
ATOM     35  O   UNL A   1      32.528  35.127  28.445  1.00  0.00    -0.246 OA
BRANCH  34  36
ATOM     36  C   UNL A   1      34.430  34.126  29.405  1.00  0.00     0.060 A 
ATOM     37  C   UNL A   1      35.772  34.237  29.029  1.00  0.00     0.016 A 
ATOM     38  C   UNL A   1      34.086  33.679  30.684  1.00  0.00     0.016 A 
ATOM     39  C   UNL A   1      36.774  33.803  29.890  1.00  0.00     0.010 A 
ATOM     40  C   UNL A   1      35.099  33.245  31.553  1.00  0.00     0.010 A 
ATOM     41  C   UNL A   1      36.442  33.244  31.132  1.00  0.00    -0.014 A 
BRANCH  41  42
ATOM     42  C   UNL A   1      37.493  32.482  31.860  1.00  0.00     0.031 A 
ATOM     43  C   UNL A   1      38.173  31.328  31.168  1.00  0.00     0.074 A 
ATOM     44  C   UNL A   1      37.928  32.880  33.069  1.00  0.00     0.049 A 
ATOM     45  N   UNL A   1      39.191  30.601  31.563  1.00  0.00    -0.248 NA
ATOM     46  C   UNL A   1      37.642  30.945  29.850  1.00  0.00     0.031 C 
ATOM     47  C   UNL A   1      37.388  34.001  33.832  1.00  0.00     0.029 A 
ATOM     48  N   UNL A   1      38.942  32.391  33.857  1.00  0.00    -0.354 N 
ATOM     49  C   UNL A   1      39.421  29.686  30.544  1.00  0.00     0.074 A 
ATOM     50  C   UNL A   1      38.412  29.914  29.534  1.00  0.00     0.031 C 
ATOM     51  C   UNL A   1      38.082  34.123  34.978  1.00  0.00     0.029 A 
ATOM     52  C   UNL A   1      39.103  33.078  35.034  1.00  0.00     0.049 A 
ATOM     53  H   UNL A   1      39.500  31.622  33.600  1.00  0.00     0.167 HD
ATOM     54  C   UNL A   1      40.397  28.751  30.445  1.00  0.00     0.037 A 
ATOM     55  C   UNL A   1      39.976  32.883  36.043  1.00  0.00     0.037 A 
ATOM     56  C   UNL A   1      41.411  28.520  31.439  1.00  0.00     0.049 A 
ATOM     57  C   UNL A   1      41.011  31.793  35.938  1.00  0.00     0.074 A 
ATOM     58  C   UNL A   1      42.454  27.609  31.413  1.00  0.00     0.029 A 
ATOM     59  N   UNL A   1      41.506  29.201  32.643  1.00  0.00    -0.354 N 
ATOM     60  N   UNL A   1      41.247  30.962  34.952  1.00  0.00    -0.248 NA
ATOM     61  C   UNL A   1      41.911  31.621  37.089  1.00  0.00     0.031 C 
ATOM     62  C   UNL A   1      43.146  27.702  32.625  1.00  0.00     0.029 A 
ATOM     63  C   UNL A   1      42.572  28.710  33.381  1.00  0.00     0.049 A 
ATOM     64  H   UNL A   1      40.905  29.926  32.931  1.00  0.00     0.167 HD
ATOM     65  C   UNL A   1      42.337  30.197  35.347  1.00  0.00     0.074 A 
ATOM     66  C   UNL A   1      42.727  30.670  36.657  1.00  0.00     0.031 C 
ATOM     67  C   UNL A   1      42.960  29.193  34.682  1.00  0.00     0.037 A 
BRANCH  54  68
ATOM     68  C   UNL A   1      40.408  27.890  29.215  1.00  0.00     0.064 A 
ATOM     69  C   UNL A   1      39.639  26.720  29.127  1.00  0.00     0.173 A 
ATOM     70  C   UNL A   1      41.171  28.260  28.097  1.00  0.00     0.173 A 
ATOM     71  F   UNL A   1      38.903  26.315  30.173  1.00  0.00    -0.203 F 
ATOM     72  C   UNL A   1      39.653  25.940  27.973  1.00  0.00     0.198 A 
ATOM     73  C   UNL A   1      41.159  27.493  26.935  1.00  0.00     0.198 A 
ATOM     74  F   UNL A   1      41.921  29.373  28.128  1.00  0.00    -0.203 F 
ATOM     75  F   UNL A   1      38.946  24.802  27.928  1.00  0.00    -0.200 F 
ATOM     76  C   UNL A   1      40.406  26.330  26.877  1.00  0.00     0.200 A 
ATOM     77  F   UNL A   1      41.879  27.879  25.872  1.00  0.00    -0.200 F 
ATOM     78  F   UNL A   1      40.412  25.582  25.765  1.00  0.00    -0.200 F 
ENDBRANCH  54  68
BRANCH  55  79
ATOM     79  C   UNL A   1      39.915  33.746  37.252  1.00  0.00     0.064 A 
ATOM     80  C   UNL A   1      39.063  33.439  38.323  1.00  0.00     0.173 A 
ATOM     81  C   UNL A   1      40.683  34.916  37.344  1.00  0.00     0.173 A 
ATOM     82  F   UNL A   1      38.289  32.345  38.271  1.00  0.00    -0.203 F 
ATOM     83  C   UNL A   1      38.965  34.282  39.428  1.00  0.00     0.198 A 
ATOM     84  C   UNL A   1      40.605  35.743  38.463  1.00  0.00     0.198 A 
ATOM     85  F   UNL A   1      41.511  35.256  36.345  1.00  0.00    -0.203 F 
ATOM     86  F   UNL A   1      38.104  33.993  40.414  1.00  0.00    -0.200 F 
ATOM     87  C   UNL A   1      39.740  35.431  39.499  1.00  0.00     0.200 A 
ATOM     88  F   UNL A   1      41.363  36.845  38.531  1.00  0.00    -0.200 F 
ATOM     89  F   UNL A   1      39.644  36.241  40.561  1.00  0.00    -0.200 F 
ENDBRANCH  55  79
BRANCH  67  90
ATOM     90  C   UNL A   1      44.154  28.560  35.338  1.00  0.00     0.064 A 
ATOM     91  C   UNL A   1      45.454  29.051  35.143  1.00  0.00     0.173 A 
ATOM     92  C   UNL A   1      43.993  27.466  36.205  1.00  0.00     0.173 A 
ATOM     93  F   UNL A   1      45.666  30.085  34.315  1.00  0.00    -0.203 F 
ATOM     94  C   UNL A   1      46.548  28.454  35.765  1.00  0.00     0.198 A 
ATOM     95  C   UNL A   1      45.084  26.892  36.850  1.00  0.00     0.198 A 
ATOM     96  F   UNL A   1      42.772  26.961  36.436  1.00  0.00    -0.203 F 
ATOM     97  F   UNL A   1      47.784  28.908  35.520  1.00  0.00    -0.200 F 
ATOM     98  C   UNL A   1      46.362  27.380  36.622  1.00  0.00     0.200 A 
ATOM     99  F   UNL A   1      44.901  25.865  37.691  1.00  0.00    -0.200 F 
ATOM    100  F   UNL A   1      47.416  26.811  37.224  1.00  0.00    -0.200 F 
ENDBRANCH  67  90
ENDBRANCH  41  42
ENDBRANCH  34  36
ENDBRANCH  33  34
ENDBRANCH  32  33
ENDBRANCH  31  32
ENDBRANCH  30  31
ENDBRANCH  29  30
ENDBRANCH  28  29
ENDBRANCH  27  28
ENDBRANCH   1  27
TORSDOF 23
ENDMDL
MODEL 3
REMARK VINA RESULT:     -10.4      3.497      8.257
REMARK SMILES Cc1c(Cl)cccc1S(=O)(=O)N[C@H]1C=C[C@@H](C(=O)OCCOCCOCCOCCOC(=O)c2ccc(-c3c4nc(c(-c5c(F)c(F)c(F)c(F)c5F)c5ccc([nH]5)c(-c5c(F)c(F)c(F)c(F)c5F)c5nc(c(-c6c(F)c(F)c(F)c(F)c6F)c6ccc3[nH]6)C=C5)C=C4)cc2)C1
REMARK SMILES IDX 24 1 23 2 22 3 21 4 20 5 19 6 17 7 18 8 16 9 13 10 14 11
REMARK SMILES IDX 97 12 15 13 12 14 9 16 10 17 11 18 8 19 1 20 2 21 3 22 4 23
REMARK SMILES IDX 5 24 7 25 6 26 25 27 26 28 27 29 28 30 29 31 30 32 31 33
REMARK SMILES IDX 32 34 33 35 34 36 35 37 96 38 36 39 95 40 37 41 38 42 39 43
REMARK SMILES IDX 89 44 40 45 94 46 88 47 90 48 41 49 93 50 87 51 86 52 42 54
REMARK SMILES IDX 74 55 54 56 73 57 55 58 58 59 72 60 91 61 56 62 57 63 71 65
REMARK SMILES IDX 92 66 59 67 43 68 44 69 52 70 45 71 46 72 50 73 53 74 47 75
REMARK SMILES IDX 48 76 51 77 49 78 75 79 76 80 84 81 77 82 78 83 82 84 85 85
REMARK SMILES IDX 79 86 80 87 83 88 81 89 60 90 61 91 69 92 62 93 63 94 67 95
REMARK SMILES IDX 70 96 64 97 65 98 68 99 66 100
REMARK H PARENT 12 15 90 53 58 64
REMARK Flexibility Score: inf
ROOT
ATOM      1  C   UNL A   1      40.706  20.014  26.859  1.00  0.00     0.188 C 
ENDROOT
BRANCH   1   2
ATOM      2  C   UNL A   1      39.600  19.850  25.806  1.00  0.00     0.188 C 
BRANCH   2   3
ATOM      3  O   UNL A   1      38.407  20.612  25.911  1.00  0.00    -0.376 OA
BRANCH   3   4
ATOM      4  C   UNL A   1      37.573  20.759  24.770  1.00  0.00     0.202 C 
BRANCH   4   5
ATOM      5  C   UNL A   1      36.054  20.920  24.952  1.00  0.00     0.261 C 
BRANCH   5   6
ATOM      6  O   UNL A   1      35.583  22.201  25.432  1.00  0.00    -0.463 OA
BRANCH   6   7
ATOM      7  C   UNL A   1      34.549  22.145  26.312  1.00  0.00     0.312 C 
ATOM      8  O   UNL A   1      34.569  21.488  27.351  1.00  0.00    -0.252 OA
BRANCH   7   9
ATOM      9  C   UNL A   1      33.290  22.918  25.905  1.00  0.00     0.123 C 
ATOM     10  C   UNL A   1      32.566  24.720  24.355  1.00  0.00     0.093 C 
ATOM     11  C   UNL A   1      32.396  23.353  23.772  1.00  0.00    -0.011 C 
ATOM     12  C   UNL A   1      33.326  24.435  25.669  1.00  0.00     0.043 C 
ATOM     13  C   UNL A   1      32.792  22.381  24.598  1.00  0.00    -0.015 C 
BRANCH  10  14
ATOM     14  N   UNL A   1      33.372  25.492  23.405  1.00  0.00    -0.204 NA
ATOM     15  H   UNL A   1      33.896  26.173  23.956  1.00  0.00     0.142 HD
BRANCH  14  16
ATOM     16  S   UNL A   1      32.653  26.350  22.145  1.00  0.00     0.241 S 
ATOM     17  O   UNL A   1      31.547  25.573  21.635  1.00  0.00    -0.207 OA
ATOM     18  O   UNL A   1      33.740  26.791  21.297  1.00  0.00    -0.207 OA
BRANCH  16  19
ATOM     19  C   UNL A   1      31.970  27.825  22.865  1.00  0.00     0.086 A 
ATOM     20  C   UNL A   1      34.079  28.564  24.137  1.00  0.00     0.047 C 
ATOM     21  C   UNL A   1      32.600  28.516  23.890  1.00  0.00    -0.012 A 
ATOM     22  C   UNL A   1      31.745  29.227  24.727  1.00  0.00     0.045 A 
ATOM     23  Cl  UNL A   1      31.669  28.626  26.346  1.00  0.00    -0.084 Cl
ATOM     24  C   UNL A   1      30.524  29.733  24.293  1.00  0.00     0.021 A 
ATOM     25  C   UNL A   1      30.665  28.190  22.475  1.00  0.00     0.022 A 
ATOM     26  C   UNL A   1      29.987  29.225  23.125  1.00  0.00     0.003 A 
ENDBRANCH  16  19
ENDBRANCH  14  16
ENDBRANCH  10  14
ENDBRANCH   7   9
ENDBRANCH   6   7
ENDBRANCH   5   6
ENDBRANCH   4   5
ENDBRANCH   3   4
ENDBRANCH   2   3
ENDBRANCH   1   2
BRANCH   1  27
ATOM     27  O   UNL A   1      40.700  21.258  27.528  1.00  0.00    -0.377 OA
BRANCH  27  28
ATOM     28  C   UNL A   1      41.444  22.336  26.984  1.00  0.00     0.188 C 
BRANCH  28  29
ATOM     29  C   UNL A   1      42.734  22.048  26.207  1.00  0.00     0.188 C 
BRANCH  29  30
ATOM     30  O   UNL A   1      43.998  22.352  26.791  1.00  0.00    -0.376 OA
BRANCH  30  31
ATOM     31  C   UNL A   1      45.174  22.447  25.994  1.00  0.00     0.202 C 
BRANCH  31  32
ATOM     32  C   UNL A   1      45.126  23.198  24.661  1.00  0.00     0.261 C 
BRANCH  32  33
ATOM     33  O   UNL A   1      44.149  24.255  24.645  1.00  0.00    -0.460 OA
BRANCH  33  34
ATOM     34  C   UNL A   1      44.617  25.464  25.022  1.00  0.00     0.338 C 
ATOM     35  O   UNL A   1      45.680  25.973  24.708  1.00  0.00    -0.246 OA
BRANCH  34  36
ATOM     36  C   UNL A   1      43.596  26.215  25.777  1.00  0.00     0.060 A 
ATOM     37  C   UNL A   1      43.954  27.498  26.203  1.00  0.00     0.016 A 
ATOM     38  C   UNL A   1      42.406  25.628  26.213  1.00  0.00     0.016 A 
ATOM     39  C   UNL A   1      43.177  28.158  27.149  1.00  0.00     0.010 A 
ATOM     40  C   UNL A   1      41.621  26.297  27.165  1.00  0.00     0.010 A 
ATOM     41  C   UNL A   1      42.041  27.536  27.685  1.00  0.00    -0.014 A 
BRANCH  41  42
ATOM     42  C   UNL A   1      41.448  28.110  28.925  1.00  0.00     0.031 A 
ATOM     43  C   UNL A   1      42.164  27.913  30.237  1.00  0.00     0.074 A 
ATOM     44  C   UNL A   1      40.359  28.897  28.874  1.00  0.00     0.049 A 
ATOM     45  N   UNL A   1      41.896  28.419  31.417  1.00  0.00    -0.248 NA
ATOM     46  C   UNL A   1      43.345  27.036  30.218  1.00  0.00     0.031 C 
ATOM     47  C   UNL A   1      39.594  29.202  27.668  1.00  0.00     0.029 A 
ATOM     48  N   UNL A   1      39.720  29.599  29.867  1.00  0.00    -0.354 N 
ATOM     49  C   UNL A   1      42.874  27.928  32.271  1.00  0.00     0.074 A 
ATOM     50  C   UNL A   1      43.715  27.047  31.490  1.00  0.00     0.031 C 
ATOM     51  C   UNL A   1      38.592  30.040  27.989  1.00  0.00     0.029 A 
ATOM     52  C   UNL A   1      38.636  30.315  29.424  1.00  0.00     0.049 A 
ATOM     53  H   UNL A   1      40.014  29.590  30.807  1.00  0.00     0.167 HD
ATOM     54  C   UNL A   1      43.071  28.199  33.584  1.00  0.00     0.037 A 
ATOM     55  C   UNL A   1      37.776  31.101  30.101  1.00  0.00     0.037 A 
ATOM     56  C   UNL A   1      42.247  29.079  34.369  1.00  0.00     0.049 A 
ATOM     57  C   UNL A   1      37.978  31.335  31.577  1.00  0.00     0.074 A 
ATOM     58  C   UNL A   1      42.384  29.430  35.702  1.00  0.00     0.029 A 
ATOM     59  N   UNL A   1      41.125  29.741  33.896  1.00  0.00    -0.354 N 
ATOM     60  N   UNL A   1      38.930  30.900  32.365  1.00  0.00    -0.248 NA
ATOM     61  C   UNL A   1      36.984  32.181  32.255  1.00  0.00     0.031 C 
ATOM     62  C   UNL A   1      41.314  30.262  36.048  1.00  0.00     0.029 A 
ATOM     63  C   UNL A   1      40.544  30.476  34.917  1.00  0.00     0.049 A 
ATOM     64  H   UNL A   1      40.791  29.696  32.971  1.00  0.00     0.167 HD
ATOM     65  C   UNL A   1      38.672  31.444  33.617  1.00  0.00     0.074 A 
ATOM     66  C   UNL A   1      37.481  32.254  33.482  1.00  0.00     0.031 C 
ATOM     67  C   UNL A   1      39.362  31.288  34.773  1.00  0.00     0.037 A 
BRANCH  54  68
ATOM     68  C   UNL A   1      44.223  27.520  34.266  1.00  0.00     0.064 A 
ATOM     69  C   UNL A   1      45.487  28.125  34.356  1.00  0.00     0.173 A 
ATOM     70  C   UNL A   1      44.052  26.265  34.868  1.00  0.00     0.173 A 
ATOM     71  F   UNL A   1      45.707  29.318  33.785  1.00  0.00    -0.203 F 
ATOM     72  C   UNL A   1      46.542  27.485  35.003  1.00  0.00     0.198 A 
ATOM     73  C   UNL A   1      45.101  25.642  35.540  1.00  0.00     0.198 A 
ATOM     74  F   UNL A   1      42.862  25.646  34.815  1.00  0.00    -0.203 F 
ATOM     75  F   UNL A   1      47.752  28.060  35.037  1.00  0.00    -0.200 F 
ATOM     76  C   UNL A   1      46.346  26.249  35.600  1.00  0.00     0.200 A 
ATOM     77  F   UNL A   1      44.906  24.453  36.127  1.00  0.00    -0.200 F 
ATOM     78  F   UNL A   1      47.360  25.639  36.229  1.00  0.00    -0.200 F 
ENDBRANCH  54  68
BRANCH  55  79
ATOM     79  C   UNL A   1      36.635  31.737  29.390  1.00  0.00     0.064 A 
ATOM     80  C   UNL A   1      36.611  33.117  29.143  1.00  0.00     0.173 A 
ATOM     81  C   UNL A   1      35.530  30.980  28.975  1.00  0.00     0.173 A 
ATOM     82  F   UNL A   1      37.632  33.888  29.545  1.00  0.00    -0.203 F 
ATOM     83  C   UNL A   1      35.514  33.718  28.530  1.00  0.00     0.198 A 
ATOM     84  C   UNL A   1      34.447  31.578  28.335  1.00  0.00     0.198 A 
ATOM     85  F   UNL A   1      35.503  29.656  29.191  1.00  0.00    -0.203 F 
ATOM     86  F   UNL A   1      35.493  35.047  28.353  1.00  0.00    -0.200 F 
ATOM     87  C   UNL A   1      34.435  32.947  28.122  1.00  0.00     0.200 A 
ATOM     88  F   UNL A   1      33.412  30.828  27.934  1.00  0.00    -0.200 F 
ATOM     89  F   UNL A   1      33.380  33.526  27.533  1.00  0.00    -0.200 F 
ENDBRANCH  55  79
BRANCH  67  90
ATOM     90  C   UNL A   1      38.872  32.036  35.981  1.00  0.00     0.064 A 
ATOM     91  C   UNL A   1      38.088  31.418  36.967  1.00  0.00     0.173 A 
ATOM     92  C   UNL A   1      39.222  33.382  36.174  1.00  0.00     0.173 A 
ATOM     93  F   UNL A   1      37.715  30.137  36.827  1.00  0.00    -0.203 F 
ATOM     94  C   UNL A   1      37.649  32.127  38.083  1.00  0.00     0.198 A 
ATOM     95  C   UNL A   1      38.808  34.079  37.305  1.00  0.00     0.198 A 
ATOM     96  F   UNL A   1      39.977  34.021  35.268  1.00  0.00    -0.203 F 
ATOM     97  F   UNL A   1      36.858  31.529  38.984  1.00  0.00    -0.200 F 
ATOM     98  C   UNL A   1      38.014  33.454  38.255  1.00  0.00     0.200 A 
ATOM     99  F   UNL A   1      39.175  35.356  37.478  1.00  0.00    -0.200 F 
ATOM    100  F   UNL A   1      37.594  34.132  39.332  1.00  0.00    -0.200 F 
ENDBRANCH  67  90
ENDBRANCH  41  42
ENDBRANCH  34  36
ENDBRANCH  33  34
ENDBRANCH  32  33
ENDBRANCH  31  32
ENDBRANCH  30  31
ENDBRANCH  29  30
ENDBRANCH  28  29
ENDBRANCH  27  28
ENDBRANCH   1  27
TORSDOF 23
ENDMDL
