MODEL 1
REMARK VINA RESULT:     -11.0      0.000      0.000
REMARK SMILES COc1c(C(=O)OCCOCCOCCOCCOC(=O)c2ccc(-c3c4nc(c(-c5c(F)c(F)c(F)c(F)c5F)c5ccc([nH]5)c(-c5c(F)c(F)c(F)c(F)c5F)c5nc(c(-c6c(F)c(F)c(F)c(F)c6F)c6ccc3[nH]6)C=C5)C=C4)cc2)cccc1-c1cc(C)ccc1C
REMARK SMILES IDX 14 1 13 2 12 3 11 4 10 5 9 6 8 7 7 8 5 9 6 10 4 11 3 12
REMARK SMILES IDX 88 13 85 14 87 15 86 16 2 17 1 18 89 19 90 20 95 21 91 22
REMARK SMILES IDX 94 23 96 24 92 25 93 26 15 27 16 28 17 29 18 30 19 31 20 32
REMARK SMILES IDX 21 33 22 34 23 35 84 36 24 37 83 38 25 39 26 40 27 41 77 42
REMARK SMILES IDX 28 43 82 44 76 45 78 46 29 47 81 48 75 49 74 50 30 52 62 53
REMARK SMILES IDX 42 54 61 55 43 56 46 57 60 58 79 59 44 60 45 61 59 63 80 64
REMARK SMILES IDX 47 65 31 66 32 67 40 68 33 69 34 70 38 71 41 72 35 73 36 74
REMARK SMILES IDX 39 75 37 76 63 77 64 78 72 79 65 80 66 81 70 82 73 83 67 84
REMARK SMILES IDX 68 85 71 86 69 87 48 88 49 89 57 90 50 91 51 92 55 93 58 94
REMARK SMILES IDX 52 95 53 96 56 97 54 98
REMARK H PARENT 78 51 46 62
REMARK Flexibility Score: inf
ROOT
ATOM      1  C   UNL A   1      33.876  21.277  24.632  1.00  0.00     0.188 C 
ENDROOT
BRANCH   1   2
ATOM      2  O   UNL A   1      33.376  22.359  23.853  1.00  0.00    -0.377 OA
BRANCH   2   3
ATOM      3  C   UNL A   1      33.191  23.633  24.458  1.00  0.00     0.188 C 
BRANCH   3   4
ATOM      4  C   UNL A   1      33.826  24.894  23.827  1.00  0.00     0.188 C 
BRANCH   4   5
ATOM      5  O   UNL A   1      34.013  24.809  22.425  1.00  0.00    -0.376 OA
BRANCH   5   6
ATOM      6  C   UNL A   1      32.887  24.878  21.571  1.00  0.00     0.202 C 
BRANCH   6   7
ATOM      7  C   UNL A   1      32.241  26.241  21.277  1.00  0.00     0.261 C 
BRANCH   7   8
ATOM      8  O   UNL A   1      30.940  26.431  21.834  1.00  0.00    -0.460 OA
BRANCH   8   9
ATOM      9  C   UNL A   1      30.701  27.610  22.447  1.00  0.00     0.342 C 
ATOM     10  O   UNL A   1      30.040  28.535  22.000  1.00  0.00    -0.246 OA
BRANCH   9  11
ATOM     11  C   UNL A   1      31.132  27.517  23.861  1.00  0.00     0.102 A 
ATOM     12  C   UNL A   1      32.194  28.269  24.395  1.00  0.00     0.141 A 
ATOM     13  C   UNL A   1      32.464  28.207  25.782  1.00  0.00     0.025 A 
ATOM     14  C   UNL A   1      30.452  26.582  24.658  1.00  0.00     0.019 A 
ATOM     15  C   UNL A   1      31.800  27.218  26.543  1.00  0.00     0.012 A 
ATOM     16  C   UNL A   1      30.822  26.396  25.984  1.00  0.00     0.002 A 
BRANCH  12  17
ATOM     17  O   UNL A   1      32.857  29.129  23.550  1.00  0.00    -0.495 OA
ATOM     18  C   UNL A   1      34.103  28.604  23.080  1.00  0.00     0.278 C 
ENDBRANCH  12  17
BRANCH  13  19
ATOM     19  C   UNL A   1      33.305  29.198  26.498  1.00  0.00    -0.011 A 
ATOM     20  C   UNL A   1      34.624  28.857  26.873  1.00  0.00     0.012 A 
ATOM     21  C   UNL A   1      32.813  30.470  26.886  1.00  0.00    -0.043 A 
ATOM     22  C   UNL A   1      35.442  29.738  27.597  1.00  0.00    -0.050 A 
ATOM     23  C   UNL A   1      33.662  31.370  27.551  1.00  0.00     0.004 A 
ATOM     24  C   UNL A   1      31.412  30.948  26.596  1.00  0.00     0.045 C 
ATOM     25  C   UNL A   1      36.808  29.308  28.042  1.00  0.00     0.044 C 
ATOM     26  C   UNL A   1      34.957  31.006  27.912  1.00  0.00     0.004 A 
ENDBRANCH  13  19
ENDBRANCH   9  11
ENDBRANCH   8   9
ENDBRANCH   7   8
ENDBRANCH   6   7
ENDBRANCH   5   6
ENDBRANCH   4   5
ENDBRANCH   3   4
ENDBRANCH   2   3
ENDBRANCH   1   2
BRANCH   1  27
ATOM     27  C   UNL A   1      35.185  21.427  25.444  1.00  0.00     0.188 C 
BRANCH  27  28
ATOM     28  O   UNL A   1      36.112  20.367  25.279  1.00  0.00    -0.376 OA
BRANCH  28  29
ATOM     29  C   UNL A   1      37.358  20.670  24.675  1.00  0.00     0.202 C 
BRANCH  29  30
ATOM     30  C   UNL A   1      38.628  20.174  25.382  1.00  0.00     0.261 C 
BRANCH  30  31
ATOM     31  O   UNL A   1      39.645  21.160  25.620  1.00  0.00    -0.460 OA
BRANCH  31  32
ATOM     32  C   UNL A   1      40.408  20.996  26.717  1.00  0.00     0.338 C 
ATOM     33  O   UNL A   1      40.961  19.968  27.087  1.00  0.00    -0.246 OA
BRANCH  32  34
ATOM     34  C   UNL A   1      40.639  22.323  27.319  1.00  0.00     0.060 A 
ATOM     35  C   UNL A   1      39.858  23.403  26.889  1.00  0.00     0.016 A 
ATOM     36  C   UNL A   1      41.633  22.504  28.284  1.00  0.00     0.016 A 
ATOM     37  C   UNL A   1      40.113  24.682  27.376  1.00  0.00     0.010 A 
ATOM     38  C   UNL A   1      41.903  23.792  28.756  1.00  0.00     0.010 A 
ATOM     39  C   UNL A   1      41.179  24.891  28.260  1.00  0.00    -0.014 A 
BRANCH  39  40
ATOM     40  C   UNL A   1      41.687  26.273  28.442  1.00  0.00     0.031 A 
ATOM     41  C   UNL A   1      43.017  26.622  27.830  1.00  0.00     0.074 A 
ATOM     42  C   UNL A   1      40.957  27.217  29.059  1.00  0.00     0.049 A 
ATOM     43  N   UNL A   1      43.651  27.767  27.800  1.00  0.00    -0.248 NA
ATOM     44  C   UNL A   1      43.732  25.525  27.158  1.00  0.00     0.031 C 
ATOM     45  C   UNL A   1      39.636  27.014  29.648  1.00  0.00     0.029 A 
ATOM     46  N   UNL A   1      41.229  28.544  29.281  1.00  0.00    -0.354 N 
ATOM     47  C   UNL A   1      44.836  27.524  27.118  1.00  0.00     0.074 A 
ATOM     48  C   UNL A   1      44.854  26.117  26.785  1.00  0.00     0.031 C 
ATOM     49  C   UNL A   1      39.204  28.182  30.155  1.00  0.00     0.029 A 
ATOM     50  C   UNL A   1      40.231  29.204  29.951  1.00  0.00     0.049 A 
ATOM     51  H   UNL A   1      42.060  28.979  28.986  1.00  0.00     0.167 HD
ATOM     52  C   UNL A   1      45.817  28.396  26.785  1.00  0.00     0.037 A 
ATOM     53  C   UNL A   1      40.161  30.487  30.355  1.00  0.00     0.037 A 
ATOM     54  C   UNL A   1      45.795  29.797  27.118  1.00  0.00     0.049 A 
ATOM     55  C   UNL A   1      41.298  31.425  30.035  1.00  0.00     0.074 A 
ATOM     56  C   UNL A   1      46.727  30.772  26.812  1.00  0.00     0.029 A 
ATOM     57  N   UNL A   1      44.790  30.419  27.845  1.00  0.00    -0.354 N 
ATOM     58  N   UNL A   1      42.401  31.199  29.361  1.00  0.00    -0.248 NA
ATOM     59  C   UNL A   1      41.171  32.806  30.524  1.00  0.00     0.031 C 
ATOM     60  C   UNL A   1      46.323  31.967  27.415  1.00  0.00     0.029 A 
ATOM     61  C   UNL A   1      45.096  31.759  28.026  1.00  0.00     0.049 A 
ATOM     62  H   UNL A   1      43.979  29.974  28.184  1.00  0.00     0.167 HD
ATOM     63  C   UNL A   1      43.075  32.415  29.306  1.00  0.00     0.074 A 
ATOM     64  C   UNL A   1      42.250  33.376  30.009  1.00  0.00     0.031 C 
ATOM     65  C   UNL A   1      44.261  32.710  28.718  1.00  0.00     0.037 A 
BRANCH  52  66
ATOM     66  C   UNL A   1      47.016  27.844  26.069  1.00  0.00     0.064 A 
ATOM     67  C   UNL A   1      47.079  27.760  24.669  1.00  0.00     0.173 A 
ATOM     68  C   UNL A   1      48.122  27.384  26.800  1.00  0.00     0.173 A 
ATOM     69  F   UNL A   1      46.044  28.169  23.920  1.00  0.00    -0.203 F 
ATOM     70  C   UNL A   1      48.183  27.198  24.032  1.00  0.00     0.198 A 
ATOM     71  C   UNL A   1      49.241  26.858  26.158  1.00  0.00     0.198 A 
ATOM     72  F   UNL A   1      48.120  27.441  28.140  1.00  0.00    -0.203 F 
ATOM     73  F   UNL A   1      48.189  27.063  22.698  1.00  0.00    -0.200 F 
ATOM     74  C   UNL A   1      49.265  26.752  24.776  1.00  0.00     0.200 A 
ATOM     75  F   UNL A   1      50.291  26.443  26.880  1.00  0.00    -0.200 F 
ATOM     76  F   UNL A   1      50.326  26.213  24.163  1.00  0.00    -0.200 F 
ENDBRANCH  52  66
BRANCH  53  77
ATOM     77  C   UNL A   1      38.961  30.975  31.087  1.00  0.00     0.064 A 
ATOM     78  C   UNL A   1      37.953  31.692  30.426  1.00  0.00     0.173 A 
ATOM     79  C   UNL A   1      38.809  30.756  32.464  1.00  0.00     0.173 A 
ATOM     80  F   UNL A   1      38.065  31.951  29.115  1.00  0.00    -0.203 F 
ATOM     81  C   UNL A   1      36.850  32.186  31.118  1.00  0.00     0.198 A 
ATOM     82  C   UNL A   1      37.689  31.224  33.148  1.00  0.00     0.198 A 
ATOM     83  F   UNL A   1      39.747  30.081  33.145  1.00  0.00    -0.203 F 
ATOM     84  F   UNL A   1      35.926  32.912  30.472  1.00  0.00    -0.200 F 
ATOM     85  C   UNL A   1      36.715  31.947  32.477  1.00  0.00     0.200 A 
ATOM     86  F   UNL A   1      37.558  30.981  34.460  1.00  0.00    -0.200 F 
ATOM     87  F   UNL A   1      35.651  32.420  33.141  1.00  0.00    -0.200 F 
ENDBRANCH  53  77
BRANCH  65  88
ATOM     88  C   UNL A   1      44.710  34.147  28.746  1.00  0.00     0.064 A 
ATOM     89  C   UNL A   1      45.571  34.643  29.735  1.00  0.00     0.173 A 
ATOM     90  C   UNL A   1      44.278  35.038  27.750  1.00  0.00     0.173 A 
ATOM     91  F   UNL A   1      46.009  33.839  30.716  1.00  0.00    -0.203 F 
ATOM     92  C   UNL A   1      45.942  35.986  29.754  1.00  0.00     0.198 A 
ATOM     93  C   UNL A   1      44.684  36.368  27.748  1.00  0.00     0.198 A 
ATOM     94  F   UNL A   1      43.463  34.616  26.770  1.00  0.00    -0.203 F 
ATOM     95  F   UNL A   1      46.707  36.453  30.751  1.00  0.00    -0.200 F 
ATOM     96  C   UNL A   1      45.504  36.845  28.759  1.00  0.00     0.200 A 
ATOM     97  F   UNL A   1      44.275  37.192  26.773  1.00  0.00    -0.200 F 
ATOM     98  F   UNL A   1      45.864  38.136  28.778  1.00  0.00    -0.200 F 
ENDBRANCH  65  88
ENDBRANCH  39  40
ENDBRANCH  32  34
ENDBRANCH  31  32
ENDBRANCH  30  31
ENDBRANCH  29  30
ENDBRANCH  28  29
ENDBRANCH  27  28
ENDBRANCH   1  27
TORSDOF 22
ENDMDL
MODEL 2
REMARK VINA RESULT:     -10.6      4.112     10.020
REMARK SMILES COc1c(C(=O)OCCOCCOCCOCCOC(=O)c2ccc(-c3c4nc(c(-c5c(F)c(F)c(F)c(F)c5F)c5ccc([nH]5)c(-c5c(F)c(F)c(F)c(F)c5F)c5nc(c(-c6c(F)c(F)c(F)c(F)c6F)c6ccc3[nH]6)C=C5)C=C4)cc2)cccc1-c1cc(C)ccc1C
REMARK SMILES IDX 14 1 13 2 12 3 11 4 10 5 9 6 8 7 7 8 5 9 6 10 4 11 3 12
REMARK SMILES IDX 88 13 85 14 87 15 86 16 2 17 1 18 89 19 90 20 95 21 91 22
REMARK SMILES IDX 94 23 96 24 92 25 93 26 15 27 16 28 17 29 18 30 19 31 20 32
REMARK SMILES IDX 21 33 22 34 23 35 84 36 24 37 83 38 25 39 26 40 27 41 77 42
REMARK SMILES IDX 28 43 82 44 76 45 78 46 29 47 81 48 75 49 74 50 30 52 62 53
REMARK SMILES IDX 42 54 61 55 43 56 46 57 60 58 79 59 44 60 45 61 59 63 80 64
REMARK SMILES IDX 47 65 31 66 32 67 40 68 33 69 34 70 38 71 41 72 35 73 36 74
REMARK SMILES IDX 39 75 37 76 63 77 64 78 72 79 65 80 66 81 70 82 73 83 67 84
REMARK SMILES IDX 68 85 71 86 69 87 48 88 49 89 57 90 50 91 51 92 55 93 58 94
REMARK SMILES IDX 52 95 53 96 56 97 54 98
REMARK H PARENT 78 51 46 62
REMARK Flexibility Score: inf
ROOT
ATOM      1  C   UNL A   1      33.276  29.097  25.302  1.00  0.00     0.188 C 
ENDROOT
BRANCH   1   2
ATOM      2  O   UNL A   1      32.833  28.164  24.322  1.00  0.00    -0.377 OA
BRANCH   2   3
ATOM      3  C   UNL A   1      32.488  28.622  23.020  1.00  0.00     0.188 C 
BRANCH   3   4
ATOM      4  C   UNL A   1      31.093  29.234  22.754  1.00  0.00     0.188 C 
BRANCH   4   5
ATOM      5  O   UNL A   1      30.135  28.306  22.278  1.00  0.00    -0.376 OA
BRANCH   5   6
ATOM      6  C   UNL A   1      28.999  28.016  23.068  1.00  0.00     0.202 C 
BRANCH   6   7
ATOM      7  C   UNL A   1      28.970  26.733  23.914  1.00  0.00     0.261 C 
BRANCH   7   8
ATOM      8  O   UNL A   1      30.016  26.616  24.879  1.00  0.00    -0.460 OA
BRANCH   8   9
ATOM      9  C   UNL A   1      30.373  25.368  25.249  1.00  0.00     0.342 C 
ATOM     10  O   UNL A   1      29.715  24.603  25.938  1.00  0.00    -0.246 OA
BRANCH   9  11
ATOM     11  C   UNL A   1      31.566  24.956  24.473  1.00  0.00     0.102 A 
ATOM     12  C   UNL A   1      32.772  24.550  25.070  1.00  0.00     0.141 A 
ATOM     13  C   UNL A   1      33.822  24.061  24.258  1.00  0.00     0.025 A 
ATOM     14  C   UNL A   1      31.457  25.040  23.076  1.00  0.00     0.019 A 
ATOM     15  C   UNL A   1      33.701  24.209  22.858  1.00  0.00     0.012 A 
ATOM     16  C   UNL A   1      32.543  24.716  22.271  1.00  0.00     0.002 A 
BRANCH  12  17
ATOM     17  O   UNL A   1      32.835  24.541  26.445  1.00  0.00    -0.495 OA
ATOM     18  C   UNL A   1      32.526  23.265  27.014  1.00  0.00     0.278 C 
ENDBRANCH  12  17
BRANCH  13  19
ATOM     19  C   UNL A   1      34.976  23.291  24.787  1.00  0.00    -0.011 A 
ATOM     20  C   UNL A   1      36.115  23.978  25.265  1.00  0.00     0.012 A 
ATOM     21  C   UNL A   1      35.013  21.875  24.772  1.00  0.00    -0.043 A 
ATOM     22  C   UNL A   1      37.253  23.297  25.726  1.00  0.00    -0.050 A 
ATOM     23  C   UNL A   1      36.129  21.203  25.298  1.00  0.00     0.004 A 
ATOM     24  C   UNL A   1      33.891  21.015  24.246  1.00  0.00     0.045 C 
ATOM     25  C   UNL A   1      38.469  24.063  26.153  1.00  0.00     0.044 C 
ATOM     26  C   UNL A   1      37.240  21.905  25.760  1.00  0.00     0.004 A 
ENDBRANCH  13  19
ENDBRANCH   9  11
ENDBRANCH   8   9
ENDBRANCH   7   8
ENDBRANCH   6   7
ENDBRANCH   5   6
ENDBRANCH   4   5
ENDBRANCH   3   4
ENDBRANCH   2   3
ENDBRANCH   1   2
BRANCH   1  27
ATOM     27  C   UNL A   1      32.776  29.003  26.763  1.00  0.00     0.188 C 
BRANCH  27  28
ATOM     28  O   UNL A   1      31.856  30.012  27.143  1.00  0.00    -0.376 OA
BRANCH  28  29
ATOM     29  C   UNL A   1      31.702  31.124  26.277  1.00  0.00     0.202 C 
BRANCH  29  30
ATOM     30  C   UNL A   1      31.925  32.523  26.872  1.00  0.00     0.261 C 
BRANCH  30  31
ATOM     31  O   UNL A   1      32.768  32.588  28.033  1.00  0.00    -0.460 OA
BRANCH  31  32
ATOM     32  C   UNL A   1      33.764  33.495  28.013  1.00  0.00     0.338 C 
ATOM     33  O   UNL A   1      33.654  34.713  27.963  1.00  0.00    -0.246 OA
BRANCH  32  34
ATOM     34  C   UNL A   1      35.035  32.788  28.259  1.00  0.00     0.060 A 
ATOM     35  C   UNL A   1      35.005  31.404  28.473  1.00  0.00     0.016 A 
ATOM     36  C   UNL A   1      36.243  33.489  28.300  1.00  0.00     0.016 A 
ATOM     37  C   UNL A   1      36.178  30.726  28.793  1.00  0.00     0.010 A 
ATOM     38  C   UNL A   1      37.416  32.810  28.643  1.00  0.00     0.010 A 
ATOM     39  C   UNL A   1      37.375  31.437  28.945  1.00  0.00    -0.014 A 
BRANCH  39  40
ATOM     40  C   UNL A   1      38.496  30.790  29.670  1.00  0.00     0.031 A 
ATOM     41  C   UNL A   1      38.680  31.124  31.126  1.00  0.00     0.074 A 
ATOM     42  C   UNL A   1      39.279  29.870  29.082  1.00  0.00     0.049 A 
ATOM     43  N   UNL A   1      39.544  30.654  31.991  1.00  0.00    -0.248 NA
ATOM     44  C   UNL A   1      37.760  32.128  31.685  1.00  0.00     0.031 C 
ATOM     45  C   UNL A   1      39.167  29.427  27.695  1.00  0.00     0.029 A 
ATOM     46  N   UNL A   1      40.320  29.136  29.592  1.00  0.00    -0.354 N 
ATOM     47  C   UNL A   1      39.276  31.311  33.185  1.00  0.00     0.074 A 
ATOM     48  C   UNL A   1      38.198  32.240  32.927  1.00  0.00     0.031 C 
ATOM     49  C   UNL A   1      40.099  28.485  27.466  1.00  0.00     0.029 A 
ATOM     50  C   UNL A   1      40.887  28.282  28.681  1.00  0.00     0.049 A 
ATOM     51  H   UNL A   1      40.629  29.215  30.523  1.00  0.00     0.167 HD
ATOM     52  C   UNL A   1      39.866  31.147  34.393  1.00  0.00     0.037 A 
ATOM     53  C   UNL A   1      41.927  27.436  28.818  1.00  0.00     0.037 A 
ATOM     54  C   UNL A   1      40.939  30.221  34.645  1.00  0.00     0.049 A 
ATOM     55  C   UNL A   1      42.615  27.322  30.155  1.00  0.00     0.074 A 
ATOM     56  C   UNL A   1      41.593  29.962  35.836  1.00  0.00     0.029 A 
ATOM     57  N   UNL A   1      41.522  29.410  33.683  1.00  0.00    -0.354 N 
ATOM     58  N   UNL A   1      42.338  27.920  31.289  1.00  0.00    -0.248 NA
ATOM     59  C   UNL A   1      43.757  26.400  30.231  1.00  0.00     0.031 C 
ATOM     60  C   UNL A   1      42.621  29.048  35.580  1.00  0.00     0.029 A 
ATOM     61  C   UNL A   1      42.552  28.673  34.247  1.00  0.00     0.049 A 
ATOM     62  H   UNL A   1      41.247  29.364  32.739  1.00  0.00     0.167 HD
ATOM     63  C   UNL A   1      43.238  27.415  32.221  1.00  0.00     0.074 A 
ATOM     64  C   UNL A   1      44.064  26.454  31.519  1.00  0.00     0.031 C 
ATOM     65  C   UNL A   1      43.362  27.710  33.540  1.00  0.00     0.037 A 
BRANCH  52  66
ATOM     66  C   UNL A   1      39.394  32.028  35.515  1.00  0.00     0.064 A 
ATOM     67  C   UNL A   1      39.865  33.338  35.688  1.00  0.00     0.173 A 
ATOM     68  C   UNL A   1      38.454  31.545  36.440  1.00  0.00     0.173 A 
ATOM     69  F   UNL A   1      40.776  33.845  34.844  1.00  0.00    -0.203 F 
ATOM     70  C   UNL A   1      39.447  34.116  36.766  1.00  0.00     0.198 A 
ATOM     71  C   UNL A   1      38.009  32.339  37.494  1.00  0.00     0.198 A 
ATOM     72  F   UNL A   1      37.966  30.301  36.324  1.00  0.00    -0.203 F 
ATOM     73  F   UNL A   1      39.965  35.339  36.950  1.00  0.00    -0.200 F 
ATOM     74  C   UNL A   1      38.516  33.618  37.665  1.00  0.00     0.200 A 
ATOM     75  F   UNL A   1      37.098  31.860  38.352  1.00  0.00    -0.200 F 
ATOM     76  F   UNL A   1      38.115  34.366  38.700  1.00  0.00    -0.200 F 
ENDBRANCH  52  66
BRANCH  53  77
ATOM     77  C   UNL A   1      42.372  26.608  27.665  1.00  0.00     0.064 A 
ATOM     78  C   UNL A   1      41.822  25.340  27.430  1.00  0.00     0.173 A 
ATOM     79  C   UNL A   1      43.370  27.058  26.788  1.00  0.00     0.173 A 
ATOM     80  F   UNL A   1      40.883  24.854  28.256  1.00  0.00    -0.203 F 
ATOM     81  C   UNL A   1      42.267  24.546  26.376  1.00  0.00     0.198 A 
ATOM     82  C   UNL A   1      43.793  26.274  25.716  1.00  0.00     0.198 A 
ATOM     83  F   UNL A   1      43.933  28.261  26.970  1.00  0.00    -0.203 F 
ATOM     84  F   UNL A   1      41.761  23.316  26.207  1.00  0.00    -0.200 F 
ATOM     85  C   UNL A   1      43.248  25.015  25.516  1.00  0.00     0.200 A 
ATOM     86  F   UNL A   1      44.733  26.737  24.880  1.00  0.00    -0.200 F 
ATOM     87  F   UNL A   1      43.673  24.251  24.501  1.00  0.00    -0.200 F 
ENDBRANCH  53  77
BRANCH  65  88
ATOM     88  C   UNL A   1      44.382  26.936  34.330  1.00  0.00     0.064 A 
ATOM     89  C   UNL A   1      44.072  25.732  34.978  1.00  0.00     0.173 A 
ATOM     90  C   UNL A   1      45.703  27.406  34.424  1.00  0.00     0.173 A 
ATOM     91  F   UNL A   1      42.824  25.240  34.929  1.00  0.00    -0.203 F 
ATOM     92  C   UNL A   1      45.029  25.054  35.730  1.00  0.00     0.198 A 
ATOM     93  C   UNL A   1      46.667  26.705  35.142  1.00  0.00     0.198 A 
ATOM     94  F   UNL A   1      46.062  28.546  33.814  1.00  0.00    -0.203 F 
ATOM     95  F   UNL A   1      44.689  23.945  36.400  1.00  0.00    -0.200 F 
ATOM     96  C   UNL A   1      46.326  25.537  35.807  1.00  0.00     0.200 A 
ATOM     97  F   UNL A   1      47.926  27.164  35.196  1.00  0.00    -0.200 F 
ATOM     98  F   UNL A   1      47.246  24.883  36.529  1.00  0.00    -0.200 F 
ENDBRANCH  65  88
ENDBRANCH  39  40
ENDBRANCH  32  34
ENDBRANCH  31  32
ENDBRANCH  30  31
ENDBRANCH  29  30
ENDBRANCH  28  29
ENDBRANCH  27  28
ENDBRANCH   1  27
TORSDOF 22
ENDMDL
MODEL 3
REMARK VINA RESULT:     -10.3      3.227      9.018
REMARK SMILES COc1c(C(=O)OCCOCCOCCOCCOC(=O)c2ccc(-c3c4nc(c(-c5c(F)c(F)c(F)c(F)c5F)c5ccc([nH]5)c(-c5c(F)c(F)c(F)c(F)c5F)c5nc(c(-c6c(F)c(F)c(F)c(F)c6F)c6ccc3[nH]6)C=C5)C=C4)cc2)cccc1-c1cc(C)ccc1C
REMARK SMILES IDX 14 1 13 2 12 3 11 4 10 5 9 6 8 7 7 8 5 9 6 10 4 11 3 12
REMARK SMILES IDX 88 13 85 14 87 15 86 16 2 17 1 18 89 19 90 20 95 21 91 22
REMARK SMILES IDX 94 23 96 24 92 25 93 26 15 27 16 28 17 29 18 30 19 31 20 32
REMARK SMILES IDX 21 33 22 34 23 35 84 36 24 37 83 38 25 39 26 40 27 41 77 42
REMARK SMILES IDX 28 43 82 44 76 45 78 46 29 47 81 48 75 49 74 50 30 52 62 53
REMARK SMILES IDX 42 54 61 55 43 56 46 57 60 58 79 59 44 60 45 61 59 63 80 64
REMARK SMILES IDX 47 65 31 66 32 67 40 68 33 69 34 70 38 71 41 72 35 73 36 74
REMARK SMILES IDX 39 75 37 76 63 77 64 78 72 79 65 80 66 81 70 82 73 83 67 84
REMARK SMILES IDX 68 85 71 86 69 87 48 88 49 89 57 90 50 91 51 92 55 93 58 94
REMARK SMILES IDX 52 95 53 96 56 97 54 98
REMARK H PARENT 78 51 46 62
REMARK Flexibility Score: inf
ROOT
ATOM      1  C   UNL A   1      33.249  36.170  29.960  1.00  0.00     0.188 C 
ENDROOT
BRANCH   1   2
ATOM      2  O   UNL A   1      32.596  35.249  29.092  1.00  0.00    -0.377 OA
BRANCH   2   3
ATOM      3  C   UNL A   1      33.372  34.422  28.233  1.00  0.00     0.188 C 
BRANCH   3   4
ATOM      4  C   UNL A   1      34.763  33.919  28.684  1.00  0.00     0.188 C 
BRANCH   4   5
ATOM      5  O   UNL A   1      35.519  33.306  27.654  1.00  0.00    -0.376 OA
BRANCH   5   6
ATOM      6  C   UNL A   1      35.721  31.906  27.682  1.00  0.00     0.202 C 
BRANCH   6   7
ATOM      7  C   UNL A   1      34.543  30.976  28.009  1.00  0.00     0.261 C 
BRANCH   7   8
ATOM      8  O   UNL A   1      34.157  30.089  26.958  1.00  0.00    -0.460 OA
BRANCH   8   9
ATOM      9  C   UNL A   1      32.851  30.076  26.613  1.00  0.00     0.342 C 
ATOM     10  O   UNL A   1      32.183  31.043  26.284  1.00  0.00    -0.246 OA
BRANCH   9  11
ATOM     11  C   UNL A   1      32.413  28.673  26.432  1.00  0.00     0.102 A 
ATOM     12  C   UNL A   1      32.872  27.851  25.387  1.00  0.00     0.141 A 
ATOM     13  C   UNL A   1      32.494  26.488  25.354  1.00  0.00     0.025 A 
ATOM     14  C   UNL A   1      31.454  28.198  27.341  1.00  0.00     0.019 A 
ATOM     15  C   UNL A   1      31.488  26.058  26.249  1.00  0.00     0.012 A 
ATOM     16  C   UNL A   1      30.954  26.908  27.216  1.00  0.00     0.002 A 
BRANCH  12  17
ATOM     17  O   UNL A   1      33.770  28.391  24.495  1.00  0.00    -0.495 OA
ATOM     18  C   UNL A   1      33.160  28.824  23.275  1.00  0.00     0.278 C 
ENDBRANCH  12  17
BRANCH  13  19
ATOM     19  C   UNL A   1      33.182  25.467  24.526  1.00  0.00    -0.011 A 
ATOM     20  C   UNL A   1      34.415  24.929  24.959  1.00  0.00     0.012 A 
ATOM     21  C   UNL A   1      32.681  25.048  23.268  1.00  0.00    -0.043 A 
ATOM     22  C   UNL A   1      35.132  24.001  24.188  1.00  0.00    -0.050 A 
ATOM     23  C   UNL A   1      33.372  24.068  22.536  1.00  0.00     0.004 A 
ATOM     24  C   UNL A   1      31.404  25.573  22.660  1.00  0.00     0.045 C 
ATOM     25  C   UNL A   1      36.473  23.513  24.648  1.00  0.00     0.044 C 
ATOM     26  C   UNL A   1      34.588  23.558  22.985  1.00  0.00     0.004 A 
ENDBRANCH  13  19
ENDBRANCH   9  11
ENDBRANCH   8   9
ENDBRANCH   7   8
ENDBRANCH   6   7
ENDBRANCH   5   6
ENDBRANCH   4   5
ENDBRANCH   3   4
ENDBRANCH   2   3
ENDBRANCH   1   2
BRANCH   1  27
ATOM     27  C   UNL A   1      32.910  36.208  31.468  1.00  0.00     0.188 C 
BRANCH  27  28
ATOM     28  O   UNL A   1      32.841  34.939  32.095  1.00  0.00    -0.376 OA
BRANCH  28  29
ATOM     29  C   UNL A   1      34.002  34.467  32.757  1.00  0.00     0.202 C 
BRANCH  29  30
ATOM     30  C   UNL A   1      34.618  33.150  32.260  1.00  0.00     0.261 C 
BRANCH  30  31
ATOM     31  O   UNL A   1      35.439  32.441  33.201  1.00  0.00    -0.460 OA
BRANCH  31  32
ATOM     32  C   UNL A   1      36.715  32.853  33.329  1.00  0.00     0.338 C 
ATOM     33  O   UNL A   1      37.152  33.673  34.126  1.00  0.00    -0.246 OA
BRANCH  32  34
ATOM     34  C   UNL A   1      37.560  32.005  32.467  1.00  0.00     0.060 A 
ATOM     35  C   UNL A   1      38.612  31.288  33.052  1.00  0.00     0.016 A 
ATOM     36  C   UNL A   1      37.329  31.934  31.091  1.00  0.00     0.016 A 
ATOM     37  C   UNL A   1      39.478  30.549  32.251  1.00  0.00     0.010 A 
ATOM     38  C   UNL A   1      38.212  31.208  30.285  1.00  0.00     0.010 A 
ATOM     39  C   UNL A   1      39.321  30.560  30.859  1.00  0.00    -0.014 A 
BRANCH  39  40
ATOM     40  C   UNL A   1      40.459  30.123  30.014  1.00  0.00     0.031 A 
ATOM     41  C   UNL A   1      41.554  31.118  29.737  1.00  0.00     0.074 A 
ATOM     42  C   UNL A   1      40.566  28.859  29.573  1.00  0.00     0.049 A 
ATOM     43  N   UNL A   1      42.675  30.968  29.077  1.00  0.00    -0.248 NA
ATOM     44  C   UNL A   1      41.356  32.472  30.279  1.00  0.00     0.031 C 
ATOM     45  C   UNL A   1      39.597  27.793  29.818  1.00  0.00     0.029 A 
ATOM     46  N   UNL A   1      41.552  28.259  28.832  1.00  0.00    -0.354 N 
ATOM     47  C   UNL A   1      43.306  32.205  29.119  1.00  0.00     0.074 A 
ATOM     48  C   UNL A   1      42.427  33.106  29.833  1.00  0.00     0.031 C 
ATOM     49  C   UNL A   1      40.045  26.662  29.245  1.00  0.00     0.029 A 
ATOM     50  C   UNL A   1      41.314  26.933  28.572  1.00  0.00     0.049 A 
ATOM     51  H   UNL A   1      42.354  28.735  28.517  1.00  0.00     0.167 HD
ATOM     52  C   UNL A   1      44.514  32.558  28.620  1.00  0.00     0.037 A 
ATOM     53  C   UNL A   1      42.041  26.045  27.866  1.00  0.00     0.037 A 
ATOM     54  C   UNL A   1      45.385  31.658  27.910  1.00  0.00     0.049 A 
ATOM     55  C   UNL A   1      43.351  26.480  27.258  1.00  0.00     0.074 A 
ATOM     56  C   UNL A   1      46.638  31.908  27.381  1.00  0.00     0.029 A 
ATOM     57  N   UNL A   1      45.085  30.335  27.621  1.00  0.00    -0.354 N 
ATOM     58  N   UNL A   1      43.958  27.641  27.328  1.00  0.00    -0.248 NA
ATOM     59  C   UNL A   1      44.084  25.470  26.481  1.00  0.00     0.031 C 
ATOM     60  C   UNL A   1      47.065  30.759  26.708  1.00  0.00     0.029 A 
ATOM     61  C   UNL A   1      46.116  29.765  26.890  1.00  0.00     0.049 A 
ATOM     62  H   UNL A   1      44.261  29.869  27.893  1.00  0.00     0.167 HD
ATOM     63  C   UNL A   1      45.161  27.488  26.647  1.00  0.00     0.074 A 
ATOM     64  C   UNL A   1      45.199  26.118  26.178  1.00  0.00     0.031 C 
ATOM     65  C   UNL A   1      46.148  28.395  26.438  1.00  0.00     0.037 A 
BRANCH  52  66
ATOM     66  C   UNL A   1      44.934  33.992  28.783  1.00  0.00     0.064 A 
ATOM     67  C   UNL A   1      44.612  34.978  27.837  1.00  0.00     0.173 A 
ATOM     68  C   UNL A   1      45.680  34.383  29.905  1.00  0.00     0.173 A 
ATOM     69  F   UNL A   1      43.916  34.657  26.736  1.00  0.00    -0.203 F 
ATOM     70  C   UNL A   1      45.056  36.290  27.988  1.00  0.00     0.198 A 
ATOM     71  C   UNL A   1      46.089  35.704  30.072  1.00  0.00     0.198 A 
ATOM     72  F   UNL A   1      46.015  33.484  30.843  1.00  0.00    -0.203 F 
ATOM     73  F   UNL A   1      44.797  37.198  27.036  1.00  0.00    -0.200 F 
ATOM     74  C   UNL A   1      45.790  36.652  29.107  1.00  0.00     0.200 A 
ATOM     75  F   UNL A   1      46.785  36.053  31.163  1.00  0.00    -0.200 F 
ATOM     76  F   UNL A   1      46.216  37.914  29.252  1.00  0.00    -0.200 F 
ENDBRANCH  52  66
BRANCH  53  77
ATOM     77  C   UNL A   1      41.563  24.645  27.712  1.00  0.00     0.064 A 
ATOM     78  C   UNL A   1      42.184  23.590  28.397  1.00  0.00     0.173 A 
ATOM     79  C   UNL A   1      40.494  24.330  26.862  1.00  0.00     0.173 A 
ATOM     80  F   UNL A   1      43.228  23.836  29.202  1.00  0.00    -0.203 F 
ATOM     81  C   UNL A   1      41.765  22.273  28.222  1.00  0.00     0.198 A 
ATOM     82  C   UNL A   1      40.057  23.015  26.711  1.00  0.00     0.198 A 
ATOM     83  F   UNL A   1      39.869  25.300  26.179  1.00  0.00    -0.203 F 
ATOM     84  F   UNL A   1      42.410  21.278  28.849  1.00  0.00    -0.200 F 
ATOM     85  C   UNL A   1      40.699  21.986  27.384  1.00  0.00     0.200 A 
ATOM     86  F   UNL A   1      39.017  22.744  25.909  1.00  0.00    -0.200 F 
ATOM     87  F   UNL A   1      40.295  20.719  27.218  1.00  0.00    -0.200 F 
ENDBRANCH  53  77
BRANCH  65  88
ATOM     88  C   UNL A   1      47.388  27.919  25.730  1.00  0.00     0.064 A 
ATOM     89  C   UNL A   1      47.448  27.782  24.336  1.00  0.00     0.173 A 
ATOM     90  C   UNL A   1      48.544  27.610  26.466  1.00  0.00     0.173 A 
ATOM     91  F   UNL A   1      46.371  28.055  23.582  1.00  0.00    -0.203 F 
ATOM     92  C   UNL A   1      48.599  27.307  23.710  1.00  0.00     0.198 A 
ATOM     93  C   UNL A   1      49.705  27.177  25.834  1.00  0.00     0.198 A 
ATOM     94  F   UNL A   1      48.550  27.736  27.802  1.00  0.00    -0.203 F 
ATOM     95  F   UNL A   1      48.607  27.115  22.384  1.00  0.00    -0.200 F 
ATOM     96  C   UNL A   1      49.728  27.011  24.458  1.00  0.00     0.200 A 
ATOM     97  F   UNL A   1      50.801  26.911  26.558  1.00  0.00    -0.200 F 
ATOM     98  F   UNL A   1      50.834  26.556  23.855  1.00  0.00    -0.200 F 
ENDBRANCH  65  88
ENDBRANCH  39  40
ENDBRANCH  32  34
ENDBRANCH  31  32
ENDBRANCH  30  31
ENDBRANCH  29  30
ENDBRANCH  28  29
ENDBRANCH  27  28
ENDBRANCH   1  27
TORSDOF 22
ENDMDL
