MODEL 1
REMARK VINA RESULT:      -9.8      0.000      0.000
REMARK SMILES C/C(=N/OCc1ccccc1Nc1c(Cl)cccc1Cl)C(=O)OCCOCCOCCOCCOC(=O)c1ccc(-c2c3nc(c(-c4c(F)c(F)c(F)c(F)c4F)c4ccc([nH]4)c(-c4c(F)c(F)c(F)c(F)c4F)c4nc(c(-c5c(F)c(F)c(F)c(F)c5F)c5ccc2[nH]5)C=C4)C=C3)cc1
REMARK SMILES IDX 27 1 26 2 25 3 24 4 23 5 21 6 22 7 2 8 1 9 3 10 4 11 5 12
REMARK SMILES IDX 6 13 7 14 11 15 8 16 10 17 9 18 12 19 13 21 14 22 19 23
REMARK SMILES IDX 15 24 16 25 18 26 20 27 17 28 28 29 29 30 30 31 31 32 32 33
REMARK SMILES IDX 33 34 34 35 35 36 36 37 37 38 38 39 39 40 100 41 40 42 99 43
REMARK SMILES IDX 41 44 42 45 43 46 93 47 44 48 98 49 92 50 94 51 45 52 97 53
REMARK SMILES IDX 91 54 90 55 46 57 78 58 58 59 77 60 59 61 62 62 76 63 95 64
REMARK SMILES IDX 60 65 61 66 75 68 96 69 63 70 47 71 48 72 56 73 49 74 50 75
REMARK SMILES IDX 54 76 57 77 51 78 52 79 55 80 53 81 79 82 80 83 88 84 81 85
REMARK SMILES IDX 82 86 86 87 89 88 83 89 84 90 87 91 85 92 64 93 65 94 73 95
REMARK SMILES IDX 66 96 67 97 71 98 74 99 68 100 69 101 72 102 70 103
REMARK H PARENT 12 20 94 56 62 67
REMARK Flexibility Score: inf
ROOT
ATOM      1  C   UNL A   1      35.837  31.547  28.283  1.00  0.00     0.188 C 
ENDROOT
BRANCH   1   2
ATOM      2  O   UNL A   1      34.814  30.632  27.944  1.00  0.00    -0.376 OA
BRANCH   2   3
ATOM      3  C   UNL A   1      35.107  29.301  27.571  1.00  0.00     0.202 C 
BRANCH   3   4
ATOM      4  C   UNL A   1      34.185  28.494  26.647  1.00  0.00     0.261 C 
BRANCH   4   5
ATOM      5  O   UNL A   1      32.975  29.154  26.299  1.00  0.00    -0.459 OA
BRANCH   5   6
ATOM      6  C   UNL A   1      31.865  28.412  26.135  1.00  0.00     0.355 C 
ATOM      7  O   UNL A   1      31.245  27.807  26.990  1.00  0.00    -0.245 OA
BRANCH   6   8
ATOM      8  C   UNL A   1      31.329  28.615  24.719  1.00  0.00     0.161 C 
ATOM      9  C   UNL A   1      30.696  29.950  24.442  1.00  0.00     0.079 C 
ATOM     10  N   UNL A   1      31.485  27.771  23.740  1.00  0.00    -0.084 NA
BRANCH  10  11
ATOM     11  O   UNL A   1      32.167  26.623  24.174  1.00  0.00    -0.390 OA
BRANCH  11  12
ATOM     12  C   UNL A   1      31.542  25.455  23.645  1.00  0.00     0.302 C 
BRANCH  12  13
ATOM     13  C   UNL A   1      31.065  24.602  24.793  1.00  0.00     0.016 A 
ATOM     14  C   UNL A   1      30.060  25.144  25.620  1.00  0.00     0.009 A 
ATOM     15  C   UNL A   1      31.507  23.279  24.999  1.00  0.00     0.045 A 
ATOM     16  C   UNL A   1      29.529  24.411  26.675  1.00  0.00     0.001 A 
ATOM     17  C   UNL A   1      31.016  22.593  26.123  1.00  0.00     0.026 A 
ATOM     18  C   UNL A   1      30.022  23.140  26.938  1.00  0.00     0.002 A 
BRANCH  15  19
ATOM     19  N   UNL A   1      32.461  22.684  24.144  1.00  0.00    -0.353 N 
ATOM     20  H   UNL A   1      32.264  22.756  23.181  1.00  0.00     0.167 HD
BRANCH  19  21
ATOM     21  C   UNL A   1      33.655  22.001  24.469  1.00  0.00     0.076 A 
ATOM     22  C   UNL A   1      33.670  20.591  24.484  1.00  0.00     0.066 A 
ATOM     23  C   UNL A   1      34.821  22.664  24.905  1.00  0.00     0.066 A 
ATOM     24  Cl  UNL A   1      32.250  19.676  24.104  1.00  0.00    -0.082 Cl
ATOM     25  C   UNL A   1      34.834  19.878  24.796  1.00  0.00     0.023 A 
ATOM     26  C   UNL A   1      35.987  21.951  25.209  1.00  0.00     0.023 A 
ATOM     27  Cl  UNL A   1      34.874  24.380  25.141  1.00  0.00    -0.082 Cl
ATOM     28  C   UNL A   1      35.999  20.560  25.138  1.00  0.00     0.003 A 
ENDBRANCH  19  21
ENDBRANCH  15  19
ENDBRANCH  12  13
ENDBRANCH  11  12
ENDBRANCH  10  11
ENDBRANCH   6   8
ENDBRANCH   5   6
ENDBRANCH   4   5
ENDBRANCH   3   4
ENDBRANCH   2   3
ENDBRANCH   1   2
BRANCH   1  29
ATOM     29  C   UNL A   1      35.474  33.035  28.047  1.00  0.00     0.188 C 
BRANCH  29  30
ATOM     30  O   UNL A   1      34.140  33.406  27.730  1.00  0.00    -0.377 OA
BRANCH  30  31
ATOM     31  C   UNL A   1      33.316  34.011  28.718  1.00  0.00     0.188 C 
BRANCH  31  32
ATOM     32  C   UNL A   1      33.926  34.795  29.904  1.00  0.00     0.188 C 
BRANCH  32  33
ATOM     33  O   UNL A   1      33.732  34.196  31.173  1.00  0.00    -0.376 OA
BRANCH  33  34
ATOM     34  C   UNL A   1      34.443  33.007  31.464  1.00  0.00     0.202 C 
BRANCH  34  35
ATOM     35  C   UNL A   1      35.100  32.891  32.847  1.00  0.00     0.261 C 
BRANCH  35  36
ATOM     36  O   UNL A   1      35.946  31.750  33.055  1.00  0.00    -0.460 OA
BRANCH  36  37
ATOM     37  C   UNL A   1      37.188  31.980  33.526  1.00  0.00     0.338 C 
ATOM     38  O   UNL A   1      37.496  32.482  34.596  1.00  0.00    -0.246 OA
BRANCH  37  39
ATOM     39  C   UNL A   1      38.141  31.351  32.591  1.00  0.00     0.060 A 
ATOM     40  C   UNL A   1      39.226  30.626  33.103  1.00  0.00     0.016 A 
ATOM     41  C   UNL A   1      37.957  31.476  31.212  1.00  0.00     0.016 A 
ATOM     42  C   UNL A   1      40.153  30.053  32.232  1.00  0.00     0.010 A 
ATOM     43  C   UNL A   1      38.899  30.921  30.343  1.00  0.00     0.010 A 
ATOM     44  C   UNL A   1      40.020  30.241  30.851  1.00  0.00    -0.014 A 
BRANCH  44  45
ATOM     45  C   UNL A   1      41.158  29.926  29.955  1.00  0.00     0.031 A 
ATOM     46  C   UNL A   1      41.191  28.569  29.306  1.00  0.00     0.074 A 
ATOM     47  C   UNL A   1      42.130  30.821  29.704  1.00  0.00     0.049 A 
ATOM     48  N   UNL A   1      42.103  28.031  28.538  1.00  0.00    -0.248 NA
ATOM     49  C   UNL A   1      40.032  27.698  29.563  1.00  0.00     0.031 C 
ATOM     50  C   UNL A   1      42.183  32.180  30.234  1.00  0.00     0.029 A 
ATOM     51  N   UNL A   1      43.266  30.707  28.942  1.00  0.00    -0.354 N 
ATOM     52  C   UNL A   1      41.634  26.761  28.231  1.00  0.00     0.074 A 
ATOM     53  C   UNL A   1      40.375  26.593  28.921  1.00  0.00     0.031 C 
ATOM     54  C   UNL A   1      43.306  32.774  29.791  1.00  0.00     0.029 A 
ATOM     55  C   UNL A   1      44.066  31.823  28.979  1.00  0.00     0.049 A 
ATOM     56  H   UNL A   1      43.486  29.904  28.419  1.00  0.00     0.167 HD
ATOM     57  C   UNL A   1      42.199  25.821  27.437  1.00  0.00     0.037 A 
ATOM     58  C   UNL A   1      45.282  32.035  28.440  1.00  0.00     0.037 A 
ATOM     59  C   UNL A   1      43.455  25.992  26.756  1.00  0.00     0.049 A 
ATOM     60  C   UNL A   1      45.932  30.940  27.629  1.00  0.00     0.074 A 
ATOM     61  C   UNL A   1      44.109  25.106  25.918  1.00  0.00     0.029 A 
ATOM     62  N   UNL A   1      44.252  27.124  26.843  1.00  0.00    -0.354 N 
ATOM     63  N   UNL A   1      45.474  29.750  27.321  1.00  0.00    -0.248 NA
ATOM     64  C   UNL A   1      47.269  31.220  27.086  1.00  0.00     0.031 C 
ATOM     65  C   UNL A   1      45.331  25.676  25.550  1.00  0.00     0.029 A 
ATOM     66  C   UNL A   1      45.406  26.947  26.097  1.00  0.00     0.049 A 
ATOM     67  H   UNL A   1      44.031  27.933  27.358  1.00  0.00     0.167 HD
ATOM     68  C   UNL A   1      46.445  29.159  26.521  1.00  0.00     0.074 A 
ATOM     69  C   UNL A   1      47.512  30.126  26.380  1.00  0.00     0.031 C 
ATOM     70  C   UNL A   1      46.453  27.928  25.953  1.00  0.00     0.037 A 
BRANCH  57  71
ATOM     71  C   UNL A   1      41.478  24.513  27.287  1.00  0.00     0.064 A 
ATOM     72  C   UNL A   1      41.902  23.352  27.952  1.00  0.00     0.173 A 
ATOM     73  C   UNL A   1      40.326  24.428  26.491  1.00  0.00     0.173 A 
ATOM     74  F   UNL A   1      43.007  23.375  28.713  1.00  0.00    -0.203 F 
ATOM     75  C   UNL A   1      41.215  22.150  27.803  1.00  0.00     0.198 A 
ATOM     76  C   UNL A   1      39.623  23.232  26.371  1.00  0.00     0.198 A 
ATOM     77  F   UNL A   1      39.876  25.508  25.834  1.00  0.00    -0.203 F 
ATOM     78  F   UNL A   1      41.669  21.043  28.406  1.00  0.00    -0.200 F 
ATOM     79  C   UNL A   1      40.072  22.093  27.021  1.00  0.00     0.200 A 
ATOM     80  F   UNL A   1      38.510  23.183  25.627  1.00  0.00    -0.200 F 
ATOM     81  F   UNL A   1      39.406  20.937  26.887  1.00  0.00    -0.200 F 
ENDBRANCH  57  71
BRANCH  58  82
ATOM     82  C   UNL A   1      45.984  33.329  28.658  1.00  0.00     0.064 A 
ATOM     83  C   UNL A   1      45.829  34.399  27.764  1.00  0.00     0.173 A 
ATOM     84  C   UNL A   1      46.858  33.512  29.741  1.00  0.00     0.173 A 
ATOM     85  F   UNL A   1      45.027  34.267  26.696  1.00  0.00    -0.203 F 
ATOM     86  C   UNL A   1      46.539  35.587  27.929  1.00  0.00     0.198 A 
ATOM     87  C   UNL A   1      47.540  34.712  29.924  1.00  0.00     0.198 A 
ATOM     88  F   UNL A   1      47.047  32.521  30.625  1.00  0.00    -0.203 F 
ATOM     89  F   UNL A   1      46.417  36.568  27.025  1.00  0.00    -0.200 F 
ATOM     90  C   UNL A   1      47.390  35.745  29.012  1.00  0.00     0.200 A 
ATOM     91  F   UNL A   1      48.352  34.864  30.980  1.00  0.00    -0.200 F 
ATOM     92  F   UNL A   1      48.074  36.886  29.169  1.00  0.00    -0.200 F 
ENDBRANCH  58  82
BRANCH  70  93
ATOM     93  C   UNL A   1      47.623  27.571  25.078  1.00  0.00     0.064 A 
ATOM     94  C   UNL A   1      47.655  27.892  23.713  1.00  0.00     0.173 A 
ATOM     95  C   UNL A   1      48.748  26.938  25.628  1.00  0.00     0.173 A 
ATOM     96  F   UNL A   1      46.601  28.487  23.134  1.00  0.00    -0.203 F 
ATOM     97  C   UNL A   1      48.757  27.565  22.926  1.00  0.00     0.198 A 
ATOM     98  C   UNL A   1      49.863  26.647  24.848  1.00  0.00     0.198 A 
ATOM     99  F   UNL A   1      48.776  26.618  26.931  1.00  0.00    -0.203 F 
ATOM    100  F   UNL A   1      48.743  27.832  21.613  1.00  0.00    -0.200 F 
ATOM    101  C   UNL A   1      49.864  26.951  23.496  1.00  0.00     0.200 A 
ATOM    102  F   UNL A   1      50.938  26.072  25.405  1.00  0.00    -0.200 F 
ATOM    103  F   UNL A   1      50.927  26.648  22.739  1.00  0.00    -0.200 F 
ENDBRANCH  70  93
ENDBRANCH  44  45
ENDBRANCH  37  39
ENDBRANCH  36  37
ENDBRANCH  35  36
ENDBRANCH  34  35
ENDBRANCH  33  34
ENDBRANCH  32  33
ENDBRANCH  31  32
ENDBRANCH  30  31
ENDBRANCH  29  30
ENDBRANCH   1  29
TORSDOF 25
ENDMDL
MODEL 2
REMARK VINA RESULT:      -9.7      4.993      9.585
REMARK SMILES C/C(=N/OCc1ccccc1Nc1c(Cl)cccc1Cl)C(=O)OCCOCCOCCOCCOC(=O)c1ccc(-c2c3nc(c(-c4c(F)c(F)c(F)c(F)c4F)c4ccc([nH]4)c(-c4c(F)c(F)c(F)c(F)c4F)c4nc(c(-c5c(F)c(F)c(F)c(F)c5F)c5ccc2[nH]5)C=C4)C=C3)cc1
REMARK SMILES IDX 27 1 26 2 25 3 24 4 23 5 21 6 22 7 2 8 1 9 3 10 4 11 5 12
REMARK SMILES IDX 6 13 7 14 11 15 8 16 10 17 9 18 12 19 13 21 14 22 19 23
REMARK SMILES IDX 15 24 16 25 18 26 20 27 17 28 28 29 29 30 30 31 31 32 32 33
REMARK SMILES IDX 33 34 34 35 35 36 36 37 37 38 38 39 39 40 100 41 40 42 99 43
REMARK SMILES IDX 41 44 42 45 43 46 93 47 44 48 98 49 92 50 94 51 45 52 97 53
REMARK SMILES IDX 91 54 90 55 46 57 78 58 58 59 77 60 59 61 62 62 76 63 95 64
REMARK SMILES IDX 60 65 61 66 75 68 96 69 63 70 47 71 48 72 56 73 49 74 50 75
REMARK SMILES IDX 54 76 57 77 51 78 52 79 55 80 53 81 79 82 80 83 88 84 81 85
REMARK SMILES IDX 82 86 86 87 89 88 83 89 84 90 87 91 85 92 64 93 65 94 73 95
REMARK SMILES IDX 66 96 67 97 71 98 74 99 68 100 69 101 72 102 70 103
REMARK H PARENT 12 20 94 56 62 67
REMARK Flexibility Score: inf
ROOT
ATOM      1  C   UNL A   1      34.743  29.319  27.687  1.00  0.00     0.188 C 
ENDROOT
BRANCH   1   2
ATOM      2  O   UNL A   1      34.851  29.314  26.278  1.00  0.00    -0.376 OA
BRANCH   2   3
ATOM      3  C   UNL A   1      33.710  29.415  25.449  1.00  0.00     0.202 C 
BRANCH   3   4
ATOM      4  C   UNL A   1      33.001  28.174  24.889  1.00  0.00     0.261 C 
BRANCH   4   5
ATOM      5  O   UNL A   1      33.769  27.427  23.954  1.00  0.00    -0.459 OA
BRANCH   5   6
ATOM      6  C   UNL A   1      33.496  27.567  22.644  1.00  0.00     0.355 C 
ATOM      7  O   UNL A   1      34.147  28.170  21.812  1.00  0.00    -0.245 OA
BRANCH   6   8
ATOM      8  C   UNL A   1      32.335  26.648  22.272  1.00  0.00     0.161 C 
ATOM      9  C   UNL A   1      30.973  27.286  22.247  1.00  0.00     0.079 C 
ATOM     10  N   UNL A   1      32.464  25.414  21.876  1.00  0.00    -0.084 NA
BRANCH  10  11
ATOM     11  O   UNL A   1      33.814  25.025  21.889  1.00  0.00    -0.390 OA
BRANCH  11  12
ATOM     12  C   UNL A   1      33.926  23.673  22.329  1.00  0.00     0.302 C 
BRANCH  12  13
ATOM     13  C   UNL A   1      34.776  23.641  23.575  1.00  0.00     0.016 A 
ATOM     14  C   UNL A   1      36.113  23.216  23.428  1.00  0.00     0.009 A 
ATOM     15  C   UNL A   1      34.320  24.105  24.825  1.00  0.00     0.045 A 
ATOM     16  C   UNL A   1      36.980  23.197  24.514  1.00  0.00     0.001 A 
ATOM     17  C   UNL A   1      35.192  23.995  25.921  1.00  0.00     0.026 A 
ATOM     18  C   UNL A   1      36.513  23.570  25.766  1.00  0.00     0.002 A 
BRANCH  15  19
ATOM     19  N   UNL A   1      33.009  24.605  24.987  1.00  0.00    -0.353 N 
ATOM     20  H   UNL A   1      32.857  25.509  24.629  1.00  0.00     0.167 HD
BRANCH  19  21
ATOM     21  C   UNL A   1      31.883  23.993  25.587  1.00  0.00     0.076 A 
ATOM     22  C   UNL A   1      30.950  24.785  26.286  1.00  0.00     0.066 A 
ATOM     23  C   UNL A   1      31.705  22.595  25.628  1.00  0.00     0.066 A 
ATOM     24  Cl  UNL A   1      31.151  26.500  26.419  1.00  0.00    -0.082 Cl
ATOM     25  C   UNL A   1      29.821  24.218  26.889  1.00  0.00     0.023 A 
ATOM     26  C   UNL A   1      30.571  22.030  26.225  1.00  0.00     0.023 A 
ATOM     27  Cl  UNL A   1      32.884  21.493  24.999  1.00  0.00    -0.082 Cl
ATOM     28  C   UNL A   1      29.621  22.841  26.840  1.00  0.00     0.003 A 
ENDBRANCH  19  21
ENDBRANCH  15  19
ENDBRANCH  12  13
ENDBRANCH  11  12
ENDBRANCH  10  11
ENDBRANCH   6   8
ENDBRANCH   5   6
ENDBRANCH   4   5
ENDBRANCH   3   4
ENDBRANCH   2   3
ENDBRANCH   1   2
BRANCH   1  29
ATOM     29  C   UNL A   1      35.068  30.681  28.353  1.00  0.00     0.188 C 
BRANCH  29  30
ATOM     30  O   UNL A   1      35.985  31.576  27.741  1.00  0.00    -0.377 OA
BRANCH  30  31
ATOM     31  C   UNL A   1      35.821  32.979  27.899  1.00  0.00     0.188 C 
BRANCH  31  32
ATOM     32  C   UNL A   1      35.626  33.614  29.296  1.00  0.00     0.188 C 
BRANCH  32  33
ATOM     33  O   UNL A   1      35.016  34.892  29.287  1.00  0.00    -0.376 OA
BRANCH  33  34
ATOM     34  C   UNL A   1      33.639  34.970  28.967  1.00  0.00     0.202 C 
BRANCH  34  35
ATOM     35  C   UNL A   1      32.791  36.009  29.716  1.00  0.00     0.261 C 
BRANCH  35  36
ATOM     36  O   UNL A   1      33.241  36.369  31.030  1.00  0.00    -0.460 OA
BRANCH  36  37
ATOM     37  C   UNL A   1      32.819  35.607  32.058  1.00  0.00     0.338 C 
ATOM     38  O   UNL A   1      31.666  35.378  32.388  1.00  0.00    -0.246 OA
BRANCH  37  39
ATOM     39  C   UNL A   1      34.002  34.933  32.627  1.00  0.00     0.060 A 
ATOM     40  C   UNL A   1      35.248  35.573  32.574  1.00  0.00     0.016 A 
ATOM     41  C   UNL A   1      33.876  33.672  33.215  1.00  0.00     0.016 A 
ATOM     42  C   UNL A   1      36.380  34.935  33.079  1.00  0.00     0.010 A 
ATOM     43  C   UNL A   1      35.015  33.025  33.698  1.00  0.00     0.010 A 
ATOM     44  C   UNL A   1      36.276  33.638  33.598  1.00  0.00    -0.014 A 
BRANCH  44  45
ATOM     45  C   UNL A   1      37.503  32.838  33.826  1.00  0.00     0.031 A 
ATOM     46  C   UNL A   1      38.287  33.090  35.085  1.00  0.00     0.074 A 
ATOM     47  C   UNL A   1      37.908  31.899  32.953  1.00  0.00     0.049 A 
ATOM     48  N   UNL A   1      39.420  32.573  35.483  1.00  0.00    -0.248 NA
ATOM     49  C   UNL A   1      37.709  34.066  36.025  1.00  0.00     0.031 C 
ATOM     50  C   UNL A   1      37.210  31.530  31.724  1.00  0.00     0.029 A 
ATOM     51  N   UNL A   1      39.017  31.091  32.969  1.00  0.00    -0.354 N 
ATOM     52  C   UNL A   1      39.694  33.165  36.708  1.00  0.00     0.074 A 
ATOM     53  C   UNL A   1      38.629  34.106  36.975  1.00  0.00     0.031 C 
ATOM     54  C   UNL A   1      37.916  30.575  31.094  1.00  0.00     0.029 A 
ATOM     55  C   UNL A   1      39.132  30.293  31.857  1.00  0.00     0.049 A 
ATOM     56  H   UNL A   1      39.668  31.082  33.708  1.00  0.00     0.167 HD
ATOM     57  C   UNL A   1      40.737  32.938  37.542  1.00  0.00     0.037 A 
ATOM     58  C   UNL A   1      40.123  29.457  31.490  1.00  0.00     0.037 A 
ATOM     59  C   UNL A   1      41.795  32.004  37.270  1.00  0.00     0.049 A 
ATOM     60  C   UNL A   1      41.318  29.285  32.395  1.00  0.00     0.074 A 
ATOM     61  C   UNL A   1      42.892  31.690  38.054  1.00  0.00     0.029 A 
ATOM     62  N   UNL A   1      41.895  31.237  36.118  1.00  0.00    -0.354 N 
ATOM     63  N   UNL A   1      41.562  29.828  33.564  1.00  0.00    -0.248 NA
ATOM     64  C   UNL A   1      42.377  28.376  31.931  1.00  0.00     0.031 C 
ATOM     65  C   UNL A   1      43.687  30.783  37.348  1.00  0.00     0.029 A 
ATOM     66  C   UNL A   1      43.050  30.473  36.157  1.00  0.00     0.049 A 
ATOM     67  H   UNL A   1      41.242  31.237  35.381  1.00  0.00     0.167 HD
ATOM     68  C   UNL A   1      42.775  29.301  33.989  1.00  0.00     0.074 A 
ATOM     69  C   UNL A   1      43.213  28.384  32.959  1.00  0.00     0.031 C 
ATOM     70  C   UNL A   1      43.465  29.551  35.130  1.00  0.00     0.037 A 
BRANCH  57  71
ATOM     71  C   UNL A   1      40.798  33.737  38.812  1.00  0.00     0.064 A 
ATOM     72  C   UNL A   1      40.083  33.361  39.959  1.00  0.00     0.173 A 
ATOM     73  C   UNL A   1      41.608  34.879  38.890  1.00  0.00     0.173 A 
ATOM     74  F   UNL A   1      39.280  32.286  39.932  1.00  0.00    -0.203 F 
ATOM     75  C   UNL A   1      40.158  34.113  41.128  1.00  0.00     0.198 A 
ATOM     76  C   UNL A   1      41.707  35.610  40.072  1.00  0.00     0.198 A 
ATOM     77  F   UNL A   1      42.314  35.283  37.823  1.00  0.00    -0.203 F 
ATOM     78  F   UNL A   1      39.426  33.763  42.195  1.00  0.00    -0.200 F 
ATOM     79  C   UNL A   1      40.976  35.231  41.187  1.00  0.00     0.200 A 
ATOM     80  F   UNL A   1      42.510  36.681  40.130  1.00  0.00    -0.200 F 
ATOM     81  F   UNL A   1      41.054  35.948  42.316  1.00  0.00    -0.200 F 
ENDBRANCH  57  71
BRANCH  58  82
ATOM     82  C   UNL A   1      40.045  28.724  30.196  1.00  0.00     0.064 A 
ATOM     83  C   UNL A   1      39.460  27.452  30.117  1.00  0.00     0.173 A 
ATOM     84  C   UNL A   1      40.591  29.262  29.020  1.00  0.00     0.173 A 
ATOM     85  F   UNL A   1      38.948  26.881  31.217  1.00  0.00    -0.203 F 
ATOM     86  C   UNL A   1      39.449  26.736  28.921  1.00  0.00     0.198 A 
ATOM     87  C   UNL A   1      40.548  28.560  27.818  1.00  0.00     0.198 A 
ATOM     88  F   UNL A   1      41.166  30.473  29.040  1.00  0.00    -0.203 F 
ATOM     89  F   UNL A   1      38.938  25.498  28.889  1.00  0.00    -0.200 F 
ATOM     90  C   UNL A   1      39.987  27.293  27.771  1.00  0.00     0.200 A 
ATOM     91  F   UNL A   1      41.059  29.107  26.706  1.00  0.00    -0.200 F 
ATOM     92  F   UNL A   1      39.978  26.604  26.622  1.00  0.00    -0.200 F 
ENDBRANCH  58  82
BRANCH  70  93
ATOM     93  C   UNL A   1      44.738  28.784  35.357  1.00  0.00     0.064 A 
ATOM     94  C   UNL A   1      45.987  29.279  34.954  1.00  0.00     0.173 A 
ATOM     95  C   UNL A   1      44.709  27.554  36.033  1.00  0.00     0.173 A 
ATOM     96  F   UNL A   1      46.070  30.444  34.295  1.00  0.00    -0.203 F 
ATOM     97  C   UNL A   1      47.154  28.557  35.190  1.00  0.00     0.198 A 
ATOM     98  C   UNL A   1      45.881  26.852  36.301  1.00  0.00     0.198 A 
ATOM     99  F   UNL A   1      43.543  27.038  36.451  1.00  0.00    -0.203 F 
ATOM    100  F   UNL A   1      48.329  29.024  34.747  1.00  0.00    -0.200 F 
ATOM    101  C   UNL A   1      47.101  27.349  35.871  1.00  0.00     0.200 A 
ATOM    102  F   UNL A   1      45.829  25.696  36.976  1.00  0.00    -0.200 F 
ATOM    103  F   UNL A   1      48.227  26.662  36.107  1.00  0.00    -0.200 F 
ENDBRANCH  70  93
ENDBRANCH  44  45
ENDBRANCH  37  39
ENDBRANCH  36  37
ENDBRANCH  35  36
ENDBRANCH  34  35
ENDBRANCH  33  34
ENDBRANCH  32  33
ENDBRANCH  31  32
ENDBRANCH  30  31
ENDBRANCH  29  30
ENDBRANCH   1  29
TORSDOF 25
ENDMDL
MODEL 3
REMARK VINA RESULT:      -9.0      4.972      9.247
REMARK SMILES C/C(=N/OCc1ccccc1Nc1c(Cl)cccc1Cl)C(=O)OCCOCCOCCOCCOC(=O)c1ccc(-c2c3nc(c(-c4c(F)c(F)c(F)c(F)c4F)c4ccc([nH]4)c(-c4c(F)c(F)c(F)c(F)c4F)c4nc(c(-c5c(F)c(F)c(F)c(F)c5F)c5ccc2[nH]5)C=C4)C=C3)cc1
REMARK SMILES IDX 27 1 26 2 25 3 24 4 23 5 21 6 22 7 2 8 1 9 3 10 4 11 5 12
REMARK SMILES IDX 6 13 7 14 11 15 8 16 10 17 9 18 12 19 13 21 14 22 19 23
REMARK SMILES IDX 15 24 16 25 18 26 20 27 17 28 28 29 29 30 30 31 31 32 32 33
REMARK SMILES IDX 33 34 34 35 35 36 36 37 37 38 38 39 39 40 100 41 40 42 99 43
REMARK SMILES IDX 41 44 42 45 43 46 93 47 44 48 98 49 92 50 94 51 45 52 97 53
REMARK SMILES IDX 91 54 90 55 46 57 78 58 58 59 77 60 59 61 62 62 76 63 95 64
REMARK SMILES IDX 60 65 61 66 75 68 96 69 63 70 47 71 48 72 56 73 49 74 50 75
REMARK SMILES IDX 54 76 57 77 51 78 52 79 55 80 53 81 79 82 80 83 88 84 81 85
REMARK SMILES IDX 82 86 86 87 89 88 83 89 84 90 87 91 85 92 64 93 65 94 73 95
REMARK SMILES IDX 66 96 67 97 71 98 74 99 68 100 69 101 72 102 70 103
REMARK H PARENT 12 20 94 56 62 67
REMARK Flexibility Score: inf
ROOT
ATOM      1  C   UNL A   1      38.028  28.843  28.518  1.00  0.00     0.188 C 
ENDROOT
BRANCH   1   2
ATOM      2  O   UNL A   1      39.114  29.495  27.892  1.00  0.00    -0.376 OA
BRANCH   2   3
ATOM      3  C   UNL A   1      40.409  28.928  27.881  1.00  0.00     0.202 C 
BRANCH   3   4
ATOM      4  C   UNL A   1      40.824  27.868  26.851  1.00  0.00     0.261 C 
BRANCH   4   5
ATOM      5  O   UNL A   1      42.199  27.511  26.894  1.00  0.00    -0.459 OA
BRANCH   5   6
ATOM      6  C   UNL A   1      42.931  27.644  25.773  1.00  0.00     0.355 C 
ATOM      7  O   UNL A   1      42.528  27.676  24.625  1.00  0.00    -0.245 OA
BRANCH   6   8
ATOM      8  C   UNL A   1      44.370  27.989  26.149  1.00  0.00     0.161 C 
ATOM      9  C   UNL A   1      44.593  29.371  26.697  1.00  0.00     0.079 C 
ATOM     10  N   UNL A   1      45.363  27.146  26.133  1.00  0.00    -0.084 NA
BRANCH  10  11
ATOM     11  O   UNL A   1      44.941  25.888  25.670  1.00  0.00    -0.390 OA
BRANCH  11  12
ATOM     12  C   UNL A   1      45.732  24.861  26.263  1.00  0.00     0.302 C 
BRANCH  12  13
ATOM     13  C   UNL A   1      44.991  24.312  27.457  1.00  0.00     0.016 A 
ATOM     14  C   UNL A   1      45.266  24.901  28.708  1.00  0.00     0.009 A 
ATOM     15  C   UNL A   1      43.990  23.326  27.349  1.00  0.00     0.045 A 
ATOM     16  C   UNL A   1      44.598  24.488  29.855  1.00  0.00     0.001 A 
ATOM     17  C   UNL A   1      43.391  22.869  28.536  1.00  0.00     0.026 A 
ATOM     18  C   UNL A   1      43.672  23.458  29.771  1.00  0.00     0.002 A 
BRANCH  15  19
ATOM     19  N   UNL A   1      43.642  22.768  26.099  1.00  0.00    -0.353 N 
ATOM     20  H   UNL A   1      43.218  23.391  25.464  1.00  0.00     0.167 HD
BRANCH  19  21
ATOM     21  C   UNL A   1      43.815  21.446  25.627  1.00  0.00     0.076 A 
ATOM     22  C   UNL A   1      44.899  21.145  24.777  1.00  0.00     0.066 A 
ATOM     23  C   UNL A   1      42.877  20.421  25.866  1.00  0.00     0.066 A 
ATOM     24  Cl  UNL A   1      46.032  22.367  24.303  1.00  0.00    -0.082 Cl
ATOM     25  C   UNL A   1      45.107  19.849  24.293  1.00  0.00     0.023 A 
ATOM     26  C   UNL A   1      43.091  19.122  25.388  1.00  0.00     0.023 A 
ATOM     27  Cl  UNL A   1      41.392  20.705  26.711  1.00  0.00    -0.082 Cl
ATOM     28  C   UNL A   1      44.213  18.831  24.617  1.00  0.00     0.003 A 
ENDBRANCH  19  21
ENDBRANCH  15  19
ENDBRANCH  12  13
ENDBRANCH  11  12
ENDBRANCH  10  11
ENDBRANCH   6   8
ENDBRANCH   5   6
ENDBRANCH   4   5
ENDBRANCH   3   4
ENDBRANCH   2   3
ENDBRANCH   1   2
BRANCH   1  29
ATOM     29  C   UNL A   1      37.305  29.688  29.599  1.00  0.00     0.188 C 
BRANCH  29  30
ATOM     30  O   UNL A   1      36.976  31.045  29.343  1.00  0.00    -0.377 OA
BRANCH  30  31
ATOM     31  C   UNL A   1      35.682  31.385  28.863  1.00  0.00     0.188 C 
BRANCH  31  32
ATOM     32  C   UNL A   1      34.855  32.519  29.513  1.00  0.00     0.188 C 
BRANCH  32  33
ATOM     33  O   UNL A   1      35.487  33.163  30.605  1.00  0.00    -0.376 OA
BRANCH  33  34
ATOM     34  C   UNL A   1      34.665  33.745  31.600  1.00  0.00     0.202 C 
BRANCH  34  35
ATOM     35  C   UNL A   1      34.828  33.241  33.042  1.00  0.00     0.261 C 
BRANCH  35  36
ATOM     36  O   UNL A   1      35.904  32.321  33.277  1.00  0.00    -0.460 OA
BRANCH  36  37
ATOM     37  C   UNL A   1      36.706  32.566  34.332  1.00  0.00     0.338 C 
ATOM     38  O   UNL A   1      36.409  33.122  35.378  1.00  0.00    -0.246 OA
BRANCH  37  39
ATOM     39  C   UNL A   1      37.989  31.880  34.084  1.00  0.00     0.060 A 
ATOM     40  C   UNL A   1      39.142  32.321  34.747  1.00  0.00     0.016 A 
ATOM     41  C   UNL A   1      38.048  30.801  33.199  1.00  0.00     0.016 A 
ATOM     42  C   UNL A   1      40.368  31.703  34.499  1.00  0.00     0.010 A 
ATOM     43  C   UNL A   1      39.280  30.199  32.933  1.00  0.00     0.010 A 
ATOM     44  C   UNL A   1      40.449  30.673  33.554  1.00  0.00    -0.014 A 
BRANCH  44  45
ATOM     45  C   UNL A   1      41.775  30.244  33.048  1.00  0.00     0.031 A 
ATOM     46  C   UNL A   1      42.430  31.084  31.984  1.00  0.00     0.074 A 
ATOM     47  C   UNL A   1      42.396  29.152  33.527  1.00  0.00     0.049 A 
ATOM     48  N   UNL A   1      43.550  30.889  31.337  1.00  0.00    -0.248 NA
ATOM     49  C   UNL A   1      41.717  32.313  31.597  1.00  0.00     0.031 C 
ATOM     50  C   UNL A   1      41.887  28.288  34.588  1.00  0.00     0.029 A 
ATOM     51  N   UNL A   1      43.592  28.582  33.169  1.00  0.00    -0.354 N 
ATOM     52  C   UNL A   1      43.670  31.961  30.464  1.00  0.00     0.074 A 
ATOM     53  C   UNL A   1      42.495  32.786  30.636  1.00  0.00     0.031 C 
ATOM     54  C   UNL A   1      42.760  27.285  34.787  1.00  0.00     0.029 A 
ATOM     55  C   UNL A   1      43.870  27.418  33.843  1.00  0.00     0.049 A 
ATOM     56  H   UNL A   1      44.195  28.971  32.495  1.00  0.00     0.167 HD
ATOM     57  C   UNL A   1      44.674  32.238  29.600  1.00  0.00     0.037 A 
ATOM     58  C   UNL A   1      44.889  26.550  33.689  1.00  0.00     0.037 A 
ATOM     59  C   UNL A   1      45.840  31.412  29.429  1.00  0.00     0.049 A 
ATOM     60  C   UNL A   1      45.954  26.836  32.658  1.00  0.00     0.074 A 
ATOM     61  C   UNL A   1      46.921  31.610  28.589  1.00  0.00     0.029 A 
ATOM     62  N   UNL A   1      46.070  30.223  30.106  1.00  0.00    -0.354 N 
ATOM     63  N   UNL A   1      46.076  27.864  31.851  1.00  0.00    -0.248 NA
ATOM     64  C   UNL A   1      47.028  25.842  32.520  1.00  0.00     0.031 C 
ATOM     65  C   UNL A   1      47.775  30.509  28.711  1.00  0.00     0.029 A 
ATOM     66  C   UNL A   1      47.263  29.662  29.681  1.00  0.00     0.049 A 
ATOM     67  H   UNL A   1      45.474  29.836  30.787  1.00  0.00     0.167 HD
ATOM     68  C   UNL A   1      47.254  27.658  31.142  1.00  0.00     0.074 A 
ATOM     69  C   UNL A   1      47.817  26.414  31.623  1.00  0.00     0.031 C 
ATOM     70  C   UNL A   1      47.819  28.430  30.181  1.00  0.00     0.037 A 
BRANCH  57  71
ATOM     71  C   UNL A   1      44.542  33.470  28.752  1.00  0.00     0.064 A 
ATOM     72  C   UNL A   1      44.931  34.736  29.218  1.00  0.00     0.173 A 
ATOM     73  C   UNL A   1      44.047  33.378  27.442  1.00  0.00     0.173 A 
ATOM     74  F   UNL A   1      45.395  34.882  30.468  1.00  0.00    -0.203 F 
ATOM     75  C   UNL A   1      44.804  35.865  28.413  1.00  0.00     0.198 A 
ATOM     76  C   UNL A   1      43.954  34.505  26.629  1.00  0.00     0.198 A 
ATOM     77  F   UNL A   1      43.663  32.192  26.946  1.00  0.00    -0.203 F 
ATOM     78  F   UNL A   1      45.133  37.070  28.898  1.00  0.00    -0.200 F 
ATOM     79  C   UNL A   1      44.325  35.748  27.117  1.00  0.00     0.200 A 
ATOM     80  F   UNL A   1      43.505  34.385  25.373  1.00  0.00    -0.200 F 
ATOM     81  F   UNL A   1      44.213  36.834  26.341  1.00  0.00    -0.200 F 
ENDBRANCH  57  71
BRANCH  58  82
ATOM     82  C   UNL A   1      44.952  25.314  34.515  1.00  0.00     0.064 A 
ATOM     83  C   UNL A   1      45.618  25.299  35.750  1.00  0.00     0.173 A 
ATOM     84  C   UNL A   1      44.385  24.109  34.070  1.00  0.00     0.173 A 
ATOM     85  F   UNL A   1      46.201  26.417  36.209  1.00  0.00    -0.203 F 
ATOM     86  C   UNL A   1      45.737  24.125  36.492  1.00  0.00     0.198 A 
ATOM     87  C   UNL A   1      44.475  22.945  34.830  1.00  0.00     0.198 A 
ATOM     88  F   UNL A   1      43.740  24.065  32.895  1.00  0.00    -0.203 F 
ATOM     89  F   UNL A   1      46.432  24.128  37.638  1.00  0.00    -0.200 F 
ATOM     90  C   UNL A   1      45.161  22.951  36.034  1.00  0.00     0.200 A 
ATOM     91  F   UNL A   1      43.906  21.815  34.388  1.00  0.00    -0.200 F 
ATOM     92  F   UNL A   1      45.278  21.822  36.747  1.00  0.00    -0.200 F 
ENDBRANCH  58  82
BRANCH  70  93
ATOM     93  C   UNL A   1      49.143  27.987  29.621  1.00  0.00     0.064 A 
ATOM     94  C   UNL A   1      50.362  28.407  30.173  1.00  0.00     0.173 A 
ATOM     95  C   UNL A   1      49.187  27.090  28.542  1.00  0.00     0.173 A 
ATOM     96  F   UNL A   1      50.376  29.272  31.198  1.00  0.00    -0.203 F 
ATOM     97  C   UNL A   1      51.575  27.970  29.646  1.00  0.00     0.198 A 
ATOM     98  C   UNL A   1      50.400  26.625  28.042  1.00  0.00     0.198 A 
ATOM     99  F   UNL A   1      48.051  26.646  27.982  1.00  0.00    -0.203 F 
ATOM    100  F   UNL A   1      52.727  28.427  30.155  1.00  0.00    -0.200 F 
ATOM    101  C   UNL A   1      51.593  27.073  28.587  1.00  0.00     0.200 A 
ATOM    102  F   UNL A   1      50.415  25.744  27.033  1.00  0.00    -0.200 F 
ATOM    103  F   UNL A   1      52.762  26.646  28.090  1.00  0.00    -0.200 F 
ENDBRANCH  70  93
ENDBRANCH  44  45
ENDBRANCH  37  39
ENDBRANCH  36  37
ENDBRANCH  35  36
ENDBRANCH  34  35
ENDBRANCH  33  34
ENDBRANCH  32  33
ENDBRANCH  31  32
ENDBRANCH  30  31
ENDBRANCH  29  30
ENDBRANCH   1  29
TORSDOF 25
ENDMDL
