MODEL 1
REMARK VINA RESULT:     -12.1      0.000      0.000
REMARK SMILES CC[C@@](C)(NC(=O)N1CCC[C@H]1C1CCCC1)C(=O)OCCOCCOCCOCCOC(=O)c1ccc(-c2c3nc(c(-c4c(F)c(F)c(F)c(F)c4F)c4ccc([nH]4)c(-c4c(F)c(F)c(F)c(F)c4F)c4nc(c(-c5c(F)c(F)c(F)c(F)c5F)c5ccc2[nH]5)C=C4)C=C3)cc1
REMARK SMILES IDX 25 1 24 2 23 3 22 4 21 5 20 6 18 7 19 8 3 9 4 10 2 11 1 12
REMARK SMILES IDX 5 13 6 14 7 16 8 17 9 18 12 19 10 20 11 21 13 22 14 23 17 24
REMARK SMILES IDX 15 25 16 26 26 27 27 28 28 29 29 30 30 31 31 32 32 33 33 34
REMARK SMILES IDX 34 35 35 36 36 37 97 38 37 39 96 40 38 41 39 42 40 43 90 44
REMARK SMILES IDX 41 45 95 46 89 47 91 48 42 49 94 50 88 51 87 52 43 54 75 55
REMARK SMILES IDX 55 56 74 57 56 58 59 59 73 60 92 61 57 62 58 63 72 65 93 66
REMARK SMILES IDX 60 67 44 68 45 69 53 70 46 71 47 72 51 73 54 74 48 75 49 76
REMARK SMILES IDX 52 77 50 78 76 79 77 80 85 81 78 82 79 83 83 84 86 85 80 86
REMARK SMILES IDX 81 87 84 88 82 89 61 90 62 91 70 92 63 93 64 94 68 95 71 96
REMARK SMILES IDX 65 97 66 98 69 99 67 100
REMARK H PARENT 5 15 91 53 59 64
REMARK Flexibility Score: inf
ROOT
ATOM      1  C   UNL A   1      32.865  21.035  26.729  1.00  0.00     0.188 C 
ENDROOT
BRANCH   1   2
ATOM      2  C   UNL A   1      32.635  22.896  26.761  1.00  0.00     0.188 C 
BRANCH   2   3
ATOM      3  O   UNL A   1      33.727  23.840  26.616  1.00  0.00    -0.376 OA
BRANCH   3   4
ATOM      4  C   UNL A   1      35.063  23.475  26.210  1.00  0.00     0.202 C 
BRANCH   4   5
ATOM      5  C   UNL A   1      35.457  24.022  24.795  1.00  0.00     0.261 C 
BRANCH   5   6
ATOM      6  O   UNL A   1      34.494  24.929  24.276  1.00  0.00    -0.462 OA
BRANCH   6   7
ATOM      7  C   UNL A   1      34.026  24.483  23.093  1.00  0.00     0.331 C 
ATOM      8  O   UNL A   1      34.415  23.429  22.598  1.00  0.00    -0.249 OA
BRANCH   7   9
ATOM      9  C   UNL A   1      32.932  25.396  22.506  1.00  0.00     0.136 C 
ATOM     10  C   UNL A   1      32.890  24.979  21.009  1.00  0.00     0.047 C 
BRANCH   9  11
ATOM     11  C   UNL A   1      31.492  25.127  23.058  1.00  0.00     0.037 C 
ATOM     12  C   UNL A   1      31.076  23.661  23.171  1.00  0.00     0.007 C 
ENDBRANCH   9  11
BRANCH   9  13
ATOM     13  N   UNL A   1      33.290  26.855  22.475  1.00  0.00    -0.322 N 
ATOM     14  C   UNL A   1      33.247  28.064  23.065  1.00  0.00     0.318 C 
ATOM     15  H   UNL A   1      33.783  26.988  21.633  1.00  0.00     0.166 HD
ATOM     16  O   UNL A   1      33.811  28.876  22.309  1.00  0.00    -0.249 OA
BRANCH  14  17
ATOM     17  N   UNL A   1      32.681  28.359  24.408  1.00  0.00    -0.322 N 
ATOM     18  C   UNL A   1      33.760  29.055  25.047  1.00  0.00     0.122 C 
ATOM     19  C   UNL A   1      31.028  29.124  24.976  1.00  0.00     0.090 C 
ATOM     20  C   UNL A   1      33.304  29.389  26.429  1.00  0.00     0.024 C 
ATOM     21  C   UNL A   1      31.769  29.329  26.486  1.00  0.00     0.027 C 
BRANCH  19  22
ATOM     22  C   UNL A   1      29.819  30.249  23.708  1.00  0.00     0.012 C 
ATOM     23  C   UNL A   1      28.352  29.500  22.858  1.00  0.00     0.006 C 
ATOM     24  C   UNL A   1      28.813  31.553  23.815  1.00  0.00     0.006 C 
ATOM     25  C   UNL A   1      27.997  30.384  21.729  1.00  0.00     0.000 C 
ATOM     26  C   UNL A   1      28.039  31.717  22.422  1.00  0.00     0.000 C 
ENDBRANCH  19  22
ENDBRANCH  14  17
ENDBRANCH   9  13
ENDBRANCH   7   9
ENDBRANCH   6   7
ENDBRANCH   5   6
ENDBRANCH   4   5
ENDBRANCH   3   4
ENDBRANCH   2   3
ENDBRANCH   1   2
BRANCH   1  27
ATOM     27  O   UNL A   1      32.417  19.826  25.359  1.00  0.00    -0.377 OA
BRANCH  27  28
ATOM     28  C   UNL A   1      33.417  18.661  24.321  1.00  0.00     0.188 C 
BRANCH  28  29
ATOM     29  C   UNL A   1      35.126  18.032  24.620  1.00  0.00     0.188 C 
BRANCH  29  30
ATOM     30  O   UNL A   1      36.274  18.882  24.313  1.00  0.00    -0.376 OA
BRANCH  30  31
ATOM     31  C   UNL A   1      37.388  19.448  25.000  1.00  0.00     0.202 C 
BRANCH  31  32
ATOM     32  C   UNL A   1      37.392  20.862  25.587  1.00  0.00     0.261 C 
BRANCH  32  33
ATOM     33  O   UNL A   1      38.580  21.580  25.297  1.00  0.00    -0.460 OA
BRANCH  33  34
ATOM     34  C   UNL A   1      39.621  21.270  26.126  1.00  0.00     0.338 C 
ATOM     35  O   UNL A   1      40.261  20.265  26.147  1.00  0.00    -0.246 OA
BRANCH  34  36
ATOM     36  C   UNL A   1      40.028  22.572  26.715  1.00  0.00     0.060 A 
ATOM     37  C   UNL A   1      39.178  23.668  26.499  1.00  0.00     0.016 A 
ATOM     38  C   UNL A   1      41.043  22.637  27.671  1.00  0.00     0.016 A 
ATOM     39  C   UNL A   1      39.347  24.835  27.249  1.00  0.00     0.010 A 
ATOM     40  C   UNL A   1      41.207  23.801  28.422  1.00  0.00     0.010 A 
ATOM     41  C   UNL A   1      40.389  24.921  28.184  1.00  0.00    -0.014 A 
BRANCH  41  42
ATOM     42  C   UNL A   1      40.917  26.259  28.534  1.00  0.00     0.031 A 
ATOM     43  C   UNL A   1      42.312  26.535  28.032  1.00  0.00     0.074 A 
ATOM     44  C   UNL A   1      40.239  27.197  29.219  1.00  0.00     0.049 A 
ATOM     45  N   UNL A   1      43.051  27.605  28.143  1.00  0.00    -0.248 NA
ATOM     46  C   UNL A   1      42.986  25.417  27.342  1.00  0.00     0.031 C 
ATOM     47  C   UNL A   1      38.904  27.059  29.798  1.00  0.00     0.029 A 
ATOM     48  N   UNL A   1      40.607  28.484  29.533  1.00  0.00    -0.354 N 
ATOM     49  C   UNL A   1      44.261  27.267  27.552  1.00  0.00     0.074 A 
ATOM     50  C   UNL A   1      44.215  25.869  27.218  1.00  0.00     0.031 C 
ATOM     51  C   UNL A   1      38.556  28.228  30.375  1.00  0.00     0.029 A 
ATOM     52  C   UNL A   1      39.643  29.194  30.208  1.00  0.00     0.049 A 
ATOM     53  H   UNL A   1      41.484  28.863  29.297  1.00  0.00     0.167 HD
ATOM     54  C   UNL A   1      45.302  28.063  27.229  1.00  0.00     0.037 A 
ATOM     55  C   UNL A   1      39.649  30.481  30.614  1.00  0.00     0.037 A 
ATOM     56  C   UNL A   1      45.343  29.460  27.521  1.00  0.00     0.049 A 
ATOM     57  C   UNL A   1      40.849  31.352  30.294  1.00  0.00     0.074 A 
ATOM     58  C   UNL A   1      46.331  30.374  27.220  1.00  0.00     0.029 A 
ATOM     59  N   UNL A   1      44.340  30.140  28.193  1.00  0.00    -0.354 N 
ATOM     60  N   UNL A   1      41.946  31.056  29.637  1.00  0.00    -0.248 NA
ATOM     61  C   UNL A   1      40.793  32.748  30.755  1.00  0.00     0.031 C 
ATOM     62  C   UNL A   1      45.950  31.605  27.761  1.00  0.00     0.029 A 
ATOM     63  C   UNL A   1      44.695  31.467  28.334  1.00  0.00     0.049 A 
ATOM     64  H   UNL A   1      43.503  29.739  28.520  1.00  0.00     0.167 HD
ATOM     65  C   UNL A   1      42.675  32.240  29.552  1.00  0.00     0.074 A 
ATOM     66  C   UNL A   1      41.896  33.256  30.227  1.00  0.00     0.031 C 
ATOM     67  C   UNL A   1      43.876  32.470  28.965  1.00  0.00     0.037 A 
BRANCH  54  68
ATOM     68  C   UNL A   1      46.450  27.404  26.529  1.00  0.00     0.064 A 
ATOM     69  C   UNL A   1      47.457  26.727  27.240  1.00  0.00     0.173 A 
ATOM     70  C   UNL A   1      46.595  27.532  25.142  1.00  0.00     0.173 A 
ATOM     71  F   UNL A   1      47.383  26.616  28.576  1.00  0.00    -0.203 F 
ATOM     72  C   UNL A   1      48.595  26.257  26.593  1.00  0.00     0.198 A 
ATOM     73  C   UNL A   1      47.714  27.021  24.494  1.00  0.00     0.198 A 
ATOM     74  F   UNL A   1      45.669  28.182  24.423  1.00  0.00    -0.203 F 
ATOM     75  F   UNL A   1      49.590  25.709  27.304  1.00  0.00    -0.200 F 
ATOM     76  C   UNL A   1      48.720  26.400  25.220  1.00  0.00     0.200 A 
ATOM     77  F   UNL A   1      47.834  27.157  23.166  1.00  0.00    -0.200 F 
ATOM     78  F   UNL A   1      49.822  25.960  24.599  1.00  0.00    -0.200 F 
ENDBRANCH  54  68
BRANCH  55  79
ATOM     79  C   UNL A   1      38.474  31.075  31.314  1.00  0.00     0.064 A 
ATOM     80  C   UNL A   1      37.446  31.699  30.590  1.00  0.00     0.173 A 
ATOM     81  C   UNL A   1      38.397  31.119  32.713  1.00  0.00     0.173 A 
ATOM     82  F   UNL A   1      37.487  31.713  29.248  1.00  0.00    -0.203 F 
ATOM     83  C   UNL A   1      36.413  32.378  31.234  1.00  0.00     0.198 A 
ATOM     84  C   UNL A   1      37.347  31.776  33.357  1.00  0.00     0.198 A 
ATOM     85  F   UNL A   1      39.355  30.548  33.457  1.00  0.00    -0.203 F 
ATOM     86  F   UNL A   1      35.489  33.029  30.513  1.00  0.00    -0.200 F 
ATOM     87  C   UNL A   1      36.363  32.416  32.618  1.00  0.00     0.200 A 
ATOM     88  F   UNL A   1      37.302  31.810  34.696  1.00  0.00    -0.200 F 
ATOM     89  F   UNL A   1      35.382  33.085  33.239  1.00  0.00    -0.200 F 
ENDBRANCH  55  79
BRANCH  67  90
ATOM     90  C   UNL A   1      44.387  33.882  28.927  1.00  0.00     0.064 A 
ATOM     91  C   UNL A   1      44.042  34.776  27.905  1.00  0.00     0.173 A 
ATOM     92  C   UNL A   1      45.175  34.366  29.986  1.00  0.00     0.173 A 
ATOM     93  F   UNL A   1      43.294  34.364  26.871  1.00  0.00    -0.203 F 
ATOM     94  C   UNL A   1      44.490  36.095  27.929  1.00  0.00     0.198 A 
ATOM     95  C   UNL A   1      45.586  35.694  30.027  1.00  0.00     0.198 A 
ATOM     96  F   UNL A   1      45.519  33.556  30.999  1.00  0.00    -0.203 F 
ATOM     97  F   UNL A   1      44.188  36.920  26.917  1.00  0.00    -0.200 F 
ATOM     98  C   UNL A   1      45.252  36.555  28.993  1.00  0.00     0.200 A 
ATOM     99  F   UNL A   1      46.301  36.141  31.068  1.00  0.00    -0.200 F 
ATOM    100  F   UNL A   1      45.666  37.829  29.022  1.00  0.00    -0.200 F 
ENDBRANCH  67  90
ENDBRANCH  41  42
ENDBRANCH  34  36
ENDBRANCH  33  34
ENDBRANCH  32  33
ENDBRANCH  31  32
ENDBRANCH  30  31
ENDBRANCH  29  30
ENDBRANCH  28  29
ENDBRANCH  27  28
ENDBRANCH   1  27
TORSDOF 24
ENDMDL
MODEL 2
REMARK VINA RESULT:     -12.1      2.352      7.903
REMARK SMILES CC[C@@](C)(NC(=O)N1CCC[C@H]1C1CCCC1)C(=O)OCCOCCOCCOCCOC(=O)c1ccc(-c2c3nc(c(-c4c(F)c(F)c(F)c(F)c4F)c4ccc([nH]4)c(-c4c(F)c(F)c(F)c(F)c4F)c4nc(c(-c5c(F)c(F)c(F)c(F)c5F)c5ccc2[nH]5)C=C4)C=C3)cc1
REMARK SMILES IDX 25 1 24 2 23 3 22 4 21 5 20 6 18 7 19 8 3 9 4 10 2 11 1 12
REMARK SMILES IDX 5 13 6 14 7 16 8 17 9 18 12 19 10 20 11 21 13 22 14 23 17 24
REMARK SMILES IDX 15 25 16 26 26 27 27 28 28 29 29 30 30 31 31 32 32 33 33 34
REMARK SMILES IDX 34 35 35 36 36 37 97 38 37 39 96 40 38 41 39 42 40 43 90 44
REMARK SMILES IDX 41 45 95 46 89 47 91 48 42 49 94 50 88 51 87 52 43 54 75 55
REMARK SMILES IDX 55 56 74 57 56 58 59 59 73 60 92 61 57 62 58 63 72 65 93 66
REMARK SMILES IDX 60 67 44 68 45 69 53 70 46 71 47 72 51 73 54 74 48 75 49 76
REMARK SMILES IDX 52 77 50 78 76 79 77 80 85 81 78 82 79 83 83 84 86 85 80 86
REMARK SMILES IDX 81 87 84 88 82 89 61 90 62 91 70 92 63 93 64 94 68 95 71 96
REMARK SMILES IDX 65 97 66 98 69 99 67 100
REMARK H PARENT 5 15 91 53 59 64
REMARK Flexibility Score: inf
ROOT
ATOM      1  C   UNL A   1      33.114  22.652  23.508  1.00  0.00     0.188 C 
ENDROOT
BRANCH   1   2
ATOM      2  C   UNL A   1      31.360  23.315  23.559  1.00  0.00     0.188 C 
BRANCH   2   3
ATOM      3  O   UNL A   1      31.026  24.664  23.973  1.00  0.00    -0.376 OA
BRANCH   3   4
ATOM      4  C   UNL A   1      30.321  25.613  23.146  1.00  0.00     0.202 C 
BRANCH   4   5
ATOM      5  C   UNL A   1      29.134  26.324  23.884  1.00  0.00     0.261 C 
BRANCH   5   6
ATOM      6  O   UNL A   1      29.413  27.687  24.172  1.00  0.00    -0.462 OA
BRANCH   6   7
ATOM      7  C   UNL A   1      28.813  28.485  23.265  1.00  0.00     0.331 C 
ATOM      8  O   UNL A   1      27.689  28.244  22.833  1.00  0.00    -0.249 OA
BRANCH   7   9
ATOM      9  C   UNL A   1      29.660  29.724  22.915  1.00  0.00     0.136 C 
ATOM     10  C   UNL A   1      29.167  30.095  21.488  1.00  0.00     0.047 C 
BRANCH   9  11
ATOM     11  C   UNL A   1      29.372  30.982  23.800  1.00  0.00     0.037 C 
ATOM     12  C   UNL A   1      28.013  31.651  23.600  1.00  0.00     0.007 C 
ENDBRANCH   9  11
BRANCH   9  13
ATOM     13  N   UNL A   1      31.126  29.447  22.741  1.00  0.00    -0.322 N 
ATOM     14  C   UNL A   1      32.253  28.876  23.205  1.00  0.00     0.318 C 
ATOM     15  H   UNL A   1      31.379  29.887  21.897  1.00  0.00     0.166 HD
ATOM     16  O   UNL A   1      33.173  29.152  22.413  1.00  0.00    -0.249 OA
BRANCH  14  17
ATOM     17  N   UNL A   1      32.362  28.017  24.414  1.00  0.00    -0.322 N 
ATOM     18  C   UNL A   1      33.590  27.315  24.179  1.00  0.00     0.122 C 
ATOM     19  C   UNL A   1      32.204  28.383  26.279  1.00  0.00     0.090 C 
ATOM     20  C   UNL A   1      33.793  26.396  25.338  1.00  0.00     0.024 C 
ATOM     21  C   UNL A   1      32.943  26.878  26.525  1.00  0.00     0.027 C 
BRANCH  19  22
ATOM     22  C   UNL A   1      32.368  30.306  27.063  1.00  0.00     0.012 C 
ATOM     23  C   UNL A   1      34.019  31.114  27.297  1.00  0.00     0.006 C 
ATOM     24  C   UNL A   1      31.923  31.839  26.646  1.00  0.00     0.006 C 
ATOM     25  C   UNL A   1      33.835  32.226  28.252  1.00  0.00     0.000 C 
ATOM     26  C   UNL A   1      32.606  32.865  27.669  1.00  0.00     0.000 C 
ENDBRANCH  19  22
ENDBRANCH  14  17
ENDBRANCH   9  13
ENDBRANCH   7   9
ENDBRANCH   6   7
ENDBRANCH   5   6
ENDBRANCH   4   5
ENDBRANCH   3   4
ENDBRANCH   2   3
ENDBRANCH   1   2
BRANCH   1  27
ATOM     27  O   UNL A   1      33.797  21.093  24.311  1.00  0.00    -0.377 OA
BRANCH  27  28
ATOM     28  C   UNL A   1      35.465  20.638  24.976  1.00  0.00     0.188 C 
BRANCH  28  29
ATOM     29  C   UNL A   1      37.018  21.637  24.970  1.00  0.00     0.188 C 
BRANCH  29  30
ATOM     30  O   UNL A   1      38.134  21.244  25.827  1.00  0.00    -0.376 OA
BRANCH  30  31
ATOM     31  C   UNL A   1      39.506  20.883  25.682  1.00  0.00     0.202 C 
BRANCH  31  32
ATOM     32  C   UNL A   1      40.060  19.501  26.043  1.00  0.00     0.261 C 
BRANCH  32  33
ATOM     33  O   UNL A   1      41.271  19.197  25.371  1.00  0.00    -0.460 OA
BRANCH  33  34
ATOM     34  C   UNL A   1      42.357  19.146  26.199  1.00  0.00     0.338 C 
ATOM     35  O   UNL A   1      43.025  18.196  26.465  1.00  0.00    -0.246 OA
BRANCH  34  36
ATOM     36  C   UNL A   1      42.752  20.566  26.382  1.00  0.00     0.060 A 
ATOM     37  C   UNL A   1      42.985  21.323  25.223  1.00  0.00     0.016 A 
ATOM     38  C   UNL A   1      42.617  21.190  27.624  1.00  0.00     0.016 A 
ATOM     39  C   UNL A   1      43.079  22.715  25.311  1.00  0.00     0.010 A 
ATOM     40  C   UNL A   1      42.706  22.579  27.709  1.00  0.00     0.010 A 
ATOM     41  C   UNL A   1      42.982  23.344  26.561  1.00  0.00    -0.014 A 
BRANCH  41  42
ATOM     42  C   UNL A   1      43.629  24.665  26.740  1.00  0.00     0.031 A 
ATOM     43  C   UNL A   1      42.713  25.749  27.250  1.00  0.00     0.074 A 
ATOM     44  C   UNL A   1      44.929  24.921  26.507  1.00  0.00     0.049 A 
ATOM     45  N   UNL A   1      42.963  26.997  27.536  1.00  0.00    -0.248 NA
ATOM     46  C   UNL A   1      41.295  25.374  27.418  1.00  0.00     0.031 C 
ATOM     47  C   UNL A   1      45.920  23.986  25.978  1.00  0.00     0.029 A 
ATOM     48  N   UNL A   1      45.637  26.082  26.706  1.00  0.00    -0.354 N 
ATOM     49  C   UNL A   1      41.735  27.535  27.895  1.00  0.00     0.074 A 
ATOM     50  C   UNL A   1      40.727  26.537  27.657  1.00  0.00     0.031 C 
ATOM     51  C   UNL A   1      47.116  24.607  25.920  1.00  0.00     0.029 A 
ATOM     52  C   UNL A   1      46.975  25.980  26.405  1.00  0.00     0.049 A 
ATOM     53  H   UNL A   1      45.224  26.912  27.035  1.00  0.00     0.167 HD
ATOM     54  C   UNL A   1      41.461  28.730  28.459  1.00  0.00     0.037 A 
ATOM     55  C   UNL A   1      47.957  26.896  26.537  1.00  0.00     0.037 A 
ATOM     56  C   UNL A   1      42.458  29.715  28.736  1.00  0.00     0.049 A 
ATOM     57  C   UNL A   1      47.627  28.256  27.121  1.00  0.00     0.074 A 
ATOM     58  C   UNL A   1      42.305  30.950  29.329  1.00  0.00     0.029 A 
ATOM     59  N   UNL A   1      43.800  29.565  28.428  1.00  0.00    -0.354 N 
ATOM     60  N   UNL A   1      46.483  28.723  27.562  1.00  0.00    -0.248 NA
ATOM     61  C   UNL A   1      48.742  29.209  27.246  1.00  0.00     0.031 C 
ATOM     62  C   UNL A   1      43.555  31.578  29.330  1.00  0.00     0.029 A 
ATOM     63  C   UNL A   1      44.490  30.701  28.803  1.00  0.00     0.049 A 
ATOM     64  H   UNL A   1      44.201  28.772  28.006  1.00  0.00     0.167 HD
ATOM     65  C   UNL A   1      46.754  29.990  28.072  1.00  0.00     0.074 A 
ATOM     66  C   UNL A   1      48.170  30.220  27.884  1.00  0.00     0.031 C 
ATOM     67  C   UNL A   1      45.911  30.882  28.651  1.00  0.00     0.037 A 
BRANCH  54  68
ATOM     68  C   UNL A   1      40.026  28.993  28.796  1.00  0.00     0.064 A 
ATOM     69  C   UNL A   1      39.518  28.762  30.087  1.00  0.00     0.173 A 
ATOM     70  C   UNL A   1      39.130  29.391  27.796  1.00  0.00     0.173 A 
ATOM     71  F   UNL A   1      40.330  28.338  31.068  1.00  0.00    -0.203 F 
ATOM     72  C   UNL A   1      38.154  28.861  30.345  1.00  0.00     0.198 A 
ATOM     73  C   UNL A   1      37.775  29.531  28.070  1.00  0.00     0.198 A 
ATOM     74  F   UNL A   1      39.565  29.610  26.547  1.00  0.00    -0.203 F 
ATOM     75  F   UNL A   1      37.678  28.533  31.554  1.00  0.00    -0.200 F 
ATOM     76  C   UNL A   1      37.285  29.251  29.338  1.00  0.00     0.200 A 
ATOM     77  F   UNL A   1      36.934  29.911  27.098  1.00  0.00    -0.200 F 
ATOM     78  F   UNL A   1      35.970  29.332  29.583  1.00  0.00    -0.200 F 
ENDBRANCH  54  68
BRANCH  55  79
ATOM     79  C   UNL A   1      49.368  26.572  26.176  1.00  0.00     0.064 A 
ATOM     80  C   UNL A   1      50.266  26.097  27.145  1.00  0.00     0.173 A 
ATOM     81  C   UNL A   1      49.873  26.818  24.892  1.00  0.00     0.173 A 
ATOM     82  F   UNL A   1      49.841  25.875  28.398  1.00  0.00    -0.203 F 
ATOM     83  C   UNL A   1      51.618  25.921  26.857  1.00  0.00     0.198 A 
ATOM     84  C   UNL A   1      51.222  26.615  24.596  1.00  0.00     0.198 A 
ATOM     85  F   UNL A   1      49.064  27.281  23.929  1.00  0.00    -0.203 F 
ATOM     86  F   UNL A   1      52.465  25.540  27.824  1.00  0.00    -0.200 F 
ATOM     87  C   UNL A   1      52.096  26.180  25.581  1.00  0.00     0.200 A 
ATOM     88  F   UNL A   1      51.681  26.866  23.363  1.00  0.00    -0.200 F 
ATOM     89  F   UNL A   1      53.400  26.030  25.308  1.00  0.00    -0.200 F 
ENDBRANCH  55  79
BRANCH  67  90
ATOM     90  C   UNL A   1      46.496  32.144  29.217  1.00  0.00     0.064 A 
ATOM     91  C   UNL A   1      46.572  33.332  28.476  1.00  0.00     0.173 A 
ATOM     92  C   UNL A   1      46.911  32.180  30.559  1.00  0.00     0.173 A 
ATOM     93  F   UNL A   1      46.190  33.352  27.190  1.00  0.00    -0.203 F 
ATOM     94  C   UNL A   1      47.071  34.500  29.049  1.00  0.00     0.198 A 
ATOM     95  C   UNL A   1      47.370  33.357  31.139  1.00  0.00     0.198 A 
ATOM     96  F   UNL A   1      46.842  31.075  31.317  1.00  0.00    -0.203 F 
ATOM     97  F   UNL A   1      47.180  35.612  28.309  1.00  0.00    -0.200 F 
ATOM     98  C   UNL A   1      47.459  34.514  30.380  1.00  0.00     0.200 A 
ATOM     99  F   UNL A   1      47.720  33.374  32.432  1.00  0.00    -0.200 F 
ATOM    100  F   UNL A   1      47.921  35.644  30.934  1.00  0.00    -0.200 F 
ENDBRANCH  67  90
ENDBRANCH  41  42
ENDBRANCH  34  36
ENDBRANCH  33  34
ENDBRANCH  32  33
ENDBRANCH  31  32
ENDBRANCH  30  31
ENDBRANCH  29  30
ENDBRANCH  28  29
ENDBRANCH  27  28
ENDBRANCH   1  27
TORSDOF 24
ENDMDL
MODEL 3
REMARK VINA RESULT:     -11.7      2.246      7.787
REMARK SMILES CC[C@@](C)(NC(=O)N1CCC[C@H]1C1CCCC1)C(=O)OCCOCCOCCOCCOC(=O)c1ccc(-c2c3nc(c(-c4c(F)c(F)c(F)c(F)c4F)c4ccc([nH]4)c(-c4c(F)c(F)c(F)c(F)c4F)c4nc(c(-c5c(F)c(F)c(F)c(F)c5F)c5ccc2[nH]5)C=C4)C=C3)cc1
REMARK SMILES IDX 25 1 24 2 23 3 22 4 21 5 20 6 18 7 19 8 3 9 4 10 2 11 1 12
REMARK SMILES IDX 5 13 6 14 7 16 8 17 9 18 12 19 10 20 11 21 13 22 14 23 17 24
REMARK SMILES IDX 15 25 16 26 26 27 27 28 28 29 29 30 30 31 31 32 32 33 33 34
REMARK SMILES IDX 34 35 35 36 36 37 97 38 37 39 96 40 38 41 39 42 40 43 90 44
REMARK SMILES IDX 41 45 95 46 89 47 91 48 42 49 94 50 88 51 87 52 43 54 75 55
REMARK SMILES IDX 55 56 74 57 56 58 59 59 73 60 92 61 57 62 58 63 72 65 93 66
REMARK SMILES IDX 60 67 44 68 45 69 53 70 46 71 47 72 51 73 54 74 48 75 49 76
REMARK SMILES IDX 52 77 50 78 76 79 77 80 85 81 78 82 79 83 83 84 86 85 80 86
REMARK SMILES IDX 81 87 84 88 82 89 61 90 62 91 70 92 63 93 64 94 68 95 71 96
REMARK SMILES IDX 65 97 66 98 69 99 67 100
REMARK H PARENT 5 15 91 53 59 64
REMARK Flexibility Score: inf
ROOT
ATOM      1  C   UNL A   1      32.544  21.910  23.087  1.00  0.00     0.188 C 
ENDROOT
BRANCH   1   2
ATOM      2  C   UNL A   1      31.063  23.053  23.219  1.00  0.00     0.188 C 
BRANCH   2   3
ATOM      3  O   UNL A   1      31.125  24.380  23.801  1.00  0.00    -0.376 OA
BRANCH   3   4
ATOM      4  C   UNL A   1      30.717  25.583  23.118  1.00  0.00     0.202 C 
BRANCH   4   5
ATOM      5  C   UNL A   1      29.398  26.209  23.690  1.00  0.00     0.261 C 
BRANCH   5   6
ATOM      6  O   UNL A   1      29.578  27.550  24.125  1.00  0.00    -0.462 OA
BRANCH   6   7
ATOM      7  C   UNL A   1      28.926  28.396  23.302  1.00  0.00     0.331 C 
ATOM      8  O   UNL A   1      27.774  28.185  22.935  1.00  0.00    -0.249 OA
BRANCH   7   9
ATOM      9  C   UNL A   1      29.760  29.645  22.956  1.00  0.00     0.136 C 
ATOM     10  C   UNL A   1      29.202  30.067  21.567  1.00  0.00     0.047 C 
BRANCH   9  11
ATOM     11  C   UNL A   1      29.519  30.872  23.897  1.00  0.00     0.037 C 
ATOM     12  C   UNL A   1      28.751  32.046  23.291  1.00  0.00     0.007 C 
ENDBRANCH   9  11
BRANCH   9  13
ATOM     13  N   UNL A   1      31.216  29.372  22.703  1.00  0.00    -0.322 N 
ATOM     14  C   UNL A   1      32.391  28.890  23.149  1.00  0.00     0.318 C 
ATOM     15  H   UNL A   1      31.390  29.694  21.789  1.00  0.00     0.166 HD
ATOM     16  O   UNL A   1      33.238  29.069  22.254  1.00  0.00    -0.249 OA
BRANCH  14  17
ATOM     17  N   UNL A   1      32.618  28.210  24.451  1.00  0.00    -0.322 N 
ATOM     18  C   UNL A   1      33.813  27.459  24.199  1.00  0.00     0.122 C 
ATOM     19  C   UNL A   1      32.650  28.841  26.251  1.00  0.00     0.090 C 
ATOM     20  C   UNL A   1      34.129  26.711  25.451  1.00  0.00     0.024 C 
ATOM     21  C   UNL A   1      33.404  27.372  26.636  1.00  0.00     0.027 C 
BRANCH  19  22
ATOM     22  C   UNL A   1      32.901  30.852  26.731  1.00  0.00     0.012 C 
ATOM     23  C   UNL A   1      31.446  31.971  26.987  1.00  0.00     0.006 C 
ATOM     24  C   UNL A   1      33.526  31.746  27.969  1.00  0.00     0.006 C 
ATOM     25  C   UNL A   1      31.930  33.361  26.860  1.00  0.00     0.000 C 
ATOM     26  C   UNL A   1      33.158  33.285  27.724  1.00  0.00     0.000 C 
ENDBRANCH  19  22
ENDBRANCH  14  17
ENDBRANCH   9  13
ENDBRANCH   7   9
ENDBRANCH   6   7
ENDBRANCH   5   6
ENDBRANCH   4   5
ENDBRANCH   3   4
ENDBRANCH   2   3
ENDBRANCH   1   2
BRANCH   1  27
ATOM     27  O   UNL A   1      33.187  20.679  24.356  1.00  0.00    -0.377 OA
BRANCH  27  28
ATOM     28  C   UNL A   1      34.881  20.287  24.996  1.00  0.00     0.188 C 
BRANCH  28  29
ATOM     29  C   UNL A   1      36.466  21.177  24.675  1.00  0.00     0.188 C 
BRANCH  29  30
ATOM     30  O   UNL A   1      37.599  20.984  25.577  1.00  0.00    -0.376 OA
BRANCH  30  31
ATOM     31  C   UNL A   1      39.011  20.805  25.482  1.00  0.00     0.202 C 
BRANCH  31  32
ATOM     32  C   UNL A   1      39.738  19.544  25.960  1.00  0.00     0.261 C 
BRANCH  32  33
ATOM     33  O   UNL A   1      41.003  19.367  25.345  1.00  0.00    -0.460 OA
BRANCH  33  34
ATOM     34  C   UNL A   1      42.033  19.260  26.236  1.00  0.00     0.338 C 
ATOM     35  O   UNL A   1      42.694  18.297  26.473  1.00  0.00    -0.246 OA
BRANCH  34  36
ATOM     36  C   UNL A   1      42.399  20.665  26.553  1.00  0.00     0.060 A 
ATOM     37  C   UNL A   1      42.557  21.547  25.472  1.00  0.00     0.016 A 
ATOM     38  C   UNL A   1      42.304  21.150  27.858  1.00  0.00     0.016 A 
ATOM     39  C   UNL A   1      42.619  22.924  25.703  1.00  0.00     0.010 A 
ATOM     40  C   UNL A   1      42.361  22.525  28.087  1.00  0.00     0.010 A 
ATOM     41  C   UNL A   1      42.563  23.415  27.016  1.00  0.00    -0.014 A 
BRANCH  41  42
ATOM     42  C   UNL A   1      43.182  24.729  27.307  1.00  0.00     0.031 A 
ATOM     43  C   UNL A   1      42.211  25.801  27.731  1.00  0.00     0.074 A 
ATOM     44  C   UNL A   1      44.500  24.988  27.239  1.00  0.00     0.049 A 
ATOM     45  N   UNL A   1      42.423  27.041  28.078  1.00  0.00    -0.248 NA
ATOM     46  C   UNL A   1      40.783  25.425  27.717  1.00  0.00     0.031 C 
ATOM     47  C   UNL A   1      45.549  24.066  26.809  1.00  0.00     0.029 A 
ATOM     48  N   UNL A   1      45.179  26.142  27.553  1.00  0.00    -0.354 N 
ATOM     49  C   UNL A   1      41.160  27.572  28.300  1.00  0.00     0.074 A 
ATOM     50  C   UNL A   1      40.190  26.582  27.916  1.00  0.00     0.031 C 
ATOM     51  C   UNL A   1      46.743  24.684  26.912  1.00  0.00     0.029 A 
ATOM     52  C   UNL A   1      46.543  26.045  27.413  1.00  0.00     0.049 A 
ATOM     53  H   UNL A   1      44.728  26.964  27.851  1.00  0.00     0.167 HD
ATOM     54  C   UNL A   1      40.819  28.752  28.858  1.00  0.00     0.037 A 
ATOM     55  C   UNL A   1      47.501  26.955  27.686  1.00  0.00     0.037 A 
ATOM     56  C   UNL A   1      41.774  29.727  29.280  1.00  0.00     0.049 A 
ATOM     57  C   UNL A   1      47.102  28.300  28.262  1.00  0.00     0.074 A 
ATOM     58  C   UNL A   1      41.550  30.947  29.882  1.00  0.00     0.029 A 
ATOM     59  N   UNL A   1      43.144  29.583  29.132  1.00  0.00    -0.354 N 
ATOM     60  N   UNL A   1      45.912  28.757  28.574  1.00  0.00    -0.248 NA
ATOM     61  C   UNL A   1      48.193  29.247  28.546  1.00  0.00     0.031 C 
ATOM     62  C   UNL A   1      42.790  31.572  30.050  1.00  0.00     0.029 A 
ATOM     63  C   UNL A   1      43.783  30.707  29.617  1.00  0.00     0.049 A 
ATOM     64  H   UNL A   1      43.593  28.800  28.741  1.00  0.00     0.167 HD
ATOM     65  C   UNL A   1      46.118  30.010  29.146  1.00  0.00     0.074 A 
ATOM     66  C   UNL A   1      47.547  30.241  29.136  1.00  0.00     0.031 C 
ATOM     67  C   UNL A   1      45.211  30.888  29.642  1.00  0.00     0.037 A 
BRANCH  54  68
ATOM     68  C   UNL A   1      39.353  29.010  29.026  1.00  0.00     0.064 A 
ATOM     69  C   UNL A   1      38.559  29.469  27.960  1.00  0.00     0.173 A 
ATOM     70  C   UNL A   1      38.757  28.887  30.287  1.00  0.00     0.173 A 
ATOM     71  F   UNL A   1      39.096  29.645  26.743  1.00  0.00    -0.203 F 
ATOM     72  C   UNL A   1      37.238  29.853  28.169  1.00  0.00     0.198 A 
ATOM     73  C   UNL A   1      37.424  29.230  30.481  1.00  0.00     0.198 A 
ATOM     74  F   UNL A   1      39.478  28.466  31.337  1.00  0.00    -0.203 F 
ATOM     75  F   UNL A   1      36.532  30.388  27.164  1.00  0.00    -0.200 F 
ATOM     76  C   UNL A   1      36.671  29.728  29.427  1.00  0.00     0.200 A 
ATOM     77  F   UNL A   1      36.874  29.106  31.697  1.00  0.00    -0.200 F 
ATOM     78  F   UNL A   1      35.403  30.111  29.631  1.00  0.00    -0.200 F 
ENDBRANCH  54  68
BRANCH  55  79
ATOM     79  C   UNL A   1      48.945  26.638  27.489  1.00  0.00     0.064 A 
ATOM     80  C   UNL A   1      49.508  26.618  26.203  1.00  0.00     0.173 A 
ATOM     81  C   UNL A   1      49.766  26.256  28.559  1.00  0.00     0.173 A 
ATOM     82  F   UNL A   1      48.757  26.945  25.140  1.00  0.00    -0.203 F 
ATOM     83  C   UNL A   1      50.817  26.191  25.990  1.00  0.00     0.198 A 
ATOM     84  C   UNL A   1      51.086  25.854  28.348  1.00  0.00     0.198 A 
ATOM     85  F   UNL A   1      49.280  26.246  29.809  1.00  0.00    -0.203 F 
ATOM     86  F   UNL A   1      51.300  26.111  24.742  1.00  0.00    -0.200 F 
ATOM     87  C   UNL A   1      51.607  25.809  27.063  1.00  0.00     0.200 A 
ATOM     88  F   UNL A   1      51.847  25.486  29.388  1.00  0.00    -0.200 F 
ATOM     89  F   UNL A   1      52.860  25.379  26.858  1.00  0.00    -0.200 F 
ENDBRANCH  55  79
BRANCH  67  90
ATOM     90  C   UNL A   1      45.722  32.134  30.307  1.00  0.00     0.064 A 
ATOM     91  C   UNL A   1      46.193  32.139  31.628  1.00  0.00     0.173 A 
ATOM     92  C   UNL A   1      45.816  33.329  29.573  1.00  0.00     0.173 A 
ATOM     93  F   UNL A   1      46.125  31.026  32.373  1.00  0.00    -0.203 F 
ATOM     94  C   UNL A   1      46.711  33.300  32.197  1.00  0.00     0.198 A 
ATOM     95  C   UNL A   1      46.370  34.475  30.131  1.00  0.00     0.198 A 
ATOM     96  F   UNL A   1      45.396  33.374  28.299  1.00  0.00    -0.203 F 
ATOM     97  F   UNL A   1      47.111  33.295  33.476  1.00  0.00    -0.200 F 
ATOM     98  C   UNL A   1      46.808  34.463  31.447  1.00  0.00     0.200 A 
ATOM     99  F   UNL A   1      46.486  35.589  29.396  1.00  0.00    -0.200 F 
ATOM    100  F   UNL A   1      47.323  35.573  31.991  1.00  0.00    -0.200 F 
ENDBRANCH  67  90
ENDBRANCH  41  42
ENDBRANCH  34  36
ENDBRANCH  33  34
ENDBRANCH  32  33
ENDBRANCH  31  32
ENDBRANCH  30  31
ENDBRANCH  29  30
ENDBRANCH  28  29
ENDBRANCH  27  28
ENDBRANCH   1  27
TORSDOF 24
ENDMDL
