MODEL 1
REMARK VINA RESULT:      -9.5      0.000      0.000
REMARK SMILES CCCCCCOC(=O)Nc1cccc(-c2ccc([C@@H](C)C(=O)OCCOCCOCCOCCOC(=O)c3ccc(-c4c5nc(c(-c6c(F)c(F)c(F)c(F)c6F)c6ccc([nH]6)c(-c6c(F)c(F)c(F)c(F)c6F)c6nc(c(-c7c(F)c(F)c(F)c(F)c7F)c7ccc4[nH]7)C=C6)C=C5)cc3)cc2F)c1
REMARK SMILES IDX 26 1 25 2 24 3 22 4 23 5 20 6 21 7 19 8 16 9 17 10 103 11
REMARK SMILES IDX 18 12 102 13 104 14 15 15 11 16 12 17 105 18 13 19 14 20
REMARK SMILES IDX 10 21 8 22 9 23 7 25 6 26 5 27 4 28 3 29 2 30 1 31 27 32
REMARK SMILES IDX 28 33 29 34 30 35 31 36 32 37 33 38 34 39 35 40 36 41 37 42
REMARK SMILES IDX 38 43 39 44 40 45 101 46 41 47 100 48 42 49 43 50 44 51
REMARK SMILES IDX 94 52 45 53 99 54 93 55 95 56 46 57 98 58 92 59 91 60 47 62
REMARK SMILES IDX 79 63 59 64 78 65 60 66 63 67 77 68 96 69 61 70 62 71 76 73
REMARK SMILES IDX 97 74 64 75 48 76 49 77 57 78 50 79 51 80 55 81 58 82 52 83
REMARK SMILES IDX 53 84 56 85 54 86 80 87 81 88 89 89 82 90 83 91 87 92 90 93
REMARK SMILES IDX 84 94 85 95 88 96 86 97 65 98 66 99 74 100 67 101 68 102
REMARK SMILES IDX 72 103 75 104 69 105 70 106 73 107 71 108
REMARK H PARENT 10 24 95 61 63 72
REMARK Flexibility Score: inf
ROOT
ATOM      1  C   UNL A   1      33.256  26.442  24.096  1.00  0.00     0.202 C 
ENDROOT
BRANCH   1   2
ATOM      2  C   UNL A   1      33.633  25.705  22.798  1.00  0.00     0.261 C 
BRANCH   2   3
ATOM      3  O   UNL A   1      34.568  24.611  22.919  1.00  0.00    -0.463 OA
BRANCH   3   4
ATOM      4  C   UNL A   1      34.043  23.367  22.831  1.00  0.00     0.313 C 
ATOM      5  O   UNL A   1      33.409  22.968  21.855  1.00  0.00    -0.252 OA
BRANCH   4   6
ATOM      6  C   UNL A   1      34.239  22.470  24.051  1.00  0.00     0.126 C 
ATOM      7  C   UNL A   1      33.200  22.852  25.101  1.00  0.00     0.025 C 
BRANCH   6   8
ATOM      8  C   UNL A   1      35.618  22.275  24.684  1.00  0.00    -0.031 A 
ATOM      9  C   UNL A   1      38.226  22.058  25.886  1.00  0.00     0.018 A 
ATOM     10  C   UNL A   1      37.691  21.031  25.086  1.00  0.00     0.012 A 
ATOM     11  C   UNL A   1      37.418  23.186  26.077  1.00  0.00     0.131 A 
ATOM     12  C   UNL A   1      36.412  21.135  24.495  1.00  0.00     0.005 A 
ATOM     13  C   UNL A   1      36.154  23.303  25.485  1.00  0.00     0.044 A 
ATOM     14  F   UNL A   1      37.862  24.215  26.817  1.00  0.00    -0.206 F 
BRANCH   9  15
ATOM     15  C   UNL A   1      39.613  22.008  26.402  1.00  0.00    -0.013 A 
ATOM     16  C   UNL A   1      41.611  20.769  27.099  1.00  0.00     0.045 A 
ATOM     17  C   UNL A   1      42.106  21.911  27.728  1.00  0.00     0.026 A 
ATOM     18  C   UNL A   1      40.376  20.819  26.426  1.00  0.00     0.035 A 
ATOM     19  C   UNL A   1      41.405  23.110  27.647  1.00  0.00     0.003 A 
ATOM     20  C   UNL A   1      40.170  23.154  26.998  1.00  0.00     0.009 A 
BRANCH  16  21
ATOM     21  N   UNL A   1      42.325  19.576  27.293  1.00  0.00    -0.291 N 
ATOM     22  C   UNL A   1      42.697  18.640  26.372  1.00  0.00     0.411 C 
ATOM     23  O   UNL A   1      42.969  17.493  26.707  1.00  0.00    -0.224 OA
ATOM     24  H   UNL A   1      42.596  19.390  28.221  1.00  0.00     0.173 HD
BRANCH  22  25
ATOM     25  O   UNL A   1      42.868  19.149  25.129  1.00  0.00    -0.449 OA
BRANCH  25  26
ATOM     26  C   UNL A   1      44.151  18.952  24.529  1.00  0.00     0.235 C 
BRANCH  26  27
ATOM     27  C   UNL A   1      45.328  19.472  25.344  1.00  0.00     0.042 C 
BRANCH  27  28
ATOM     28  C   UNL A   1      46.235  20.458  24.612  1.00  0.00     0.003 C 
BRANCH  28  29
ATOM     29  C   UNL A   1      45.580  21.795  24.236  1.00  0.00    -0.000 C 
BRANCH  29  30
ATOM     30  C   UNL A   1      44.486  22.286  25.188  1.00  0.00    -0.003 C 
ATOM     31  C   UNL A   1      43.816  23.563  24.709  1.00  0.00     0.004 C 
ENDBRANCH  29  30
ENDBRANCH  28  29
ENDBRANCH  27  28
ENDBRANCH  26  27
ENDBRANCH  25  26
ENDBRANCH  22  25
ENDBRANCH  16  21
ENDBRANCH   9  15
ENDBRANCH   6   8
ENDBRANCH   4   6
ENDBRANCH   3   4
ENDBRANCH   2   3
ENDBRANCH   1   2
BRANCH   1  32
ATOM     32  O   UNL A   1      32.002  27.095  24.210  1.00  0.00    -0.376 OA
BRANCH  32  33
ATOM     33  C   UNL A   1      31.815  28.158  25.134  1.00  0.00     0.188 C 
BRANCH  33  34
ATOM     34  C   UNL A   1      31.839  27.909  26.650  1.00  0.00     0.188 C 
BRANCH  34  35
ATOM     35  O   UNL A   1      33.032  28.283  27.307  1.00  0.00    -0.377 OA
BRANCH  35  36
ATOM     36  C   UNL A   1      33.654  29.473  26.853  1.00  0.00     0.188 C 
BRANCH  36  37
ATOM     37  C   UNL A   1      35.035  29.813  27.445  1.00  0.00     0.188 C 
BRANCH  37  38
ATOM     38  O   UNL A   1      35.059  30.994  28.239  1.00  0.00    -0.376 OA
BRANCH  38  39
ATOM     39  C   UNL A   1      36.201  31.834  28.146  1.00  0.00     0.202 C 
BRANCH  39  40
ATOM     40  C   UNL A   1      37.299  31.597  29.188  1.00  0.00     0.261 C 
BRANCH  40  41
ATOM     41  O   UNL A   1      38.187  30.492  28.932  1.00  0.00    -0.460 OA
BRANCH  41  42
ATOM     42  C   UNL A   1      38.341  29.549  29.883  1.00  0.00     0.338 C 
ATOM     43  O   UNL A   1      37.465  29.036  30.556  1.00  0.00    -0.246 OA
BRANCH  42  44
ATOM     44  C   UNL A   1      39.753  29.111  29.908  1.00  0.00     0.060 A 
ATOM     45  C   UNL A   1      40.017  27.757  29.671  1.00  0.00     0.016 A 
ATOM     46  C   UNL A   1      40.796  29.996  30.203  1.00  0.00     0.016 A 
ATOM     47  C   UNL A   1      41.314  27.268  29.797  1.00  0.00     0.010 A 
ATOM     48  C   UNL A   1      42.098  29.499  30.343  1.00  0.00     0.010 A 
ATOM     49  C   UNL A   1      42.353  28.125  30.188  1.00  0.00    -0.014 A 
BRANCH  49  50
ATOM     50  C   UNL A   1      43.636  27.523  30.629  1.00  0.00     0.031 A 
ATOM     51  C   UNL A   1      44.675  27.204  29.589  1.00  0.00     0.074 A 
ATOM     52  C   UNL A   1      43.910  27.343  31.933  1.00  0.00     0.049 A 
ATOM     53  N   UNL A   1      45.893  26.748  29.737  1.00  0.00    -0.248 NA
ATOM     54  C   UNL A   1      44.288  27.434  28.188  1.00  0.00     0.031 C 
ATOM     55  C   UNL A   1      43.001  27.643  33.036  1.00  0.00     0.029 A 
ATOM     56  N   UNL A   1      45.045  26.870  32.547  1.00  0.00    -0.354 N 
ATOM     57  C   UNL A   1      46.414  26.639  28.454  1.00  0.00     0.074 A 
ATOM     58  C   UNL A   1      45.371  27.039  27.537  1.00  0.00     0.031 C 
ATOM     59  C   UNL A   1      43.612  27.343  34.195  1.00  0.00     0.029 A 
ATOM     60  C   UNL A   1      44.946  26.814  33.914  1.00  0.00     0.049 A 
ATOM     61  H   UNL A   1      45.851  26.597  32.052  1.00  0.00     0.167 HD
ATOM     62  C   UNL A   1      47.656  26.251  28.074  1.00  0.00     0.037 A 
ATOM     63  C   UNL A   1      45.830  26.374  34.832  1.00  0.00     0.037 A 
ATOM     64  C   UNL A   1      48.693  25.853  28.989  1.00  0.00     0.049 A 
ATOM     65  C   UNL A   1      47.189  25.899  34.383  1.00  0.00     0.074 A 
ATOM     66  C   UNL A   1      49.992  25.469  28.706  1.00  0.00     0.029 A 
ATOM     67  N   UNL A   1      48.543  25.773  30.365  1.00  0.00    -0.354 N 
ATOM     68  N   UNL A   1      47.689  25.841  33.172  1.00  0.00    -0.248 NA
ATOM     69  C   UNL A   1      48.110  25.440  35.431  1.00  0.00     0.031 C 
ATOM     70  C   UNL A   1      50.610  25.100  29.906  1.00  0.00     0.029 A 
ATOM     71  C   UNL A   1      49.717  25.316  30.943  1.00  0.00     0.049 A 
ATOM     72  H   UNL A   1      47.724  26.007  30.859  1.00  0.00     0.167 HD
ATOM     73  C   UNL A   1      48.988  25.368  33.314  1.00  0.00     0.074 A 
ATOM     74  C   UNL A   1      49.203  25.168  34.732  1.00  0.00     0.031 C 
ATOM     75  C   UNL A   1      49.918  25.123  32.357  1.00  0.00     0.037 A 
BRANCH  62  76
ATOM     76  C   UNL A   1      47.944  26.205  26.601  1.00  0.00     0.064 A 
ATOM     77  C   UNL A   1      47.495  25.153  25.789  1.00  0.00     0.173 A 
ATOM     78  C   UNL A   1      48.671  27.238  25.991  1.00  0.00     0.173 A 
ATOM     79  F   UNL A   1      46.808  24.132  26.325  1.00  0.00    -0.203 F 
ATOM     80  C   UNL A   1      47.790  25.120  24.428  1.00  0.00     0.198 A 
ATOM     81  C   UNL A   1      48.938  27.218  24.625  1.00  0.00     0.198 A 
ATOM     82  F   UNL A   1      49.124  28.270  26.720  1.00  0.00    -0.203 F 
ATOM     83  F   UNL A   1      47.398  24.078  23.684  1.00  0.00    -0.200 F 
ATOM     84  C   UNL A   1      48.506  26.156  23.846  1.00  0.00     0.200 A 
ATOM     85  F   UNL A   1      49.619  28.226  24.062  1.00  0.00    -0.200 F 
ATOM     86  F   UNL A   1      48.787  26.125  22.536  1.00  0.00    -0.200 F 
ENDBRANCH  62  76
BRANCH  63  87
ATOM     87  C   UNL A   1      45.456  26.360  36.271  1.00  0.00     0.064 A 
ATOM     88  C   UNL A   1      45.445  27.534  37.035  1.00  0.00     0.173 A 
ATOM     89  C   UNL A   1      45.108  25.161  36.914  1.00  0.00     0.173 A 
ATOM     90  F   UNL A   1      45.793  28.701  36.474  1.00  0.00    -0.203 F 
ATOM     91  C   UNL A   1      45.116  27.509  38.390  1.00  0.00     0.198 A 
ATOM     92  C   UNL A   1      44.752  25.142  38.260  1.00  0.00     0.198 A 
ATOM     93  F   UNL A   1      45.106  24.008  36.228  1.00  0.00    -0.203 F 
ATOM     94  F   UNL A   1      45.157  28.640  39.108  1.00  0.00    -0.200 F 
ATOM     95  C   UNL A   1      44.763  26.314  38.999  1.00  0.00     0.200 A 
ATOM     96  F   UNL A   1      44.400  23.987  38.840  1.00  0.00    -0.200 F 
ATOM     97  F   UNL A   1      44.441  26.292  40.299  1.00  0.00    -0.200 F 
ENDBRANCH  63  87
BRANCH  75  98
ATOM     98  C   UNL A   1      51.268  24.643  32.813  1.00  0.00     0.064 A 
ATOM     99  C   UNL A   1      52.344  25.525  32.995  1.00  0.00     0.173 A 
ATOM    100  C   UNL A   1      51.476  23.288  33.109  1.00  0.00     0.173 A 
ATOM    101  F   UNL A   1      52.203  26.829  32.715  1.00  0.00    -0.203 F 
ATOM    102  C   UNL A   1      53.585  25.062  33.422  1.00  0.00     0.198 A 
ATOM    103  C   UNL A   1      52.709  22.832  33.570  1.00  0.00     0.198 A 
ATOM    104  F   UNL A   1      50.478  22.402  32.964  1.00  0.00    -0.203 F 
ATOM    105  F   UNL A   1      54.615  25.914  33.536  1.00  0.00    -0.200 F 
ATOM    106  C   UNL A   1      53.765  23.718  33.717  1.00  0.00     0.200 A 
ATOM    107  F   UNL A   1      52.875  21.537  33.869  1.00  0.00    -0.200 F 
ATOM    108  F   UNL A   1      54.959  23.275  34.135  1.00  0.00    -0.200 F 
ENDBRANCH  75  98
ENDBRANCH  49  50
ENDBRANCH  42  44
ENDBRANCH  41  42
ENDBRANCH  40  41
ENDBRANCH  39  40
ENDBRANCH  38  39
ENDBRANCH  37  38
ENDBRANCH  36  37
ENDBRANCH  35  36
ENDBRANCH  34  35
ENDBRANCH  33  34
ENDBRANCH  32  33
ENDBRANCH   1  32
TORSDOF 29
ENDMDL
MODEL 2
REMARK VINA RESULT:      -9.2      3.321      5.016
REMARK SMILES CCCCCCOC(=O)Nc1cccc(-c2ccc([C@@H](C)C(=O)OCCOCCOCCOCCOC(=O)c3ccc(-c4c5nc(c(-c6c(F)c(F)c(F)c(F)c6F)c6ccc([nH]6)c(-c6c(F)c(F)c(F)c(F)c6F)c6nc(c(-c7c(F)c(F)c(F)c(F)c7F)c7ccc4[nH]7)C=C6)C=C5)cc3)cc2F)c1
REMARK SMILES IDX 26 1 25 2 24 3 22 4 23 5 20 6 21 7 19 8 16 9 17 10 103 11
REMARK SMILES IDX 18 12 102 13 104 14 15 15 11 16 12 17 105 18 13 19 14 20
REMARK SMILES IDX 10 21 8 22 9 23 7 25 6 26 5 27 4 28 3 29 2 30 1 31 27 32
REMARK SMILES IDX 28 33 29 34 30 35 31 36 32 37 33 38 34 39 35 40 36 41 37 42
REMARK SMILES IDX 38 43 39 44 40 45 101 46 41 47 100 48 42 49 43 50 44 51
REMARK SMILES IDX 94 52 45 53 99 54 93 55 95 56 46 57 98 58 92 59 91 60 47 62
REMARK SMILES IDX 79 63 59 64 78 65 60 66 63 67 77 68 96 69 61 70 62 71 76 73
REMARK SMILES IDX 97 74 64 75 48 76 49 77 57 78 50 79 51 80 55 81 58 82 52 83
REMARK SMILES IDX 53 84 56 85 54 86 80 87 81 88 89 89 82 90 83 91 87 92 90 93
REMARK SMILES IDX 84 94 85 95 88 96 86 97 65 98 66 99 74 100 67 101 68 102
REMARK SMILES IDX 72 103 75 104 69 105 70 106 73 107 71 108
REMARK H PARENT 10 24 95 61 63 72
REMARK Flexibility Score: inf
ROOT
ATOM      1  C   UNL A   1      33.988  26.740  25.375  1.00  0.00     0.202 C 
ENDROOT
BRANCH   1   2
ATOM      2  C   UNL A   1      33.571  25.417  24.709  1.00  0.00     0.261 C 
BRANCH   2   3
ATOM      3  O   UNL A   1      34.267  24.226  25.134  1.00  0.00    -0.463 OA
BRANCH   3   4
ATOM      4  C   UNL A   1      34.995  23.592  24.185  1.00  0.00     0.313 C 
ATOM      5  O   UNL A   1      35.041  23.957  23.012  1.00  0.00    -0.252 OA
BRANCH   4   6
ATOM      6  C   UNL A   1      35.745  22.341  24.640  1.00  0.00     0.126 C 
ATOM      7  C   UNL A   1      34.794  21.490  25.476  1.00  0.00     0.025 C 
BRANCH   6   8
ATOM      8  C   UNL A   1      37.125  22.433  25.293  1.00  0.00    -0.031 A 
ATOM      9  C   UNL A   1      39.725  22.752  26.490  1.00  0.00     0.018 A 
ATOM     10  C   UNL A   1      39.270  21.503  26.027  1.00  0.00     0.012 A 
ATOM     11  C   UNL A   1      38.841  23.829  26.350  1.00  0.00     0.131 A 
ATOM     12  C   UNL A   1      37.996  21.344  25.439  1.00  0.00     0.005 A 
ATOM     13  C   UNL A   1      37.580  23.684  25.758  1.00  0.00     0.044 A 
ATOM     14  F   UNL A   1      39.204  25.056  26.757  1.00  0.00    -0.206 F 
BRANCH   9  15
ATOM     15  C   UNL A   1      41.105  22.948  26.990  1.00  0.00    -0.013 A 
ATOM     16  C   UNL A   1      43.532  23.021  26.650  1.00  0.00     0.045 A 
ATOM     17  C   UNL A   1      43.732  22.960  28.029  1.00  0.00     0.026 A 
ATOM     18  C   UNL A   1      42.223  23.030  26.132  1.00  0.00     0.035 A 
ATOM     19  C   UNL A   1      42.641  22.958  28.892  1.00  0.00     0.003 A 
ATOM     20  C   UNL A   1      41.343  22.945  28.377  1.00  0.00     0.009 A 
BRANCH  16  21
ATOM     21  N   UNL A   1      44.673  22.933  25.838  1.00  0.00    -0.291 N 
ATOM     22  C   UNL A   1      45.348  23.931  25.197  1.00  0.00     0.411 C 
ATOM     23  O   UNL A   1      46.073  23.694  24.238  1.00  0.00    -0.224 OA
ATOM     24  H   UNL A   1      45.037  22.027  25.713  1.00  0.00     0.173 HD
BRANCH  22  25
ATOM     25  O   UNL A   1      45.245  25.131  25.816  1.00  0.00    -0.449 OA
BRANCH  25  26
ATOM     26  C   UNL A   1      45.692  26.272  25.078  1.00  0.00     0.235 C 
BRANCH  26  27
ATOM     27  C   UNL A   1      44.944  27.564  25.379  1.00  0.00     0.042 C 
BRANCH  27  28
ATOM     28  C   UNL A   1      44.697  27.838  26.860  1.00  0.00     0.003 C 
BRANCH  28  29
ATOM     29  C   UNL A   1      43.220  27.909  27.275  1.00  0.00    -0.000 C 
BRANCH  29  30
ATOM     30  C   UNL A   1      42.861  27.173  28.568  1.00  0.00    -0.003 C 
ATOM     31  C   UNL A   1      41.383  26.830  28.661  1.00  0.00     0.004 C 
ENDBRANCH  29  30
ENDBRANCH  28  29
ENDBRANCH  27  28
ENDBRANCH  26  27
ENDBRANCH  25  26
ENDBRANCH  22  25
ENDBRANCH  16  21
ENDBRANCH   9  15
ENDBRANCH   6   8
ENDBRANCH   4   6
ENDBRANCH   3   4
ENDBRANCH   2   3
ENDBRANCH   1   2
BRANCH   1  32
ATOM     32  O   UNL A   1      33.160  27.887  25.268  1.00  0.00    -0.376 OA
BRANCH  32  33
ATOM     33  C   UNL A   1      33.601  29.152  25.742  1.00  0.00     0.188 C 
BRANCH  33  34
ATOM     34  C   UNL A   1      33.486  29.530  27.227  1.00  0.00     0.188 C 
BRANCH  34  35
ATOM     35  O   UNL A   1      34.713  29.720  27.901  1.00  0.00    -0.377 OA
BRANCH  35  36
ATOM     36  C   UNL A   1      35.188  31.053  27.981  1.00  0.00     0.188 C 
BRANCH  36  37
ATOM     37  C   UNL A   1      35.997  31.436  29.235  1.00  0.00     0.188 C 
BRANCH  37  38
ATOM     38  O   UNL A   1      35.752  32.756  29.711  1.00  0.00    -0.376 OA
BRANCH  38  39
ATOM     39  C   UNL A   1      36.668  33.304  30.647  1.00  0.00     0.202 C 
BRANCH  39  40
ATOM     40  C   UNL A   1      36.164  33.433  32.089  1.00  0.00     0.261 C 
BRANCH  40  41
ATOM     41  O   UNL A   1      36.157  32.222  32.868  1.00  0.00    -0.460 OA
BRANCH  41  42
ATOM     42  C   UNL A   1      36.928  32.156  33.973  1.00  0.00     0.338 C 
ATOM     43  O   UNL A   1      36.675  32.614  35.072  1.00  0.00    -0.246 OA
BRANCH  42  44
ATOM     44  C   UNL A   1      38.106  31.309  33.691  1.00  0.00     0.060 A 
ATOM     45  C   UNL A   1      39.318  31.661  34.296  1.00  0.00     0.016 A 
ATOM     46  C   UNL A   1      38.040  30.218  32.816  1.00  0.00     0.016 A 
ATOM     47  C   UNL A   1      40.482  30.969  33.975  1.00  0.00     0.010 A 
ATOM     48  C   UNL A   1      39.215  29.533  32.484  1.00  0.00     0.010 A 
ATOM     49  C   UNL A   1      40.448  29.937  33.026  1.00  0.00    -0.014 A 
BRANCH  49  50
ATOM     50  C   UNL A   1      41.734  29.449  32.468  1.00  0.00     0.031 A 
ATOM     51  C   UNL A   1      42.369  30.221  31.344  1.00  0.00     0.074 A 
ATOM     52  C   UNL A   1      42.371  28.393  33.004  1.00  0.00     0.049 A 
ATOM     53  N   UNL A   1      43.520  30.034  30.749  1.00  0.00    -0.248 NA
ATOM     54  C   UNL A   1      41.602  31.363  30.821  1.00  0.00     0.031 C 
ATOM     55  C   UNL A   1      41.876  27.584  34.115  1.00  0.00     0.029 A 
ATOM     56  N   UNL A   1      43.582  27.828  32.686  1.00  0.00    -0.354 N 
ATOM     57  C   UNL A   1      43.613  31.032  29.786  1.00  0.00     0.074 A 
ATOM     58  C   UNL A   1      42.389  31.799  29.850  1.00  0.00     0.031 C 
ATOM     59  C   UNL A   1      42.774  26.621  34.385  1.00  0.00     0.029 A 
ATOM     60  C   UNL A   1      43.897  26.735  33.454  1.00  0.00     0.049 A 
ATOM     61  H   UNL A   1      44.167  28.173  31.973  1.00  0.00     0.167 HD
ATOM     62  C   UNL A   1      44.633  31.294  28.934  1.00  0.00     0.037 A 
ATOM     63  C   UNL A   1      44.967  25.916  33.404  1.00  0.00     0.037 A 
ATOM     64  C   UNL A   1      45.851  30.530  28.871  1.00  0.00     0.049 A 
ATOM     65  C   UNL A   1      46.067  26.197  32.412  1.00  0.00     0.074 A 
ATOM     66  C   UNL A   1      46.955  30.731  28.062  1.00  0.00     0.029 A 
ATOM     67  N   UNL A   1      46.118  29.408  29.641  1.00  0.00    -0.354 N 
ATOM     68  N   UNL A   1      46.168  27.169  31.537  1.00  0.00    -0.248 NA
ATOM     69  C   UNL A   1      47.210  25.273  32.411  1.00  0.00     0.031 C 
ATOM     70  C   UNL A   1      47.866  29.696  28.300  1.00  0.00     0.029 A 
ATOM     71  C   UNL A   1      47.357  28.887  29.304  1.00  0.00     0.049 A 
ATOM     72  H   UNL A   1      45.517  29.037  30.327  1.00  0.00     0.167 HD
ATOM     73  C   UNL A   1      47.391  26.990  30.902  1.00  0.00     0.074 A 
ATOM     74  C   UNL A   1      48.004  25.825  31.505  1.00  0.00     0.031 C 
ATOM     75  C   UNL A   1      47.957  27.726  29.912  1.00  0.00     0.037 A 
BRANCH  62  76
ATOM     76  C   UNL A   1      44.455  32.435  27.974  1.00  0.00     0.064 A 
ATOM     77  C   UNL A   1      44.045  32.233  26.647  1.00  0.00     0.173 A 
ATOM     78  C   UNL A   1      44.684  33.754  28.394  1.00  0.00     0.173 A 
ATOM     79  F   UNL A   1      43.827  30.990  26.190  1.00  0.00    -0.203 F 
ATOM     80  C   UNL A   1      43.904  33.304  25.768  1.00  0.00     0.198 A 
ATOM     81  C   UNL A   1      44.512  34.826  27.521  1.00  0.00     0.198 A 
ATOM     82  F   UNL A   1      45.076  34.006  29.653  1.00  0.00    -0.203 F 
ATOM     83  F   UNL A   1      43.567  33.082  24.491  1.00  0.00    -0.200 F 
ATOM     84  C   UNL A   1      44.132  34.600  26.208  1.00  0.00     0.200 A 
ATOM     85  F   UNL A   1      44.721  36.078  27.951  1.00  0.00    -0.200 F 
ATOM     86  F   UNL A   1      43.994  35.631  25.362  1.00  0.00    -0.200 F 
ENDBRANCH  62  76
BRANCH  63  87
ATOM     87  C   UNL A   1      45.047  24.749  34.320  1.00  0.00     0.064 A 
ATOM     88  C   UNL A   1      45.602  24.862  35.602  1.00  0.00     0.173 A 
ATOM     89  C   UNL A   1      44.575  23.487  33.924  1.00  0.00     0.173 A 
ATOM     90  F   UNL A   1      46.091  26.039  36.018  1.00  0.00    -0.203 F 
ATOM     91  C   UNL A   1      45.697  23.757  36.446  1.00  0.00     0.198 A 
ATOM     92  C   UNL A   1      44.643  22.390  34.780  1.00  0.00     0.198 A 
ATOM     93  F   UNL A   1      44.037  23.324  32.706  1.00  0.00    -0.203 F 
ATOM     94  F   UNL A   1      46.272  23.883  37.650  1.00  0.00    -0.200 F 
ATOM     95  C   UNL A   1      45.209  22.524  36.037  1.00  0.00     0.200 A 
ATOM     96  F   UNL A   1      44.160  21.205  34.385  1.00  0.00    -0.200 F 
ATOM     97  F   UNL A   1      45.294  21.464  36.852  1.00  0.00    -0.200 F 
ENDBRANCH  63  87
BRANCH  75  98
ATOM     98  C   UNL A   1      49.323  27.314  29.440  1.00  0.00     0.064 A 
ATOM     99  C   UNL A   1      50.492  27.860  29.991  1.00  0.00     0.173 A 
ATOM    100  C   UNL A   1      49.464  26.333  28.448  1.00  0.00     0.173 A 
ATOM    101  F   UNL A   1      50.414  28.811  30.934  1.00  0.00    -0.203 F 
ATOM    102  C   UNL A   1      51.749  27.462  29.543  1.00  0.00     0.198 A 
ATOM    103  C   UNL A   1      50.722  25.911  28.026  1.00  0.00     0.198 A 
ATOM    104  F   UNL A   1      48.379  25.770  27.893  1.00  0.00    -0.203 F 
ATOM    105  F   UNL A   1      52.851  28.036  30.045  1.00  0.00    -0.200 F 
ATOM    106  C   UNL A   1      51.863  26.483  28.567  1.00  0.00     0.200 A 
ATOM    107  F   UNL A   1      50.830  24.954  27.094  1.00  0.00    -0.200 F 
ATOM    108  F   UNL A   1      53.074  26.096  28.141  1.00  0.00    -0.200 F 
ENDBRANCH  75  98
ENDBRANCH  49  50
ENDBRANCH  42  44
ENDBRANCH  41  42
ENDBRANCH  40  41
ENDBRANCH  39  40
ENDBRANCH  38  39
ENDBRANCH  37  38
ENDBRANCH  36  37
ENDBRANCH  35  36
ENDBRANCH  34  35
ENDBRANCH  33  34
ENDBRANCH  32  33
ENDBRANCH   1  32
TORSDOF 29
ENDMDL
MODEL 3
REMARK VINA RESULT:      -8.9      4.882     10.496
REMARK SMILES CCCCCCOC(=O)Nc1cccc(-c2ccc([C@@H](C)C(=O)OCCOCCOCCOCCOC(=O)c3ccc(-c4c5nc(c(-c6c(F)c(F)c(F)c(F)c6F)c6ccc([nH]6)c(-c6c(F)c(F)c(F)c(F)c6F)c6nc(c(-c7c(F)c(F)c(F)c(F)c7F)c7ccc4[nH]7)C=C6)C=C5)cc3)cc2F)c1
REMARK SMILES IDX 26 1 25 2 24 3 22 4 23 5 20 6 21 7 19 8 16 9 17 10 103 11
REMARK SMILES IDX 18 12 102 13 104 14 15 15 11 16 12 17 105 18 13 19 14 20
REMARK SMILES IDX 10 21 8 22 9 23 7 25 6 26 5 27 4 28 3 29 2 30 1 31 27 32
REMARK SMILES IDX 28 33 29 34 30 35 31 36 32 37 33 38 34 39 35 40 36 41 37 42
REMARK SMILES IDX 38 43 39 44 40 45 101 46 41 47 100 48 42 49 43 50 44 51
REMARK SMILES IDX 94 52 45 53 99 54 93 55 95 56 46 57 98 58 92 59 91 60 47 62
REMARK SMILES IDX 79 63 59 64 78 65 60 66 63 67 77 68 96 69 61 70 62 71 76 73
REMARK SMILES IDX 97 74 64 75 48 76 49 77 57 78 50 79 51 80 55 81 58 82 52 83
REMARK SMILES IDX 53 84 56 85 54 86 80 87 81 88 89 89 82 90 83 91 87 92 90 93
REMARK SMILES IDX 84 94 85 95 88 96 86 97 65 98 66 99 74 100 67 101 68 102
REMARK SMILES IDX 72 103 75 104 69 105 70 106 73 107 71 108
REMARK H PARENT 10 24 95 61 63 72
REMARK Flexibility Score: inf
ROOT
ATOM      1  C   UNL A   1      42.833  25.211  25.336  1.00  0.00     0.202 C 
ENDROOT
BRANCH   1   2
ATOM      2  C   UNL A   1      43.227  23.838  25.910  1.00  0.00     0.261 C 
BRANCH   2   3
ATOM      3  O   UNL A   1      42.205  22.818  25.917  1.00  0.00    -0.463 OA
BRANCH   3   4
ATOM      4  C   UNL A   1      41.312  22.879  26.932  1.00  0.00     0.313 C 
ATOM      5  O   UNL A   1      41.425  22.234  27.972  1.00  0.00    -0.252 OA
BRANCH   4   6
ATOM      6  C   UNL A   1      40.098  23.778  26.702  1.00  0.00     0.126 C 
ATOM      7  C   UNL A   1      39.946  24.696  27.912  1.00  0.00     0.025 C 
BRANCH   6   8
ATOM      8  C   UNL A   1      38.748  23.200  26.273  1.00  0.00    -0.031 A 
ATOM      9  C   UNL A   1      36.141  22.221  25.542  1.00  0.00     0.018 A 
ATOM     10  C   UNL A   1      37.278  21.392  25.516  1.00  0.00     0.012 A 
ATOM     11  C   UNL A   1      36.347  23.551  25.929  1.00  0.00     0.131 A 
ATOM     12  C   UNL A   1      38.558  21.870  25.874  1.00  0.00     0.005 A 
ATOM     13  C   UNL A   1      37.610  24.031  26.298  1.00  0.00     0.044 A 
ATOM     14  F   UNL A   1      35.310  24.403  25.991  1.00  0.00    -0.206 F 
BRANCH   9  15
ATOM     15  C   UNL A   1      34.780  21.694  25.290  1.00  0.00    -0.013 A 
ATOM     16  C   UNL A   1      32.366  21.664  25.717  1.00  0.00     0.045 A 
ATOM     17  C   UNL A   1      32.262  20.433  25.068  1.00  0.00     0.026 A 
ATOM     18  C   UNL A   1      33.618  22.300  25.815  1.00  0.00     0.035 A 
ATOM     19  C   UNL A   1      33.383  19.860  24.477  1.00  0.00     0.003 A 
ATOM     20  C   UNL A   1      34.628  20.481  24.594  1.00  0.00     0.009 A 
BRANCH  16  21
ATOM     21  N   UNL A   1      31.215  22.141  26.363  1.00  0.00    -0.291 N 
ATOM     22  C   UNL A   1      30.661  23.387  26.317  1.00  0.00     0.411 C 
ATOM     23  O   UNL A   1      29.904  23.779  27.198  1.00  0.00    -0.224 OA
ATOM     24  H   UNL A   1      30.743  21.487  26.927  1.00  0.00     0.173 HD
BRANCH  22  25
ATOM     25  O   UNL A   1      30.915  24.045  25.162  1.00  0.00    -0.449 OA
BRANCH  25  26
ATOM     26  C   UNL A   1      30.426  25.386  25.068  1.00  0.00     0.235 C 
BRANCH  26  27
ATOM     27  C   UNL A   1      31.208  26.290  24.124  1.00  0.00     0.042 C 
BRANCH  27  28
ATOM     28  C   UNL A   1      32.711  26.348  24.383  1.00  0.00     0.003 C 
BRANCH  28  29
ATOM     29  C   UNL A   1      33.596  25.979  23.184  1.00  0.00    -0.000 C 
BRANCH  29  30
ATOM     30  C   UNL A   1      33.991  24.503  23.083  1.00  0.00    -0.003 C 
ATOM     31  C   UNL A   1      33.036  23.695  22.220  1.00  0.00     0.004 C 
ENDBRANCH  29  30
ENDBRANCH  28  29
ENDBRANCH  27  28
ENDBRANCH  26  27
ENDBRANCH  25  26
ENDBRANCH  22  25
ENDBRANCH  16  21
ENDBRANCH   9  15
ENDBRANCH   6   8
ENDBRANCH   4   6
ENDBRANCH   3   4
ENDBRANCH   2   3
ENDBRANCH   1   2
BRANCH   1  32
ATOM     32  O   UNL A   1      42.891  26.370  26.151  1.00  0.00    -0.376 OA
BRANCH  32  33
ATOM     33  C   UNL A   1      42.898  27.669  25.573  1.00  0.00     0.188 C 
BRANCH  33  34
ATOM     34  C   UNL A   1      41.815  28.701  25.920  1.00  0.00     0.188 C 
BRANCH  34  35
ATOM     35  O   UNL A   1      40.692  28.193  26.612  1.00  0.00    -0.377 OA
BRANCH  35  36
ATOM     36  C   UNL A   1      40.256  28.935  27.737  1.00  0.00     0.188 C 
BRANCH  36  37
ATOM     37  C   UNL A   1      38.783  28.775  28.157  1.00  0.00     0.188 C 
BRANCH  37  38
ATOM     38  O   UNL A   1      37.889  29.681  27.520  1.00  0.00    -0.376 OA
BRANCH  38  39
ATOM     39  C   UNL A   1      36.531  29.679  27.937  1.00  0.00     0.202 C 
BRANCH  39  40
ATOM     40  C   UNL A   1      36.271  30.091  29.390  1.00  0.00     0.261 C 
BRANCH  40  41
ATOM     41  O   UNL A   1      36.449  31.487  29.695  1.00  0.00    -0.460 OA
BRANCH  41  42
ATOM     42  C   UNL A   1      35.868  31.989  30.804  1.00  0.00     0.338 C 
ATOM     43  O   UNL A   1      34.691  32.258  30.957  1.00  0.00    -0.246 OA
BRANCH  42  44
ATOM     44  C   UNL A   1      36.869  32.046  31.891  1.00  0.00     0.060 A 
ATOM     45  C   UNL A   1      38.134  32.556  31.582  1.00  0.00     0.016 A 
ATOM     46  C   UNL A   1      36.590  31.567  33.177  1.00  0.00     0.016 A 
ATOM     47  C   UNL A   1      39.148  32.526  32.535  1.00  0.00     0.010 A 
ATOM     48  C   UNL A   1      37.616  31.525  34.129  1.00  0.00     0.010 A 
ATOM     49  C   UNL A   1      38.912  31.959  33.796  1.00  0.00    -0.014 A 
BRANCH  49  50
ATOM     50  C   UNL A   1      40.078  31.644  34.658  1.00  0.00     0.031 A 
ATOM     51  C   UNL A   1      40.448  32.613  35.748  1.00  0.00     0.074 A 
ATOM     52  C   UNL A   1      40.742  30.482  34.536  1.00  0.00     0.049 A 
ATOM     53  N   UNL A   1      41.373  32.520  36.670  1.00  0.00    -0.248 NA
ATOM     54  C   UNL A   1      39.666  33.858  35.808  1.00  0.00     0.031 C 
ATOM     55  C   UNL A   1      40.459  29.448  33.543  1.00  0.00     0.029 A 
ATOM     56  N   UNL A   1      41.790  29.974  35.264  1.00  0.00    -0.354 N 
ATOM     57  C   UNL A   1      41.282  33.688  37.415  1.00  0.00     0.074 A 
ATOM     58  C   UNL A   1      40.239  34.493  36.818  1.00  0.00     0.031 C 
ATOM     59  C   UNL A   1      41.316  28.429  33.722  1.00  0.00     0.029 A 
ATOM     60  C   UNL A   1      42.219  28.746  34.828  1.00  0.00     0.049 A 
ATOM     61  H   UNL A   1      42.196  30.447  36.027  1.00  0.00     0.167 HD
ATOM     62  C   UNL A   1      41.994  34.053  38.509  1.00  0.00     0.037 A 
ATOM     63  C   UNL A   1      43.232  27.972  35.267  1.00  0.00     0.037 A 
ATOM     64  C   UNL A   1      43.032  33.251  39.102  1.00  0.00     0.049 A 
ATOM     65  C   UNL A   1      44.046  28.422  36.454  1.00  0.00     0.074 A 
ATOM     66  C   UNL A   1      43.794  33.520  40.225  1.00  0.00     0.029 A 
ATOM     67  N   UNL A   1      43.463  32.029  38.609  1.00  0.00    -0.354 N 
ATOM     68  N   UNL A   1      43.923  29.507  37.181  1.00  0.00    -0.248 NA
ATOM     69  C   UNL A   1      45.131  27.531  36.889  1.00  0.00     0.031 C 
ATOM     70  C   UNL A   1      44.726  32.487  40.378  1.00  0.00     0.029 A 
ATOM     71  C   UNL A   1      44.502  31.544  39.388  1.00  0.00     0.049 A 
ATOM     72  H   UNL A   1      43.085  31.572  37.823  1.00  0.00     0.167 HD
ATOM     73  C   UNL A   1      44.893  29.417  38.172  1.00  0.00     0.074 A 
ATOM     74  C   UNL A   1      45.586  28.163  37.962  1.00  0.00     0.031 C 
ATOM     75  C   UNL A   1      45.182  30.293  39.168  1.00  0.00     0.037 A 
BRANCH  62  76
ATOM     76  C   UNL A   1      41.698  35.397  39.109  1.00  0.00     0.064 A 
ATOM     77  C   UNL A   1      40.654  35.586  40.028  1.00  0.00     0.173 A 
ATOM     78  C   UNL A   1      42.479  36.512  38.768  1.00  0.00     0.173 A 
ATOM     79  F   UNL A   1      39.867  34.557  40.376  1.00  0.00    -0.203 F 
ATOM     80  C   UNL A   1      40.384  36.845  40.558  1.00  0.00     0.198 A 
ATOM     81  C   UNL A   1      42.226  37.763  39.324  1.00  0.00     0.198 A 
ATOM     82  F   UNL A   1      43.491  36.388  37.895  1.00  0.00    -0.203 F 
ATOM     83  F   UNL A   1      39.348  37.012  41.391  1.00  0.00    -0.200 F 
ATOM     84  C   UNL A   1      41.174  37.931  40.211  1.00  0.00     0.200 A 
ATOM     85  F   UNL A   1      42.998  38.808  38.996  1.00  0.00    -0.200 F 
ATOM     86  F   UNL A   1      40.915  39.142  40.723  1.00  0.00    -0.200 F 
ENDBRANCH  62  76
BRANCH  63  87
ATOM     87  C   UNL A   1      43.536  26.692  34.576  1.00  0.00     0.064 A 
ATOM     88  C   UNL A   1      44.438  26.635  33.505  1.00  0.00     0.173 A 
ATOM     89  C   UNL A   1      42.919  25.495  34.972  1.00  0.00     0.173 A 
ATOM     90  F   UNL A   1      45.035  27.756  33.072  1.00  0.00    -0.203 F 
ATOM     91  C   UNL A   1      44.699  25.435  32.846  1.00  0.00     0.198 A 
ATOM     92  C   UNL A   1      43.203  24.291  34.331  1.00  0.00     0.198 A 
ATOM     93  F   UNL A   1      42.045  25.495  35.990  1.00  0.00    -0.203 F 
ATOM     94  F   UNL A   1      45.532  25.417  31.796  1.00  0.00    -0.200 F 
ATOM     95  C   UNL A   1      44.087  24.262  33.265  1.00  0.00     0.200 A 
ATOM     96  F   UNL A   1      42.619  23.159  34.748  1.00  0.00    -0.200 F 
ATOM     97  F   UNL A   1      44.344  23.108  32.635  1.00  0.00    -0.200 F 
ENDBRANCH  63  87
BRANCH  75  98
ATOM     98  C   UNL A   1      46.274  29.911  40.128  1.00  0.00     0.064 A 
ATOM     99  C   UNL A   1      46.027  29.097  41.244  1.00  0.00     0.173 A 
ATOM    100  C   UNL A   1      47.593  30.336  39.908  1.00  0.00     0.173 A 
ATOM    101  F   UNL A   1      44.781  28.673  41.508  1.00  0.00    -0.203 F 
ATOM    102  C   UNL A   1      47.052  28.750  42.119  1.00  0.00     0.198 A 
ATOM    103  C   UNL A   1      48.623  29.960  40.766  1.00  0.00     0.198 A 
ATOM    104  F   UNL A   1      47.888  31.108  38.851  1.00  0.00    -0.203 F 
ATOM    105  F   UNL A   1      46.782  28.017  43.209  1.00  0.00    -0.200 F 
ATOM    106  C   UNL A   1      48.350  29.175  41.876  1.00  0.00     0.200 A 
ATOM    107  F   UNL A   1      49.879  30.358  40.519  1.00  0.00    -0.200 F 
ATOM    108  F   UNL A   1      49.337  28.835  42.717  1.00  0.00    -0.200 F 
ENDBRANCH  75  98
ENDBRANCH  49  50
ENDBRANCH  42  44
ENDBRANCH  41  42
ENDBRANCH  40  41
ENDBRANCH  39  40
ENDBRANCH  38  39
ENDBRANCH  37  38
ENDBRANCH  36  37
ENDBRANCH  35  36
ENDBRANCH  34  35
ENDBRANCH  33  34
ENDBRANCH  32  33
ENDBRANCH   1  32
TORSDOF 29
ENDMDL
