MODEL 1
REMARK VINA RESULT:     -10.1      0.000      0.000
REMARK SMILES CC(C)(C)OC(=O)N[C@@H](C(=O)OCCOCCOCCOCCOC(=O)c1ccc(-c2c3nc(c(-c4c(F)c(F)c(F)c(F)c4F)c4ccc([nH]4)c(-c4c(F)c(F)c(F)c(F)c4F)c4nc(c(-c5c(F)c(F)c(F)c(F)c5F)c5ccc2[nH]5)C=C4)C=C3)cc1)c1ccc([N+](=O)[O-])cc1
REMARK SMILES IDX 17 1 16 2 15 3 14 4 13 5 12 6 10 7 11 8 9 9 8 10 6 11 7 12
REMARK SMILES IDX 5 14 2 15 1 16 3 17 4 18 90 19 91 20 98 21 92 22 97 23 93 24
REMARK SMILES IDX 94 25 95 26 96 27 18 28 19 29 20 30 21 31 22 32 23 33 24 34
REMARK SMILES IDX 25 35 26 36 27 37 28 38 89 39 29 40 88 41 30 42 31 43 32 44
REMARK SMILES IDX 82 45 33 46 87 47 81 48 83 49 34 50 86 51 80 52 79 53 35 55
REMARK SMILES IDX 67 56 47 57 66 58 48 59 51 60 65 61 84 62 49 63 50 64 64 66
REMARK SMILES IDX 85 67 52 68 36 69 37 70 45 71 38 72 39 73 43 74 46 75 40 76
REMARK SMILES IDX 41 77 44 78 42 79 68 80 69 81 77 82 70 83 71 84 75 85 78 86
REMARK SMILES IDX 72 87 73 88 76 89 74 90 53 91 54 92 62 93 55 94 56 95 60 96
REMARK SMILES IDX 63 97 57 98 58 99 61 100 59 101
REMARK H PARENT 8 13 83 54 51 65
REMARK Flexibility Score: inf
ROOT
ATOM      1  C   UNL A   1      33.235  28.837  24.068  1.00  0.00     0.188 C 
ENDROOT
BRANCH   1   2
ATOM      2  C   UNL A   1      31.839  28.426  23.566  1.00  0.00     0.188 C 
BRANCH   2   3
ATOM      3  O   UNL A   1      31.550  27.057  23.345  1.00  0.00    -0.376 OA
BRANCH   3   4
ATOM      4  C   UNL A   1      30.473  26.452  24.045  1.00  0.00     0.202 C 
BRANCH   4   5
ATOM      5  C   UNL A   1      30.377  24.921  24.253  1.00  0.00     0.261 C 
BRANCH   5   6
ATOM      6  O   UNL A   1      30.696  24.397  25.564  1.00  0.00    -0.461 OA
BRANCH   6   7
ATOM      7  C   UNL A   1      31.010  23.074  25.641  1.00  0.00     0.333 C 
ATOM      8  O   UNL A   1      30.216  22.214  26.016  1.00  0.00    -0.249 OA
BRANCH   7   9
ATOM      9  C   UNL A   1      32.462  22.718  25.163  1.00  0.00     0.226 C 
BRANCH   9  10
ATOM     10  N   UNL A   1      33.110  23.491  24.106  1.00  0.00    -0.304 N 
ATOM     11  C   UNL A   1      34.375  23.967  24.074  1.00  0.00     0.408 C 
ATOM     12  O   UNL A   1      34.786  24.569  23.086  1.00  0.00    -0.225 OA
ATOM     13  H   UNL A   1      32.554  23.690  23.317  1.00  0.00     0.168 HD
BRANCH  11  14
ATOM     14  O   UNL A   1      35.096  23.632  25.160  1.00  0.00    -0.444 OA
BRANCH  14  15
ATOM     15  C   UNL A   1      36.328  22.880  25.006  1.00  0.00     0.106 C 
ATOM     16  C   UNL A   1      36.421  22.616  23.499  1.00  0.00     0.056 C 
ATOM     17  C   UNL A   1      36.270  21.543  25.749  1.00  0.00     0.056 C 
ATOM     18  C   UNL A   1      37.545  23.716  25.430  1.00  0.00     0.056 C 
ENDBRANCH  14  15
ENDBRANCH  11  14
ENDBRANCH   9  10
BRANCH   9  19
ATOM     19  C   UNL A   1      32.528  21.227  24.804  1.00  0.00    -0.014 A 
ATOM     20  C   UNL A   1      32.875  20.236  25.743  1.00  0.00     0.013 A 
ATOM     21  C   UNL A   1      32.303  20.834  23.476  1.00  0.00     0.013 A 
ATOM     22  C   UNL A   1      33.079  18.910  25.359  1.00  0.00     0.086 A 
ATOM     23  C   UNL A   1      32.472  19.504  23.085  1.00  0.00     0.086 A 
ATOM     24  C   UNL A   1      32.886  18.551  24.024  1.00  0.00     0.269 A 
BRANCH  24  25
ATOM     25  N   UNL A   1      33.131  17.168  23.602  1.00  0.00     0.062 N 
ATOM     26  O   UNL A   1      33.469  16.976  22.426  1.00  0.00    -0.258 OA
ATOM     27  O   UNL A   1      32.985  16.275  24.448  1.00  0.00    -0.258 OA
ENDBRANCH  24  25
ENDBRANCH   9  19
ENDBRANCH   7   9
ENDBRANCH   6   7
ENDBRANCH   5   6
ENDBRANCH   4   5
ENDBRANCH   3   4
ENDBRANCH   2   3
ENDBRANCH   1   2
BRANCH   1  28
ATOM     28  O   UNL A   1      33.583  28.316  25.331  1.00  0.00    -0.377 OA
BRANCH  28  29
ATOM     29  C   UNL A   1      32.628  28.498  26.363  1.00  0.00     0.188 C 
BRANCH  29  30
ATOM     30  C   UNL A   1      32.763  29.749  27.254  1.00  0.00     0.188 C 
BRANCH  30  31
ATOM     31  O   UNL A   1      32.741  30.977  26.534  1.00  0.00    -0.376 OA
BRANCH  31  32
ATOM     32  C   UNL A   1      31.668  31.882  26.746  1.00  0.00     0.202 C 
BRANCH  32  33
ATOM     33  C   UNL A   1      32.011  33.362  26.988  1.00  0.00     0.261 C 
BRANCH  33  34
ATOM     34  O   UNL A   1      32.664  33.681  28.226  1.00  0.00    -0.460 OA
BRANCH  34  35
ATOM     35  C   UNL A   1      33.811  34.392  28.189  1.00  0.00     0.338 C 
ATOM     36  O   UNL A   1      33.935  35.580  27.961  1.00  0.00    -0.246 OA
BRANCH  35  37
ATOM     37  C   UNL A   1      34.887  33.509  28.693  1.00  0.00     0.060 A 
ATOM     38  C   UNL A   1      34.540  32.308  29.329  1.00  0.00     0.016 A 
ATOM     39  C   UNL A   1      36.229  33.835  28.489  1.00  0.00     0.016 A 
ATOM     40  C   UNL A   1      35.535  31.432  29.766  1.00  0.00     0.010 A 
ATOM     41  C   UNL A   1      37.225  32.974  28.959  1.00  0.00     0.010 A 
ATOM     42  C   UNL A   1      36.883  31.776  29.615  1.00  0.00    -0.014 A 
BRANCH  42  43
ATOM     43  C   UNL A   1      37.939  30.986  30.292  1.00  0.00     0.031 A 
ATOM     44  C   UNL A   1      38.260  31.310  31.723  1.00  0.00     0.074 A 
ATOM     45  C   UNL A   1      38.609  30.012  29.651  1.00  0.00     0.049 A 
ATOM     46  N   UNL A   1      39.224  30.861  32.484  1.00  0.00    -0.248 NA
ATOM     47  C   UNL A   1      37.369  32.277  32.385  1.00  0.00     0.031 C 
ATOM     48  C   UNL A   1      38.355  29.570  28.282  1.00  0.00     0.029 A 
ATOM     49  N   UNL A   1      39.664  29.236  30.067  1.00  0.00    -0.354 N 
ATOM     50  C   UNL A   1      39.058  31.492  33.710  1.00  0.00     0.074 A 
ATOM     51  C   UNL A   1      37.922  32.378  33.583  1.00  0.00     0.031 C 
ATOM     52  C   UNL A   1      39.253  28.623  27.958  1.00  0.00     0.029 A 
ATOM     53  C   UNL A   1      40.171  28.427  29.078  1.00  0.00     0.049 A 
ATOM     54  H   UNL A   1      40.021  29.256  30.984  1.00  0.00     0.167 HD
ATOM     55  C   UNL A   1      39.785  31.338  34.841  1.00  0.00     0.037 A 
ATOM     56  C   UNL A   1      41.279  27.657  29.070  1.00  0.00     0.037 A 
ATOM     57  C   UNL A   1      40.924  30.465  34.956  1.00  0.00     0.049 A 
ATOM     58  C   UNL A   1      42.140  27.588  30.309  1.00  0.00     0.074 A 
ATOM     59  C   UNL A   1      41.728  30.239  36.058  1.00  0.00     0.029 A 
ATOM     60  N   UNL A   1      41.425  29.685  33.925  1.00  0.00    -0.354 N 
ATOM     61  N   UNL A   1      41.970  28.169  31.472  1.00  0.00    -0.248 NA
ATOM     62  C   UNL A   1      43.354  26.759  30.231  1.00  0.00     0.031 C 
ATOM     63  C   UNL A   1      42.751  29.365  35.679  1.00  0.00     0.029 A 
ATOM     64  C   UNL A   1      42.549  28.999  34.358  1.00  0.00     0.049 A 
ATOM     65  H   UNL A   1      41.039  29.626  33.022  1.00  0.00     0.167 HD
ATOM     66  C   UNL A   1      43.036  27.761  32.266  1.00  0.00     0.074 A 
ATOM     67  C   UNL A   1      43.836  26.864  31.461  1.00  0.00     0.031 C 
ATOM     68  C   UNL A   1      43.329  28.103  33.545  1.00  0.00     0.037 A 
BRANCH  55  69
ATOM     69  C   UNL A   1      39.384  32.144  36.041  1.00  0.00     0.064 A 
ATOM     70  C   UNL A   1      39.940  33.406  36.298  1.00  0.00     0.173 A 
ATOM     71  C   UNL A   1      38.397  31.671  36.919  1.00  0.00     0.173 A 
ATOM     72  F   UNL A   1      40.898  33.898  35.498  1.00  0.00    -0.203 F 
ATOM     73  C   UNL A   1      39.537  34.155  37.401  1.00  0.00     0.198 A 
ATOM     74  C   UNL A   1      37.975  32.435  38.003  1.00  0.00     0.198 A 
ATOM     75  F   UNL A   1      37.831  30.471  36.717  1.00  0.00    -0.203 F 
ATOM     76  F   UNL A   1      40.114  35.339  37.652  1.00  0.00    -0.200 F 
ATOM     77  C   UNL A   1      38.549  33.673  38.246  1.00  0.00     0.200 A 
ATOM     78  F   UNL A   1      37.010  31.974  38.810  1.00  0.00    -0.200 F 
ATOM     79  F   UNL A   1      38.154  34.401  39.300  1.00  0.00    -0.200 F 
ENDBRANCH  55  69
BRANCH  56  80
ATOM     80  C   UNL A   1      41.678  26.932  27.832  1.00  0.00     0.064 A 
ATOM     81  C   UNL A   1      41.250  25.619  27.586  1.00  0.00     0.173 A 
ATOM     82  C   UNL A   1      42.538  27.520  26.892  1.00  0.00     0.173 A 
ATOM     83  F   UNL A   1      40.452  24.999  28.467  1.00  0.00    -0.203 F 
ATOM     84  C   UNL A   1      41.690  24.915  26.465  1.00  0.00     0.198 A 
ATOM     85  C   UNL A   1      42.948  26.829  25.753  1.00  0.00     0.198 A 
ATOM     86  F   UNL A   1      42.985  28.771  27.078  1.00  0.00    -0.203 F 
ATOM     87  F   UNL A   1      41.317  23.641  26.290  1.00  0.00    -0.200 F 
ATOM     88  C   UNL A   1      42.534  25.522  25.547  1.00  0.00     0.200 A 
ATOM     89  F   UNL A   1      43.752  27.425  24.863  1.00  0.00    -0.200 F 
ATOM     90  F   UNL A   1      42.957  24.844  24.472  1.00  0.00    -0.200 F 
ENDBRANCH  56  80
BRANCH  68  91
ATOM     91  C   UNL A   1      44.551  27.490  34.168  1.00  0.00     0.064 A 
ATOM     92  C   UNL A   1      45.802  28.123  34.107  1.00  0.00     0.173 A 
ATOM     93  C   UNL A   1      44.455  26.295  34.898  1.00  0.00     0.173 A 
ATOM     94  F   UNL A   1      45.951  29.259  33.411  1.00  0.00    -0.203 F 
ATOM     95  C   UNL A   1      46.914  27.571  34.740  1.00  0.00     0.198 A 
ATOM     96  C   UNL A   1      45.562  25.764  35.556  1.00  0.00     0.198 A 
ATOM     97  F   UNL A   1      43.280  25.655  34.995  1.00  0.00    -0.203 F 
ATOM     98  F   UNL A   1      48.107  28.173  34.635  1.00  0.00    -0.200 F 
ATOM     99  C   UNL A   1      46.791  26.401  35.472  1.00  0.00     0.200 A 
ATOM    100  F   UNL A   1      45.436  24.643  36.279  1.00  0.00    -0.200 F 
ATOM    101  F   UNL A   1      47.857  25.883  36.095  1.00  0.00    -0.200 F 
ENDBRANCH  68  91
ENDBRANCH  42  43
ENDBRANCH  35  37
ENDBRANCH  34  35
ENDBRANCH  33  34
ENDBRANCH  32  33
ENDBRANCH  31  32
ENDBRANCH  30  31
ENDBRANCH  29  30
ENDBRANCH  28  29
ENDBRANCH   1  28
TORSDOF 25
ENDMDL
MODEL 2
REMARK VINA RESULT:     -10.0      5.325     10.821
REMARK SMILES CC(C)(C)OC(=O)N[C@@H](C(=O)OCCOCCOCCOCCOC(=O)c1ccc(-c2c3nc(c(-c4c(F)c(F)c(F)c(F)c4F)c4ccc([nH]4)c(-c4c(F)c(F)c(F)c(F)c4F)c4nc(c(-c5c(F)c(F)c(F)c(F)c5F)c5ccc2[nH]5)C=C4)C=C3)cc1)c1ccc([N+](=O)[O-])cc1
REMARK SMILES IDX 17 1 16 2 15 3 14 4 13 5 12 6 10 7 11 8 9 9 8 10 6 11 7 12
REMARK SMILES IDX 5 14 2 15 1 16 3 17 4 18 90 19 91 20 98 21 92 22 97 23 93 24
REMARK SMILES IDX 94 25 95 26 96 27 18 28 19 29 20 30 21 31 22 32 23 33 24 34
REMARK SMILES IDX 25 35 26 36 27 37 28 38 89 39 29 40 88 41 30 42 31 43 32 44
REMARK SMILES IDX 82 45 33 46 87 47 81 48 83 49 34 50 86 51 80 52 79 53 35 55
REMARK SMILES IDX 67 56 47 57 66 58 48 59 51 60 65 61 84 62 49 63 50 64 64 66
REMARK SMILES IDX 85 67 52 68 36 69 37 70 45 71 38 72 39 73 43 74 46 75 40 76
REMARK SMILES IDX 41 77 44 78 42 79 68 80 69 81 77 82 70 83 71 84 75 85 78 86
REMARK SMILES IDX 72 87 73 88 76 89 74 90 53 91 54 92 62 93 55 94 56 95 60 96
REMARK SMILES IDX 63 97 57 98 58 99 61 100 59 101
REMARK H PARENT 8 13 83 54 51 65
REMARK Flexibility Score: inf
ROOT
ATOM      1  C   UNL A   1      39.581  22.444  26.497  1.00  0.00     0.188 C 
ENDROOT
BRANCH   1   2
ATOM      2  C   UNL A   1      38.904  23.791  26.809  1.00  0.00     0.188 C 
BRANCH   2   3
ATOM      3  O   UNL A   1      37.797  24.214  26.033  1.00  0.00    -0.376 OA
BRANCH   3   4
ATOM      4  C   UNL A   1      36.840  23.255  25.606  1.00  0.00     0.202 C 
BRANCH   4   5
ATOM      5  C   UNL A   1      35.353  23.618  25.373  1.00  0.00     0.261 C 
BRANCH   5   6
ATOM      6  O   UNL A   1      34.442  23.482  26.489  1.00  0.00    -0.461 OA
BRANCH   6   7
ATOM      7  C   UNL A   1      33.415  22.600  26.344  1.00  0.00     0.333 C 
ATOM      8  O   UNL A   1      32.742  22.190  27.287  1.00  0.00    -0.249 OA
BRANCH   7   9
ATOM      9  C   UNL A   1      33.117  22.179  24.862  1.00  0.00     0.226 C 
BRANCH   9  10
ATOM     10  N   UNL A   1      31.855  22.541  24.223  1.00  0.00    -0.304 N 
ATOM     11  C   UNL A   1      31.458  23.758  23.785  1.00  0.00     0.408 C 
ATOM     12  O   UNL A   1      30.373  23.893  23.228  1.00  0.00    -0.225 OA
ATOM     13  H   UNL A   1      31.211  21.807  24.096  1.00  0.00     0.168 HD
BRANCH  11  14
ATOM     14  O   UNL A   1      32.393  24.712  23.952  1.00  0.00    -0.444 OA
BRANCH  14  15
ATOM     15  C   UNL A   1      32.038  25.968  24.585  1.00  0.00     0.106 C 
ATOM     16  C   UNL A   1      33.380  26.545  25.052  1.00  0.00     0.056 C 
ATOM     17  C   UNL A   1      31.133  25.753  25.801  1.00  0.00     0.056 C 
ATOM     18  C   UNL A   1      31.415  26.943  23.575  1.00  0.00     0.056 C 
ENDBRANCH  14  15
ENDBRANCH  11  14
ENDBRANCH   9  10
BRANCH   9  19
ATOM     19  C   UNL A   1      33.339  20.667  24.708  1.00  0.00    -0.014 A 
ATOM     20  C   UNL A   1      34.604  20.068  24.869  1.00  0.00     0.013 A 
ATOM     21  C   UNL A   1      32.262  19.855  24.325  1.00  0.00     0.013 A 
ATOM     22  C   UNL A   1      34.811  18.719  24.573  1.00  0.00     0.086 A 
ATOM     23  C   UNL A   1      32.450  18.497  24.057  1.00  0.00     0.086 A 
ATOM     24  C   UNL A   1      33.731  17.939  24.156  1.00  0.00     0.269 A 
BRANCH  24  25
ATOM     25  N   UNL A   1      33.944  16.531  23.810  1.00  0.00     0.062 N 
ATOM     26  O   UNL A   1      33.754  15.686  24.695  1.00  0.00    -0.258 OA
ATOM     27  O   UNL A   1      34.303  16.271  22.653  1.00  0.00    -0.258 OA
ENDBRANCH  24  25
ENDBRANCH   9  19
ENDBRANCH   7   9
ENDBRANCH   6   7
ENDBRANCH   5   6
ENDBRANCH   4   5
ENDBRANCH   3   4
ENDBRANCH   2   3
ENDBRANCH   1   2
BRANCH   1  28
ATOM     28  O   UNL A   1      40.915  22.339  26.940  1.00  0.00    -0.377 OA
BRANCH  28  29
ATOM     29  C   UNL A   1      41.154  21.406  27.979  1.00  0.00     0.188 C 
BRANCH  29  30
ATOM     30  C   UNL A   1      41.864  20.088  27.611  1.00  0.00     0.188 C 
BRANCH  30  31
ATOM     31  O   UNL A   1      42.397  20.067  26.291  1.00  0.00    -0.376 OA
BRANCH  31  32
ATOM     32  C   UNL A   1      42.540  18.822  25.624  1.00  0.00     0.202 C 
BRANCH  32  33
ATOM     33  C   UNL A   1      43.902  18.111  25.709  1.00  0.00     0.261 C 
BRANCH  33  34
ATOM     34  O   UNL A   1      45.056  18.875  25.330  1.00  0.00    -0.460 OA
BRANCH  34  35
ATOM     35  C   UNL A   1      44.980  19.665  24.237  1.00  0.00     0.338 C 
ATOM     36  O   UNL A   1      44.788  19.316  23.089  1.00  0.00    -0.246 OA
BRANCH  35  37
ATOM     37  C   UNL A   1      44.952  21.066  24.714  1.00  0.00     0.060 A 
ATOM     38  C   UNL A   1      44.492  22.071  23.851  1.00  0.00     0.016 A 
ATOM     39  C   UNL A   1      45.323  21.379  26.024  1.00  0.00     0.016 A 
ATOM     40  C   UNL A   1      44.405  23.392  24.294  1.00  0.00     0.010 A 
ATOM     41  C   UNL A   1      45.270  22.708  26.454  1.00  0.00     0.010 A 
ATOM     42  C   UNL A   1      44.827  23.723  25.586  1.00  0.00    -0.014 A 
BRANCH  42  43
ATOM     43  C   UNL A   1      44.979  25.143  25.984  1.00  0.00     0.031 A 
ATOM     44  C   UNL A   1      46.348  25.757  25.912  1.00  0.00     0.074 A 
ATOM     45  C   UNL A   1      43.931  25.869  26.413  1.00  0.00     0.049 A 
ATOM     46  N   UNL A   1      46.761  26.926  26.330  1.00  0.00    -0.248 NA
ATOM     47  C   UNL A   1      47.395  24.937  25.282  1.00  0.00     0.031 C 
ATOM     48  C   UNL A   1      42.549  25.404  26.478  1.00  0.00     0.029 A 
ATOM     49  N   UNL A   1      43.879  27.153  26.901  1.00  0.00    -0.354 N 
ATOM     50  C   UNL A   1      48.113  26.979  26.018  1.00  0.00     0.074 A 
ATOM     51  C   UNL A   1      48.458  25.715  25.404  1.00  0.00     0.031 C 
ATOM     52  C   UNL A   1      41.788  26.376  27.011  1.00  0.00     0.029 A 
ATOM     53  C   UNL A   1      42.637  27.512  27.365  1.00  0.00     0.049 A 
ATOM     54  H   UNL A   1      44.657  27.758  26.916  1.00  0.00     0.167 HD
ATOM     55  C   UNL A   1      48.984  27.995  26.218  1.00  0.00     0.037 A 
ATOM     56  C   UNL A   1      42.247  28.612  28.041  1.00  0.00     0.037 A 
ATOM     57  C   UNL A   1      48.637  29.244  26.842  1.00  0.00     0.049 A 
ATOM     58  C   UNL A   1      43.263  29.686  28.354  1.00  0.00     0.074 A 
ATOM     59  C   UNL A   1      49.447  30.337  27.092  1.00  0.00     0.029 A 
ATOM     60  N   UNL A   1      47.376  29.559  27.325  1.00  0.00    -0.354 N 
ATOM     61  N   UNL A   1      44.535  29.742  28.040  1.00  0.00    -0.248 NA
ATOM     62  C   UNL A   1      42.789  30.847  29.123  1.00  0.00     0.031 C 
ATOM     63  C   UNL A   1      48.690  31.292  27.778  1.00  0.00     0.029 A 
ATOM     64  C   UNL A   1      47.394  30.819  27.901  1.00  0.00     0.049 A 
ATOM     65  H   UNL A   1      46.585  28.976  27.266  1.00  0.00     0.167 HD
ATOM     66  C   UNL A   1      45.005  30.947  28.551  1.00  0.00     0.074 A 
ATOM     67  C   UNL A   1      43.877  31.603  29.175  1.00  0.00     0.031 C 
ATOM     68  C   UNL A   1      46.258  31.462  28.512  1.00  0.00     0.037 A 
BRANCH  55  69
ATOM     69  C   UNL A   1      50.403  27.792  25.776  1.00  0.00     0.064 A 
ATOM     70  C   UNL A   1      51.406  27.404  26.677  1.00  0.00     0.173 A 
ATOM     71  C   UNL A   1      50.756  27.941  24.426  1.00  0.00     0.173 A 
ATOM     72  F   UNL A   1      51.124  27.262  27.981  1.00  0.00    -0.203 F 
ATOM     73  C   UNL A   1      52.713  27.193  26.246  1.00  0.00     0.198 A 
ATOM     74  C   UNL A   1      52.056  27.699  23.993  1.00  0.00     0.198 A 
ATOM     75  F   UNL A   1      49.834  28.308  23.522  1.00  0.00    -0.203 F 
ATOM     76  F   UNL A   1      53.664  26.865  27.132  1.00  0.00    -0.200 F 
ATOM     77  C   UNL A   1      53.035  27.331  24.904  1.00  0.00     0.200 A 
ATOM     78  F   UNL A   1      52.362  27.819  22.694  1.00  0.00    -0.200 F 
ATOM     79  F   UNL A   1      54.291  27.115  24.489  1.00  0.00    -0.200 F 
ENDBRANCH  55  69
BRANCH  56  80
ATOM     80  C   UNL A   1      40.844  28.738  28.524  1.00  0.00     0.064 A 
ATOM     81  C   UNL A   1      40.487  28.375  29.830  1.00  0.00     0.173 A 
ATOM     82  C   UNL A   1      39.820  29.177  27.670  1.00  0.00     0.173 A 
ATOM     83  F   UNL A   1      41.421  27.921  30.678  1.00  0.00    -0.203 F 
ATOM     84  C   UNL A   1      39.159  28.419  30.254  1.00  0.00     0.198 A 
ATOM     85  C   UNL A   1      38.498  29.255  28.105  1.00  0.00     0.198 A 
ATOM     86  F   UNL A   1      40.102  29.530  26.407  1.00  0.00    -0.203 F 
ATOM     87  F   UNL A   1      38.838  28.005  31.487  1.00  0.00    -0.200 F 
ATOM     88  C   UNL A   1      38.167  28.864  29.393  1.00  0.00     0.200 A 
ATOM     89  F   UNL A   1      37.546  29.698  27.274  1.00  0.00    -0.200 F 
ATOM     90  F   UNL A   1      36.891  28.903  29.800  1.00  0.00    -0.200 F 
ENDBRANCH  56  80
BRANCH  68  91
ATOM     91  C   UNL A   1      46.480  32.809  29.137  1.00  0.00     0.064 A 
ATOM     92  C   UNL A   1      46.900  32.940  30.469  1.00  0.00     0.173 A 
ATOM     93  C   UNL A   1      46.342  33.980  28.375  1.00  0.00     0.173 A 
ATOM     94  F   UNL A   1      47.034  31.854  31.245  1.00  0.00    -0.203 F 
ATOM     95  C   UNL A   1      47.157  34.194  31.018  1.00  0.00     0.198 A 
ATOM     96  C   UNL A   1      46.631  35.229  28.918  1.00  0.00     0.198 A 
ATOM     97  F   UNL A   1      45.951  33.910  27.094  1.00  0.00    -0.203 F 
ATOM     98  F   UNL A   1      47.520  34.297  32.305  1.00  0.00    -0.200 F 
ATOM     99  C   UNL A   1      47.034  35.335  30.240  1.00  0.00     0.200 A 
ATOM    100  F   UNL A   1      46.530  36.328  28.158  1.00  0.00    -0.200 F 
ATOM    101  F   UNL A   1      47.300  36.538  30.765  1.00  0.00    -0.200 F 
ENDBRANCH  68  91
ENDBRANCH  42  43
ENDBRANCH  35  37
ENDBRANCH  34  35
ENDBRANCH  33  34
ENDBRANCH  32  33
ENDBRANCH  31  32
ENDBRANCH  30  31
ENDBRANCH  29  30
ENDBRANCH  28  29
ENDBRANCH   1  28
TORSDOF 25
ENDMDL
MODEL 3
REMARK VINA RESULT:      -9.9      2.992      8.694
REMARK SMILES CC(C)(C)OC(=O)N[C@@H](C(=O)OCCOCCOCCOCCOC(=O)c1ccc(-c2c3nc(c(-c4c(F)c(F)c(F)c(F)c4F)c4ccc([nH]4)c(-c4c(F)c(F)c(F)c(F)c4F)c4nc(c(-c5c(F)c(F)c(F)c(F)c5F)c5ccc2[nH]5)C=C4)C=C3)cc1)c1ccc([N+](=O)[O-])cc1
REMARK SMILES IDX 17 1 16 2 15 3 14 4 13 5 12 6 10 7 11 8 9 9 8 10 6 11 7 12
REMARK SMILES IDX 5 14 2 15 1 16 3 17 4 18 90 19 91 20 98 21 92 22 97 23 93 24
REMARK SMILES IDX 94 25 95 26 96 27 18 28 19 29 20 30 21 31 22 32 23 33 24 34
REMARK SMILES IDX 25 35 26 36 27 37 28 38 89 39 29 40 88 41 30 42 31 43 32 44
REMARK SMILES IDX 82 45 33 46 87 47 81 48 83 49 34 50 86 51 80 52 79 53 35 55
REMARK SMILES IDX 67 56 47 57 66 58 48 59 51 60 65 61 84 62 49 63 50 64 64 66
REMARK SMILES IDX 85 67 52 68 36 69 37 70 45 71 38 72 39 73 43 74 46 75 40 76
REMARK SMILES IDX 41 77 44 78 42 79 68 80 69 81 77 82 70 83 71 84 75 85 78 86
REMARK SMILES IDX 72 87 73 88 76 89 74 90 53 91 54 92 62 93 55 94 56 95 60 96
REMARK SMILES IDX 63 97 57 98 58 99 61 100 59 101
REMARK H PARENT 8 13 83 54 51 65
REMARK Flexibility Score: inf
ROOT
ATOM      1  C   UNL A   1      40.684  20.345  26.495  1.00  0.00     0.188 C 
ENDROOT
BRANCH   1   2
ATOM      2  C   UNL A   1      39.530  21.130  25.844  1.00  0.00     0.188 C 
BRANCH   2   3
ATOM      3  O   UNL A   1      38.529  20.435  25.124  1.00  0.00    -0.376 OA
BRANCH   3   4
ATOM      4  C   UNL A   1      37.243  21.021  24.977  1.00  0.00     0.202 C 
BRANCH   4   5
ATOM      5  C   UNL A   1      37.040  22.552  24.866  1.00  0.00     0.261 C 
BRANCH   5   6
ATOM      6  O   UNL A   1      35.696  23.067  25.010  1.00  0.00    -0.461 OA
BRANCH   6   7
ATOM      7  C   UNL A   1      34.855  22.906  23.951  1.00  0.00     0.333 C 
ATOM      8  O   UNL A   1      35.200  23.084  22.785  1.00  0.00    -0.249 OA
BRANCH   7   9
ATOM      9  C   UNL A   1      33.412  22.420  24.330  1.00  0.00     0.226 C 
BRANCH   9  10
ATOM     10  N   UNL A   1      32.767  22.884  25.555  1.00  0.00    -0.304 N 
ATOM     11  C   UNL A   1      32.159  24.071  25.783  1.00  0.00     0.408 C 
ATOM     12  O   UNL A   1      31.624  24.296  26.864  1.00  0.00    -0.225 OA
ATOM     13  H   UNL A   1      32.776  22.253  26.312  1.00  0.00     0.168 HD
BRANCH  11  14
ATOM     14  O   UNL A   1      32.146  24.875  24.704  1.00  0.00    -0.444 OA
BRANCH  14  15
ATOM     15  C   UNL A   1      32.469  26.282  24.847  1.00  0.00     0.106 C 
ATOM     16  C   UNL A   1      32.769  26.746  23.417  1.00  0.00     0.056 C 
ATOM     17  C   UNL A   1      33.713  26.491  25.715  1.00  0.00     0.056 C 
ATOM     18  C   UNL A   1      31.266  27.078  25.374  1.00  0.00     0.056 C 
ENDBRANCH  14  15
ENDBRANCH  11  14
ENDBRANCH   9  10
BRANCH   9  19
ATOM     19  C   UNL A   1      33.364  20.886  24.290  1.00  0.00    -0.014 A 
ATOM     20  C   UNL A   1      34.212  20.082  25.078  1.00  0.00     0.013 A 
ATOM     21  C   UNL A   1      32.495  20.253  23.390  1.00  0.00     0.013 A 
ATOM     22  C   UNL A   1      34.259  18.697  24.912  1.00  0.00     0.086 A 
ATOM     23  C   UNL A   1      32.509  18.864  23.239  1.00  0.00     0.086 A 
ATOM     24  C   UNL A   1      33.411  18.093  23.982  1.00  0.00     0.269 A 
BRANCH  24  25
ATOM     25  N   UNL A   1      33.476  16.643  23.776  1.00  0.00     0.062 N 
ATOM     26  O   UNL A   1      34.035  16.232  22.749  1.00  0.00    -0.258 OA
ATOM     27  O   UNL A   1      32.969  15.916  24.641  1.00  0.00    -0.258 OA
ENDBRANCH  24  25
ENDBRANCH   9  19
ENDBRANCH   7   9
ENDBRANCH   6   7
ENDBRANCH   5   6
ENDBRANCH   4   5
ENDBRANCH   3   4
ENDBRANCH   2   3
ENDBRANCH   1   2
BRANCH   1  28
ATOM     28  O   UNL A   1      41.134  19.236  25.749  1.00  0.00    -0.377 OA
BRANCH  28  29
ATOM     29  C   UNL A   1      42.532  19.164  25.526  1.00  0.00     0.188 C 
BRANCH  29  30
ATOM     30  C   UNL A   1      43.416  20.264  26.145  1.00  0.00     0.188 C 
BRANCH  30  31
ATOM     31  O   UNL A   1      44.416  20.765  25.265  1.00  0.00    -0.376 OA
BRANCH  31  32
ATOM     32  C   UNL A   1      44.402  22.142  24.915  1.00  0.00     0.202 C 
BRANCH  32  33
ATOM     33  C   UNL A   1      43.053  22.880  24.950  1.00  0.00     0.261 C 
BRANCH  33  34
ATOM     34  O   UNL A   1      43.069  24.276  24.615  1.00  0.00    -0.460 OA
BRANCH  34  35
ATOM     35  C   UNL A   1      44.036  25.057  25.143  1.00  0.00     0.338 C 
ATOM     36  O   UNL A   1      45.141  25.272  24.684  1.00  0.00    -0.246 OA
BRANCH  35  37
ATOM     37  C   UNL A   1      43.433  25.788  26.280  1.00  0.00     0.060 A 
ATOM     38  C   UNL A   1      44.074  26.935  26.770  1.00  0.00     0.016 A 
ATOM     39  C   UNL A   1      42.214  25.377  26.823  1.00  0.00     0.016 A 
ATOM     40  C   UNL A   1      43.498  27.673  27.806  1.00  0.00     0.010 A 
ATOM     41  C   UNL A   1      41.657  26.096  27.884  1.00  0.00     0.010 A 
ATOM     42  C   UNL A   1      42.305  27.237  28.392  1.00  0.00    -0.014 A 
BRANCH  42  43
ATOM     43  C   UNL A   1      41.816  27.858  29.647  1.00  0.00     0.031 A 
ATOM     44  C   UNL A   1      40.600  28.738  29.576  1.00  0.00     0.074 A 
ATOM     45  C   UNL A   1      42.441  27.659  30.820  1.00  0.00     0.049 A 
ATOM     46  N   UNL A   1      40.064  29.496  30.498  1.00  0.00    -0.248 NA
ATOM     47  C   UNL A   1      39.894  28.766  28.285  1.00  0.00     0.031 C 
ATOM     48  C   UNL A   1      43.596  26.789  31.027  1.00  0.00     0.029 A 
ATOM     49  N   UNL A   1      42.202  28.203  32.059  1.00  0.00    -0.354 N 
ATOM     50  C   UNL A   1      38.962  30.092  29.898  1.00  0.00     0.074 A 
ATOM     51  C   UNL A   1      38.924  29.634  28.527  1.00  0.00     0.031 C 
ATOM     52  C   UNL A   1      43.987  26.884  32.310  1.00  0.00     0.029 A 
ATOM     53  C   UNL A   1      43.140  27.855  33.001  1.00  0.00     0.049 A 
ATOM     54  H   UNL A   1      41.432  28.786  32.255  1.00  0.00     0.167 HD
ATOM     55  C   UNL A   1      38.061  30.939  30.447  1.00  0.00     0.037 A 
ATOM     56  C   UNL A   1      43.319  28.310  34.258  1.00  0.00     0.037 A 
ATOM     57  C   UNL A   1      38.113  31.402  31.808  1.00  0.00     0.049 A 
ATOM     58  C   UNL A   1      42.366  29.341  34.814  1.00  0.00     0.074 A 
ATOM     59  C   UNL A   1      37.248  32.261  32.460  1.00  0.00     0.029 A 
ATOM     60  N   UNL A   1      39.095  31.050  32.723  1.00  0.00    -0.354 N 
ATOM     61  N   UNL A   1      41.315  29.888  34.252  1.00  0.00    -0.248 NA
ATOM     62  C   UNL A   1      42.629  29.825  36.178  1.00  0.00     0.031 C 
ATOM     63  C   UNL A   1      37.738  32.476  33.752  1.00  0.00     0.029 A 
ATOM     64  C   UNL A   1      38.874  31.702  33.925  1.00  0.00     0.049 A 
ATOM     65  H   UNL A   1      39.838  30.429  32.544  1.00  0.00     0.167 HD
ATOM     66  C   UNL A   1      40.782  30.757  35.196  1.00  0.00     0.074 A 
ATOM     67  C   UNL A   1      41.610  30.649  36.377  1.00  0.00     0.031 C 
ATOM     68  C   UNL A   1      39.706  31.577  35.094  1.00  0.00     0.037 A 
BRANCH  55  69
ATOM     69  C   UNL A   1      36.950  31.436  29.570  1.00  0.00     0.064 A 
ATOM     70  C   UNL A   1      35.890  30.603  29.182  1.00  0.00     0.173 A 
ATOM     71  C   UNL A   1      36.921  32.774  29.149  1.00  0.00     0.173 A 
ATOM     72  F   UNL A   1      35.879  29.311  29.545  1.00  0.00    -0.203 F 
ATOM     73  C   UNL A   1      34.852  31.087  28.389  1.00  0.00     0.198 A 
ATOM     74  C   UNL A   1      35.866  33.262  28.383  1.00  0.00     0.198 A 
ATOM     75  F   UNL A   1      37.909  33.614  29.494  1.00  0.00    -0.203 F 
ATOM     76  F   UNL A   1      33.873  30.261  27.994  1.00  0.00    -0.200 F 
ATOM     77  C   UNL A   1      34.837  32.417  27.998  1.00  0.00     0.200 A 
ATOM     78  F   UNL A   1      35.846  34.551  28.018  1.00  0.00    -0.200 F 
ATOM     79  F   UNL A   1      33.831  32.884  27.246  1.00  0.00    -0.200 F 
ENDBRANCH  55  69
BRANCH  56  80
ATOM     80  C   UNL A   1      44.478  27.841  35.067  1.00  0.00     0.064 A 
ATOM     81  C   UNL A   1      45.726  28.475  34.988  1.00  0.00     0.173 A 
ATOM     82  C   UNL A   1      44.374  26.715  35.899  1.00  0.00     0.173 A 
ATOM     83  F   UNL A   1      45.889  29.537  34.185  1.00  0.00    -0.203 F 
ATOM     84  C   UNL A   1      46.830  27.985  35.686  1.00  0.00     0.198 A 
ATOM     85  C   UNL A   1      45.469  26.248  36.625  1.00  0.00     0.198 A 
ATOM     86  F   UNL A   1      43.207  26.064  36.008  1.00  0.00    -0.203 F 
ATOM     87  F   UNL A   1      48.025  28.573  35.541  1.00  0.00    -0.200 F 
ATOM     88  C   UNL A   1      46.699  26.876  36.508  1.00  0.00     0.200 A 
ATOM     89  F   UNL A   1      45.333  25.184  37.428  1.00  0.00    -0.200 F 
ATOM     90  F   UNL A   1      47.760  26.405  37.177  1.00  0.00    -0.200 F 
ENDBRANCH  56  80
BRANCH  68  91
ATOM     91  C   UNL A   1      39.342  32.405  36.293  1.00  0.00     0.064 A 
ATOM     92  C   UNL A   1      39.913  33.667  36.514  1.00  0.00     0.173 A 
ATOM     93  C   UNL A   1      38.358  31.964  37.192  1.00  0.00     0.173 A 
ATOM     94  F   UNL A   1      40.868  34.129  35.693  1.00  0.00    -0.203 F 
ATOM     95  C   UNL A   1      39.523  34.449  37.599  1.00  0.00     0.198 A 
ATOM     96  C   UNL A   1      37.948  32.762  38.257  1.00  0.00     0.198 A 
ATOM     97  F   UNL A   1      37.775  30.768  37.022  1.00  0.00    -0.203 F 
ATOM     98  F   UNL A   1      40.111  35.635  37.811  1.00  0.00    -0.200 F 
ATOM     99  C   UNL A   1      38.535  34.001  38.462  1.00  0.00     0.200 A 
ATOM    100  F   UNL A   1      36.979  32.335  39.078  1.00  0.00    -0.200 F 
ATOM    101  F   UNL A   1      38.149  34.763  39.494  1.00  0.00    -0.200 F 
ENDBRANCH  68  91
ENDBRANCH  42  43
ENDBRANCH  35  37
ENDBRANCH  34  35
ENDBRANCH  33  34
ENDBRANCH  32  33
ENDBRANCH  31  32
ENDBRANCH  30  31
ENDBRANCH  29  30
ENDBRANCH  28  29
ENDBRANCH   1  28
TORSDOF 25
ENDMDL
