MODEL 1
REMARK VINA RESULT:     -10.4      0.000      0.000
REMARK SMILES O=C(Cc1cccc(-c2ccn(C(F)F)c(=O)c2)c1)OCCOCCOCCOCCOC(=O)c1ccc(-c2c3nc(c(-c4c(F)c(F)c(F)c(F)c4F)c4ccc([nH]4)c(-c4c(F)c(F)c(F)c(F)c4F)c4nc(c(-c5c(F)c(F)c(F)c(F)c5F)c5ccc2[nH]5)C=C4)C=C3)cc1
REMARK SMILES IDX 25 1 24 2 23 3 22 4 21 5 20 6 2 7 1 8 3 9 4 10 5 11 19 12
REMARK SMILES IDX 6 13 8 14 7 15 9 16 10 17 18 18 11 19 16 20 12 21 17 22
REMARK SMILES IDX 13 23 14 24 15 25 26 26 27 27 28 28 29 29 30 30 31 31 32 32
REMARK SMILES IDX 33 33 34 34 35 35 36 36 97 37 37 38 96 39 38 40 39 41 40 42
REMARK SMILES IDX 90 43 41 44 95 45 89 46 91 47 42 48 94 49 88 50 87 51 43 53
REMARK SMILES IDX 75 54 55 55 74 56 56 57 59 58 73 59 92 60 57 61 58 62 72 64
REMARK SMILES IDX 93 65 60 66 44 67 45 68 53 69 46 70 47 71 51 72 54 73 48 74
REMARK SMILES IDX 49 75 52 76 50 77 76 78 77 79 85 80 78 81 79 82 83 83 86 84
REMARK SMILES IDX 80 85 81 86 84 87 82 88 61 89 62 90 70 91 63 92 64 93 68 94
REMARK SMILES IDX 71 95 65 96 66 97 69 98 67 99
REMARK H PARENT 91 52 59 63
REMARK Flexibility Score: inf
ROOT
ATOM      1  C   UNL A   1      33.594  29.493  26.829  1.00  0.00     0.188 C 
ENDROOT
BRANCH   1   2
ATOM      2  C   UNL A   1      32.259  29.148  26.161  1.00  0.00     0.188 C 
BRANCH   2   3
ATOM      3  O   UNL A   1      32.204  27.910  25.480  1.00  0.00    -0.376 OA
BRANCH   3   4
ATOM      4  C   UNL A   1      31.420  27.646  24.340  1.00  0.00     0.202 C 
BRANCH   4   5
ATOM      5  C   UNL A   1      31.285  26.246  23.759  1.00  0.00     0.261 C 
BRANCH   5   6
ATOM      6  O   UNL A   1      30.582  25.249  24.528  1.00  0.00    -0.463 OA
BRANCH   6   7
ATOM      7  C   UNL A   1      30.358  25.143  25.854  1.00  0.00     0.310 C 
ATOM      8  O   UNL A   1      29.773  26.065  26.422  1.00  0.00    -0.252 OA
BRANCH   7   9
ATOM      9  C   UNL A   1      30.900  23.971  26.652  1.00  0.00     0.158 C 
BRANCH   9  10
ATOM     10  C   UNL A   1      32.333  23.611  26.398  1.00  0.00    -0.036 A 
ATOM     11  C   UNL A   1      33.298  24.591  26.130  1.00  0.00     0.004 A 
ATOM     12  C   UNL A   1      32.700  22.272  26.349  1.00  0.00     0.013 A 
ATOM     13  C   UNL A   1      34.574  24.219  25.704  1.00  0.00     0.001 A 
ATOM     14  C   UNL A   1      33.952  21.894  25.863  1.00  0.00    -0.018 A 
ATOM     15  C   UNL A   1      34.895  22.868  25.539  1.00  0.00     0.009 A 
BRANCH  14  16
ATOM     16  C   UNL A   1      34.101  20.460  25.604  1.00  0.00    -0.011 A 
ATOM     17  C   UNL A   1      35.311  19.916  25.017  1.00  0.00     0.027 A 
ATOM     18  C   UNL A   1      32.982  19.720  25.635  1.00  0.00     0.080 A 
ATOM     19  C   UNL A   1      35.290  18.716  24.430  1.00  0.00     0.095 A 
ATOM     20  C   UNL A   1      32.961  18.363  25.031  1.00  0.00     0.255 A 
ATOM     21  N   UNL A   1      34.138  17.951  24.425  1.00  0.00    -0.258 N 
ATOM     22  O   UNL A   1      31.912  17.728  25.063  1.00  0.00    -0.269 OA
BRANCH  21  23
ATOM     23  C   UNL A   1      34.109  16.680  23.750  1.00  0.00     0.451 C 
ATOM     24  F   UNL A   1      34.435  16.815  22.443  1.00  0.00    -0.185 F 
ATOM     25  F   UNL A   1      34.982  15.811  24.316  1.00  0.00    -0.185 F 
ENDBRANCH  21  23
ENDBRANCH  14  16
ENDBRANCH   9  10
ENDBRANCH   7   9
ENDBRANCH   6   7
ENDBRANCH   5   6
ENDBRANCH   4   5
ENDBRANCH   3   4
ENDBRANCH   2   3
ENDBRANCH   1   2
BRANCH   1  26
ATOM     26  O   UNL A   1      33.883  30.879  26.970  1.00  0.00    -0.377 OA
BRANCH  26  27
ATOM     27  C   UNL A   1      34.805  31.197  27.997  1.00  0.00     0.188 C 
BRANCH  27  28
ATOM     28  C   UNL A   1      34.579  32.570  28.659  1.00  0.00     0.188 C 
BRANCH  28  29
ATOM     29  O   UNL A   1      34.148  33.696  27.917  1.00  0.00    -0.376 OA
BRANCH  29  30
ATOM     30  C   UNL A   1      34.257  35.023  28.401  1.00  0.00     0.202 C 
BRANCH  30  31
ATOM     31  C   UNL A   1      33.288  35.692  29.390  1.00  0.00     0.261 C 
BRANCH  31  32
ATOM     32  O   UNL A   1      32.814  34.909  30.481  1.00  0.00    -0.460 OA
BRANCH  32  33
ATOM     33  C   UNL A   1      32.862  35.514  31.682  1.00  0.00     0.338 C 
ATOM     34  O   UNL A   1      32.051  36.299  32.155  1.00  0.00    -0.246 OA
BRANCH  33  35
ATOM     35  C   UNL A   1      33.962  34.916  32.458  1.00  0.00     0.060 A 
ATOM     36  C   UNL A   1      35.155  35.645  32.562  1.00  0.00     0.016 A 
ATOM     37  C   UNL A   1      33.835  33.660  33.057  1.00  0.00     0.016 A 
ATOM     38  C   UNL A   1      36.251  35.093  33.205  1.00  0.00     0.010 A 
ATOM     39  C   UNL A   1      34.951  33.085  33.666  1.00  0.00     0.010 A 
ATOM     40  C   UNL A   1      36.175  33.779  33.679  1.00  0.00    -0.014 A 
BRANCH  40  41
ATOM     41  C   UNL A   1      37.450  33.050  33.856  1.00  0.00     0.031 A 
ATOM     42  C   UNL A   1      38.213  33.298  35.129  1.00  0.00     0.074 A 
ATOM     43  C   UNL A   1      37.858  32.124  32.976  1.00  0.00     0.049 A 
ATOM     44  N   UNL A   1      39.325  32.758  35.555  1.00  0.00    -0.248 NA
ATOM     45  C   UNL A   1      37.636  34.291  36.054  1.00  0.00     0.031 C 
ATOM     46  C   UNL A   1      37.159  31.755  31.748  1.00  0.00     0.029 A 
ATOM     47  N   UNL A   1      38.965  31.315  32.996  1.00  0.00    -0.354 N 
ATOM     48  C   UNL A   1      39.582  33.355  36.784  1.00  0.00     0.074 A 
ATOM     49  C   UNL A   1      38.534  34.319  37.022  1.00  0.00     0.031 C 
ATOM     50  C   UNL A   1      37.858  30.789  31.126  1.00  0.00     0.029 A 
ATOM     51  C   UNL A   1      39.062  30.494  31.902  1.00  0.00     0.049 A 
ATOM     52  H   UNL A   1      39.625  31.322  33.726  1.00  0.00     0.167 HD
ATOM     53  C   UNL A   1      40.600  33.111  37.642  1.00  0.00     0.037 A 
ATOM     54  C   UNL A   1      40.028  29.616  31.569  1.00  0.00     0.037 A 
ATOM     55  C   UNL A   1      41.637  32.147  37.397  1.00  0.00     0.049 A 
ATOM     56  C   UNL A   1      41.193  29.418  32.508  1.00  0.00     0.074 A 
ATOM     57  C   UNL A   1      42.711  31.812  38.200  1.00  0.00     0.029 A 
ATOM     58  N   UNL A   1      41.732  31.369  36.251  1.00  0.00    -0.354 N 
ATOM     59  N   UNL A   1      41.424  29.969  33.676  1.00  0.00    -0.248 NA
ATOM     60  C   UNL A   1      42.224  28.463  32.084  1.00  0.00     0.031 C 
ATOM     61  C   UNL A   1      43.494  30.881  37.511  1.00  0.00     0.029 A 
ATOM     62  C   UNL A   1      42.863  30.573  36.315  1.00  0.00     0.049 A 
ATOM     63  H   UNL A   1      41.090  31.380  35.505  1.00  0.00     0.167 HD
ATOM     64  C   UNL A   1      42.599  29.393  34.147  1.00  0.00     0.074 A 
ATOM     65  C   UNL A   1      43.026  28.445  33.139  1.00  0.00     0.031 C 
ATOM     66  C   UNL A   1      43.262  29.621  35.309  1.00  0.00     0.037 A 
BRANCH  53  67
ATOM     67  C   UNL A   1      40.661  33.938  38.894  1.00  0.00     0.064 A 
ATOM     68  C   UNL A   1      40.018  33.548  40.080  1.00  0.00     0.173 A 
ATOM     69  C   UNL A   1      41.384  35.140  38.906  1.00  0.00     0.173 A 
ATOM     70  F   UNL A   1      39.295  32.419  40.117  1.00  0.00    -0.203 F 
ATOM     71  C   UNL A   1      40.070  34.348  41.219  1.00  0.00     0.198 A 
ATOM     72  C   UNL A   1      41.465  35.918  40.058  1.00  0.00     0.198 A 
ATOM     73  F   UNL A   1      42.016  35.562  37.801  1.00  0.00    -0.203 F 
ATOM     74  F   UNL A   1      39.397  33.986  42.321  1.00  0.00    -0.200 F 
ATOM     75  C   UNL A   1      40.799  35.527  41.210  1.00  0.00     0.200 A 
ATOM     76  F   UNL A   1      42.181  37.050  40.050  1.00  0.00    -0.200 F 
ATOM     77  F   UNL A   1      40.854  36.292  42.309  1.00  0.00    -0.200 F 
ENDBRANCH  53  67
BRANCH  54  78
ATOM     78  C   UNL A   1      39.939  28.852  30.297  1.00  0.00     0.064 A 
ATOM     79  C   UNL A   1      39.358  27.577  30.257  1.00  0.00     0.173 A 
ATOM     80  C   UNL A   1      40.461  29.367  29.101  1.00  0.00     0.173 A 
ATOM     81  F   UNL A   1      38.862  27.031  31.377  1.00  0.00    -0.203 F 
ATOM     82  C   UNL A   1      39.328  26.836  29.077  1.00  0.00     0.198 A 
ATOM     83  C   UNL A   1      40.401  28.639  27.915  1.00  0.00     0.198 A 
ATOM     84  F   UNL A   1      41.026  30.584  29.083  1.00  0.00    -0.203 F 
ATOM     85  F   UNL A   1      38.814  25.598  29.079  1.00  0.00    -0.200 F 
ATOM     86  C   UNL A   1      39.844  27.370  27.906  1.00  0.00     0.200 A 
ATOM     87  F   UNL A   1      40.884  29.167  26.782  1.00  0.00    -0.200 F 
ATOM     88  F   UNL A   1      39.810  26.658  26.771  1.00  0.00    -0.200 F 
ENDBRANCH  54  78
BRANCH  66  89
ATOM     89  C   UNL A   1      44.473  28.777  35.591  1.00  0.00     0.064 A 
ATOM     90  C   UNL A   1      44.393  27.559  36.283  1.00  0.00     0.173 A 
ATOM     91  C   UNL A   1      45.737  29.189  35.135  1.00  0.00     0.173 A 
ATOM     92  F   UNL A   1      43.213  27.123  36.748  1.00  0.00    -0.203 F 
ATOM     93  C   UNL A   1      45.537  26.810  36.548  1.00  0.00     0.198 A 
ATOM     94  C   UNL A   1      46.871  28.416  35.365  1.00  0.00     0.198 A 
ATOM     95  F   UNL A   1      45.871  30.338  34.455  1.00  0.00    -0.203 F 
ATOM     96  F   UNL A   1      45.445  25.686  37.273  1.00  0.00    -0.200 F 
ATOM     97  C   UNL A   1      46.773  27.235  36.084  1.00  0.00     0.200 A 
ATOM     98  F   UNL A   1      48.060  28.819  34.896  1.00  0.00    -0.200 F 
ATOM     99  F   UNL A   1      47.871  26.511  36.338  1.00  0.00    -0.200 F 
ENDBRANCH  66  89
ENDBRANCH  40  41
ENDBRANCH  33  35
ENDBRANCH  32  33
ENDBRANCH  31  32
ENDBRANCH  30  31
ENDBRANCH  29  30
ENDBRANCH  28  29
ENDBRANCH  27  28
ENDBRANCH  26  27
ENDBRANCH   1  26
TORSDOF 23
ENDMDL
MODEL 2
REMARK VINA RESULT:      -9.9      6.348      9.745
REMARK SMILES O=C(Cc1cccc(-c2ccn(C(F)F)c(=O)c2)c1)OCCOCCOCCOCCOC(=O)c1ccc(-c2c3nc(c(-c4c(F)c(F)c(F)c(F)c4F)c4ccc([nH]4)c(-c4c(F)c(F)c(F)c(F)c4F)c4nc(c(-c5c(F)c(F)c(F)c(F)c5F)c5ccc2[nH]5)C=C4)C=C3)cc1
REMARK SMILES IDX 25 1 24 2 23 3 22 4 21 5 20 6 2 7 1 8 3 9 4 10 5 11 19 12
REMARK SMILES IDX 6 13 8 14 7 15 9 16 10 17 18 18 11 19 16 20 12 21 17 22
REMARK SMILES IDX 13 23 14 24 15 25 26 26 27 27 28 28 29 29 30 30 31 31 32 32
REMARK SMILES IDX 33 33 34 34 35 35 36 36 97 37 37 38 96 39 38 40 39 41 40 42
REMARK SMILES IDX 90 43 41 44 95 45 89 46 91 47 42 48 94 49 88 50 87 51 43 53
REMARK SMILES IDX 75 54 55 55 74 56 56 57 59 58 73 59 92 60 57 61 58 62 72 64
REMARK SMILES IDX 93 65 60 66 44 67 45 68 53 69 46 70 47 71 51 72 54 73 48 74
REMARK SMILES IDX 49 75 52 76 50 77 76 78 77 79 85 80 78 81 79 82 83 83 86 84
REMARK SMILES IDX 80 85 81 86 84 87 82 88 61 89 62 90 70 91 63 92 64 93 68 94
REMARK SMILES IDX 71 95 65 96 66 97 69 98 67 99
REMARK H PARENT 91 52 59 63
REMARK Flexibility Score: inf
ROOT
ATOM      1  C   UNL A   1      36.675  33.069  28.673  1.00  0.00     0.188 C 
ENDROOT
BRANCH   1   2
ATOM      2  C   UNL A   1      35.590  32.105  29.163  1.00  0.00     0.188 C 
BRANCH   2   3
ATOM      3  O   UNL A   1      35.628  30.796  28.627  1.00  0.00    -0.376 OA
BRANCH   3   4
ATOM      4  C   UNL A   1      36.273  29.695  29.223  1.00  0.00     0.202 C 
BRANCH   4   5
ATOM      5  C   UNL A   1      37.612  29.174  28.721  1.00  0.00     0.261 C 
BRANCH   5   6
ATOM      6  O   UNL A   1      38.497  28.536  29.663  1.00  0.00    -0.463 OA
BRANCH   6   7
ATOM      7  C   UNL A   1      39.407  27.552  29.503  1.00  0.00     0.310 C 
ATOM      8  O   UNL A   1      39.012  26.387  29.507  1.00  0.00    -0.252 OA
BRANCH   7   9
ATOM      9  C   UNL A   1      40.892  27.859  29.421  1.00  0.00     0.158 C 
BRANCH   9  10
ATOM     10  C   UNL A   1      41.423  28.165  28.053  1.00  0.00    -0.036 A 
ATOM     11  C   UNL A   1      40.607  28.717  27.057  1.00  0.00     0.004 A 
ATOM     12  C   UNL A   1      42.733  27.822  27.739  1.00  0.00     0.013 A 
ATOM     13  C   UNL A   1      41.070  28.808  25.743  1.00  0.00     0.001 A 
ATOM     14  C   UNL A   1      43.179  27.850  26.418  1.00  0.00    -0.018 A 
ATOM     15  C   UNL A   1      42.349  28.344  25.413  1.00  0.00     0.009 A 
BRANCH  14  16
ATOM     16  C   UNL A   1      44.475  27.203  26.195  1.00  0.00    -0.011 A 
ATOM     17  C   UNL A   1      45.710  27.962  26.187  1.00  0.00     0.027 A 
ATOM     18  C   UNL A   1      44.451  25.959  25.694  1.00  0.00     0.080 A 
ATOM     19  C   UNL A   1      46.803  27.459  25.605  1.00  0.00     0.095 A 
ATOM     20  C   UNL A   1      45.674  25.368  25.090  1.00  0.00     0.255 A 
ATOM     21  N   UNL A   1      46.791  26.190  25.056  1.00  0.00    -0.258 N 
ATOM     22  O   UNL A   1      45.604  24.236  24.626  1.00  0.00    -0.269 OA
BRANCH  21  23
ATOM     23  C   UNL A   1      47.956  25.672  24.389  1.00  0.00     0.451 C 
ATOM     24  F   UNL A   1      48.553  26.629  23.641  1.00  0.00    -0.185 F 
ATOM     25  F   UNL A   1      48.860  25.208  25.285  1.00  0.00    -0.185 F 
ENDBRANCH  21  23
ENDBRANCH  14  16
ENDBRANCH   9  10
ENDBRANCH   7   9
ENDBRANCH   6   7
ENDBRANCH   5   6
ENDBRANCH   4   5
ENDBRANCH   3   4
ENDBRANCH   2   3
ENDBRANCH   1   2
BRANCH   1  26
ATOM     26  O   UNL A   1      38.003  32.781  29.093  1.00  0.00    -0.377 OA
BRANCH  26  27
ATOM     27  C   UNL A   1      38.201  32.781  30.495  1.00  0.00     0.188 C 
BRANCH  27  28
ATOM     28  C   UNL A   1      38.262  34.183  31.133  1.00  0.00     0.188 C 
BRANCH  28  29
ATOM     29  O   UNL A   1      37.324  34.602  32.108  1.00  0.00    -0.376 OA
BRANCH  29  30
ATOM     30  C   UNL A   1      35.963  34.212  32.081  1.00  0.00     0.202 C 
BRANCH  30  31
ATOM     31  C   UNL A   1      35.352  33.054  32.889  1.00  0.00     0.261 C 
BRANCH  31  32
ATOM     32  O   UNL A   1      36.175  31.920  33.142  1.00  0.00    -0.460 OA
BRANCH  32  33
ATOM     33  C   UNL A   1      37.028  32.051  34.174  1.00  0.00     0.338 C 
ATOM     34  O   UNL A   1      36.866  32.699  35.199  1.00  0.00    -0.246 OA
BRANCH  33  35
ATOM     35  C   UNL A   1      38.138  31.103  33.979  1.00  0.00     0.060 A 
ATOM     36  C   UNL A   1      39.307  31.306  34.727  1.00  0.00     0.016 A 
ATOM     37  C   UNL A   1      38.045  30.047  33.069  1.00  0.00     0.016 A 
ATOM     38  C   UNL A   1      40.413  30.498  34.520  1.00  0.00     0.010 A 
ATOM     39  C   UNL A   1      39.173  29.260  32.827  1.00  0.00     0.010 A 
ATOM     40  C   UNL A   1      40.373  29.533  33.508  1.00  0.00    -0.014 A 
BRANCH  40  41
ATOM     41  C   UNL A   1      41.669  29.080  32.957  1.00  0.00     0.031 A 
ATOM     42  C   UNL A   1      42.283  29.919  31.868  1.00  0.00     0.074 A 
ATOM     43  C   UNL A   1      42.327  28.033  33.475  1.00  0.00     0.049 A 
ATOM     44  N   UNL A   1      43.426  29.777  31.249  1.00  0.00    -0.248 NA
ATOM     45  C   UNL A   1      41.499  31.084  31.420  1.00  0.00     0.031 C 
ATOM     46  C   UNL A   1      41.857  27.197  34.577  1.00  0.00     0.029 A 
ATOM     47  N   UNL A   1      43.548  27.506  33.143  1.00  0.00    -0.354 N 
ATOM     48  C   UNL A   1      43.487  30.823  30.336  1.00  0.00     0.074 A 
ATOM     49  C   UNL A   1      42.259  31.571  30.455  1.00  0.00     0.031 C 
ATOM     50  C   UNL A   1      42.781  26.254  34.829  1.00  0.00     0.029 A 
ATOM     51  C   UNL A   1      43.892  26.409  33.890  1.00  0.00     0.049 A 
ATOM     52  H   UNL A   1      44.123  27.879  32.436  1.00  0.00     0.167 HD
ATOM     53  C   UNL A   1      44.488  31.136  29.480  1.00  0.00     0.037 A 
ATOM     54  C   UNL A   1      44.980  25.618  33.807  1.00  0.00     0.037 A 
ATOM     55  C   UNL A   1      45.709  30.386  29.370  1.00  0.00     0.049 A 
ATOM     56  C   UNL A   1      46.046  25.945  32.791  1.00  0.00     0.074 A 
ATOM     57  C   UNL A   1      46.792  30.618  28.543  1.00  0.00     0.029 A 
ATOM     58  N   UNL A   1      46.001  29.248  30.109  1.00  0.00    -0.354 N 
ATOM     59  N   UNL A   1      46.111  26.943  31.942  1.00  0.00    -0.248 NA
ATOM     60  C   UNL A   1      47.199  25.037  32.733  1.00  0.00     0.031 C 
ATOM     61  C   UNL A   1      47.711  29.581  28.732  1.00  0.00     0.029 A 
ATOM     62  C   UNL A   1      47.238  28.750  29.737  1.00  0.00     0.049 A 
ATOM     63  H   UNL A   1      45.416  28.854  30.795  1.00  0.00     0.167 HD
ATOM     64  C   UNL A   1      47.328  26.812  31.285  1.00  0.00     0.074 A 
ATOM     65  C   UNL A   1      47.973  25.639  31.842  1.00  0.00     0.031 C 
ATOM     66  C   UNL A   1      47.871  27.592  30.316  1.00  0.00     0.037 A 
BRANCH  53  67
ATOM     67  C   UNL A   1      44.273  32.308  28.564  1.00  0.00     0.064 A 
ATOM     68  C   UNL A   1      43.945  32.147  27.209  1.00  0.00     0.173 A 
ATOM     69  C   UNL A   1      44.392  33.616  29.058  1.00  0.00     0.173 A 
ATOM     70  F   UNL A   1      43.841  30.918  26.680  1.00  0.00    -0.203 F 
ATOM     71  C   UNL A   1      43.777  33.251  26.376  1.00  0.00     0.198 A 
ATOM     72  C   UNL A   1      44.186  34.717  28.232  1.00  0.00     0.198 A 
ATOM     73  F   UNL A   1      44.705  33.828  30.345  1.00  0.00    -0.203 F 
ATOM     74  F   UNL A   1      43.526  33.072  25.071  1.00  0.00    -0.200 F 
ATOM     75  C   UNL A   1      43.890  34.534  26.890  1.00  0.00     0.200 A 
ATOM     76  F   UNL A   1      44.282  35.955  28.734  1.00  0.00    -0.200 F 
ATOM     77  F   UNL A   1      43.722  35.595  26.089  1.00  0.00    -0.200 F 
ENDBRANCH  53  67
BRANCH  54  78
ATOM     78  C   UNL A   1      45.124  24.446  34.710  1.00  0.00     0.064 A 
ATOM     79  C   UNL A   1      45.666  24.584  35.996  1.00  0.00     0.173 A 
ATOM     80  C   UNL A   1      44.752  23.158  34.296  1.00  0.00     0.173 A 
ATOM     81  F   UNL A   1      46.056  25.791  36.432  1.00  0.00    -0.203 F 
ATOM     82  C   UNL A   1      45.856  23.477  36.820  1.00  0.00     0.198 A 
ATOM     83  C   UNL A   1      44.911  22.057  35.134  1.00  0.00     0.198 A 
ATOM     84  F   UNL A   1      44.225  22.970  33.077  1.00  0.00    -0.203 F 
ATOM     85  F   UNL A   1      46.426  23.631  38.023  1.00  0.00    -0.200 F 
ATOM     86  C   UNL A   1      45.474  22.215  36.391  1.00  0.00     0.200 A 
ATOM     87  F   UNL A   1      44.523  20.843  34.721  1.00  0.00    -0.200 F 
ATOM     88  F   UNL A   1      45.653  21.152  37.186  1.00  0.00    -0.200 F 
ENDBRANCH  54  78
BRANCH  66  89
ATOM     89  C   UNL A   1      49.258  27.251  29.849  1.00  0.00     0.064 A 
ATOM     90  C   UNL A   1      49.494  26.388  28.768  1.00  0.00     0.173 A 
ATOM     91  C   UNL A   1      50.373  27.822  30.486  1.00  0.00     0.173 A 
ATOM     92  F   UNL A   1      48.466  25.808  28.130  1.00  0.00    -0.203 F 
ATOM     93  C   UNL A   1      50.792  26.074  28.373  1.00  0.00     0.198 A 
ATOM     94  C   UNL A   1      51.668  27.538  30.060  1.00  0.00     0.198 A 
ATOM     95  F   UNL A   1      50.207  28.665  31.516  1.00  0.00    -0.203 F 
ATOM     96  F   UNL A   1      50.993  25.192  27.384  1.00  0.00    -0.200 F 
ATOM     97  C   UNL A   1      51.877  26.654  29.014  1.00  0.00     0.200 A 
ATOM     98  F   UNL A   1      52.712  28.117  30.668  1.00  0.00    -0.200 F 
ATOM     99  F   UNL A   1      53.124  26.352  28.630  1.00  0.00    -0.200 F 
ENDBRANCH  66  89
ENDBRANCH  40  41
ENDBRANCH  33  35
ENDBRANCH  32  33
ENDBRANCH  31  32
ENDBRANCH  30  31
ENDBRANCH  29  30
ENDBRANCH  28  29
ENDBRANCH  27  28
ENDBRANCH  26  27
ENDBRANCH   1  26
TORSDOF 23
ENDMDL
MODEL 3
REMARK VINA RESULT:      -9.9      2.864      4.863
REMARK SMILES O=C(Cc1cccc(-c2ccn(C(F)F)c(=O)c2)c1)OCCOCCOCCOCCOC(=O)c1ccc(-c2c3nc(c(-c4c(F)c(F)c(F)c(F)c4F)c4ccc([nH]4)c(-c4c(F)c(F)c(F)c(F)c4F)c4nc(c(-c5c(F)c(F)c(F)c(F)c5F)c5ccc2[nH]5)C=C4)C=C3)cc1
REMARK SMILES IDX 25 1 24 2 23 3 22 4 21 5 20 6 2 7 1 8 3 9 4 10 5 11 19 12
REMARK SMILES IDX 6 13 8 14 7 15 9 16 10 17 18 18 11 19 16 20 12 21 17 22
REMARK SMILES IDX 13 23 14 24 15 25 26 26 27 27 28 28 29 29 30 30 31 31 32 32
REMARK SMILES IDX 33 33 34 34 35 35 36 36 97 37 37 38 96 39 38 40 39 41 40 42
REMARK SMILES IDX 90 43 41 44 95 45 89 46 91 47 42 48 94 49 88 50 87 51 43 53
REMARK SMILES IDX 75 54 55 55 74 56 56 57 59 58 73 59 92 60 57 61 58 62 72 64
REMARK SMILES IDX 93 65 60 66 44 67 45 68 53 69 46 70 47 71 51 72 54 73 48 74
REMARK SMILES IDX 49 75 52 76 50 77 76 78 77 79 85 80 78 81 79 82 83 83 86 84
REMARK SMILES IDX 80 85 81 86 84 87 82 88 61 89 62 90 70 91 63 92 64 93 68 94
REMARK SMILES IDX 71 95 65 96 66 97 69 98 67 99
REMARK H PARENT 91 52 59 63
REMARK Flexibility Score: inf
ROOT
ATOM      1  C   UNL A   1      32.795  28.932  27.156  1.00  0.00     0.188 C 
ENDROOT
BRANCH   1   2
ATOM      2  C   UNL A   1      31.509  28.242  27.623  1.00  0.00     0.188 C 
BRANCH   2   3
ATOM      3  O   UNL A   1      31.413  26.856  27.358  1.00  0.00    -0.376 OA
BRANCH   3   4
ATOM      4  C   UNL A   1      30.887  26.289  26.181  1.00  0.00     0.202 C 
BRANCH   4   5
ATOM      5  C   UNL A   1      29.866  25.161  26.214  1.00  0.00     0.261 C 
BRANCH   5   6
ATOM      6  O   UNL A   1      30.305  23.829  25.881  1.00  0.00    -0.463 OA
BRANCH   6   7
ATOM      7  C   UNL A   1      31.011  23.362  24.831  1.00  0.00     0.310 C 
ATOM      8  O   UNL A   1      31.977  22.633  25.056  1.00  0.00    -0.252 OA
BRANCH   7   9
ATOM      9  C   UNL A   1      30.695  23.800  23.412  1.00  0.00     0.158 C 
BRANCH   9  10
ATOM     10  C   UNL A   1      31.514  24.937  22.879  1.00  0.00    -0.036 A 
ATOM     11  C   UNL A   1      32.868  24.775  22.555  1.00  0.00     0.004 A 
ATOM     12  C   UNL A   1      30.942  26.198  22.776  1.00  0.00     0.013 A 
ATOM     13  C   UNL A   1      33.653  25.889  22.252  1.00  0.00     0.001 A 
ATOM     14  C   UNL A   1      31.733  27.322  22.536  1.00  0.00    -0.018 A 
ATOM     15  C   UNL A   1      33.093  27.171  22.272  1.00  0.00     0.009 A 
BRANCH  14  16
ATOM     16  C   UNL A   1      31.051  28.604  22.731  1.00  0.00    -0.011 A 
ATOM     17  C   UNL A   1      31.135  29.326  23.986  1.00  0.00     0.027 A 
ATOM     18  C   UNL A   1      30.107  28.929  21.834  1.00  0.00     0.080 A 
ATOM     19  C   UNL A   1      30.222  30.254  24.288  1.00  0.00     0.095 A 
ATOM     20  C   UNL A   1      29.117  29.995  22.138  1.00  0.00     0.255 A 
ATOM     21  N   UNL A   1      29.222  30.581  23.390  1.00  0.00    -0.258 N 
ATOM     22  O   UNL A   1      28.259  30.246  21.299  1.00  0.00    -0.269 OA
BRANCH  21  23
ATOM     23  C   UNL A   1      28.215  31.547  23.740  1.00  0.00     0.451 C 
ATOM     24  F   UNL A   1      28.223  32.593  22.880  1.00  0.00    -0.185 F 
ATOM     25  F   UNL A   1      26.980  30.989  23.715  1.00  0.00    -0.185 F 
ENDBRANCH  21  23
ENDBRANCH  14  16
ENDBRANCH   9  10
ENDBRANCH   7   9
ENDBRANCH   6   7
ENDBRANCH   5   6
ENDBRANCH   4   5
ENDBRANCH   3   4
ENDBRANCH   2   3
ENDBRANCH   1   2
BRANCH   1  26
ATOM     26  O   UNL A   1      32.799  30.354  27.216  1.00  0.00    -0.377 OA
BRANCH  26  27
ATOM     27  C   UNL A   1      34.076  30.941  27.387  1.00  0.00     0.188 C 
BRANCH  27  28
ATOM     28  C   UNL A   1      34.053  32.361  27.988  1.00  0.00     0.188 C 
BRANCH  28  29
ATOM     29  O   UNL A   1      33.038  33.293  27.663  1.00  0.00    -0.376 OA
BRANCH  29  30
ATOM     30  C   UNL A   1      33.107  34.661  28.024  1.00  0.00     0.202 C 
BRANCH  30  31
ATOM     31  C   UNL A   1      32.901  35.219  29.442  1.00  0.00     0.261 C 
BRANCH  31  32
ATOM     32  O   UNL A   1      33.330  34.415  30.536  1.00  0.00    -0.460 OA
BRANCH  32  33
ATOM     33  C   UNL A   1      33.301  35.021  31.737  1.00  0.00     0.338 C 
ATOM     34  O   UNL A   1      32.387  35.674  32.222  1.00  0.00    -0.246 OA
BRANCH  33  35
ATOM     35  C   UNL A   1      34.491  34.599  32.497  1.00  0.00     0.060 A 
ATOM     36  C   UNL A   1      35.717  35.192  32.168  1.00  0.00     0.016 A 
ATOM     37  C   UNL A   1      34.410  33.629  33.500  1.00  0.00     0.016 A 
ATOM     38  C   UNL A   1      36.881  34.771  32.790  1.00  0.00     0.010 A 
ATOM     39  C   UNL A   1      35.587  33.172  34.095  1.00  0.00     0.010 A 
ATOM     40  C   UNL A   1      36.826  33.700  33.689  1.00  0.00    -0.014 A 
BRANCH  40  41
ATOM     41  C   UNL A   1      38.075  32.940  33.911  1.00  0.00     0.031 A 
ATOM     42  C   UNL A   1      38.807  33.183  35.204  1.00  0.00     0.074 A 
ATOM     43  C   UNL A   1      38.485  31.993  33.054  1.00  0.00     0.049 A 
ATOM     44  N   UNL A   1      39.891  32.619  35.669  1.00  0.00    -0.248 NA
ATOM     45  C   UNL A   1      38.230  34.201  36.100  1.00  0.00     0.031 C 
ATOM     46  C   UNL A   1      37.813  31.628  31.809  1.00  0.00     0.029 A 
ATOM     47  N   UNL A   1      39.569  31.156  33.116  1.00  0.00    -0.354 N 
ATOM     48  C   UNL A   1      40.128  33.223  36.897  1.00  0.00     0.074 A 
ATOM     49  C   UNL A   1      39.100  34.217  37.094  1.00  0.00     0.031 C 
ATOM     50  C   UNL A   1      38.504  30.637  31.219  1.00  0.00     0.029 A 
ATOM     51  C   UNL A   1      39.677  30.320  32.034  1.00  0.00     0.049 A 
ATOM     52  H   UNL A   1      40.208  31.155  33.865  1.00  0.00     0.167 HD
ATOM     53  C   UNL A   1      41.113  32.963  37.788  1.00  0.00     0.037 A 
ATOM     54  C   UNL A   1      40.628  29.413  31.740  1.00  0.00     0.037 A 
ATOM     55  C   UNL A   1      42.132  31.970  37.584  1.00  0.00     0.049 A 
ATOM     56  C   UNL A   1      41.759  29.196  32.715  1.00  0.00     0.074 A 
ATOM     57  C   UNL A   1      43.173  31.616  38.423  1.00  0.00     0.029 A 
ATOM     58  N   UNL A   1      42.239  31.176  36.451  1.00  0.00    -0.354 N 
ATOM     59  N   UNL A   1      41.971  29.754  33.883  1.00  0.00    -0.248 NA
ATOM     60  C   UNL A   1      42.777  28.210  32.332  1.00  0.00     0.031 C 
ATOM     61  C   UNL A   1      43.951  30.657  37.768  1.00  0.00     0.029 A 
ATOM     62  C   UNL A   1      43.347  30.351  36.557  1.00  0.00     0.049 A 
ATOM     63  H   UNL A   1      41.621  31.195  35.686  1.00  0.00     0.167 HD
ATOM     64  C   UNL A   1      43.115  29.154  34.395  1.00  0.00     0.074 A 
ATOM     65  C   UNL A   1      43.547  28.182  33.410  1.00  0.00     0.031 C 
ATOM     66  C   UNL A   1      43.749  29.378  35.573  1.00  0.00     0.037 A 
BRANCH  53  67
ATOM     67  C   UNL A   1      41.160  33.803  39.033  1.00  0.00     0.064 A 
ATOM     68  C   UNL A   1      40.484  33.437  40.207  1.00  0.00     0.173 A 
ATOM     69  C   UNL A   1      41.902  34.993  39.048  1.00  0.00     0.173 A 
ATOM     70  F   UNL A   1      39.741  32.320  40.240  1.00  0.00    -0.203 F 
ATOM     71  C   UNL A   1      40.523  34.248  41.339  1.00  0.00     0.198 A 
ATOM     72  C   UNL A   1      41.969  35.782  40.193  1.00  0.00     0.198 A 
ATOM     73  F   UNL A   1      42.566  35.392  37.954  1.00  0.00    -0.203 F 
ATOM     74  F   UNL A   1      39.818  33.910  42.428  1.00  0.00    -0.200 F 
ATOM     75  C   UNL A   1      41.271  35.415  41.333  1.00  0.00     0.200 A 
ATOM     76  F   UNL A   1      42.705  36.902  40.190  1.00  0.00    -0.200 F 
ATOM     77  F   UNL A   1      41.314  36.191  42.425  1.00  0.00    -0.200 F 
ENDBRANCH  53  67
BRANCH  54  78
ATOM     78  C   UNL A   1      40.557  28.637  30.474  1.00  0.00     0.064 A 
ATOM     79  C   UNL A   1      41.292  29.024  29.345  1.00  0.00     0.173 A 
ATOM     80  C   UNL A   1      39.728  27.511  30.356  1.00  0.00     0.173 A 
ATOM     81  F   UNL A   1      42.084  30.105  29.399  1.00  0.00    -0.203 F 
ATOM     82  C   UNL A   1      41.180  28.332  28.140  1.00  0.00     0.198 A 
ATOM     83  C   UNL A   1      39.643  26.800  29.162  1.00  0.00     0.198 A 
ATOM     84  F   UNL A   1      39.005  27.096  31.407  1.00  0.00    -0.203 F 
ATOM     85  F   UNL A   1      41.854  28.756  27.062  1.00  0.00    -0.200 F 
ATOM     86  C   UNL A   1      40.360  27.217  28.051  1.00  0.00     0.200 A 
ATOM     87  F   UNL A   1      38.863  25.713  29.086  1.00  0.00    -0.200 F 
ATOM     88  F   UNL A   1      40.257  26.550  26.894  1.00  0.00    -0.200 F 
ENDBRANCH  54  78
BRANCH  66  89
ATOM     89  C   UNL A   1      44.930  28.506  35.900  1.00  0.00     0.064 A 
ATOM     90  C   UNL A   1      46.242  28.864  35.556  1.00  0.00     0.173 A 
ATOM     91  C   UNL A   1      44.741  27.300  36.595  1.00  0.00     0.173 A 
ATOM     92  F   UNL A   1      46.479  30.001  34.885  1.00  0.00    -0.203 F 
ATOM     93  C   UNL A   1      47.314  28.024  35.853  1.00  0.00     0.198 A 
ATOM     94  C   UNL A   1      45.820  26.485  36.927  1.00  0.00     0.198 A 
ATOM     95  F   UNL A   1      43.509  26.915  36.961  1.00  0.00    -0.203 F 
ATOM     96  F   UNL A   1      48.550  28.353  35.451  1.00  0.00    -0.200 F 
ATOM     97  C   UNL A   1      47.103  26.840  36.543  1.00  0.00     0.200 A 
ATOM     98  F   UNL A   1      45.614  25.352  37.613  1.00  0.00    -0.200 F 
ATOM     99  F   UNL A   1      48.135  26.036  36.830  1.00  0.00    -0.200 F 
ENDBRANCH  66  89
ENDBRANCH  40  41
ENDBRANCH  33  35
ENDBRANCH  32  33
ENDBRANCH  31  32
ENDBRANCH  30  31
ENDBRANCH  29  30
ENDBRANCH  28  29
ENDBRANCH  27  28
ENDBRANCH  26  27
ENDBRANCH   1  26
TORSDOF 23
ENDMDL
