MODEL 1
REMARK VINA RESULT:     -11.8      0.000      0.000
REMARK SMILES Cc1cc(F)ccc1OC1(C(=O)OCCOCCOCCOCCOC(=O)c2ccc(-c3c4nc(c(-c5c(F)c(F)c(F)c(F)c5F)c5ccc([nH]5)c(-c5c(F)c(F)c(F)c(F)c5F)c5nc(c(-c6c(F)c(F)c(F)c(F)c6F)c6ccc3[nH]6)C=C5)C=C4)cc2)CCN(C(=O)[C@H]2CCOC2)CC1
REMARK SMILES IDX 19 1 18 2 17 3 16 4 15 5 14 6 13 7 11 8 12 9 10 10 91 11
REMARK SMILES IDX 102 12 92 13 101 14 93 15 94 16 95 17 9 18 8 19 1 20 2 21
REMARK SMILES IDX 3 22 4 23 7 24 5 25 6 26 96 27 97 28 100 29 98 30 99 31
REMARK SMILES IDX 20 32 21 33 22 34 23 35 24 36 25 37 26 38 27 39 28 40 29 41
REMARK SMILES IDX 90 42 30 43 89 44 31 45 32 46 33 47 83 48 34 49 88 50 82 51
REMARK SMILES IDX 84 52 35 53 87 54 81 55 80 56 36 58 68 59 48 60 67 61 49 62
REMARK SMILES IDX 52 63 66 64 85 65 50 66 51 67 65 69 86 70 53 71 37 72 38 73
REMARK SMILES IDX 46 74 39 75 40 76 44 77 47 78 41 79 42 80 45 81 43 82 69 83
REMARK SMILES IDX 70 84 78 85 71 86 72 87 76 88 79 89 73 90 74 91 77 92 75 93
REMARK SMILES IDX 54 94 55 95 63 96 56 97 57 98 61 99 64 100 58 101 59 102
REMARK SMILES IDX 62 103 60 104
REMARK H PARENT 84 57 52 68
REMARK Flexibility Score: inf
ROOT
ATOM      1  O   UNL A   1      32.354  34.162  28.117  1.00  0.00    -0.377 OA
ENDROOT
BRANCH   1   2
ATOM      2  C   UNL A   1      32.532  32.989  27.338  1.00  0.00     0.188 C 
BRANCH   2   3
ATOM      3  C   UNL A   1      31.333  32.388  26.593  1.00  0.00     0.188 C 
BRANCH   3   4
ATOM      4  O   UNL A   1      31.453  31.009  26.320  1.00  0.00    -0.376 OA
BRANCH   4   5
ATOM      5  C   UNL A   1      32.473  30.253  26.953  1.00  0.00     0.202 C 
BRANCH   5   6
ATOM      6  C   UNL A   1      33.270  29.127  26.262  1.00  0.00     0.261 C 
BRANCH   6   7
ATOM      7  O   UNL A   1      32.525  28.146  25.522  1.00  0.00    -0.460 OA
BRANCH   7   8
ATOM      8  C   UNL A   1      32.630  28.205  24.162  1.00  0.00     0.350 C 
ATOM      9  O   UNL A   1      32.963  29.233  23.569  1.00  0.00    -0.247 OA
BRANCH   8  10
ATOM     10  C   UNL A   1      32.348  26.861  23.402  1.00  0.00     0.209 C 
ATOM     11  C   UNL A   1      33.522  26.413  22.536  1.00  0.00     0.082 C 
ATOM     12  C   UNL A   1      31.956  25.913  24.538  1.00  0.00     0.082 C 
ATOM     13  C   UNL A   1      34.047  24.995  22.695  1.00  0.00     0.124 C 
ATOM     14  C   UNL A   1      32.173  24.439  24.287  1.00  0.00     0.124 C 
ATOM     15  N   UNL A   1      33.465  24.116  23.697  1.00  0.00    -0.342 N 
ATOM     16  C   UNL A   1      34.079  22.862  23.777  1.00  0.00     0.228 C 
ATOM     17  O   UNL A   1      35.113  22.626  23.147  1.00  0.00    -0.274 OA
BRANCH  10  18
ATOM     18  O   UNL A   1      31.231  27.390  22.653  1.00  0.00    -0.475 OA
BRANCH  18  19
ATOM     19  C   UNL A   1      29.953  27.765  22.847  1.00  0.00     0.124 A 
ATOM     20  C   UNL A   1      29.762  30.180  21.936  1.00  0.00     0.048 C 
ATOM     21  C   UNL A   1      29.234  28.923  22.537  1.00  0.00    -0.006 A 
ATOM     22  C   UNL A   1      27.859  28.993  22.877  1.00  0.00     0.046 A 
ATOM     23  C   UNL A   1      27.222  27.961  23.549  1.00  0.00     0.123 A 
ATOM     24  C   UNL A   1      29.271  26.741  23.549  1.00  0.00     0.050 A 
ATOM     25  F   UNL A   1      25.926  28.074  23.867  1.00  0.00    -0.207 F 
ATOM     26  C   UNL A   1      27.925  26.832  23.906  1.00  0.00     0.043 A 
ENDBRANCH  18  19
ENDBRANCH  10  18
BRANCH  16  27
ATOM     27  C   UNL A   1      33.417  21.770  24.598  1.00  0.00     0.107 C 
ATOM     28  C   UNL A   1      32.468  20.932  23.766  1.00  0.00     0.044 C 
ATOM     29  C   UNL A   1      34.425  20.732  25.061  1.00  0.00     0.173 C 
ATOM     30  C   UNL A   1      32.514  19.571  24.430  1.00  0.00     0.161 C 
ATOM     31  O   UNL A   1      33.711  19.499  25.209  1.00  0.00    -0.381 OA
ENDBRANCH  16  27
ENDBRANCH   8  10
ENDBRANCH   7   8
ENDBRANCH   6   7
ENDBRANCH   5   6
ENDBRANCH   4   5
ENDBRANCH   3   4
ENDBRANCH   2   3
ENDBRANCH   1   2
BRANCH   1  32
ATOM     32  C   UNL A   1      33.486  34.970  28.397  1.00  0.00     0.188 C 
BRANCH  32  33
ATOM     33  C   UNL A   1      34.557  34.500  29.407  1.00  0.00     0.188 C 
BRANCH  33  34
ATOM     34  O   UNL A   1      34.119  33.620  30.438  1.00  0.00    -0.376 OA
BRANCH  34  35
ATOM     35  C   UNL A   1      35.047  33.345  31.486  1.00  0.00     0.202 C 
BRANCH  35  36
ATOM     36  C   UNL A   1      36.441  32.891  31.019  1.00  0.00     0.261 C 
BRANCH  36  37
ATOM     37  O   UNL A   1      36.428  31.603  30.412  1.00  0.00    -0.460 OA
BRANCH  37  38
ATOM     38  C   UNL A   1      37.370  31.470  29.468  1.00  0.00     0.338 C 
ATOM     39  O   UNL A   1      38.169  32.300  29.070  1.00  0.00    -0.246 OA
BRANCH  38  40
ATOM     40  C   UNL A   1      37.327  30.107  28.932  1.00  0.00     0.060 A 
ATOM     41  C   UNL A   1      37.247  29.118  29.930  1.00  0.00     0.016 A 
ATOM     42  C   UNL A   1      38.106  29.986  27.790  1.00  0.00     0.016 A 
ATOM     43  C   UNL A   1      38.276  28.221  30.016  1.00  0.00     0.010 A 
ATOM     44  C   UNL A   1      39.151  29.115  27.891  1.00  0.00     0.010 A 
ATOM     45  C   UNL A   1      39.280  28.364  29.073  1.00  0.00    -0.014 A 
BRANCH  45  46
ATOM     46  C   UNL A   1      40.626  27.949  29.360  1.00  0.00     0.031 A 
ATOM     47  C   UNL A   1      41.028  26.624  28.912  1.00  0.00     0.074 A 
ATOM     48  C   UNL A   1      41.448  28.888  29.873  1.00  0.00     0.049 A 
ATOM     49  N   UNL A   1      42.057  25.994  29.343  1.00  0.00    -0.248 NA
ATOM     50  C   UNL A   1      40.219  25.861  27.969  1.00  0.00     0.031 C 
ATOM     51  C   UNL A   1      42.902  28.917  29.861  1.00  0.00     0.029 A 
ATOM     52  N   UNL A   1      41.077  29.973  30.685  1.00  0.00    -0.354 N 
ATOM     53  C   UNL A   1      42.244  24.931  28.492  1.00  0.00     0.074 A 
ATOM     54  C   UNL A   1      41.013  24.814  27.748  1.00  0.00     0.031 C 
ATOM     55  C   UNL A   1      43.324  29.793  30.789  1.00  0.00     0.029 A 
ATOM     56  C   UNL A   1      42.156  30.203  31.556  1.00  0.00     0.049 A 
ATOM     57  H   UNL A   1      40.230  30.472  30.650  1.00  0.00     0.167 HD
ATOM     58  C   UNL A   1      43.502  24.424  28.374  1.00  0.00     0.037 A 
ATOM     59  C   UNL A   1      42.012  29.966  32.895  1.00  0.00     0.037 A 
ATOM     60  C   UNL A   1      44.401  25.075  29.329  1.00  0.00     0.049 A 
ATOM     61  C   UNL A   1      42.909  28.853  33.386  1.00  0.00     0.074 A 
ATOM     62  C   UNL A   1      45.274  26.145  29.198  1.00  0.00     0.029 A 
ATOM     63  N   UNL A   1      44.170  24.928  30.696  1.00  0.00    -0.354 N 
ATOM     64  N   UNL A   1      43.298  27.840  32.658  1.00  0.00    -0.248 NA
ATOM     65  C   UNL A   1      43.464  28.827  34.734  1.00  0.00     0.031 C 
ATOM     66  C   UNL A   1      45.532  26.668  30.490  1.00  0.00     0.029 A 
ATOM     67  C   UNL A   1      44.828  25.913  31.411  1.00  0.00     0.049 A 
ATOM     68  H   UNL A   1      43.615  24.221  31.097  1.00  0.00     0.167 HD
ATOM     69  C   UNL A   1      44.165  27.064  33.388  1.00  0.00     0.074 A 
ATOM     70  C   UNL A   1      44.231  27.726  34.680  1.00  0.00     0.031 C 
ATOM     71  C   UNL A   1      44.779  25.958  32.866  1.00  0.00     0.037 A 
BRANCH  58  72
ATOM     72  C   UNL A   1      43.943  23.674  27.137  1.00  0.00     0.064 A 
ATOM     73  C   UNL A   1      44.791  24.283  26.190  1.00  0.00     0.173 A 
ATOM     74  C   UNL A   1      43.489  22.390  26.781  1.00  0.00     0.173 A 
ATOM     75  F   UNL A   1      45.395  25.452  26.439  1.00  0.00    -0.203 F 
ATOM     76  C   UNL A   1      45.052  23.715  24.941  1.00  0.00     0.198 A 
ATOM     77  C   UNL A   1      43.700  21.846  25.510  1.00  0.00     0.198 A 
ATOM     78  F   UNL A   1      42.871  21.602  27.670  1.00  0.00    -0.203 F 
ATOM     79  F   UNL A   1      45.857  24.350  24.078  1.00  0.00    -0.200 F 
ATOM     80  C   UNL A   1      44.472  22.516  24.584  1.00  0.00     0.200 A 
ATOM     81  F   UNL A   1      43.146  20.667  25.191  1.00  0.00    -0.200 F 
ATOM     82  F   UNL A   1      44.683  21.995  23.369  1.00  0.00    -0.200 F 
ENDBRANCH  58  72
BRANCH  59  83
ATOM     83  C   UNL A   1      40.639  30.233  33.408  1.00  0.00     0.064 A 
ATOM     84  C   UNL A   1      40.262  31.564  33.683  1.00  0.00     0.173 A 
ATOM     85  C   UNL A   1      39.615  29.285  33.303  1.00  0.00     0.173 A 
ATOM     86  F   UNL A   1      41.204  32.513  33.806  1.00  0.00    -0.203 F 
ATOM     87  C   UNL A   1      38.921  31.943  33.754  1.00  0.00     0.198 A 
ATOM     88  C   UNL A   1      38.272  29.668  33.370  1.00  0.00     0.198 A 
ATOM     89  F   UNL A   1      39.900  28.002  33.044  1.00  0.00    -0.203 F 
ATOM     90  F   UNL A   1      38.594  33.229  33.949  1.00  0.00    -0.200 F 
ATOM     91  C   UNL A   1      37.927  30.998  33.567  1.00  0.00     0.200 A 
ATOM     92  F   UNL A   1      37.306  28.759  33.171  1.00  0.00    -0.200 F 
ATOM     93  F   UNL A   1      36.638  31.368  33.545  1.00  0.00    -0.200 F 
ENDBRANCH  59  83
BRANCH  71  94
ATOM     94  C   UNL A   1      45.524  24.885  33.639  1.00  0.00     0.064 A 
ATOM     95  C   UNL A   1      46.921  24.823  33.763  1.00  0.00     0.173 A 
ATOM     96  C   UNL A   1      44.813  23.929  34.413  1.00  0.00     0.173 A 
ATOM     97  F   UNL A   1      47.718  25.751  33.220  1.00  0.00    -0.203 F 
ATOM     98  C   UNL A   1      47.557  23.831  34.516  1.00  0.00     0.198 A 
ATOM     99  C   UNL A   1      45.450  22.990  35.221  1.00  0.00     0.198 A 
ATOM    100  F   UNL A   1      43.474  23.891  34.443  1.00  0.00    -0.203 F 
ATOM    101  F   UNL A   1      48.897  23.782  34.545  1.00  0.00    -0.200 F 
ATOM    102  C   UNL A   1      46.824  22.922  35.252  1.00  0.00     0.200 A 
ATOM    103  F   UNL A   1      44.718  22.164  35.983  1.00  0.00    -0.200 F 
ATOM    104  F   UNL A   1      47.439  22.004  36.009  1.00  0.00    -0.200 F 
ENDBRANCH  71  94
ENDBRANCH  45  46
ENDBRANCH  38  40
ENDBRANCH  37  38
ENDBRANCH  36  37
ENDBRANCH  35  36
ENDBRANCH  34  35
ENDBRANCH  33  34
ENDBRANCH  32  33
ENDBRANCH   1  32
TORSDOF 23
ENDMDL
MODEL 2
REMARK VINA RESULT:     -11.6      1.802      4.255
REMARK SMILES Cc1cc(F)ccc1OC1(C(=O)OCCOCCOCCOCCOC(=O)c2ccc(-c3c4nc(c(-c5c(F)c(F)c(F)c(F)c5F)c5ccc([nH]5)c(-c5c(F)c(F)c(F)c(F)c5F)c5nc(c(-c6c(F)c(F)c(F)c(F)c6F)c6ccc3[nH]6)C=C5)C=C4)cc2)CCN(C(=O)[C@H]2CCOC2)CC1
REMARK SMILES IDX 19 1 18 2 17 3 16 4 15 5 14 6 13 7 11 8 12 9 10 10 91 11
REMARK SMILES IDX 102 12 92 13 101 14 93 15 94 16 95 17 9 18 8 19 1 20 2 21
REMARK SMILES IDX 3 22 4 23 7 24 5 25 6 26 96 27 97 28 100 29 98 30 99 31
REMARK SMILES IDX 20 32 21 33 22 34 23 35 24 36 25 37 26 38 27 39 28 40 29 41
REMARK SMILES IDX 90 42 30 43 89 44 31 45 32 46 33 47 83 48 34 49 88 50 82 51
REMARK SMILES IDX 84 52 35 53 87 54 81 55 80 56 36 58 68 59 48 60 67 61 49 62
REMARK SMILES IDX 52 63 66 64 85 65 50 66 51 67 65 69 86 70 53 71 37 72 38 73
REMARK SMILES IDX 46 74 39 75 40 76 44 77 47 78 41 79 42 80 45 81 43 82 69 83
REMARK SMILES IDX 70 84 78 85 71 86 72 87 76 88 79 89 73 90 74 91 77 92 75 93
REMARK SMILES IDX 54 94 55 95 63 96 56 97 57 98 61 99 64 100 58 101 59 102
REMARK SMILES IDX 62 103 60 104
REMARK H PARENT 84 57 52 68
REMARK Flexibility Score: inf
ROOT
ATOM      1  O   UNL A   1      33.638  32.840  27.832  1.00  0.00    -0.377 OA
ENDROOT
BRANCH   1   2
ATOM      2  C   UNL A   1      34.072  31.549  27.435  1.00  0.00     0.188 C 
BRANCH   2   3
ATOM      3  C   UNL A   1      33.220  30.735  26.453  1.00  0.00     0.188 C 
BRANCH   3   4
ATOM      4  O   UNL A   1      33.139  29.359  26.758  1.00  0.00    -0.376 OA
BRANCH   4   5
ATOM      5  C   UNL A   1      31.984  28.850  27.406  1.00  0.00     0.202 C 
BRANCH   5   6
ATOM      6  C   UNL A   1      31.544  27.372  27.355  1.00  0.00     0.261 C 
BRANCH   6   7
ATOM      7  O   UNL A   1      31.866  26.627  26.169  1.00  0.00    -0.460 OA
BRANCH   7   8
ATOM      8  C   UNL A   1      30.881  25.823  25.673  1.00  0.00     0.350 C 
ATOM      9  O   UNL A   1      30.420  24.873  26.309  1.00  0.00    -0.247 OA
BRANCH   8  10
ATOM     10  C   UNL A   1      30.334  26.217  24.255  1.00  0.00     0.209 C 
ATOM     11  C   UNL A   1      28.814  26.129  24.162  1.00  0.00     0.082 C 
ATOM     12  C   UNL A   1      30.937  27.607  24.042  1.00  0.00     0.082 C 
ATOM     13  C   UNL A   1      28.043  27.331  23.639  1.00  0.00     0.124 C 
ATOM     14  C   UNL A   1      30.198  28.521  23.092  1.00  0.00     0.124 C 
ATOM     15  N   UNL A   1      28.755  28.551  23.291  1.00  0.00    -0.342 N 
ATOM     16  C   UNL A   1      27.922  29.597  22.879  1.00  0.00     0.228 C 
ATOM     17  O   UNL A   1      26.696  29.497  22.969  1.00  0.00    -0.274 OA
BRANCH  10  18
ATOM     18  O   UNL A   1      31.029  25.153  23.569  1.00  0.00    -0.475 OA
BRANCH  18  19
ATOM     19  C   UNL A   1      32.014  24.261  23.791  1.00  0.00     0.124 A 
ATOM     20  C   UNL A   1      34.211  25.625  23.897  1.00  0.00     0.048 C 
ATOM     21  C   UNL A   1      33.393  24.382  23.981  1.00  0.00    -0.006 A 
ATOM     22  C   UNL A   1      34.162  23.213  24.210  1.00  0.00     0.046 A 
ATOM     23  C   UNL A   1      33.588  21.951  24.206  1.00  0.00     0.123 A 
ATOM     24  C   UNL A   1      31.468  22.954  23.776  1.00  0.00     0.050 A 
ATOM     25  F   UNL A   1      34.353  20.871  24.410  1.00  0.00    -0.207 F 
ATOM     26  C   UNL A   1      32.239  21.808  23.973  1.00  0.00     0.043 A 
ENDBRANCH  18  19
ENDBRANCH  10  18
BRANCH  16  27
ATOM     27  C   UNL A   1      28.546  30.832  22.256  1.00  0.00     0.107 C 
ATOM     28  C   UNL A   1      27.937  31.155  20.906  1.00  0.00     0.044 C 
ATOM     29  C   UNL A   1      28.219  32.084  23.052  1.00  0.00     0.173 C 
ATOM     30  C   UNL A   1      28.061  32.661  20.807  1.00  0.00     0.161 C 
ATOM     31  O   UNL A   1      28.238  33.178  22.128  1.00  0.00    -0.381 OA
ENDBRANCH  16  27
ENDBRANCH   8  10
ENDBRANCH   7   8
ENDBRANCH   6   7
ENDBRANCH   5   6
ENDBRANCH   4   5
ENDBRANCH   3   4
ENDBRANCH   2   3
ENDBRANCH   1   2
BRANCH   1  32
ATOM     32  C   UNL A   1      34.612  33.849  28.048  1.00  0.00     0.188 C 
BRANCH  32  33
ATOM     33  C   UNL A   1      34.667  34.615  29.390  1.00  0.00     0.188 C 
BRANCH  33  34
ATOM     34  O   UNL A   1      35.494  34.059  30.408  1.00  0.00    -0.376 OA
BRANCH  34  35
ATOM     35  C   UNL A   1      34.996  32.903  31.081  1.00  0.00     0.202 C 
BRANCH  35  36
ATOM     36  C   UNL A   1      35.527  31.560  30.550  1.00  0.00     0.261 C 
BRANCH  36  37
ATOM     37  O   UNL A   1      36.876  31.311  30.932  1.00  0.00    -0.460 OA
BRANCH  37  38
ATOM     38  C   UNL A   1      37.723  31.372  29.895  1.00  0.00     0.338 C 
ATOM     39  O   UNL A   1      38.451  32.292  29.562  1.00  0.00    -0.246 OA
BRANCH  38  40
ATOM     40  C   UNL A   1      37.673  30.109  29.156  1.00  0.00     0.060 A 
ATOM     41  C   UNL A   1      37.497  28.985  29.983  1.00  0.00     0.016 A 
ATOM     42  C   UNL A   1      38.522  30.130  28.057  1.00  0.00     0.016 A 
ATOM     43  C   UNL A   1      38.490  28.044  29.993  1.00  0.00     0.010 A 
ATOM     44  C   UNL A   1      39.530  29.211  28.086  1.00  0.00     0.010 A 
ATOM     45  C   UNL A   1      39.558  28.286  29.145  1.00  0.00    -0.014 A 
BRANCH  45  46
ATOM     46  C   UNL A   1      40.869  27.778  29.445  1.00  0.00     0.031 A 
ATOM     47  C   UNL A   1      41.201  26.450  28.953  1.00  0.00     0.074 A 
ATOM     48  C   UNL A   1      41.733  28.644  30.016  1.00  0.00     0.049 A 
ATOM     49  N   UNL A   1      42.178  25.741  29.382  1.00  0.00    -0.248 NA
ATOM     50  C   UNL A   1      40.371  25.776  27.961  1.00  0.00     0.031 C 
ATOM     51  C   UNL A   1      43.185  28.584  30.038  1.00  0.00     0.029 A 
ATOM     52  N   UNL A   1      41.407  29.717  30.862  1.00  0.00    -0.354 N 
ATOM     53  C   UNL A   1      42.322  24.703  28.491  1.00  0.00     0.074 A 
ATOM     54  C   UNL A   1      41.106  24.691  27.715  1.00  0.00     0.031 C 
ATOM     55  C   UNL A   1      43.636  29.395  31.011  1.00  0.00     0.029 A 
ATOM     56  C   UNL A   1      42.475  29.846  31.767  1.00  0.00     0.049 A 
ATOM     57  H   UNL A   1      40.593  30.267  30.829  1.00  0.00     0.167 HD
ATOM     58  C   UNL A   1      43.550  24.124  28.382  1.00  0.00     0.037 A 
ATOM     59  C   UNL A   1      42.284  29.565  33.091  1.00  0.00     0.037 A 
ATOM     60  C   UNL A   1      44.462  24.681  29.383  1.00  0.00     0.049 A 
ATOM     61  C   UNL A   1      43.099  28.380  33.556  1.00  0.00     0.074 A 
ATOM     62  C   UNL A   1      45.401  25.700  29.316  1.00  0.00     0.029 A 
ATOM     63  N   UNL A   1      44.188  24.495  30.738  1.00  0.00    -0.354 N 
ATOM     64  N   UNL A   1      43.445  27.375  32.797  1.00  0.00    -0.248 NA
ATOM     65  C   UNL A   1      43.617  28.267  34.915  1.00  0.00     0.031 C 
ATOM     66  C   UNL A   1      45.658  26.154  30.634  1.00  0.00     0.029 A 
ATOM     67  C   UNL A   1      44.886  25.408  31.507  1.00  0.00     0.049 A 
ATOM     68  H   UNL A   1      43.581  23.808  31.097  1.00  0.00     0.167 HD
ATOM     69  C   UNL A   1      44.244  26.519  33.514  1.00  0.00     0.074 A 
ATOM     70  C   UNL A   1      44.318  27.124  34.833  1.00  0.00     0.031 C 
ATOM     71  C   UNL A   1      44.803  25.399  32.961  1.00  0.00     0.037 A 
BRANCH  58  72
ATOM     72  C   UNL A   1      43.976  23.399  27.126  1.00  0.00     0.064 A 
ATOM     73  C   UNL A   1      44.838  24.014  26.196  1.00  0.00     0.173 A 
ATOM     74  C   UNL A   1      43.495  22.135  26.736  1.00  0.00     0.173 A 
ATOM     75  F   UNL A   1      45.467  25.163  26.476  1.00  0.00    -0.203 F 
ATOM     76  C   UNL A   1      45.088  23.474  24.932  1.00  0.00     0.198 A 
ATOM     77  C   UNL A   1      43.695  21.620  25.450  1.00  0.00     0.198 A 
ATOM     78  F   UNL A   1      42.858  21.336  27.602  1.00  0.00    -0.203 F 
ATOM     79  F   UNL A   1      45.907  24.114  24.087  1.00  0.00    -0.200 F 
ATOM     80  C   UNL A   1      44.483  22.298  24.543  1.00  0.00     0.200 A 
ATOM     81  F   UNL A   1      43.116  20.462  25.100  1.00  0.00    -0.200 F 
ATOM     82  F   UNL A   1      44.684  21.804  23.315  1.00  0.00    -0.200 F 
ENDBRANCH  58  72
BRANCH  59  83
ATOM     83  C   UNL A   1      40.917  29.895  33.582  1.00  0.00     0.064 A 
ATOM     84  C   UNL A   1      40.636  31.222  33.973  1.00  0.00     0.173 A 
ATOM     85  C   UNL A   1      39.826  29.050  33.353  1.00  0.00     0.173 A 
ATOM     86  F   UNL A   1      41.644  32.073  34.218  1.00  0.00    -0.203 F 
ATOM     87  C   UNL A   1      39.328  31.702  34.038  1.00  0.00     0.198 A 
ATOM     88  C   UNL A   1      38.516  29.535  33.414  1.00  0.00     0.198 A 
ATOM     89  F   UNL A   1      40.018  27.777  32.981  1.00  0.00    -0.203 F 
ATOM     90  F   UNL A   1      39.096  32.986  34.346  1.00  0.00    -0.200 F 
ATOM     91  C   UNL A   1      38.270  30.864  33.728  1.00  0.00     0.200 A 
ATOM     92  F   UNL A   1      37.490  28.731  33.097  1.00  0.00    -0.200 F 
ATOM     93  F   UNL A   1      37.016  31.340  33.700  1.00  0.00    -0.200 F 
ENDBRANCH  59  83
BRANCH  71  94
ATOM     94  C   UNL A   1      45.462  24.253  33.706  1.00  0.00     0.064 A 
ATOM     95  C   UNL A   1      44.854  23.012  33.951  1.00  0.00     0.173 A 
ATOM     96  C   UNL A   1      46.827  24.335  34.094  1.00  0.00     0.173 A 
ATOM     97  F   UNL A   1      43.624  22.730  33.503  1.00  0.00    -0.203 F 
ATOM     98  C   UNL A   1      45.518  21.975  34.614  1.00  0.00     0.198 A 
ATOM     99  C   UNL A   1      47.506  23.274  34.688  1.00  0.00     0.198 A 
ATOM    100  F   UNL A   1      47.562  25.435  33.882  1.00  0.00    -0.203 F 
ATOM    101  F   UNL A   1      44.864  20.834  34.878  1.00  0.00    -0.200 F 
ATOM    102  C   UNL A   1      46.845  22.102  34.974  1.00  0.00     0.200 A 
ATOM    103  F   UNL A   1      48.814  23.393  34.962  1.00  0.00    -0.200 F 
ATOM    104  F   UNL A   1      47.490  21.088  35.567  1.00  0.00    -0.200 F 
ENDBRANCH  71  94
ENDBRANCH  45  46
ENDBRANCH  38  40
ENDBRANCH  37  38
ENDBRANCH  36  37
ENDBRANCH  35  36
ENDBRANCH  34  35
ENDBRANCH  33  34
ENDBRANCH  32  33
ENDBRANCH   1  32
TORSDOF 23
ENDMDL
MODEL 3
REMARK VINA RESULT:     -11.1      1.702      3.212
REMARK SMILES Cc1cc(F)ccc1OC1(C(=O)OCCOCCOCCOCCOC(=O)c2ccc(-c3c4nc(c(-c5c(F)c(F)c(F)c(F)c5F)c5ccc([nH]5)c(-c5c(F)c(F)c(F)c(F)c5F)c5nc(c(-c6c(F)c(F)c(F)c(F)c6F)c6ccc3[nH]6)C=C5)C=C4)cc2)CCN(C(=O)[C@H]2CCOC2)CC1
REMARK SMILES IDX 19 1 18 2 17 3 16 4 15 5 14 6 13 7 11 8 12 9 10 10 91 11
REMARK SMILES IDX 102 12 92 13 101 14 93 15 94 16 95 17 9 18 8 19 1 20 2 21
REMARK SMILES IDX 3 22 4 23 7 24 5 25 6 26 96 27 97 28 100 29 98 30 99 31
REMARK SMILES IDX 20 32 21 33 22 34 23 35 24 36 25 37 26 38 27 39 28 40 29 41
REMARK SMILES IDX 90 42 30 43 89 44 31 45 32 46 33 47 83 48 34 49 88 50 82 51
REMARK SMILES IDX 84 52 35 53 87 54 81 55 80 56 36 58 68 59 48 60 67 61 49 62
REMARK SMILES IDX 52 63 66 64 85 65 50 66 51 67 65 69 86 70 53 71 37 72 38 73
REMARK SMILES IDX 46 74 39 75 40 76 44 77 47 78 41 79 42 80 45 81 43 82 69 83
REMARK SMILES IDX 70 84 78 85 71 86 72 87 76 88 79 89 73 90 74 91 77 92 75 93
REMARK SMILES IDX 54 94 55 95 63 96 56 97 57 98 61 99 64 100 58 101 59 102
REMARK SMILES IDX 62 103 60 104
REMARK H PARENT 84 57 52 68
REMARK Flexibility Score: inf
ROOT
ATOM      1  O   UNL A   1      31.252  29.775  25.741  1.00  0.00    -0.377 OA
ENDROOT
BRANCH   1   2
ATOM      2  C   UNL A   1      31.195  28.970  24.573  1.00  0.00     0.188 C 
BRANCH   2   3
ATOM      3  C   UNL A   1      29.940  29.007  23.692  1.00  0.00     0.188 C 
BRANCH   3   4
ATOM      4  O   UNL A   1      29.462  27.734  23.312  1.00  0.00    -0.376 OA
BRANCH   4   5
ATOM      5  C   UNL A   1      29.158  26.771  24.308  1.00  0.00     0.202 C 
BRANCH   5   6
ATOM      6  C   UNL A   1      30.201  26.156  25.264  1.00  0.00     0.261 C 
BRANCH   6   7
ATOM      7  O   UNL A   1      30.061  24.764  25.589  1.00  0.00    -0.460 OA
BRANCH   7   8
ATOM      8  C   UNL A   1      31.160  24.150  26.114  1.00  0.00     0.350 C 
ATOM      9  O   UNL A   1      31.355  24.071  27.329  1.00  0.00    -0.247 OA
BRANCH   8  10
ATOM     10  C   UNL A   1      32.141  23.506  25.071  1.00  0.00     0.209 C 
ATOM     11  C   UNL A   1      33.553  23.328  25.619  1.00  0.00     0.082 C 
ATOM     12  C   UNL A   1      31.409  22.221  24.678  1.00  0.00     0.082 C 
ATOM     13  C   UNL A   1      34.211  21.961  25.512  1.00  0.00     0.124 C 
ATOM     14  C   UNL A   1      32.268  21.091  24.161  1.00  0.00     0.124 C 
ATOM     15  N   UNL A   1      33.471  20.844  24.945  1.00  0.00    -0.342 N 
ATOM     16  C   UNL A   1      34.170  19.633  24.960  1.00  0.00     0.228 C 
ATOM     17  O   UNL A   1      35.250  19.537  25.550  1.00  0.00    -0.274 OA
BRANCH  10  18
ATOM     18  O   UNL A   1      32.010  24.583  24.117  1.00  0.00    -0.475 OA
BRANCH  18  19
ATOM     19  C   UNL A   1      32.711  25.638  23.660  1.00  0.00     0.124 A 
ATOM     20  C   UNL A   1      33.852  26.696  25.728  1.00  0.00     0.048 C 
ATOM     21  C   UNL A   1      33.553  26.569  24.273  1.00  0.00    -0.006 A 
ATOM     22  C   UNL A   1      34.161  27.577  23.481  1.00  0.00     0.046 A 
ATOM     23  C   UNL A   1      33.905  27.688  22.123  1.00  0.00     0.123 A 
ATOM     24  C   UNL A   1      32.461  25.796  22.275  1.00  0.00     0.050 A 
ATOM     25  F   UNL A   1      34.487  28.663  21.414  1.00  0.00    -0.207 F 
ATOM     26  C   UNL A   1      33.041  26.808  21.510  1.00  0.00     0.043 A 
ENDBRANCH  18  19
ENDBRANCH  10  18
BRANCH  16  27
ATOM     27  C   UNL A   1      33.616  18.454  24.181  1.00  0.00     0.107 C 
ATOM     28  C   UNL A   1      34.693  17.442  23.843  1.00  0.00     0.044 C 
ATOM     29  C   UNL A   1      32.663  17.626  25.026  1.00  0.00     0.173 C 
ATOM     30  C   UNL A   1      33.946  16.125  23.800  1.00  0.00     0.161 C 
ATOM     31  O   UNL A   1      32.722  16.286  24.521  1.00  0.00    -0.381 OA
ENDBRANCH  16  27
ENDBRANCH   8  10
ENDBRANCH   7   8
ENDBRANCH   6   7
ENDBRANCH   5   6
ENDBRANCH   4   5
ENDBRANCH   3   4
ENDBRANCH   2   3
ENDBRANCH   1   2
BRANCH   1  32
ATOM     32  C   UNL A   1      32.493  30.356  26.107  1.00  0.00     0.188 C 
BRANCH  32  33
ATOM     33  C   UNL A   1      32.555  31.478  27.168  1.00  0.00     0.188 C 
BRANCH  33  34
ATOM     34  O   UNL A   1      33.692  31.483  28.026  1.00  0.00    -0.376 OA
BRANCH  34  35
ATOM     35  C   UNL A   1      34.461  32.684  28.067  1.00  0.00     0.202 C 
BRANCH  35  36
ATOM     36  C   UNL A   1      35.985  32.479  28.117  1.00  0.00     0.261 C 
BRANCH  36  37
ATOM     37  O   UNL A   1      36.395  31.641  29.193  1.00  0.00    -0.460 OA
BRANCH  37  38
ATOM     38  C   UNL A   1      37.646  31.185  29.043  1.00  0.00     0.338 C 
ATOM     39  O   UNL A   1      38.694  31.727  29.351  1.00  0.00    -0.246 OA
BRANCH  38  40
ATOM     40  C   UNL A   1      37.605  29.860  28.421  1.00  0.00     0.060 A 
ATOM     41  C   UNL A   1      37.414  28.816  29.345  1.00  0.00     0.016 A 
ATOM     42  C   UNL A   1      38.470  29.779  27.338  1.00  0.00     0.016 A 
ATOM     43  C   UNL A   1      38.404  27.879  29.456  1.00  0.00     0.010 A 
ATOM     44  C   UNL A   1      39.475  28.867  27.466  1.00  0.00     0.010 A 
ATOM     45  C   UNL A   1      39.485  28.042  28.606  1.00  0.00    -0.014 A 
BRANCH  45  46
ATOM     46  C   UNL A   1      40.790  27.562  28.972  1.00  0.00     0.031 A 
ATOM     47  C   UNL A   1      41.157  26.224  28.537  1.00  0.00     0.074 A 
ATOM     48  C   UNL A   1      41.621  28.459  29.544  1.00  0.00     0.049 A 
ATOM     49  N   UNL A   1      42.127  25.543  29.025  1.00  0.00    -0.248 NA
ATOM     50  C   UNL A   1      40.374  25.505  27.538  1.00  0.00     0.031 C 
ATOM     51  C   UNL A   1      43.073  28.420  29.622  1.00  0.00     0.029 A 
ATOM     52  N   UNL A   1      41.250  29.554  30.341  1.00  0.00    -0.354 N 
ATOM     53  C   UNL A   1      42.317  24.478  28.177  1.00  0.00     0.074 A 
ATOM     54  C   UNL A   1      41.131  24.424  27.357  1.00  0.00     0.031 C 
ATOM     55  C   UNL A   1      43.476  29.269  30.583  1.00  0.00     0.029 A 
ATOM     56  C   UNL A   1      42.283  29.729  31.280  1.00  0.00     0.049 A 
ATOM     57  H   UNL A   1      40.431  30.093  30.259  1.00  0.00     0.167 HD
ATOM     58  C   UNL A   1      43.555  23.913  28.132  1.00  0.00     0.037 A 
ATOM     59  C   UNL A   1      42.045  29.490  32.604  1.00  0.00     0.037 A 
ATOM     60  C   UNL A   1      44.422  24.516  29.147  1.00  0.00     0.049 A 
ATOM     61  C   UNL A   1      42.858  28.332  33.139  1.00  0.00     0.074 A 
ATOM     62  C   UNL A   1      45.350  25.544  29.081  1.00  0.00     0.029 A 
ATOM     63  N   UNL A   1      44.100  24.371  30.496  1.00  0.00    -0.354 N 
ATOM     64  N   UNL A   1      43.244  27.307  32.428  1.00  0.00    -0.248 NA
ATOM     65  C   UNL A   1      43.325  28.272  34.519  1.00  0.00     0.031 C 
ATOM     66  C   UNL A   1      45.551  26.046  30.391  1.00  0.00     0.029 A 
ATOM     67  C   UNL A   1      44.757  25.319  31.259  1.00  0.00     0.049 A 
ATOM     68  H   UNL A   1      43.489  23.687  30.855  1.00  0.00     0.167 HD
ATOM     69  C   UNL A   1      44.026  26.487  33.203  1.00  0.00     0.074 A 
ATOM     70  C   UNL A   1      44.043  27.136  34.502  1.00  0.00     0.031 C 
ATOM     71  C   UNL A   1      44.620  25.357  32.709  1.00  0.00     0.037 A 
BRANCH  58  72
ATOM     72  C   UNL A   1      44.037  23.152  26.918  1.00  0.00     0.064 A 
ATOM     73  C   UNL A   1      43.456  21.917  26.565  1.00  0.00     0.173 A 
ATOM     74  C   UNL A   1      45.128  23.539  26.118  1.00  0.00     0.173 A 
ATOM     75  F   UNL A   1      42.340  21.472  27.156  1.00  0.00    -0.203 F 
ATOM     76  C   UNL A   1      44.002  21.083  25.587  1.00  0.00     0.198 A 
ATOM     77  C   UNL A   1      45.713  22.681  25.180  1.00  0.00     0.198 A 
ATOM     78  F   UNL A   1      45.633  24.778  26.184  1.00  0.00    -0.203 F 
ATOM     79  F   UNL A   1      43.411  19.915  25.306  1.00  0.00    -0.200 F 
ATOM     80  C   UNL A   1      45.156  21.446  24.924  1.00  0.00     0.200 A 
ATOM     81  F   UNL A   1      46.821  23.063  24.529  1.00  0.00    -0.200 F 
ATOM     82  F   UNL A   1      45.707  20.625  24.020  1.00  0.00    -0.200 F 
ENDBRANCH  58  72
BRANCH  59  83
ATOM     83  C   UNL A   1      40.656  29.817  33.034  1.00  0.00     0.064 A 
ATOM     84  C   UNL A   1      40.316  31.167  33.263  1.00  0.00     0.173 A 
ATOM     85  C   UNL A   1      39.605  28.906  32.888  1.00  0.00     0.173 A 
ATOM     86  F   UNL A   1      41.284  32.082  33.422  1.00  0.00    -0.203 F 
ATOM     87  C   UNL A   1      38.988  31.596  33.252  1.00  0.00     0.198 A 
ATOM     88  C   UNL A   1      38.276  29.339  32.873  1.00  0.00     0.198 A 
ATOM     89  F   UNL A   1      39.856  27.607  32.669  1.00  0.00    -0.203 F 
ATOM     90  F   UNL A   1      38.700  32.896  33.404  1.00  0.00    -0.200 F 
ATOM     91  C   UNL A   1      37.971  30.684  33.026  1.00  0.00     0.200 A 
ATOM     92  F   UNL A   1      37.289  28.462  32.636  1.00  0.00    -0.200 F 
ATOM     93  F   UNL A   1      36.700  31.101  32.924  1.00  0.00    -0.200 F 
ENDBRANCH  59  83
BRANCH  71  94
ATOM     94  C   UNL A   1      45.265  24.245  33.516  1.00  0.00     0.064 A 
ATOM     95  C   UNL A   1      44.671  22.998  33.765  1.00  0.00     0.173 A 
ATOM     96  C   UNL A   1      46.607  24.367  33.967  1.00  0.00     0.173 A 
ATOM     97  F   UNL A   1      43.471  22.678  33.266  1.00  0.00    -0.203 F 
ATOM     98  C   UNL A   1      45.323  21.994  34.488  1.00  0.00     0.198 A 
ATOM     99  C   UNL A   1      47.279  23.337  34.622  1.00  0.00     0.198 A 
ATOM    100  F   UNL A   1      47.329  25.477  33.761  1.00  0.00    -0.203 F 
ATOM    101  F   UNL A   1      44.681  20.847  34.751  1.00  0.00    -0.200 F 
ATOM    102  C   UNL A   1      46.628  22.159  34.908  1.00  0.00     0.200 A 
ATOM    103  F   UNL A   1      48.569  23.492  34.956  1.00  0.00    -0.200 F 
ATOM    104  F   UNL A   1      47.264  21.176  35.559  1.00  0.00    -0.200 F 
ENDBRANCH  71  94
ENDBRANCH  45  46
ENDBRANCH  38  40
ENDBRANCH  37  38
ENDBRANCH  36  37
ENDBRANCH  35  36
ENDBRANCH  34  35
ENDBRANCH  33  34
ENDBRANCH  32  33
ENDBRANCH   1  32
TORSDOF 23
ENDMDL
