MODEL 1
REMARK VINA RESULT:     -11.5      0.000      0.000
REMARK SMILES Cc1cc(C(=O)OCCOCCOCCOCCOC(=O)c2ccc(-c3c4nc(c(-c5c(F)c(F)c(F)c(F)c5F)c5ccc([nH]5)c(-c5c(F)c(F)c(F)c(F)c5F)c5nc(c(-c6c(F)c(F)c(F)c(F)c6F)c6ccc3[nH]6)C=C5)C=C4)cc2)cc(S(=O)(=O)NNC(=O)c2c[nH]c3ccccc23)c1C
REMARK SMILES IDX 12 1 11 2 10 3 9 4 8 5 7 6 5 7 6 8 4 9 1 10 2 11 3 12 103 13
REMARK SMILES IDX 86 14 104 15 85 16 87 17 88 18 89 19 90 20 91 22 92 23 93 25
REMARK SMILES IDX 94 26 95 27 102 28 96 29 97 30 101 31 98 33 100 34 99 35
REMARK SMILES IDX 13 36 14 37 15 38 16 39 17 40 18 41 19 42 20 43 21 44 22 45
REMARK SMILES IDX 23 46 84 47 24 48 83 49 25 50 26 51 27 52 77 53 28 54 82 55
REMARK SMILES IDX 76 56 78 57 29 58 81 59 75 60 74 61 30 63 62 64 42 65 61 66
REMARK SMILES IDX 43 67 46 68 60 69 79 70 44 71 45 72 59 74 80 75 47 76 31 77
REMARK SMILES IDX 32 78 40 79 33 80 34 81 38 82 41 83 35 84 36 85 39 86 37 87
REMARK SMILES IDX 63 88 64 89 72 90 65 91 66 92 70 93 73 94 67 95 68 96 71 97
REMARK SMILES IDX 69 98 48 99 49 100 57 101 50 102 51 103 55 104 58 105 52 106
REMARK SMILES IDX 53 107 56 108 54 109
REMARK H PARENT 90 21 91 24 96 32 78 62 46 73
REMARK Flexibility Score: inf
ROOT
ATOM      1  C   UNL A   1      40.394  20.715  26.784  1.00  0.00     0.188 C 
ENDROOT
BRANCH   1   2
ATOM      2  C   UNL A   1      40.719  22.219  26.899  1.00  0.00     0.188 C 
BRANCH   2   3
ATOM      3  O   UNL A   1      39.676  22.984  27.487  1.00  0.00    -0.376 OA
BRANCH   3   4
ATOM      4  C   UNL A   1      39.158  24.074  26.745  1.00  0.00     0.202 C 
BRANCH   4   5
ATOM      5  C   UNL A   1      38.048  23.738  25.743  1.00  0.00     0.261 C 
BRANCH   5   6
ATOM      6  O   UNL A   1      37.292  22.556  26.047  1.00  0.00    -0.460 OA
BRANCH   6   7
ATOM      7  C   UNL A   1      37.166  21.609  25.092  1.00  0.00     0.338 C 
ATOM      8  O   UNL A   1      38.014  20.802  24.740  1.00  0.00    -0.246 OA
BRANCH   7   9
ATOM      9  C   UNL A   1      35.741  21.575  24.677  1.00  0.00     0.061 A 
ATOM     10  C   UNL A   1      32.929  19.030  24.761  1.00  0.00     0.044 C 
ATOM     11  C   UNL A   1      33.660  20.323  24.498  1.00  0.00    -0.046 A 
ATOM     12  C   UNL A   1      34.994  20.412  24.907  1.00  0.00     0.019 A 
ATOM     13  C   UNL A   1      33.053  21.443  23.883  1.00  0.00    -0.028 A 
ATOM     14  C   UNL A   1      33.855  22.573  23.539  1.00  0.00     0.088 A 
ATOM     15  C   UNL A   1      31.557  21.460  23.659  1.00  0.00     0.046 C 
ATOM     16  C   UNL A   1      35.186  22.651  23.963  1.00  0.00     0.037 A 
BRANCH  14  17
ATOM     17  S   UNL A   1      33.148  23.839  22.474  1.00  0.00     0.257 S 
ATOM     18  O   UNL A   1      33.266  23.358  21.113  1.00  0.00    -0.205 OA
ATOM     19  O   UNL A   1      31.871  24.196  23.052  1.00  0.00    -0.205 OA
BRANCH  17  20
ATOM     20  N   UNL A   1      34.101  25.259  22.579  1.00  0.00    -0.123 NA
ATOM     21  H   UNL A   1      35.029  25.025  22.228  1.00  0.00     0.167 HD
BRANCH  20  22
ATOM     22  N   UNL A   1      33.654  26.469  21.852  1.00  0.00    -0.273 N 
ATOM     23  C   UNL A   1      33.510  27.708  22.476  1.00  0.00     0.268 C 
ATOM     24  H   UNL A   1      33.450  26.396  20.892  1.00  0.00     0.186 HD
ATOM     25  O   UNL A   1      34.247  28.646  22.185  1.00  0.00    -0.268 OA
BRANCH  23  26
ATOM     26  C   UNL A   1      32.237  27.895  23.198  1.00  0.00     0.066 A 
ATOM     27  C   UNL A   1      31.317  28.898  22.921  1.00  0.00     0.097 A 
ATOM     28  C   UNL A   1      31.994  27.643  24.597  1.00  0.00     0.012 A 
ATOM     29  N   UNL A   1      31.431  29.721  24.025  1.00  0.00    -0.360 N 
ATOM     30  C   UNL A   1      31.633  28.895  25.112  1.00  0.00     0.046 A 
ATOM     31  C   UNL A   1      32.166  26.581  25.510  1.00  0.00     0.011 A 
ATOM     32  H   UNL A   1      31.379  30.705  24.035  1.00  0.00     0.166 HD
ATOM     33  C   UNL A   1      31.519  29.168  26.476  1.00  0.00     0.027 A 
ATOM     34  C   UNL A   1      31.929  26.810  26.878  1.00  0.00     0.001 A 
ATOM     35  C   UNL A   1      31.649  28.091  27.353  1.00  0.00     0.002 A 
ENDBRANCH  23  26
ENDBRANCH  20  22
ENDBRANCH  17  20
ENDBRANCH  14  17
ENDBRANCH   7   9
ENDBRANCH   6   7
ENDBRANCH   5   6
ENDBRANCH   4   5
ENDBRANCH   3   4
ENDBRANCH   2   3
ENDBRANCH   1   2
BRANCH   1  36
ATOM     36  O   UNL A   1      41.092  19.812  27.628  1.00  0.00    -0.377 OA
BRANCH  36  37
ATOM     37  C   UNL A   1      42.423  19.424  27.299  1.00  0.00     0.188 C 
BRANCH  37  38
ATOM     38  C   UNL A   1      42.828  19.026  25.860  1.00  0.00     0.188 C 
BRANCH  38  39
ATOM     39  O   UNL A   1      43.159  20.115  25.014  1.00  0.00    -0.376 OA
BRANCH  39  40
ATOM     40  C   UNL A   1      44.410  20.745  25.225  1.00  0.00     0.202 C 
BRANCH  40  41
ATOM     41  C   UNL A   1      44.477  22.203  24.757  1.00  0.00     0.261 C 
BRANCH  41  42
ATOM     42  O   UNL A   1      44.150  23.185  25.754  1.00  0.00    -0.460 OA
BRANCH  42  43
ATOM     43  C   UNL A   1      44.557  24.452  25.530  1.00  0.00     0.338 C 
ATOM     44  O   UNL A   1      45.294  24.850  24.641  1.00  0.00    -0.246 OA
BRANCH  43  45
ATOM     45  C   UNL A   1      43.806  25.329  26.447  1.00  0.00     0.060 A 
ATOM     46  C   UNL A   1      44.050  26.708  26.430  1.00  0.00     0.016 A 
ATOM     47  C   UNL A   1      42.853  24.786  27.311  1.00  0.00     0.016 A 
ATOM     48  C   UNL A   1      43.357  27.549  27.301  1.00  0.00     0.010 A 
ATOM     49  C   UNL A   1      42.175  25.625  28.198  1.00  0.00     0.010 A 
ATOM     50  C   UNL A   1      42.447  27.004  28.218  1.00  0.00    -0.014 A 
BRANCH  50  51
ATOM     51  C   UNL A   1      41.935  27.837  29.333  1.00  0.00     0.031 A 
ATOM     52  C   UNL A   1      42.639  27.753  30.659  1.00  0.00     0.074 A 
ATOM     53  C   UNL A   1      40.879  28.653  29.176  1.00  0.00     0.049 A 
ATOM     54  N   UNL A   1      42.347  28.331  31.796  1.00  0.00    -0.248 NA
ATOM     55  C   UNL A   1      43.835  26.896  30.708  1.00  0.00     0.031 C 
ATOM     56  C   UNL A   1      40.139  28.850  27.932  1.00  0.00     0.029 A 
ATOM     57  N   UNL A   1      40.239  29.462  30.082  1.00  0.00    -0.354 N 
ATOM     58  C   UNL A   1      43.317  27.905  32.693  1.00  0.00     0.074 A 
ATOM     59  C   UNL A   1      44.187  26.994  31.981  1.00  0.00     0.031 C 
ATOM     60  C   UNL A   1      39.135  29.716  28.157  1.00  0.00     0.029 A 
ATOM     61  C   UNL A   1      39.141  30.105  29.567  1.00  0.00     0.049 A 
ATOM     62  H   UNL A   1      40.539  29.570  31.014  1.00  0.00     0.167 HD
ATOM     63  C   UNL A   1      43.476  28.249  33.992  1.00  0.00     0.037 A 
ATOM     64  C   UNL A   1      38.234  30.895  30.174  1.00  0.00     0.037 A 
ATOM     65  C   UNL A   1      42.607  29.150  34.700  1.00  0.00     0.049 A 
ATOM     66  C   UNL A   1      38.384  31.197  31.646  1.00  0.00     0.074 A 
ATOM     67  C   UNL A   1      42.691  29.577  36.014  1.00  0.00     0.029 A 
ATOM     68  N   UNL A   1      41.486  29.758  34.153  1.00  0.00    -0.354 N 
ATOM     69  N   UNL A   1      39.320  30.817  32.481  1.00  0.00    -0.248 NA
ATOM     70  C   UNL A   1      37.347  32.042  32.258  1.00  0.00     0.031 C 
ATOM     71  C   UNL A   1      41.589  30.395  36.278  1.00  0.00     0.029 A 
ATOM     72  C   UNL A   1      40.853  30.531  35.112  1.00  0.00     0.049 A 
ATOM     73  H   UNL A   1      41.186  29.655  33.220  1.00  0.00     0.167 HD
ATOM     74  C   UNL A   1      39.006  31.399  33.703  1.00  0.00     0.074 A 
ATOM     75  C   UNL A   1      37.799  32.171  33.498  1.00  0.00     0.031 C 
ATOM     76  C   UNL A   1      39.658  31.304  34.889  1.00  0.00     0.037 A 
BRANCH  63  77
ATOM     77  C   UNL A   1      44.616  27.625  34.741  1.00  0.00     0.064 A 
ATOM     78  C   UNL A   1      45.870  28.248  34.828  1.00  0.00     0.173 A 
ATOM     79  C   UNL A   1      44.442  26.404  35.408  1.00  0.00     0.173 A 
ATOM     80  F   UNL A   1      46.095  29.409  34.193  1.00  0.00    -0.203 F 
ATOM     81  C   UNL A   1      46.915  27.657  35.535  1.00  0.00     0.198 A 
ATOM     82  C   UNL A   1      45.479  25.833  36.141  1.00  0.00     0.198 A 
ATOM     83  F   UNL A   1      43.261  25.768  35.358  1.00  0.00    -0.203 F 
ATOM     84  F   UNL A   1      48.118  28.246  35.565  1.00  0.00    -0.200 F 
ATOM     85  C   UNL A   1      46.716  26.456  36.198  1.00  0.00     0.200 A 
ATOM     86  F   UNL A   1      45.280  24.677  36.791  1.00  0.00    -0.200 F 
ATOM     87  F   UNL A   1      47.719  25.894  36.887  1.00  0.00    -0.200 F 
ENDBRANCH  63  77
BRANCH  64  88
ATOM     88  C   UNL A   1      37.086  31.447  29.405  1.00  0.00     0.064 A 
ATOM     89  C   UNL A   1      37.026  32.806  29.068  1.00  0.00     0.173 A 
ATOM     90  C   UNL A   1      36.005  30.635  29.029  1.00  0.00     0.173 A 
ATOM     91  F   UNL A   1      38.019  33.631  29.430  1.00  0.00    -0.203 F 
ATOM     92  C   UNL A   1      35.920  33.336  28.405  1.00  0.00     0.198 A 
ATOM     93  C   UNL A   1      34.914  31.160  28.337  1.00  0.00     0.198 A 
ATOM     94  F   UNL A   1      36.009  29.328  29.330  1.00  0.00    -0.203 F 
ATOM     95  F   UNL A   1      35.862  34.650  28.147  1.00  0.00    -0.200 F 
ATOM     96  C   UNL A   1      34.868  32.512  28.036  1.00  0.00     0.200 A 
ATOM     97  F   UNL A   1      33.906  30.357  27.974  1.00  0.00    -0.200 F 
ATOM     98  F   UNL A   1      33.804  33.022  27.400  1.00  0.00    -0.200 F 
ENDBRANCH  64  88
BRANCH  76  99
ATOM     99  C   UNL A   1      39.107  32.084  36.050  1.00  0.00     0.064 A 
ATOM    100  C   UNL A   1      38.228  31.507  36.978  1.00  0.00     0.173 A 
ATOM    101  C   UNL A   1      39.507  33.412  36.264  1.00  0.00     0.173 A 
ATOM    102  F   UNL A   1      37.805  30.244  36.814  1.00  0.00    -0.203 F 
ATOM    103  C   UNL A   1      37.751  32.239  38.063  1.00  0.00     0.198 A 
ATOM    104  C   UNL A   1      39.054  34.130  37.367  1.00  0.00     0.198 A 
ATOM    105  F   UNL A   1      40.354  34.010  35.411  1.00  0.00    -0.203 F 
ATOM    106  F   UNL A   1      36.874  31.682  38.910  1.00  0.00    -0.200 F 
ATOM    107  C   UNL A   1      38.170  33.546  38.261  1.00  0.00     0.200 A 
ATOM    108  F   UNL A   1      39.475  35.387  37.566  1.00  0.00    -0.200 F 
ATOM    109  F   UNL A   1      37.718  34.244  39.312  1.00  0.00    -0.200 F 
ENDBRANCH  76  99
ENDBRANCH  50  51
ENDBRANCH  43  45
ENDBRANCH  42  43
ENDBRANCH  41  42
ENDBRANCH  40  41
ENDBRANCH  39  40
ENDBRANCH  38  39
ENDBRANCH  37  38
ENDBRANCH  36  37
ENDBRANCH   1  36
TORSDOF 24
ENDMDL
MODEL 2
REMARK VINA RESULT:     -11.1      1.110      2.169
REMARK SMILES Cc1cc(C(=O)OCCOCCOCCOCCOC(=O)c2ccc(-c3c4nc(c(-c5c(F)c(F)c(F)c(F)c5F)c5ccc([nH]5)c(-c5c(F)c(F)c(F)c(F)c5F)c5nc(c(-c6c(F)c(F)c(F)c(F)c6F)c6ccc3[nH]6)C=C5)C=C4)cc2)cc(S(=O)(=O)NNC(=O)c2c[nH]c3ccccc23)c1C
REMARK SMILES IDX 12 1 11 2 10 3 9 4 8 5 7 6 5 7 6 8 4 9 1 10 2 11 3 12 103 13
REMARK SMILES IDX 86 14 104 15 85 16 87 17 88 18 89 19 90 20 91 22 92 23 93 25
REMARK SMILES IDX 94 26 95 27 102 28 96 29 97 30 101 31 98 33 100 34 99 35
REMARK SMILES IDX 13 36 14 37 15 38 16 39 17 40 18 41 19 42 20 43 21 44 22 45
REMARK SMILES IDX 23 46 84 47 24 48 83 49 25 50 26 51 27 52 77 53 28 54 82 55
REMARK SMILES IDX 76 56 78 57 29 58 81 59 75 60 74 61 30 63 62 64 42 65 61 66
REMARK SMILES IDX 43 67 46 68 60 69 79 70 44 71 45 72 59 74 80 75 47 76 31 77
REMARK SMILES IDX 32 78 40 79 33 80 34 81 38 82 41 83 35 84 36 85 39 86 37 87
REMARK SMILES IDX 63 88 64 89 72 90 65 91 66 92 70 93 73 94 67 95 68 96 71 97
REMARK SMILES IDX 69 98 48 99 49 100 57 101 50 102 51 103 55 104 58 105 52 106
REMARK SMILES IDX 53 107 56 108 54 109
REMARK H PARENT 90 21 91 24 96 32 78 62 46 73
REMARK Flexibility Score: inf
ROOT
ATOM      1  C   UNL A   1      40.359  20.995  26.801  1.00  0.00     0.188 C 
ENDROOT
BRANCH   1   2
ATOM      2  C   UNL A   1      40.799  22.432  27.152  1.00  0.00     0.188 C 
BRANCH   2   3
ATOM      3  O   UNL A   1      39.745  23.247  27.647  1.00  0.00    -0.376 OA
BRANCH   3   4
ATOM      4  C   UNL A   1      39.304  24.321  26.836  1.00  0.00     0.202 C 
BRANCH   4   5
ATOM      5  C   UNL A   1      38.125  24.020  25.905  1.00  0.00     0.261 C 
BRANCH   5   6
ATOM      6  O   UNL A   1      37.389  22.828  26.222  1.00  0.00    -0.460 OA
BRANCH   6   7
ATOM      7  C   UNL A   1      37.033  22.003  25.214  1.00  0.00     0.338 C 
ATOM      8  O   UNL A   1      37.744  21.190  24.644  1.00  0.00    -0.246 OA
BRANCH   7   9
ATOM      9  C   UNL A   1      35.561  22.104  25.048  1.00  0.00     0.061 A 
ATOM     10  C   UNL A   1      32.645  19.678  24.971  1.00  0.00     0.044 C 
ATOM     11  C   UNL A   1      33.404  20.981  24.917  1.00  0.00    -0.046 A 
ATOM     12  C   UNL A   1      34.788  20.937  25.106  1.00  0.00     0.019 A 
ATOM     13  C   UNL A   1      32.779  22.232  24.707  1.00  0.00    -0.028 A 
ATOM     14  C   UNL A   1      33.584  23.396  24.523  1.00  0.00     0.088 A 
ATOM     15  C   UNL A   1      31.270  22.336  24.748  1.00  0.00     0.046 C 
ATOM     16  C   UNL A   1      34.968  23.337  24.725  1.00  0.00     0.037 A 
BRANCH  14  17
ATOM     17  S   UNL A   1      32.799  24.905  23.938  1.00  0.00     0.257 S 
ATOM     18  O   UNL A   1      33.761  25.578  23.090  1.00  0.00    -0.205 OA
ATOM     19  O   UNL A   1      31.488  24.526  23.458  1.00  0.00    -0.205 OA
BRANCH  17  20
ATOM     20  N   UNL A   1      32.507  25.942  25.270  1.00  0.00    -0.123 NA
ATOM     21  H   UNL A   1      33.182  25.698  25.995  1.00  0.00     0.167 HD
BRANCH  20  22
ATOM     22  N   UNL A   1      32.600  27.405  25.064  1.00  0.00    -0.273 N 
ATOM     23  C   UNL A   1      31.480  28.201  24.827  1.00  0.00     0.268 C 
ATOM     24  H   UNL A   1      33.486  27.833  25.096  1.00  0.00     0.186 HD
ATOM     25  O   UNL A   1      31.117  29.035  25.652  1.00  0.00    -0.268 OA
BRANCH  23  26
ATOM     26  C   UNL A   1      31.016  28.219  23.426  1.00  0.00     0.066 A 
ATOM     27  C   UNL A   1      31.847  28.398  22.326  1.00  0.00     0.097 A 
ATOM     28  C   UNL A   1      29.760  28.732  22.940  1.00  0.00     0.012 A 
ATOM     29  N   UNL A   1      31.489  29.657  21.884  1.00  0.00    -0.360 N 
ATOM     30  C   UNL A   1      30.126  29.768  22.071  1.00  0.00     0.046 A 
ATOM     31  C   UNL A   1      28.387  28.562  23.219  1.00  0.00     0.011 A 
ATOM     32  H   UNL A   1      32.090  30.343  21.511  1.00  0.00     0.166 HD
ATOM     33  C   UNL A   1      29.222  30.688  21.538  1.00  0.00     0.027 A 
ATOM     34  C   UNL A   1      27.452  29.403  22.588  1.00  0.00     0.001 A 
ATOM     35  C   UNL A   1      27.868  30.470  21.793  1.00  0.00     0.002 A 
ENDBRANCH  23  26
ENDBRANCH  20  22
ENDBRANCH  17  20
ENDBRANCH  14  17
ENDBRANCH   7   9
ENDBRANCH   6   7
ENDBRANCH   5   6
ENDBRANCH   4   5
ENDBRANCH   3   4
ENDBRANCH   2   3
ENDBRANCH   1   2
BRANCH   1  36
ATOM     36  O   UNL A   1      40.899  19.924  27.559  1.00  0.00    -0.377 OA
BRANCH  36  37
ATOM     37  C   UNL A   1      42.201  19.432  27.257  1.00  0.00     0.188 C 
BRANCH  37  38
ATOM     38  C   UNL A   1      42.629  19.081  25.813  1.00  0.00     0.188 C 
BRANCH  38  39
ATOM     39  O   UNL A   1      43.049  20.190  25.033  1.00  0.00    -0.376 OA
BRANCH  39  40
ATOM     40  C   UNL A   1      44.379  20.643  25.212  1.00  0.00     0.202 C 
BRANCH  40  41
ATOM     41  C   UNL A   1      44.617  22.101  24.801  1.00  0.00     0.261 C 
BRANCH  41  42
ATOM     42  O   UNL A   1      44.412  23.073  25.839  1.00  0.00    -0.460 OA
BRANCH  42  43
ATOM     43  C   UNL A   1      44.778  24.344  25.575  1.00  0.00     0.338 C 
ATOM     44  O   UNL A   1      45.492  24.739  24.666  1.00  0.00    -0.246 OA
BRANCH  43  45
ATOM     45  C   UNL A   1      44.012  25.225  26.476  1.00  0.00     0.060 A 
ATOM     46  C   UNL A   1      44.202  26.611  26.405  1.00  0.00     0.016 A 
ATOM     47  C   UNL A   1      43.098  24.678  27.379  1.00  0.00     0.016 A 
ATOM     48  C   UNL A   1      43.494  27.455  27.261  1.00  0.00     0.010 A 
ATOM     49  C   UNL A   1      42.407  25.521  28.250  1.00  0.00     0.010 A 
ATOM     50  C   UNL A   1      42.625  26.910  28.216  1.00  0.00    -0.014 A 
BRANCH  50  51
ATOM     51  C   UNL A   1      42.104  27.761  29.312  1.00  0.00     0.031 A 
ATOM     52  C   UNL A   1      42.839  27.756  30.623  1.00  0.00     0.074 A 
ATOM     53  C   UNL A   1      41.011  28.528  29.150  1.00  0.00     0.049 A 
ATOM     54  N   UNL A   1      42.548  28.363  31.746  1.00  0.00    -0.248 NA
ATOM     55  C   UNL A   1      44.070  26.949  30.675  1.00  0.00     0.031 C 
ATOM     56  C   UNL A   1      40.237  28.648  27.917  1.00  0.00     0.029 A 
ATOM     57  N   UNL A   1      40.359  29.343  30.042  1.00  0.00    -0.354 N 
ATOM     58  C   UNL A   1      43.555  28.009  32.634  1.00  0.00     0.074 A 
ATOM     59  C   UNL A   1      44.446  27.109  31.935  1.00  0.00     0.031 C 
ATOM     60  C   UNL A   1      39.203  29.480  28.134  1.00  0.00     0.029 A 
ATOM     61  C   UNL A   1      39.224  29.921  29.529  1.00  0.00     0.049 A 
ATOM     62  H   UNL A   1      40.674  29.497  30.961  1.00  0.00     0.167 HD
ATOM     63  C   UNL A   1      43.727  28.408  33.916  1.00  0.00     0.037 A 
ATOM     64  C   UNL A   1      38.299  30.696  30.129  1.00  0.00     0.037 A 
ATOM     65  C   UNL A   1      42.838  29.299  34.610  1.00  0.00     0.049 A 
ATOM     66  C   UNL A   1      38.468  31.058  31.585  1.00  0.00     0.074 A 
ATOM     67  C   UNL A   1      42.933  29.777  35.906  1.00  0.00     0.029 A 
ATOM     68  N   UNL A   1      41.681  29.840  34.068  1.00  0.00    -0.354 N 
ATOM     69  N   UNL A   1      39.437  30.747  32.411  1.00  0.00    -0.248 NA
ATOM     70  C   UNL A   1      37.411  31.882  32.190  1.00  0.00     0.031 C 
ATOM     71  C   UNL A   1      41.804  30.559  36.166  1.00  0.00     0.029 A 
ATOM     72  C   UNL A   1      41.038  30.622  35.014  1.00  0.00     0.049 A 
ATOM     73  H   UNL A   1      41.365  29.690  33.147  1.00  0.00     0.167 HD
ATOM     74  C   UNL A   1      39.126  31.362  33.618  1.00  0.00     0.074 A 
ATOM     75  C   UNL A   1      37.884  32.075  33.414  1.00  0.00     0.031 C 
ATOM     76  C   UNL A   1      39.807  31.336  34.791  1.00  0.00     0.037 A 
BRANCH  63  77
ATOM     77  C   UNL A   1      44.909  27.859  34.660  1.00  0.00     0.064 A 
ATOM     78  C   UNL A   1      44.840  26.645  35.361  1.00  0.00     0.173 A 
ATOM     79  C   UNL A   1      46.136  28.538  34.642  1.00  0.00     0.173 A 
ATOM     80  F   UNL A   1      43.685  25.965  35.423  1.00  0.00    -0.203 F 
ATOM     81  C   UNL A   1      45.950  26.146  36.038  1.00  0.00     0.198 A 
ATOM     82  C   UNL A   1      47.252  28.019  35.293  1.00  0.00     0.198 A 
ATOM     83  F   UNL A   1      46.256  29.702  33.984  1.00  0.00    -0.203 F 
ATOM     84  F   UNL A   1      45.849  25.010  36.740  1.00  0.00    -0.200 F 
ATOM     85  C   UNL A   1      47.157  26.828  35.995  1.00  0.00     0.200 A 
ATOM     86  F   UNL A   1      48.421  28.675  35.240  1.00  0.00    -0.200 F 
ATOM     87  F   UNL A   1      48.227  26.341  36.639  1.00  0.00    -0.200 F 
ENDBRANCH  63  77
BRANCH  64  88
ATOM     88  C   UNL A   1      37.112  31.172  29.367  1.00  0.00     0.064 A 
ATOM     89  C   UNL A   1      36.061  30.302  29.045  1.00  0.00     0.173 A 
ATOM     90  C   UNL A   1      37.023  32.496  28.911  1.00  0.00     0.173 A 
ATOM     91  F   UNL A   1      36.111  29.019  29.432  1.00  0.00    -0.203 F 
ATOM     92  C   UNL A   1      34.980  30.731  28.276  1.00  0.00     0.198 A 
ATOM     93  C   UNL A   1      35.926  32.932  28.170  1.00  0.00     0.198 A 
ATOM     94  F   UNL A   1      38.002  33.369  29.187  1.00  0.00    -0.203 F 
ATOM     95  F   UNL A   1      34.018  29.862  27.933  1.00  0.00    -0.200 F 
ATOM     96  C   UNL A   1      34.911  32.046  27.844  1.00  0.00     0.200 A 
ATOM     97  F   UNL A   1      35.859  34.207  27.764  1.00  0.00    -0.200 F 
ATOM     98  F   UNL A   1      33.873  32.457  27.103  1.00  0.00    -0.200 F 
ENDBRANCH  64  88
BRANCH  76  99
ATOM     99  C   UNL A   1      39.251  32.136  35.935  1.00  0.00     0.064 A 
ATOM    100  C   UNL A   1      38.345  31.583  36.853  1.00  0.00     0.173 A 
ATOM    101  C   UNL A   1      39.670  33.459  36.146  1.00  0.00     0.173 A 
ATOM    102  F   UNL A   1      37.902  30.327  36.691  1.00  0.00    -0.203 F 
ATOM    103  C   UNL A   1      37.862  32.333  37.923  1.00  0.00     0.198 A 
ATOM    104  C   UNL A   1      39.210  34.194  37.234  1.00  0.00     0.198 A 
ATOM    105  F   UNL A   1      40.542  34.034  35.303  1.00  0.00    -0.203 F 
ATOM    106  F   UNL A   1      36.961  31.798  38.759  1.00  0.00    -0.200 F 
ATOM    107  C   UNL A   1      38.301  33.633  38.117  1.00  0.00     0.200 A 
ATOM    108  F   UNL A   1      39.650  35.445  37.430  1.00  0.00    -0.200 F 
ATOM    109  F   UNL A   1      37.844  34.349  39.154  1.00  0.00    -0.200 F 
ENDBRANCH  76  99
ENDBRANCH  50  51
ENDBRANCH  43  45
ENDBRANCH  42  43
ENDBRANCH  41  42
ENDBRANCH  40  41
ENDBRANCH  39  40
ENDBRANCH  38  39
ENDBRANCH  37  38
ENDBRANCH  36  37
ENDBRANCH   1  36
TORSDOF 24
ENDMDL
MODEL 3
REMARK VINA RESULT:     -10.9      1.345      6.988
REMARK SMILES Cc1cc(C(=O)OCCOCCOCCOCCOC(=O)c2ccc(-c3c4nc(c(-c5c(F)c(F)c(F)c(F)c5F)c5ccc([nH]5)c(-c5c(F)c(F)c(F)c(F)c5F)c5nc(c(-c6c(F)c(F)c(F)c(F)c6F)c6ccc3[nH]6)C=C5)C=C4)cc2)cc(S(=O)(=O)NNC(=O)c2c[nH]c3ccccc23)c1C
REMARK SMILES IDX 12 1 11 2 10 3 9 4 8 5 7 6 5 7 6 8 4 9 1 10 2 11 3 12 103 13
REMARK SMILES IDX 86 14 104 15 85 16 87 17 88 18 89 19 90 20 91 22 92 23 93 25
REMARK SMILES IDX 94 26 95 27 102 28 96 29 97 30 101 31 98 33 100 34 99 35
REMARK SMILES IDX 13 36 14 37 15 38 16 39 17 40 18 41 19 42 20 43 21 44 22 45
REMARK SMILES IDX 23 46 84 47 24 48 83 49 25 50 26 51 27 52 77 53 28 54 82 55
REMARK SMILES IDX 76 56 78 57 29 58 81 59 75 60 74 61 30 63 62 64 42 65 61 66
REMARK SMILES IDX 43 67 46 68 60 69 79 70 44 71 45 72 59 74 80 75 47 76 31 77
REMARK SMILES IDX 32 78 40 79 33 80 34 81 38 82 41 83 35 84 36 85 39 86 37 87
REMARK SMILES IDX 63 88 64 89 72 90 65 91 66 92 70 93 73 94 67 95 68 96 71 97
REMARK SMILES IDX 69 98 48 99 49 100 57 101 50 102 51 103 55 104 58 105 52 106
REMARK SMILES IDX 53 107 56 108 54 109
REMARK H PARENT 90 21 91 24 96 32 78 62 46 73
REMARK Flexibility Score: inf
ROOT
ATOM      1  C   UNL A   1      41.979  19.038  26.199  1.00  0.00     0.188 C 
ENDROOT
BRANCH   1   2
ATOM      2  C   UNL A   1      40.816  20.053  26.251  1.00  0.00     0.188 C 
BRANCH   2   3
ATOM      3  O   UNL A   1      41.083  21.184  27.069  1.00  0.00    -0.376 OA
BRANCH   3   4
ATOM      4  C   UNL A   1      40.034  22.114  27.270  1.00  0.00     0.202 C 
BRANCH   4   5
ATOM      5  C   UNL A   1      39.356  22.647  26.003  1.00  0.00     0.261 C 
BRANCH   5   6
ATOM      6  O   UNL A   1      37.920  22.650  26.036  1.00  0.00    -0.460 OA
BRANCH   6   7
ATOM      7  C   UNL A   1      37.256  21.756  25.272  1.00  0.00     0.338 C 
ATOM      8  O   UNL A   1      37.689  20.704  24.827  1.00  0.00    -0.246 OA
BRANCH   7   9
ATOM      9  C   UNL A   1      35.831  22.169  25.234  1.00  0.00     0.061 A 
ATOM     10  C   UNL A   1      33.028  22.565  27.761  1.00  0.00     0.044 C 
ATOM     11  C   UNL A   1      33.748  22.561  26.435  1.00  0.00    -0.046 A 
ATOM     12  C   UNL A   1      35.103  22.215  26.430  1.00  0.00     0.019 A 
ATOM     13  C   UNL A   1      33.124  22.910  25.215  1.00  0.00    -0.028 A 
ATOM     14  C   UNL A   1      33.836  22.738  23.989  1.00  0.00     0.088 A 
ATOM     15  C   UNL A   1      31.741  23.523  25.225  1.00  0.00     0.046 C 
ATOM     16  C   UNL A   1      35.194  22.400  24.002  1.00  0.00     0.037 A 
BRANCH  14  17
ATOM     17  S   UNL A   1      32.931  22.872  22.441  1.00  0.00     0.257 S 
ATOM     18  O   UNL A   1      33.858  23.386  21.455  1.00  0.00    -0.205 OA
ATOM     19  O   UNL A   1      32.240  21.613  22.259  1.00  0.00    -0.205 OA
BRANCH  17  20
ATOM     20  N   UNL A   1      31.692  24.043  22.610  1.00  0.00    -0.123 NA
ATOM     21  H   UNL A   1      31.579  24.218  23.608  1.00  0.00     0.167 HD
BRANCH  20  22
ATOM     22  N   UNL A   1      31.865  25.359  21.954  1.00  0.00    -0.273 N 
ATOM     23  C   UNL A   1      32.323  26.484  22.639  1.00  0.00     0.268 C 
ATOM     24  H   UNL A   1      31.648  25.443  20.998  1.00  0.00     0.186 HD
ATOM     25  O   UNL A   1      33.415  26.979  22.372  1.00  0.00    -0.268 OA
BRANCH  23  26
ATOM     26  C   UNL A   1      31.291  27.208  23.406  1.00  0.00     0.066 A 
ATOM     27  C   UNL A   1      30.338  28.047  22.841  1.00  0.00     0.097 A 
ATOM     28  C   UNL A   1      31.429  27.758  24.731  1.00  0.00     0.012 A 
ATOM     29  N   UNL A   1      30.750  29.295  23.269  1.00  0.00    -0.360 N 
ATOM     30  C   UNL A   1      31.228  29.134  24.553  1.00  0.00     0.046 A 
ATOM     31  C   UNL A   1      31.829  27.313  26.008  1.00  0.00     0.011 A 
ATOM     32  H   UNL A   1      30.710  30.135  22.756  1.00  0.00     0.166 HD
ATOM     33  C   UNL A   1      31.485  30.088  25.538  1.00  0.00     0.027 A 
ATOM     34  C   UNL A   1      31.968  28.250  27.047  1.00  0.00     0.001 A 
ATOM     35  C   UNL A   1      31.836  29.617  26.804  1.00  0.00     0.002 A 
ENDBRANCH  23  26
ENDBRANCH  20  22
ENDBRANCH  17  20
ENDBRANCH  14  17
ENDBRANCH   7   9
ENDBRANCH   6   7
ENDBRANCH   5   6
ENDBRANCH   4   5
ENDBRANCH   3   4
ENDBRANCH   2   3
ENDBRANCH   1   2
BRANCH   1  36
ATOM     36  O   UNL A   1      43.304  19.541  26.133  1.00  0.00    -0.377 OA
BRANCH  36  37
ATOM     37  C   UNL A   1      44.193  19.059  25.129  1.00  0.00     0.188 C 
BRANCH  37  38
ATOM     38  C   UNL A   1      45.223  19.982  24.436  1.00  0.00     0.188 C 
BRANCH  38  39
ATOM     39  O   UNL A   1      44.657  21.019  23.652  1.00  0.00    -0.376 OA
BRANCH  39  40
ATOM     40  C   UNL A   1      45.007  22.351  23.986  1.00  0.00     0.202 C 
BRANCH  40  41
ATOM     41  C   UNL A   1      44.997  22.655  25.488  1.00  0.00     0.261 C 
BRANCH  41  42
ATOM     42  O   UNL A   1      43.769  23.201  25.996  1.00  0.00    -0.460 OA
BRANCH  42  43
ATOM     43  C   UNL A   1      43.461  24.466  25.639  1.00  0.00     0.338 C 
ATOM     44  O   UNL A   1      43.203  24.880  24.519  1.00  0.00    -0.246 OA
BRANCH  43  45
ATOM     45  C   UNL A   1      43.307  25.253  26.876  1.00  0.00     0.060 A 
ATOM     46  C   UNL A   1      42.641  24.687  27.971  1.00  0.00     0.016 A 
ATOM     47  C   UNL A   1      43.835  26.544  26.954  1.00  0.00     0.016 A 
ATOM     48  C   UNL A   1      42.477  25.426  29.144  1.00  0.00     0.010 A 
ATOM     49  C   UNL A   1      43.650  27.290  28.119  1.00  0.00     0.010 A 
ATOM     50  C   UNL A   1      42.944  26.746  29.206  1.00  0.00    -0.014 A 
BRANCH  50  51
ATOM     51  C   UNL A   1      42.518  27.628  30.320  1.00  0.00     0.031 A 
ATOM     52  C   UNL A   1      41.268  28.443  30.138  1.00  0.00     0.074 A 
ATOM     53  C   UNL A   1      43.215  27.700  31.467  1.00  0.00     0.049 A 
ATOM     54  N   UNL A   1      40.726  29.329  30.935  1.00  0.00    -0.248 NA
ATOM     55  C   UNL A   1      40.531  28.231  28.881  1.00  0.00     0.031 C 
ATOM     56  C   UNL A   1      44.417  26.932  31.777  1.00  0.00     0.029 A 
ATOM     57  N   UNL A   1      43.009  28.474  32.583  1.00  0.00    -0.354 N 
ATOM     58  C   UNL A   1      39.591  29.781  30.275  1.00  0.00     0.074 A 
ATOM     59  C   UNL A   1      39.538  29.099  29.000  1.00  0.00     0.031 C 
ATOM     60  C   UNL A   1      44.853  27.283  33.000  1.00  0.00     0.029 A 
ATOM     61  C   UNL A   1      43.980  28.324  33.542  1.00  0.00     0.049 A 
ATOM     62  H   UNL A   1      42.239  29.079  32.685  1.00  0.00     0.167 HD
ATOM     63  C   UNL A   1      38.669  30.676  30.699  1.00  0.00     0.037 A 
ATOM     64  C   UNL A   1      44.153  28.975  34.710  1.00  0.00     0.037 A 
ATOM     65  C   UNL A   1      38.727  31.356  31.965  1.00  0.00     0.049 A 
ATOM     66  C   UNL A   1      43.157  30.032  35.123  1.00  0.00     0.074 A 
ATOM     67  C   UNL A   1      37.833  32.270  32.495  1.00  0.00     0.029 A 
ATOM     68  N   UNL A   1      39.743  31.202  32.897  1.00  0.00    -0.354 N 
ATOM     69  N   UNL A   1      42.069  30.432  34.510  1.00  0.00    -0.248 NA
ATOM     70  C   UNL A   1      43.415  30.726  36.393  1.00  0.00     0.031 C 
ATOM     71  C   UNL A   1      38.339  32.713  33.721  1.00  0.00     0.029 A 
ATOM     72  C   UNL A   1      39.514  32.028  33.985  1.00  0.00     0.049 A 
ATOM     73  H   UNL A   1      40.513  30.595  32.799  1.00  0.00     0.167 HD
ATOM     74  C   UNL A   1      41.498  31.397  35.332  1.00  0.00     0.074 A 
ATOM     75  C   UNL A   1      42.353  31.512  36.494  1.00  0.00     0.031 C 
ATOM     76  C   UNL A   1      40.368  32.123  35.141  1.00  0.00     0.037 A 
BRANCH  63  77
ATOM     77  C   UNL A   1      37.534  30.994  29.771  1.00  0.00     0.064 A 
ATOM     78  C   UNL A   1      37.463  32.215  29.084  1.00  0.00     0.173 A 
ATOM     79  C   UNL A   1      36.522  30.051  29.540  1.00  0.00     0.173 A 
ATOM     80  F   UNL A   1      38.396  33.159  29.283  1.00  0.00    -0.203 F 
ATOM     81  C   UNL A   1      36.406  32.489  28.220  1.00  0.00     0.198 A 
ATOM     82  C   UNL A   1      35.485  30.315  28.650  1.00  0.00     0.198 A 
ATOM     83  F   UNL A   1      36.544  28.866  30.170  1.00  0.00    -0.203 F 
ATOM     84  F   UNL A   1      36.332  33.681  27.611  1.00  0.00    -0.200 F 
ATOM     85  C   UNL A   1      35.424  31.536  27.996  1.00  0.00     0.200 A 
ATOM     86  F   UNL A   1      34.543  29.388  28.427  1.00  0.00    -0.200 F 
ATOM     87  F   UNL A   1      34.412  31.797  27.156  1.00  0.00    -0.200 F 
ENDBRANCH  63  77
BRANCH  64  88
ATOM     88  C   UNL A   1      45.326  28.667  35.573  1.00  0.00     0.064 A 
ATOM     89  C   UNL A   1      45.314  27.573  36.448  1.00  0.00     0.173 A 
ATOM     90  C   UNL A   1      46.466  29.485  35.569  1.00  0.00     0.173 A 
ATOM     91  F   UNL A   1      44.237  26.777  36.512  1.00  0.00    -0.203 F 
ATOM     92  C   UNL A   1      46.386  27.323  37.304  1.00  0.00     0.198 A 
ATOM     93  C   UNL A   1      47.551  29.215  36.402  1.00  0.00     0.198 A 
ATOM     94  F   UNL A   1      46.528  30.548  34.753  1.00  0.00    -0.203 F 
ATOM     95  F   UNL A   1      46.323  26.304  38.173  1.00  0.00    -0.200 F 
ATOM     96  C   UNL A   1      47.505  28.140  37.276  1.00  0.00     0.200 A 
ATOM     97  F   UNL A   1      48.634  30.002  36.363  1.00  0.00    -0.200 F 
ATOM     98  F   UNL A   1      48.534  27.901  38.100  1.00  0.00    -0.200 F 
ENDBRANCH  64  88
BRANCH  76  99
ATOM     99  C   UNL A   1      39.963  33.077  36.229  1.00  0.00     0.064 A 
ATOM    100  C   UNL A   1      40.530  34.354  36.342  1.00  0.00     0.173 A 
ATOM    101  C   UNL A   1      38.954  32.726  37.140  1.00  0.00     0.173 A 
ATOM    102  F   UNL A   1      41.507  34.736  35.505  1.00  0.00    -0.203 F 
ATOM    103  C   UNL A   1      40.122  35.234  37.342  1.00  0.00     0.198 A 
ATOM    104  C   UNL A   1      38.525  33.619  38.116  1.00  0.00     0.198 A 
ATOM    105  F   UNL A   1      38.371  31.519  37.071  1.00  0.00    -0.203 F 
ATOM    106  F   UNL A   1      40.712  36.432  37.459  1.00  0.00    -0.200 F 
ATOM    107  C   UNL A   1      39.114  34.870  38.221  1.00  0.00     0.200 A 
ATOM    108  F   UNL A   1      37.538  33.272  38.955  1.00  0.00    -0.200 F 
ATOM    109  F   UNL A   1      38.714  35.722  39.175  1.00  0.00    -0.200 F 
ENDBRANCH  76  99
ENDBRANCH  50  51
ENDBRANCH  43  45
ENDBRANCH  42  43
ENDBRANCH  41  42
ENDBRANCH  40  41
ENDBRANCH  39  40
ENDBRANCH  38  39
ENDBRANCH  37  38
ENDBRANCH  36  37
ENDBRANCH   1  36
TORSDOF 24
ENDMDL
