MODEL 1
REMARK VINA RESULT:     -11.1      0.000      0.000
REMARK SMILES Cc1ccc2c(=O)c3cccc(CC(=O)OCCOCCOCCOCCOC(=O)c4ccc(-c5c6nc(c(-c7c(F)c(F)c(F)c(F)c7F)c7ccc([nH]7)c(-c7c(F)c(F)c(F)c(F)c7F)c7nc(c(-c8c(F)c(F)c(F)c(F)c8F)c8ccc5[nH]8)C=C7)C=C6)cc4)c3oc2c1C
REMARK SMILES IDX 23 1 22 2 21 3 20 4 19 5 18 6 17 7 16 8 14 9 15 10 13 11
REMARK SMILES IDX 12 12 1 13 2 14 3 15 97 16 4 17 96 18 98 19 5 20 95 21 6 22
REMARK SMILES IDX 94 23 7 24 8 25 9 26 11 27 10 28 24 29 25 30 26 31 27 32
REMARK SMILES IDX 28 33 29 34 30 35 31 36 32 37 93 38 33 39 92 40 34 41 35 42
REMARK SMILES IDX 36 43 86 44 37 45 91 46 85 47 87 48 38 49 90 50 84 51 83 52
REMARK SMILES IDX 39 54 71 55 51 56 70 57 52 58 55 59 69 60 88 61 53 62 54 63
REMARK SMILES IDX 68 65 89 66 56 67 40 68 41 69 49 70 42 71 43 72 47 73 50 74
REMARK SMILES IDX 44 75 45 76 48 77 46 78 72 79 73 80 81 81 74 82 75 83 79 84
REMARK SMILES IDX 82 85 76 86 77 87 80 88 78 89 57 90 58 91 66 92 59 93 60 94
REMARK SMILES IDX 64 95 67 96 61 97 62 98 65 99 63 100
REMARK H PARENT 87 53 55 64
REMARK Flexibility Score: inf
ROOT
ATOM      1  C   UNL A   1      36.658  22.513  23.823  1.00  0.00     0.188 C 
ENDROOT
BRANCH   1   2
ATOM      2  O   UNL A   1      35.510  23.291  24.062  1.00  0.00    -0.377 OA
BRANCH   2   3
ATOM      3  C   UNL A   1      34.554  23.346  23.015  1.00  0.00     0.188 C 
BRANCH   3   4
ATOM      4  C   UNL A   1      33.091  22.872  23.184  1.00  0.00     0.188 C 
BRANCH   4   5
ATOM      5  O   UNL A   1      32.919  21.474  23.287  1.00  0.00    -0.376 OA
BRANCH   5   6
ATOM      6  C   UNL A   1      32.455  20.863  24.475  1.00  0.00     0.202 C 
BRANCH   6   7
ATOM      7  C   UNL A   1      31.984  21.651  25.713  1.00  0.00     0.261 C 
BRANCH   7   8
ATOM      8  O   UNL A   1      30.701  22.294  25.614  1.00  0.00    -0.463 OA
BRANCH   8   9
ATOM      9  C   UNL A   1      30.322  23.150  26.586  1.00  0.00     0.310 C 
ATOM     10  O   UNL A   1      30.146  22.806  27.751  1.00  0.00    -0.252 OA
BRANCH   9  11
ATOM     11  C   UNL A   1      30.205  24.605  26.142  1.00  0.00     0.162 C 
BRANCH  11  12
ATOM     12  C   UNL A   1      31.415  25.390  25.641  1.00  0.00     0.007 A 
ATOM     13  C   UNL A   1      27.457  30.473  22.255  1.00  0.00     0.045 C 
ATOM     14  C   UNL A   1      28.735  29.670  22.331  1.00  0.00    -0.044 A 
ATOM     15  C   UNL A   1      29.894  30.227  21.772  1.00  0.00     0.005 A 
ATOM     16  C   UNL A   1      28.807  28.425  23.021  1.00  0.00    -0.005 A 
ATOM     17  C   UNL A   1      31.122  29.598  21.935  1.00  0.00     0.016 A 
ATOM     18  C   UNL A   1      30.067  27.815  23.230  1.00  0.00     0.141 A 
ATOM     19  C   UNL A   1      27.545  27.824  23.582  1.00  0.00     0.049 C 
ATOM     20  C   UNL A   1      31.202  28.419  22.684  1.00  0.00     0.066 A 
ATOM     21  O   UNL A   1      30.143  26.662  24.008  1.00  0.00    -0.455 OA
ATOM     22  C   UNL A   1      32.521  27.881  23.018  1.00  0.00     0.200 A 
ATOM     23  C   UNL A   1      31.371  26.300  24.549  1.00  0.00     0.142 A 
ATOM     24  O   UNL A   1      33.539  28.306  22.486  1.00  0.00    -0.288 OA
ATOM     25  C   UNL A   1      32.566  26.880  24.089  1.00  0.00     0.066 A 
ATOM     26  C   UNL A   1      33.796  26.594  24.688  1.00  0.00     0.016 A 
ATOM     27  C   UNL A   1      32.668  25.131  26.241  1.00  0.00     0.008 A 
ATOM     28  C   UNL A   1      33.842  25.728  25.771  1.00  0.00     0.001 A 
ENDBRANCH  11  12
ENDBRANCH   9  11
ENDBRANCH   8   9
ENDBRANCH   7   8
ENDBRANCH   6   7
ENDBRANCH   5   6
ENDBRANCH   4   5
ENDBRANCH   3   4
ENDBRANCH   2   3
ENDBRANCH   1   2
BRANCH   1  29
ATOM     29  C   UNL A   1      36.661  21.242  24.681  1.00  0.00     0.188 C 
BRANCH  29  30
ATOM     30  O   UNL A   1      37.549  21.316  25.784  1.00  0.00    -0.376 OA
BRANCH  30  31
ATOM     31  C   UNL A   1      38.940  21.106  25.565  1.00  0.00     0.202 C 
BRANCH  31  32
ATOM     32  C   UNL A   1      39.625  19.796  25.984  1.00  0.00     0.261 C 
BRANCH  32  33
ATOM     33  O   UNL A   1      40.870  19.483  25.366  1.00  0.00    -0.460 OA
BRANCH  33  34
ATOM     34  C   UNL A   1      41.965  19.344  26.129  1.00  0.00     0.338 C 
ATOM     35  O   UNL A   1      42.635  18.344  26.313  1.00  0.00    -0.246 OA
BRANCH  34  36
ATOM     36  C   UNL A   1      42.337  20.726  26.479  1.00  0.00     0.060 A 
ATOM     37  C   UNL A   1      42.314  21.138  27.816  1.00  0.00     0.016 A 
ATOM     38  C   UNL A   1      42.548  21.645  25.444  1.00  0.00     0.016 A 
ATOM     39  C   UNL A   1      42.501  22.480  28.120  1.00  0.00     0.010 A 
ATOM     40  C   UNL A   1      42.716  22.992  25.746  1.00  0.00     0.010 A 
ATOM     41  C   UNL A   1      42.714  23.406  27.085  1.00  0.00    -0.014 A 
BRANCH  41  42
ATOM     42  C   UNL A   1      43.183  24.762  27.420  1.00  0.00     0.031 A 
ATOM     43  C   UNL A   1      44.587  25.200  27.183  1.00  0.00     0.074 A 
ATOM     44  C   UNL A   1      42.272  25.579  27.978  1.00  0.00     0.049 A 
ATOM     45  N   UNL A   1      45.114  26.382  27.368  1.00  0.00    -0.248 NA
ATOM     46  C   UNL A   1      45.527  24.185  26.688  1.00  0.00     0.031 C 
ATOM     47  C   UNL A   1      40.888  25.198  28.269  1.00  0.00     0.029 A 
ATOM     48  N   UNL A   1      42.357  26.879  28.384  1.00  0.00    -0.354 N 
ATOM     49  C   UNL A   1      46.442  26.266  26.989  1.00  0.00     0.074 A 
ATOM     50  C   UNL A   1      46.656  24.881  26.621  1.00  0.00     0.031 C 
ATOM     51  C   UNL A   1      40.240  26.256  28.770  1.00  0.00     0.029 A 
ATOM     52  C   UNL A   1      41.170  27.374  28.862  1.00  0.00     0.049 A 
ATOM     53  H   UNL A   1      43.185  27.409  28.338  1.00  0.00     0.167 HD
ATOM     54  C   UNL A   1      47.379  27.245  26.940  1.00  0.00     0.037 A 
ATOM     55  C   UNL A   1      40.866  28.602  29.314  1.00  0.00     0.037 A 
ATOM     56  C   UNL A   1      47.132  28.607  27.345  1.00  0.00     0.049 A 
ATOM     57  C   UNL A   1      41.937  29.649  29.300  1.00  0.00     0.074 A 
ATOM     58  C   UNL A   1      47.995  29.689  27.313  1.00  0.00     0.029 A 
ATOM     59  N   UNL A   1      45.933  29.070  27.876  1.00  0.00    -0.354 N 
ATOM     60  N   UNL A   1      43.169  29.559  28.863  1.00  0.00    -0.248 NA
ATOM     61  C   UNL A   1      41.581  30.965  29.840  1.00  0.00     0.031 C 
ATOM     62  C   UNL A   1      47.338  30.786  27.879  1.00  0.00     0.029 A 
ATOM     63  C   UNL A   1      46.046  30.410  28.212  1.00  0.00     0.049 A 
ATOM     64  H   UNL A   1      45.122  28.525  27.996  1.00  0.00     0.167 HD
ATOM     65  C   UNL A   1      43.738  30.806  29.065  1.00  0.00     0.074 A 
ATOM     66  C   UNL A   1      42.705  31.643  29.644  1.00  0.00     0.031 C 
ATOM     67  C   UNL A   1      45.004  31.217  28.802  1.00  0.00     0.037 A 
BRANCH  54  68
ATOM     68  C   UNL A   1      48.745  26.879  26.430  1.00  0.00     0.064 A 
ATOM     69  C   UNL A   1      49.724  26.345  27.282  1.00  0.00     0.173 A 
ATOM     70  C   UNL A   1      49.069  27.019  25.072  1.00  0.00     0.173 A 
ATOM     71  F   UNL A   1      49.470  26.191  28.592  1.00  0.00    -0.203 F 
ATOM     72  C   UNL A   1      50.983  25.996  26.802  1.00  0.00     0.198 A 
ATOM     73  C   UNL A   1      50.320  26.639  24.589  1.00  0.00     0.198 A 
ATOM     74  F   UNL A   1      48.171  27.515  24.209  1.00  0.00    -0.203 F 
ATOM     75  F   UNL A   1      51.918  25.536  27.647  1.00  0.00    -0.200 F 
ATOM     76  C   UNL A   1      51.279  26.137  25.455  1.00  0.00     0.200 A 
ATOM     77  F   UNL A   1      50.599  26.762  23.284  1.00  0.00    -0.200 F 
ATOM     78  F   UNL A   1      52.490  25.796  24.994  1.00  0.00    -0.200 F 
ENDBRANCH  54  68
BRANCH  55  79
ATOM     79  C   UNL A   1      39.474  28.885  29.738  1.00  0.00     0.064 A 
ATOM     80  C   UNL A   1      39.078  28.675  31.065  1.00  0.00     0.173 A 
ATOM     81  C   UNL A   1      38.545  29.470  28.862  1.00  0.00     0.173 A 
ATOM     82  F   UNL A   1      39.932  28.116  31.936  1.00  0.00    -0.203 F 
ATOM     83  C   UNL A   1      37.808  29.041  31.502  1.00  0.00     0.198 A 
ATOM     84  C   UNL A   1      37.285  29.860  29.307  1.00  0.00     0.198 A 
ATOM     85  F   UNL A   1      38.885  29.710  27.587  1.00  0.00    -0.203 F 
ATOM     86  F   UNL A   1      37.450  28.820  32.773  1.00  0.00    -0.200 F 
ATOM     87  C   UNL A   1      36.917  29.645  30.626  1.00  0.00     0.200 A 
ATOM     88  F   UNL A   1      36.438  30.467  28.465  1.00  0.00    -0.200 F 
ATOM     89  F   UNL A   1      35.706  30.022  31.056  1.00  0.00    -0.200 F 
ENDBRANCH  55  79
BRANCH  67  90
ATOM     90  C   UNL A   1      45.351  32.633  29.155  1.00  0.00     0.064 A 
ATOM     91  C   UNL A   1      45.964  32.946  30.376  1.00  0.00     0.173 A 
ATOM     92  C   UNL A   1      45.157  33.669  28.229  1.00  0.00     0.173 A 
ATOM     93  F   UNL A   1      46.155  31.994  31.301  1.00  0.00    -0.203 F 
ATOM     94  C   UNL A   1      46.369  34.247  30.659  1.00  0.00     0.198 A 
ATOM     95  C   UNL A   1      45.592  34.962  28.503  1.00  0.00     0.198 A 
ATOM     96  F   UNL A   1      44.578  33.419  27.045  1.00  0.00    -0.203 F 
ATOM     97  F   UNL A   1      46.930  34.529  31.843  1.00  0.00    -0.200 F 
ATOM     98  C   UNL A   1      46.196  35.250  29.717  1.00  0.00     0.200 A 
ATOM     99  F   UNL A   1      45.440  35.926  27.585  1.00  0.00    -0.200 F 
ATOM    100  F   UNL A   1      46.613  36.496  29.979  1.00  0.00    -0.200 F 
ENDBRANCH  67  90
ENDBRANCH  41  42
ENDBRANCH  34  36
ENDBRANCH  33  34
ENDBRANCH  32  33
ENDBRANCH  31  32
ENDBRANCH  30  31
ENDBRANCH  29  30
ENDBRANCH   1  29
TORSDOF 21
ENDMDL
MODEL 2
REMARK VINA RESULT:     -11.0      2.004      3.493
REMARK SMILES Cc1ccc2c(=O)c3cccc(CC(=O)OCCOCCOCCOCCOC(=O)c4ccc(-c5c6nc(c(-c7c(F)c(F)c(F)c(F)c7F)c7ccc([nH]7)c(-c7c(F)c(F)c(F)c(F)c7F)c7nc(c(-c8c(F)c(F)c(F)c(F)c8F)c8ccc5[nH]8)C=C7)C=C6)cc4)c3oc2c1C
REMARK SMILES IDX 23 1 22 2 21 3 20 4 19 5 18 6 17 7 16 8 14 9 15 10 13 11
REMARK SMILES IDX 12 12 1 13 2 14 3 15 97 16 4 17 96 18 98 19 5 20 95 21 6 22
REMARK SMILES IDX 94 23 7 24 8 25 9 26 11 27 10 28 24 29 25 30 26 31 27 32
REMARK SMILES IDX 28 33 29 34 30 35 31 36 32 37 93 38 33 39 92 40 34 41 35 42
REMARK SMILES IDX 36 43 86 44 37 45 91 46 85 47 87 48 38 49 90 50 84 51 83 52
REMARK SMILES IDX 39 54 71 55 51 56 70 57 52 58 55 59 69 60 88 61 53 62 54 63
REMARK SMILES IDX 68 65 89 66 56 67 40 68 41 69 49 70 42 71 43 72 47 73 50 74
REMARK SMILES IDX 44 75 45 76 48 77 46 78 72 79 73 80 81 81 74 82 75 83 79 84
REMARK SMILES IDX 82 85 76 86 77 87 80 88 78 89 57 90 58 91 66 92 59 93 60 94
REMARK SMILES IDX 64 95 67 96 61 97 62 98 65 99 63 100
REMARK H PARENT 87 53 55 64
REMARK Flexibility Score: inf
ROOT
ATOM      1  C   UNL A   1      35.805  22.976  23.133  1.00  0.00     0.188 C 
ENDROOT
BRANCH   1   2
ATOM      2  O   UNL A   1      34.718  23.864  23.022  1.00  0.00    -0.377 OA
BRANCH   2   3
ATOM      3  C   UNL A   1      33.560  23.367  22.371  1.00  0.00     0.188 C 
BRANCH   3   4
ATOM      4  C   UNL A   1      32.306  22.881  23.136  1.00  0.00     0.188 C 
BRANCH   4   5
ATOM      5  O   UNL A   1      32.288  23.183  24.516  1.00  0.00    -0.376 OA
BRANCH   5   6
ATOM      6  C   UNL A   1      31.078  23.379  25.223  1.00  0.00     0.202 C 
BRANCH   6   7
ATOM      7  C   UNL A   1      30.610  24.748  25.752  1.00  0.00     0.261 C 
BRANCH   7   8
ATOM      8  O   UNL A   1      30.979  25.899  24.972  1.00  0.00    -0.463 OA
BRANCH   8   9
ATOM      9  C   UNL A   1      30.053  26.475  24.178  1.00  0.00     0.310 C 
ATOM     10  O   UNL A   1      28.871  26.148  24.180  1.00  0.00    -0.252 OA
BRANCH   9  11
ATOM     11  C   UNL A   1      30.576  27.629  23.327  1.00  0.00     0.162 C 
BRANCH  11  12
ATOM     12  C   UNL A   1      30.411  29.084  23.762  1.00  0.00     0.007 A 
ATOM     13  C   UNL A   1      36.543  29.221  27.679  1.00  0.00     0.045 C 
ATOM     14  C   UNL A   1      35.137  29.731  27.464  1.00  0.00    -0.044 A 
ATOM     15  C   UNL A   1      34.820  31.007  27.950  1.00  0.00     0.005 A 
ATOM     16  C   UNL A   1      34.171  28.995  26.716  1.00  0.00    -0.005 A 
ATOM     17  C   UNL A   1      33.588  31.581  27.660  1.00  0.00     0.016 A 
ATOM     18  C   UNL A   1      32.939  29.605  26.379  1.00  0.00     0.141 A 
ATOM     19  C   UNL A   1      34.517  27.611  26.235  1.00  0.00     0.049 C 
ATOM     20  C   UNL A   1      32.676  30.891  26.855  1.00  0.00     0.066 A 
ATOM     21  O   UNL A   1      32.052  28.926  25.547  1.00  0.00    -0.455 OA
ATOM     22  C   UNL A   1      31.475  31.586  26.392  1.00  0.00     0.200 A 
ATOM     23  C   UNL A   1      31.061  29.650  24.892  1.00  0.00     0.142 A 
ATOM     24  O   UNL A   1      31.142  32.669  26.857  1.00  0.00    -0.288 OA
ATOM     25  C   UNL A   1      30.749  30.965  25.278  1.00  0.00     0.066 A 
ATOM     26  C   UNL A   1      29.824  31.736  24.568  1.00  0.00     0.016 A 
ATOM     27  C   UNL A   1      29.493  29.889  23.050  1.00  0.00     0.008 A 
ATOM     28  C   UNL A   1      29.206  31.198  23.448  1.00  0.00     0.001 A 
ENDBRANCH  11  12
ENDBRANCH   9  11
ENDBRANCH   8   9
ENDBRANCH   7   8
ENDBRANCH   6   7
ENDBRANCH   5   6
ENDBRANCH   4   5
ENDBRANCH   3   4
ENDBRANCH   2   3
ENDBRANCH   1   2
BRANCH   1  29
ATOM     29  C   UNL A   1      36.516  23.129  24.483  1.00  0.00     0.188 C 
BRANCH  29  30
ATOM     30  O   UNL A   1      36.281  22.043  25.363  1.00  0.00    -0.376 OA
BRANCH  30  31
ATOM     31  C   UNL A   1      36.748  20.747  25.000  1.00  0.00     0.202 C 
BRANCH  31  32
ATOM     32  C   UNL A   1      38.173  20.288  25.344  1.00  0.00     0.261 C 
BRANCH  32  33
ATOM     33  O   UNL A   1      39.116  21.293  25.705  1.00  0.00    -0.460 OA
BRANCH  33  34
ATOM     34  C   UNL A   1      39.966  21.064  26.718  1.00  0.00     0.338 C 
ATOM     35  O   UNL A   1      40.350  19.994  27.152  1.00  0.00    -0.246 OA
BRANCH  34  36
ATOM     36  C   UNL A   1      40.540  22.388  27.012  1.00  0.00     0.060 A 
ATOM     37  C   UNL A   1      41.476  22.530  28.042  1.00  0.00     0.016 A 
ATOM     38  C   UNL A   1      40.011  23.507  26.358  1.00  0.00     0.016 A 
ATOM     39  C   UNL A   1      41.885  23.801  28.422  1.00  0.00     0.010 A 
ATOM     40  C   UNL A   1      40.405  24.781  26.752  1.00  0.00     0.010 A 
ATOM     41  C   UNL A   1      41.358  24.928  27.769  1.00  0.00    -0.014 A 
BRANCH  41  42
ATOM     42  C   UNL A   1      41.990  26.241  27.979  1.00  0.00     0.031 A 
ATOM     43  C   UNL A   1      43.346  26.565  27.456  1.00  0.00     0.074 A 
ATOM     44  C   UNL A   1      41.280  27.128  28.698  1.00  0.00     0.049 A 
ATOM     45  N   UNL A   1      43.991  27.701  27.510  1.00  0.00    -0.248 NA
ATOM     46  C   UNL A   1      44.083  25.479  26.796  1.00  0.00     0.031 C 
ATOM     47  C   UNL A   1      39.958  26.860  29.270  1.00  0.00     0.029 A 
ATOM     48  N   UNL A   1      41.548  28.418  29.057  1.00  0.00    -0.354 N 
ATOM     49  C   UNL A   1      45.201  27.480  26.871  1.00  0.00     0.074 A 
ATOM     50  C   UNL A   1      45.226  26.082  26.489  1.00  0.00     0.031 C 
ATOM     51  C   UNL A   1      39.511  27.966  29.876  1.00  0.00     0.029 A 
ATOM     52  C   UNL A   1      40.525  29.006  29.758  1.00  0.00     0.049 A 
ATOM     53  H   UNL A   1      42.388  28.880  28.835  1.00  0.00     0.167 HD
ATOM     54  C   UNL A   1      46.182  28.380  26.617  1.00  0.00     0.037 A 
ATOM     55  C   UNL A   1      40.417  30.254  30.243  1.00  0.00     0.037 A 
ATOM     56  C   UNL A   1      46.131  29.758  27.042  1.00  0.00     0.049 A 
ATOM     57  C   UNL A   1      41.542  31.212  29.995  1.00  0.00     0.074 A 
ATOM     58  C   UNL A   1      47.051  30.766  26.817  1.00  0.00     0.029 A 
ATOM     59  N   UNL A   1      45.106  30.315  27.798  1.00  0.00    -0.354 N 
ATOM     60  N   UNL A   1      42.648  31.023  29.318  1.00  0.00    -0.248 NA
ATOM     61  C   UNL A   1      41.408  32.553  30.575  1.00  0.00     0.031 C 
ATOM     62  C   UNL A   1      46.612  31.913  27.487  1.00  0.00     0.029 A 
ATOM     63  C   UNL A   1      45.390  31.641  28.083  1.00  0.00     0.049 A 
ATOM     64  H   UNL A   1      44.295  29.837  28.089  1.00  0.00     0.167 HD
ATOM     65  C   UNL A   1      43.343  32.221  29.381  1.00  0.00     0.074 A 
ATOM     66  C   UNL A   1      42.518  33.138  30.144  1.00  0.00     0.031 C 
ATOM     67  C   UNL A   1      44.556  32.529  28.859  1.00  0.00     0.037 A 
BRANCH  54  68
ATOM     68  C   UNL A   1      47.383  27.907  25.845  1.00  0.00     0.064 A 
ATOM     69  C   UNL A   1      47.369  27.834  24.444  1.00  0.00     0.173 A 
ATOM     70  C   UNL A   1      48.574  27.565  26.504  1.00  0.00     0.173 A 
ATOM     71  F   UNL A   1      46.255  28.146  23.762  1.00  0.00    -0.203 F 
ATOM     72  C   UNL A   1      48.488  27.408  23.734  1.00  0.00     0.198 A 
ATOM     73  C   UNL A   1      49.702  27.170  25.788  1.00  0.00     0.198 A 
ATOM     74  F   UNL A   1      48.650  27.625  27.841  1.00  0.00    -0.203 F 
ATOM     75  F   UNL A   1      48.431  27.298  22.398  1.00  0.00    -0.200 F 
ATOM     76  C   UNL A   1      49.656  27.082  24.405  1.00  0.00     0.200 A 
ATOM     77  F   UNL A   1      50.835  26.869  26.438  1.00  0.00    -0.200 F 
ATOM     78  F   UNL A   1      50.734  26.677  23.720  1.00  0.00    -0.200 F 
ENDBRANCH  54  68
BRANCH  55  79
ATOM     79  C   UNL A   1      39.168  30.648  30.937  1.00  0.00     0.064 A 
ATOM     80  C   UNL A   1      38.994  30.373  32.299  1.00  0.00     0.173 A 
ATOM     81  C   UNL A   1      38.174  31.398  30.288  1.00  0.00     0.173 A 
ATOM     82  F   UNL A   1      39.916  29.657  32.959  1.00  0.00    -0.203 F 
ATOM     83  C   UNL A   1      37.876  30.835  32.988  1.00  0.00     0.198 A 
ATOM     84  C   UNL A   1      37.070  31.882  30.984  1.00  0.00     0.198 A 
ATOM     85  F   UNL A   1      38.306  31.704  28.989  1.00  0.00    -0.203 F 
ATOM     86  F   UNL A   1      37.727  30.550  34.288  1.00  0.00    -0.200 F 
ATOM     87  C   UNL A   1      36.920  31.600  32.333  1.00  0.00     0.200 A 
ATOM     88  F   UNL A   1      36.164  32.642  30.354  1.00  0.00    -0.200 F 
ATOM     89  F   UNL A   1      35.860  32.067  33.004  1.00  0.00    -0.200 F 
ENDBRANCH  55  79
BRANCH  67  90
ATOM     90  C   UNL A   1      45.078  33.912  29.111  1.00  0.00     0.064 A 
ATOM     91  C   UNL A   1      45.922  34.182  30.198  1.00  0.00     0.173 A 
ATOM     92  C   UNL A   1      44.811  34.954  28.209  1.00  0.00     0.173 A 
ATOM     93  F   UNL A   1      46.192  33.225  31.098  1.00  0.00    -0.203 F 
ATOM     94  C   UNL A   1      46.478  35.446  30.374  1.00  0.00     0.198 A 
ATOM     95  C   UNL A   1      45.395  36.206  28.371  1.00  0.00     0.198 A 
ATOM     96  F   UNL A   1      44.014  34.744  27.151  1.00  0.00    -0.203 F 
ATOM     97  F   UNL A   1      47.261  35.688  31.434  1.00  0.00    -0.200 F 
ATOM     98  C   UNL A   1      46.226  36.452  29.453  1.00  0.00     0.200 A 
ATOM     99  F   UNL A   1      45.165  37.171  27.470  1.00  0.00    -0.200 F 
ATOM    100  F   UNL A   1      46.787  37.659  29.608  1.00  0.00    -0.200 F 
ENDBRANCH  67  90
ENDBRANCH  41  42
ENDBRANCH  34  36
ENDBRANCH  33  34
ENDBRANCH  32  33
ENDBRANCH  31  32
ENDBRANCH  30  31
ENDBRANCH  29  30
ENDBRANCH   1  29
TORSDOF 21
ENDMDL
MODEL 3
REMARK VINA RESULT:     -10.9      2.018      7.740
REMARK SMILES Cc1ccc2c(=O)c3cccc(CC(=O)OCCOCCOCCOCCOC(=O)c4ccc(-c5c6nc(c(-c7c(F)c(F)c(F)c(F)c7F)c7ccc([nH]7)c(-c7c(F)c(F)c(F)c(F)c7F)c7nc(c(-c8c(F)c(F)c(F)c(F)c8F)c8ccc5[nH]8)C=C7)C=C6)cc4)c3oc2c1C
REMARK SMILES IDX 23 1 22 2 21 3 20 4 19 5 18 6 17 7 16 8 14 9 15 10 13 11
REMARK SMILES IDX 12 12 1 13 2 14 3 15 97 16 4 17 96 18 98 19 5 20 95 21 6 22
REMARK SMILES IDX 94 23 7 24 8 25 9 26 11 27 10 28 24 29 25 30 26 31 27 32
REMARK SMILES IDX 28 33 29 34 30 35 31 36 32 37 93 38 33 39 92 40 34 41 35 42
REMARK SMILES IDX 36 43 86 44 37 45 91 46 85 47 87 48 38 49 90 50 84 51 83 52
REMARK SMILES IDX 39 54 71 55 51 56 70 57 52 58 55 59 69 60 88 61 53 62 54 63
REMARK SMILES IDX 68 65 89 66 56 67 40 68 41 69 49 70 42 71 43 72 47 73 50 74
REMARK SMILES IDX 44 75 45 76 48 77 46 78 72 79 73 80 81 81 74 82 75 83 79 84
REMARK SMILES IDX 82 85 76 86 77 87 80 88 78 89 57 90 58 91 66 92 59 93 60 94
REMARK SMILES IDX 64 95 67 96 61 97 62 98 65 99 63 100
REMARK H PARENT 87 53 55 64
REMARK Flexibility Score: inf
ROOT
ATOM      1  C   UNL A   1      36.639  22.388  23.729  1.00  0.00     0.188 C 
ENDROOT
BRANCH   1   2
ATOM      2  O   UNL A   1      35.290  22.790  23.763  1.00  0.00    -0.377 OA
BRANCH   2   3
ATOM      3  C   UNL A   1      34.365  21.856  24.295  1.00  0.00     0.188 C 
BRANCH   3   4
ATOM      4  C   UNL A   1      33.284  22.238  25.334  1.00  0.00     0.188 C 
BRANCH   4   5
ATOM      5  O   UNL A   1      32.952  23.610  25.380  1.00  0.00    -0.376 OA
BRANCH   5   6
ATOM      6  C   UNL A   1      31.950  24.108  26.245  1.00  0.00     0.202 C 
BRANCH   6   7
ATOM      7  C   UNL A   1      30.717  24.896  25.761  1.00  0.00     0.261 C 
BRANCH   7   8
ATOM      8  O   UNL A   1      30.976  26.114  25.041  1.00  0.00    -0.463 OA
BRANCH   8   9
ATOM      9  C   UNL A   1      30.015  26.617  24.239  1.00  0.00     0.310 C 
ATOM     10  O   UNL A   1      28.849  26.236  24.269  1.00  0.00    -0.252 OA
BRANCH   9  11
ATOM     11  C   UNL A   1      30.472  27.761  23.338  1.00  0.00     0.162 C 
BRANCH  11  12
ATOM     12  C   UNL A   1      30.343  29.220  23.767  1.00  0.00     0.007 A 
ATOM     13  C   UNL A   1      36.487  29.230  27.668  1.00  0.00     0.045 C 
ATOM     14  C   UNL A   1      35.092  29.772  27.455  1.00  0.00    -0.044 A 
ATOM     15  C   UNL A   1      34.806  31.056  27.936  1.00  0.00     0.005 A 
ATOM     16  C   UNL A   1      34.108  29.056  26.712  1.00  0.00    -0.005 A 
ATOM     17  C   UNL A   1      33.587  31.658  27.648  1.00  0.00     0.016 A 
ATOM     18  C   UNL A   1      32.889  29.692  26.376  1.00  0.00     0.141 A 
ATOM     19  C   UNL A   1      34.420  27.662  26.235  1.00  0.00     0.049 C 
ATOM     20  C   UNL A   1      32.657  30.986  26.848  1.00  0.00     0.066 A 
ATOM     21  O   UNL A   1      31.984  29.031  25.549  1.00  0.00    -0.455 OA
ATOM     22  C   UNL A   1      31.471  31.707  26.385  1.00  0.00     0.200 A 
ATOM     23  C   UNL A   1      31.009  29.775  24.894  1.00  0.00     0.142 A 
ATOM     24  O   UNL A   1      31.165  32.799  26.846  1.00  0.00    -0.288 OA
ATOM     25  C   UNL A   1      30.728  31.099  25.275  1.00  0.00     0.066 A 
ATOM     26  C   UNL A   1      29.820  31.888  24.565  1.00  0.00     0.016 A 
ATOM     27  C   UNL A   1      29.442  30.043  23.055  1.00  0.00     0.008 A 
ATOM     28  C   UNL A   1      29.186  31.360  23.448  1.00  0.00     0.001 A 
ENDBRANCH  11  12
ENDBRANCH   9  11
ENDBRANCH   8   9
ENDBRANCH   7   8
ENDBRANCH   6   7
ENDBRANCH   5   6
ENDBRANCH   4   5
ENDBRANCH   3   4
ENDBRANCH   2   3
ENDBRANCH   1   2
BRANCH   1  29
ATOM     29  C   UNL A   1      37.134  21.973  25.119  1.00  0.00     0.188 C 
BRANCH  29  30
ATOM     30  O   UNL A   1      37.043  20.577  25.350  1.00  0.00    -0.376 OA
BRANCH  30  31
ATOM     31  C   UNL A   1      38.112  19.737  24.927  1.00  0.00     0.202 C 
BRANCH  31  32
ATOM     32  C   UNL A   1      39.424  19.652  25.723  1.00  0.00     0.261 C 
BRANCH  32  33
ATOM     33  O   UNL A   1      39.757  20.760  26.555  1.00  0.00    -0.460 OA
BRANCH  33  34
ATOM     34  C   UNL A   1      40.871  20.709  27.301  1.00  0.00     0.338 C 
ATOM     35  O   UNL A   1      41.539  19.734  27.593  1.00  0.00    -0.246 OA
BRANCH  34  36
ATOM     36  C   UNL A   1      41.260  22.120  27.463  1.00  0.00     0.060 A 
ATOM     37  C   UNL A   1      42.094  22.497  28.522  1.00  0.00     0.016 A 
ATOM     38  C   UNL A   1      40.652  23.080  26.646  1.00  0.00     0.016 A 
ATOM     39  C   UNL A   1      42.319  23.845  28.766  1.00  0.00     0.010 A 
ATOM     40  C   UNL A   1      40.862  24.431  26.902  1.00  0.00     0.010 A 
ATOM     41  C   UNL A   1      41.712  24.813  27.948  1.00  0.00    -0.014 A 
BRANCH  41  42
ATOM     42  C   UNL A   1      42.166  26.212  28.033  1.00  0.00     0.031 A 
ATOM     43  C   UNL A   1      41.374  27.266  28.725  1.00  0.00     0.074 A 
ATOM     44  C   UNL A   1      43.332  26.490  27.424  1.00  0.00     0.049 A 
ATOM     45  N   UNL A   1      41.688  28.518  28.932  1.00  0.00    -0.248 NA
ATOM     46  C   UNL A   1      40.055  26.876  29.243  1.00  0.00     0.031 C 
ATOM     47  C   UNL A   1      44.141  25.508  26.696  1.00  0.00     0.029 A 
ATOM     48  N   UNL A   1      44.043  27.651  27.326  1.00  0.00    -0.354 N 
ATOM     49  C   UNL A   1      40.621  29.065  29.627  1.00  0.00     0.074 A 
ATOM     50  C   UNL A   1      39.623  28.023  29.753  1.00  0.00     0.031 C 
ATOM     51  C   UNL A   1      45.259  26.099  26.261  1.00  0.00     0.029 A 
ATOM     52  C   UNL A   1      45.229  27.503  26.652  1.00  0.00     0.049 A 
ATOM     53  H   UNL A   1      43.738  28.508  27.700  1.00  0.00     0.167 HD
ATOM     54  C   UNL A   1      40.512  30.321  30.124  1.00  0.00     0.037 A 
ATOM     55  C   UNL A   1      46.192  28.402  26.390  1.00  0.00     0.037 A 
ATOM     56  C   UNL A   1      41.518  31.340  29.949  1.00  0.00     0.049 A 
ATOM     57  C   UNL A   1      46.019  29.798  26.904  1.00  0.00     0.074 A 
ATOM     58  C   UNL A   1      41.530  32.636  30.431  1.00  0.00     0.029 A 
ATOM     59  N   UNL A   1      42.689  31.178  29.216  1.00  0.00    -0.354 N 
ATOM     60  N   UNL A   1      45.047  30.291  27.633  1.00  0.00    -0.248 NA
ATOM     61  C   UNL A   1      47.069  30.763  26.563  1.00  0.00     0.031 C 
ATOM     62  C   UNL A   1      42.674  33.274  29.940  1.00  0.00     0.029 A 
ATOM     63  C   UNL A   1      43.409  32.362  29.199  1.00  0.00     0.049 A 
ATOM     64  H   UNL A   1      42.966  30.343  28.773  1.00  0.00     0.167 HD
ATOM     65  C   UNL A   1      45.367  31.622  27.848  1.00  0.00     0.074 A 
ATOM     66  C   UNL A   1      46.640  31.851  27.190  1.00  0.00     0.031 C 
ATOM     67  C   UNL A   1      44.668  32.567  28.523  1.00  0.00     0.037 A 
BRANCH  54  68
ATOM     68  C   UNL A   1      39.271  30.659  30.903  1.00  0.00     0.064 A 
ATOM     69  C   UNL A   1      38.191  31.326  30.303  1.00  0.00     0.173 A 
ATOM     70  C   UNL A   1      39.135  30.276  32.246  1.00  0.00     0.173 A 
ATOM     71  F   UNL A   1      38.267  31.719  29.021  1.00  0.00    -0.203 F 
ATOM     72  C   UNL A   1      37.039  31.625  31.025  1.00  0.00     0.198 A 
ATOM     73  C   UNL A   1      37.967  30.549  32.956  1.00  0.00     0.198 A 
ATOM     74  F   UNL A   1      40.130  29.627  32.869  1.00  0.00    -0.203 F 
ATOM     75  F   UNL A   1      36.043  32.308  30.443  1.00  0.00    -0.200 F 
ATOM     76  C   UNL A   1      36.924  31.230  32.349  1.00  0.00     0.200 A 
ATOM     77  F   UNL A   1      37.854  30.153  34.232  1.00  0.00    -0.200 F 
ATOM     78  F   UNL A   1      35.813  31.514  33.041  1.00  0.00    -0.200 F 
ENDBRANCH  54  68
BRANCH  55  79
ATOM     79  C   UNL A   1      47.409  27.959  25.668  1.00  0.00     0.064 A 
ATOM     80  C   UNL A   1      48.538  27.528  26.376  1.00  0.00     0.173 A 
ATOM     81  C   UNL A   1      47.434  27.856  24.268  1.00  0.00     0.173 A 
ATOM     82  F   UNL A   1      48.559  27.611  27.714  1.00  0.00    -0.203 F 
ATOM     83  C   UNL A   1      49.645  27.006  25.712  1.00  0.00     0.198 A 
ATOM     84  C   UNL A   1      48.531  27.309  23.608  1.00  0.00     0.198 A 
ATOM     85  F   UNL A   1      46.368  28.237  23.548  1.00  0.00    -0.203 F 
ATOM     86  F   UNL A   1      50.716  26.609  26.411  1.00  0.00    -0.200 F 
ATOM     87  C   UNL A   1      49.636  26.885  24.329  1.00  0.00     0.200 A 
ATOM     88  F   UNL A   1      48.506  27.170  22.275  1.00  0.00    -0.200 F 
ATOM     89  F   UNL A   1      50.690  26.357  23.695  1.00  0.00    -0.200 F 
ENDBRANCH  55  79
BRANCH  67  90
ATOM     90  C   UNL A   1      45.253  33.948  28.569  1.00  0.00     0.064 A 
ATOM     91  C   UNL A   1      44.869  34.930  27.644  1.00  0.00     0.173 A 
ATOM     92  C   UNL A   1      46.129  34.320  29.599  1.00  0.00     0.173 A 
ATOM     93  F   UNL A   1      44.047  34.619  26.631  1.00  0.00    -0.203 F 
ATOM     94  C   UNL A   1      45.343  36.234  27.749  1.00  0.00     0.198 A 
ATOM     95  C   UNL A   1      46.575  35.632  29.719  1.00  0.00     0.198 A 
ATOM     96  F   UNL A   1      46.522  33.417  30.511  1.00  0.00    -0.203 F 
ATOM     97  F   UNL A   1      44.983  37.150  26.839  1.00  0.00    -0.200 F 
ATOM     98  C   UNL A   1      46.184  36.587  28.794  1.00  0.00     0.200 A 
ATOM     99  F   UNL A   1      47.374  35.976  30.739  1.00  0.00    -0.200 F 
ATOM    100  F   UNL A   1      46.615  37.850  28.910  1.00  0.00    -0.200 F 
ENDBRANCH  67  90
ENDBRANCH  41  42
ENDBRANCH  34  36
ENDBRANCH  33  34
ENDBRANCH  32  33
ENDBRANCH  31  32
ENDBRANCH  30  31
ENDBRANCH  29  30
ENDBRANCH   1  29
TORSDOF 21
ENDMDL
