MODEL 1
REMARK VINA RESULT:     -10.8      0.000      0.000
REMARK SMILES CC[C@@](O)(C(=O)OCCOCCOCCOCCOC(=O)c1ccc(-c2c3nc(c(-c4c(F)c(F)c(F)c(F)c4F)c4ccc([nH]4)c(-c4c(F)c(F)c(F)c(F)c4F)c4nc(c(-c5c(F)c(F)c(F)c(F)c5F)c5ccc2[nH]5)C=C4)C=C3)cc1)[C@@H]1CCc2ccc(OC)cc21
REMARK SMILES IDX 13 1 12 2 11 3 10 4 9 5 8 6 7 7 5 8 6 9 3 10 2 11 1 12 4 13
REMARK SMILES IDX 85 15 86 16 95 17 87 18 88 19 94 20 89 21 91 22 90 23 92 24
REMARK SMILES IDX 93 25 14 26 15 27 16 28 17 29 18 30 19 31 20 32 21 33 22 34
REMARK SMILES IDX 23 35 84 36 24 37 83 38 25 39 26 40 27 41 77 42 28 43 82 44
REMARK SMILES IDX 76 45 78 46 29 47 81 48 75 49 74 50 30 52 62 53 42 54 61 55
REMARK SMILES IDX 43 56 46 57 60 58 79 59 44 60 45 61 59 63 80 64 47 65 31 66
REMARK SMILES IDX 32 67 40 68 33 69 34 70 38 71 41 72 35 73 36 74 39 75 37 76
REMARK SMILES IDX 63 77 64 78 72 79 65 80 66 81 70 82 73 83 67 84 68 85 71 86
REMARK SMILES IDX 69 87 48 88 49 89 57 90 50 91 51 92 55 93 58 94 52 95 53 96
REMARK SMILES IDX 56 97 54 98
REMARK H PARENT 4 14 78 51 46 62
REMARK Flexibility Score: inf
ROOT
ATOM      1  O   UNL A   1      41.413  21.301  26.681  1.00  0.00    -0.377 OA
ENDROOT
BRANCH   1   2
ATOM      2  C   UNL A   1      40.057  21.214  26.275  1.00  0.00     0.188 C 
BRANCH   2   3
ATOM      3  C   UNL A   1      39.240  22.499  26.371  1.00  0.00     0.188 C 
BRANCH   3   4
ATOM      4  O   UNL A   1      37.910  22.374  25.881  1.00  0.00    -0.376 OA
BRANCH   4   5
ATOM      5  C   UNL A   1      37.333  21.349  25.084  1.00  0.00     0.202 C 
BRANCH   5   6
ATOM      6  C   UNL A   1      35.800  21.281  24.829  1.00  0.00     0.261 C 
BRANCH   6   7
ATOM      7  O   UNL A   1      35.177  22.584  24.884  1.00  0.00    -0.461 OA
BRANCH   7   8
ATOM      8  C   UNL A   1      34.739  23.137  23.727  1.00  0.00     0.338 C 
ATOM      9  O   UNL A   1      35.506  23.327  22.787  1.00  0.00    -0.249 OA
BRANCH   8  10
ATOM     10  C   UNL A   1      33.182  23.562  23.749  1.00  0.00     0.168 C 
BRANCH  10  11
ATOM     11  C   UNL A   1      32.537  22.580  22.681  1.00  0.00     0.044 C 
ATOM     12  C   UNL A   1      32.246  21.136  23.044  1.00  0.00     0.007 C 
ENDBRANCH  10  11
BRANCH  10  13
ATOM     13  O   UNL A   1      32.723  23.296  25.074  1.00  0.00    -0.378 OA
ATOM     14  H   UNL A   1      32.891  24.068  25.637  1.00  0.00     0.212 HD
ENDBRANCH  10  13
BRANCH  10  15
ATOM     15  C   UNL A   1      32.846  25.087  23.348  1.00  0.00     0.063 C 
ATOM     16  C   UNL A   1      33.827  26.123  23.919  1.00  0.00     0.017 C 
ATOM     17  C   UNL A   1      31.631  25.916  23.868  1.00  0.00    -0.035 A 
ATOM     18  C   UNL A   1      33.446  26.331  25.372  1.00  0.00     0.036 C 
ATOM     19  C   UNL A   1      32.037  26.681  25.006  1.00  0.00    -0.044 A 
ATOM     20  C   UNL A   1      30.673  26.470  23.013  1.00  0.00     0.050 A 
ATOM     21  C   UNL A   1      31.551  27.955  25.287  1.00  0.00     0.008 A 
ATOM     22  C   UNL A   1      30.249  27.794  23.254  1.00  0.00     0.119 A 
ATOM     23  C   UNL A   1      30.692  28.526  24.366  1.00  0.00     0.047 A 
BRANCH  22  24
ATOM     24  O   UNL A   1      29.559  28.552  22.344  1.00  0.00    -0.497 OA
ATOM     25  C   UNL A   1      30.274  29.676  21.860  1.00  0.00     0.278 C 
ENDBRANCH  22  24
ENDBRANCH  10  15
ENDBRANCH   8  10
ENDBRANCH   7   8
ENDBRANCH   6   7
ENDBRANCH   5   6
ENDBRANCH   4   5
ENDBRANCH   3   4
ENDBRANCH   2   3
ENDBRANCH   1   2
BRANCH   1  26
ATOM     26  C   UNL A   1      42.019  20.084  27.084  1.00  0.00     0.188 C 
BRANCH  26  27
ATOM     27  C   UNL A   1      42.696  19.275  25.946  1.00  0.00     0.188 C 
BRANCH  27  28
ATOM     28  O   UNL A   1      43.467  19.879  24.910  1.00  0.00    -0.376 OA
BRANCH  28  29
ATOM     29  C   UNL A   1      44.472  20.829  25.204  1.00  0.00     0.202 C 
BRANCH  29  30
ATOM     30  C   UNL A   1      44.434  22.121  24.379  1.00  0.00     0.261 C 
BRANCH  30  31
ATOM     31  O   UNL A   1      43.604  23.164  24.908  1.00  0.00    -0.460 OA
BRANCH  31  32
ATOM     32  C   UNL A   1      44.200  24.371  25.058  1.00  0.00     0.338 C 
ATOM     33  O   UNL A   1      45.207  24.778  24.496  1.00  0.00    -0.246 OA
BRANCH  32  34
ATOM     34  C   UNL A   1      43.349  25.230  25.910  1.00  0.00     0.060 A 
ATOM     35  C   UNL A   1      43.583  26.614  25.908  1.00  0.00     0.016 A 
ATOM     36  C   UNL A   1      42.323  24.690  26.688  1.00  0.00     0.016 A 
ATOM     37  C   UNL A   1      42.818  27.458  26.706  1.00  0.00     0.010 A 
ATOM     38  C   UNL A   1      41.588  25.528  27.530  1.00  0.00     0.010 A 
ATOM     39  C   UNL A   1      41.867  26.906  27.572  1.00  0.00    -0.014 A 
BRANCH  39  40
ATOM     40  C   UNL A   1      41.411  27.723  28.717  1.00  0.00     0.031 A 
ATOM     41  C   UNL A   1      42.208  27.628  29.989  1.00  0.00     0.074 A 
ATOM     42  C   UNL A   1      40.370  28.563  28.616  1.00  0.00     0.049 A 
ATOM     43  N   UNL A   1      42.008  28.202  31.146  1.00  0.00    -0.248 NA
ATOM     44  C   UNL A   1      43.402  26.764  29.947  1.00  0.00     0.031 C 
ATOM     45  C   UNL A   1      39.574  28.783  27.412  1.00  0.00     0.029 A 
ATOM     46  N   UNL A   1      39.805  29.389  29.554  1.00  0.00    -0.354 N 
ATOM     47  C   UNL A   1      43.042  27.765  31.963  1.00  0.00     0.074 A 
ATOM     48  C   UNL A   1      43.852  26.857  31.187  1.00  0.00     0.031 C 
ATOM     49  C   UNL A   1      38.605  29.675  27.691  1.00  0.00     0.029 A 
ATOM     50  C   UNL A   1      38.696  30.056  29.100  1.00  0.00     0.049 A 
ATOM     51  H   UNL A   1      40.160  29.492  30.467  1.00  0.00     0.167 HD
ATOM     52  C   UNL A   1      43.296  28.101  33.248  1.00  0.00     0.037 A 
ATOM     53  C   UNL A   1      37.840  30.856  29.764  1.00  0.00     0.037 A 
ATOM     54  C   UNL A   1      42.478  29.000  34.015  1.00  0.00     0.049 A 
ATOM     55  C   UNL A   1      38.091  31.143  31.224  1.00  0.00     0.074 A 
ATOM     56  C   UNL A   1      42.636  29.407  35.326  1.00  0.00     0.029 A 
ATOM     57  N   UNL A   1      41.337  29.626  33.533  1.00  0.00    -0.354 N 
ATOM     58  N   UNL A   1      39.071  30.734  31.994  1.00  0.00    -0.248 NA
ATOM     59  C   UNL A   1      37.118  32.007  31.907  1.00  0.00     0.031 C 
ATOM     60  C   UNL A   1      41.558  30.233  35.657  1.00  0.00     0.029 A 
ATOM     61  C   UNL A   1      40.766  30.396  34.531  1.00  0.00     0.049 A 
ATOM     62  H   UNL A   1      40.986  29.535  32.618  1.00  0.00     0.167 HD
ATOM     63  C   UNL A   1      38.852  31.313  33.238  1.00  0.00     0.074 A 
ATOM     64  C   UNL A   1      37.651  32.114  33.115  1.00  0.00     0.031 C 
ATOM     65  C   UNL A   1      39.574  31.195  34.380  1.00  0.00     0.037 A 
BRANCH  52  66
ATOM     66  C   UNL A   1      44.481  27.460  33.910  1.00  0.00     0.064 A 
ATOM     67  C   UNL A   1      45.749  28.063  33.906  1.00  0.00     0.173 A 
ATOM     68  C   UNL A   1      44.342  26.230  34.571  1.00  0.00     0.173 A 
ATOM     69  F   UNL A   1      45.940  29.228  33.270  1.00  0.00    -0.203 F 
ATOM     70  C   UNL A   1      46.837  27.447  34.519  1.00  0.00     0.198 A 
ATOM     71  C   UNL A   1      45.426  25.633  35.210  1.00  0.00     0.198 A 
ATOM     72  F   UNL A   1      43.154  25.609  34.601  1.00  0.00    -0.203 F 
ATOM     73  F   UNL A   1      48.049  28.016  34.458  1.00  0.00    -0.200 F 
ATOM     74  C   UNL A   1      46.673  26.237  35.176  1.00  0.00     0.200 A 
ATOM     75  F   UNL A   1      45.262  24.469  35.854  1.00  0.00    -0.200 F 
ATOM     76  F   UNL A   1      47.719  25.649  35.772  1.00  0.00    -0.200 F 
ENDBRANCH  52  66
BRANCH  53  77
ATOM     77  C   UNL A   1      36.652  31.420  29.068  1.00  0.00     0.064 A 
ATOM     78  C   UNL A   1      36.576  32.781  28.741  1.00  0.00     0.173 A 
ATOM     79  C   UNL A   1      35.553  30.611  28.739  1.00  0.00     0.173 A 
ATOM     80  F   UNL A   1      37.587  33.603  29.057  1.00  0.00    -0.203 F 
ATOM     81  C   UNL A   1      35.440  33.314  28.132  1.00  0.00     0.198 A 
ATOM     82  C   UNL A   1      34.432  31.138  28.102  1.00  0.00     0.198 A 
ATOM     83  F   UNL A   1      35.570  29.302  29.034  1.00  0.00    -0.203 F 
ATOM     84  F   UNL A   1      35.373  34.629  27.881  1.00  0.00    -0.200 F 
ATOM     85  C   UNL A   1      34.372  32.492  27.808  1.00  0.00     0.200 A 
ATOM     86  F   UNL A   1      33.408  30.337  27.779  1.00  0.00    -0.200 F 
ATOM     87  F   UNL A   1      33.282  33.005  27.222  1.00  0.00    -0.200 F 
ENDBRANCH  53  77
BRANCH  65  88
ATOM     88  C   UNL A   1      39.116  31.984  35.573  1.00  0.00     0.064 A 
ATOM     89  C   UNL A   1      38.296  31.421  36.561  1.00  0.00     0.173 A 
ATOM     90  C   UNL A   1      39.548  33.307  35.752  1.00  0.00     0.173 A 
ATOM     91  F   UNL A   1      37.847  30.164  36.432  1.00  0.00    -0.203 F 
ATOM     92  C   UNL A   1      37.900  32.165  37.670  1.00  0.00     0.198 A 
ATOM     93  C   UNL A   1      39.180  34.036  36.880  1.00  0.00     0.198 A 
ATOM     94  F   UNL A   1      40.344  33.889  34.843  1.00  0.00    -0.203 F 
ATOM     95  F   UNL A   1      37.072  31.624  38.576  1.00  0.00    -0.200 F 
ATOM     96  C   UNL A   1      38.349  33.468  37.832  1.00  0.00     0.200 A 
ATOM     97  F   UNL A   1      39.631  35.287  37.044  1.00  0.00    -0.200 F 
ATOM     98  F   UNL A   1      37.974  34.178  38.906  1.00  0.00    -0.200 F 
ENDBRANCH  65  88
ENDBRANCH  39  40
ENDBRANCH  32  34
ENDBRANCH  31  32
ENDBRANCH  30  31
ENDBRANCH  29  30
ENDBRANCH  28  29
ENDBRANCH  27  28
ENDBRANCH  26  27
ENDBRANCH   1  26
TORSDOF 24
ENDMDL
MODEL 2
REMARK VINA RESULT:     -10.3      0.726      2.058
REMARK SMILES CC[C@@](O)(C(=O)OCCOCCOCCOCCOC(=O)c1ccc(-c2c3nc(c(-c4c(F)c(F)c(F)c(F)c4F)c4ccc([nH]4)c(-c4c(F)c(F)c(F)c(F)c4F)c4nc(c(-c5c(F)c(F)c(F)c(F)c5F)c5ccc2[nH]5)C=C4)C=C3)cc1)[C@@H]1CCc2ccc(OC)cc21
REMARK SMILES IDX 13 1 12 2 11 3 10 4 9 5 8 6 7 7 5 8 6 9 3 10 2 11 1 12 4 13
REMARK SMILES IDX 85 15 86 16 95 17 87 18 88 19 94 20 89 21 91 22 90 23 92 24
REMARK SMILES IDX 93 25 14 26 15 27 16 28 17 29 18 30 19 31 20 32 21 33 22 34
REMARK SMILES IDX 23 35 84 36 24 37 83 38 25 39 26 40 27 41 77 42 28 43 82 44
REMARK SMILES IDX 76 45 78 46 29 47 81 48 75 49 74 50 30 52 62 53 42 54 61 55
REMARK SMILES IDX 43 56 46 57 60 58 79 59 44 60 45 61 59 63 80 64 47 65 31 66
REMARK SMILES IDX 32 67 40 68 33 69 34 70 38 71 41 72 35 73 36 74 39 75 37 76
REMARK SMILES IDX 63 77 64 78 72 79 65 80 66 81 70 82 73 83 67 84 68 85 71 86
REMARK SMILES IDX 69 87 48 88 49 89 57 90 50 91 51 92 55 93 58 94 52 95 53 96
REMARK SMILES IDX 56 97 54 98
REMARK H PARENT 4 14 78 51 46 62
REMARK Flexibility Score: inf
ROOT
ATOM      1  O   UNL A   1      40.951  21.926  26.271  1.00  0.00    -0.377 OA
ENDROOT
BRANCH   1   2
ATOM      2  C   UNL A   1      39.538  21.886  26.151  1.00  0.00     0.188 C 
BRANCH   2   3
ATOM      3  C   UNL A   1      38.785  23.120  26.639  1.00  0.00     0.188 C 
BRANCH   3   4
ATOM      4  O   UNL A   1      37.635  23.438  25.863  1.00  0.00    -0.376 OA
BRANCH   4   5
ATOM      5  C   UNL A   1      36.427  22.708  25.696  1.00  0.00     0.202 C 
BRANCH   5   6
ATOM      6  C   UNL A   1      35.743  22.572  24.306  1.00  0.00     0.261 C 
BRANCH   6   7
ATOM      7  O   UNL A   1      35.211  23.829  23.832  1.00  0.00    -0.461 OA
BRANCH   7   8
ATOM      8  C   UNL A   1      34.062  23.813  23.113  1.00  0.00     0.338 C 
ATOM      9  O   UNL A   1      34.032  23.337  21.981  1.00  0.00    -0.249 OA
BRANCH   8  10
ATOM     10  C   UNL A   1      32.813  24.518  23.853  1.00  0.00     0.168 C 
BRANCH  10  11
ATOM     11  C   UNL A   1      31.604  23.552  23.494  1.00  0.00     0.044 C 
ATOM     12  C   UNL A   1      30.200  24.106  23.337  1.00  0.00     0.007 C 
ENDBRANCH  10  11
BRANCH  10  13
ATOM     13  O   UNL A   1      33.122  24.501  25.246  1.00  0.00    -0.378 OA
ATOM     14  H   UNL A   1      33.610  25.306  25.479  1.00  0.00     0.212 HD
ENDBRANCH  10  13
BRANCH  10  15
ATOM     15  C   UNL A   1      32.455  26.019  23.388  1.00  0.00     0.063 C 
ATOM     16  C   UNL A   1      33.670  26.955  23.281  1.00  0.00     0.017 C 
ATOM     17  C   UNL A   1      31.687  27.076  24.242  1.00  0.00    -0.035 A 
ATOM     18  C   UNL A   1      34.017  27.383  24.694  1.00  0.00     0.036 C 
ATOM     19  C   UNL A   1      32.632  27.897  24.934  1.00  0.00    -0.044 A 
ATOM     20  C   UNL A   1      30.493  27.665  23.818  1.00  0.00     0.050 A 
ATOM     21  C   UNL A   1      32.435  29.252  25.180  1.00  0.00     0.008 A 
ATOM     22  C   UNL A   1      30.336  29.056  23.992  1.00  0.00     0.119 A 
ATOM     23  C   UNL A   1      31.298  29.836  24.651  1.00  0.00     0.047 A 
BRANCH  22  24
ATOM     24  O   UNL A   1      29.369  29.800  23.366  1.00  0.00    -0.497 OA
ATOM     25  C   UNL A   1      29.635  30.071  22.001  1.00  0.00     0.278 C 
ENDBRANCH  22  24
ENDBRANCH  10  15
ENDBRANCH   8  10
ENDBRANCH   7   8
ENDBRANCH   6   7
ENDBRANCH   5   6
ENDBRANCH   4   5
ENDBRANCH   3   4
ENDBRANCH   2   3
ENDBRANCH   1   2
BRANCH   1  26
ATOM     26  C   UNL A   1      41.545  20.837  26.957  1.00  0.00     0.188 C 
BRANCH  26  27
ATOM     27  C   UNL A   1      42.382  19.876  26.072  1.00  0.00     0.188 C 
BRANCH  27  28
ATOM     28  O   UNL A   1      43.277  20.327  25.057  1.00  0.00    -0.376 OA
BRANCH  28  29
ATOM     29  C   UNL A   1      44.199  21.368  25.306  1.00  0.00     0.202 C 
BRANCH  29  30
ATOM     30  C   UNL A   1      44.164  22.545  24.324  1.00  0.00     0.261 C 
BRANCH  30  31
ATOM     31  O   UNL A   1      43.362  23.662  24.732  1.00  0.00    -0.460 OA
BRANCH  31  32
ATOM     32  C   UNL A   1      44.045  24.783  25.065  1.00  0.00     0.338 C 
ATOM     33  O   UNL A   1      45.123  25.157  24.626  1.00  0.00    -0.246 OA
BRANCH  32  34
ATOM     34  C   UNL A   1      43.205  25.616  25.954  1.00  0.00     0.060 A 
ATOM     35  C   UNL A   1      43.466  26.993  26.022  1.00  0.00     0.016 A 
ATOM     36  C   UNL A   1      42.162  25.058  26.698  1.00  0.00     0.016 A 
ATOM     37  C   UNL A   1      42.712  27.811  26.857  1.00  0.00     0.010 A 
ATOM     38  C   UNL A   1      41.438  25.868  27.576  1.00  0.00     0.010 A 
ATOM     39  C   UNL A   1      41.744  27.236  27.688  1.00  0.00    -0.014 A 
BRANCH  39  40
ATOM     40  C   UNL A   1      41.296  28.004  28.870  1.00  0.00     0.031 A 
ATOM     41  C   UNL A   1      42.086  27.834  30.139  1.00  0.00     0.074 A 
ATOM     42  C   UNL A   1      40.270  28.866  28.806  1.00  0.00     0.049 A 
ATOM     43  N   UNL A   1      41.889  28.355  31.322  1.00  0.00    -0.248 NA
ATOM     44  C   UNL A   1      43.265  26.953  30.060  1.00  0.00     0.031 C 
ATOM     45  C   UNL A   1      39.483  29.158  27.611  1.00  0.00     0.029 A 
ATOM     46  N   UNL A   1      39.714  29.654  29.781  1.00  0.00    -0.354 N 
ATOM     47  C   UNL A   1      42.911  27.861  32.121  1.00  0.00     0.074 A 
ATOM     48  C   UNL A   1      43.710  26.977  31.305  1.00  0.00     0.031 C 
ATOM     49  C   UNL A   1      38.528  30.051  27.929  1.00  0.00     0.029 A 
ATOM     50  C   UNL A   1      38.619  30.362  29.355  1.00  0.00     0.049 A 
ATOM     51  H   UNL A   1      40.067  29.707  30.699  1.00  0.00     0.167 HD
ATOM     52  C   UNL A   1      43.165  28.129  33.422  1.00  0.00     0.037 A 
ATOM     53  C   UNL A   1      37.773  31.143  30.054  1.00  0.00     0.037 A 
ATOM     54  C   UNL A   1      42.358  29.003  34.228  1.00  0.00     0.049 A 
ATOM     55  C   UNL A   1      38.022  31.355  31.527  1.00  0.00     0.074 A 
ATOM     56  C   UNL A   1      42.517  29.344  35.559  1.00  0.00     0.029 A 
ATOM     57  N   UNL A   1      41.230  29.672  33.773  1.00  0.00    -0.354 N 
ATOM     58  N   UNL A   1      38.991  30.891  32.280  1.00  0.00    -0.248 NA
ATOM     59  C   UNL A   1      37.060  32.201  32.247  1.00  0.00     0.031 C 
ATOM     60  C   UNL A   1      41.451  30.171  35.925  1.00  0.00     0.029 A 
ATOM     61  C   UNL A   1      40.667  30.402  34.805  1.00  0.00     0.049 A 
ATOM     62  H   UNL A   1      40.882  29.631  32.853  1.00  0.00     0.167 HD
ATOM     63  C   UNL A   1      38.776  31.413  33.550  1.00  0.00     0.074 A 
ATOM     64  C   UNL A   1      37.589  32.239  33.462  1.00  0.00     0.031 C 
ATOM     65  C   UNL A   1      39.490  31.227  34.688  1.00  0.00     0.037 A 
BRANCH  52  66
ATOM     66  C   UNL A   1      44.336  27.437  34.057  1.00  0.00     0.064 A 
ATOM     67  C   UNL A   1      44.216  26.170  34.650  1.00  0.00     0.173 A 
ATOM     68  C   UNL A   1      45.601  28.044  34.057  1.00  0.00     0.173 A 
ATOM     69  F   UNL A   1      43.025  25.556  34.696  1.00  0.00    -0.203 F 
ATOM     70  C   UNL A   1      45.313  25.549  35.241  1.00  0.00     0.198 A 
ATOM     71  C   UNL A   1      46.703  27.405  34.621  1.00  0.00     0.198 A 
ATOM     72  F   UNL A   1      45.770  29.255  33.507  1.00  0.00    -0.203 F 
ATOM     73  F   UNL A   1      45.164  24.364  35.849  1.00  0.00    -0.200 F 
ATOM     74  C   UNL A   1      46.556  26.163  35.219  1.00  0.00     0.200 A 
ATOM     75  F   UNL A   1      47.905  27.995  34.588  1.00  0.00    -0.200 F 
ATOM     76  F   UNL A   1      47.613  25.561  35.781  1.00  0.00    -0.200 F 
ENDBRANCH  52  66
BRANCH  53  77
ATOM     77  C   UNL A   1      36.598  31.760  29.382  1.00  0.00     0.064 A 
ATOM     78  C   UNL A   1      35.515  30.982  28.947  1.00  0.00     0.173 A 
ATOM     79  C   UNL A   1      36.547  33.140  29.134  1.00  0.00     0.173 A 
ATOM     80  F   UNL A   1      35.527  29.655  29.136  1.00  0.00    -0.203 F 
ATOM     81  C   UNL A   1      34.438  31.558  28.274  1.00  0.00     0.198 A 
ATOM     82  C   UNL A   1      35.455  33.719  28.489  1.00  0.00     0.198 A 
ATOM     83  F   UNL A   1      37.558  33.931  29.523  1.00  0.00    -0.203 F 
ATOM     84  F   UNL A   1      33.443  30.782  27.822  1.00  0.00    -0.200 F 
ATOM     85  C   UNL A   1      34.406  32.926  28.051  1.00  0.00     0.200 A 
ATOM     86  F   UNL A   1      35.423  35.043  28.288  1.00  0.00    -0.200 F 
ATOM     87  F   UNL A   1      33.370  33.478  27.406  1.00  0.00    -0.200 F 
ENDBRANCH  53  77
BRANCH  65  88
ATOM     88  C   UNL A   1      39.040  31.965  35.916  1.00  0.00     0.064 A 
ATOM     89  C   UNL A   1      39.416  33.294  36.160  1.00  0.00     0.173 A 
ATOM     90  C   UNL A   1      38.179  31.346  36.836  1.00  0.00     0.173 A 
ATOM     91  F   UNL A   1      40.246  33.927  35.319  1.00  0.00    -0.203 F 
ATOM     92  C   UNL A   1      38.970  33.966  37.296  1.00  0.00     0.198 A 
ATOM     93  C   UNL A   1      37.706  32.032  37.951  1.00  0.00     0.198 A 
ATOM     94  F   UNL A   1      37.779  30.080  36.644  1.00  0.00    -0.203 F 
ATOM     95  F   UNL A   1      39.385  35.217  37.536  1.00  0.00    -0.200 F 
ATOM     96  C   UNL A   1      38.110  33.337  38.185  1.00  0.00     0.200 A 
ATOM     97  F   UNL A   1      36.860  31.430  38.798  1.00  0.00    -0.200 F 
ATOM     98  F   UNL A   1      37.675  33.990  39.272  1.00  0.00    -0.200 F 
ENDBRANCH  65  88
ENDBRANCH  39  40
ENDBRANCH  32  34
ENDBRANCH  31  32
ENDBRANCH  30  31
ENDBRANCH  29  30
ENDBRANCH  28  29
ENDBRANCH  27  28
ENDBRANCH  26  27
ENDBRANCH   1  26
TORSDOF 24
ENDMDL
MODEL 3
REMARK VINA RESULT:      -9.9      1.613      3.616
REMARK SMILES CC[C@@](O)(C(=O)OCCOCCOCCOCCOC(=O)c1ccc(-c2c3nc(c(-c4c(F)c(F)c(F)c(F)c4F)c4ccc([nH]4)c(-c4c(F)c(F)c(F)c(F)c4F)c4nc(c(-c5c(F)c(F)c(F)c(F)c5F)c5ccc2[nH]5)C=C4)C=C3)cc1)[C@@H]1CCc2ccc(OC)cc21
REMARK SMILES IDX 13 1 12 2 11 3 10 4 9 5 8 6 7 7 5 8 6 9 3 10 2 11 1 12 4 13
REMARK SMILES IDX 85 15 86 16 95 17 87 18 88 19 94 20 89 21 91 22 90 23 92 24
REMARK SMILES IDX 93 25 14 26 15 27 16 28 17 29 18 30 19 31 20 32 21 33 22 34
REMARK SMILES IDX 23 35 84 36 24 37 83 38 25 39 26 40 27 41 77 42 28 43 82 44
REMARK SMILES IDX 76 45 78 46 29 47 81 48 75 49 74 50 30 52 62 53 42 54 61 55
REMARK SMILES IDX 43 56 46 57 60 58 79 59 44 60 45 61 59 63 80 64 47 65 31 66
REMARK SMILES IDX 32 67 40 68 33 69 34 70 38 71 41 72 35 73 36 74 39 75 37 76
REMARK SMILES IDX 63 77 64 78 72 79 65 80 66 81 70 82 73 83 67 84 68 85 71 86
REMARK SMILES IDX 69 87 48 88 49 89 57 90 50 91 51 92 55 93 58 94 52 95 53 96
REMARK SMILES IDX 56 97 54 98
REMARK H PARENT 4 14 78 51 46 62
REMARK Flexibility Score: inf
ROOT
ATOM      1  O   UNL A   1      42.326  19.353  25.334  1.00  0.00    -0.377 OA
ENDROOT
BRANCH   1   2
ATOM      2  C   UNL A   1      41.160  19.552  26.116  1.00  0.00     0.188 C 
BRANCH   2   3
ATOM      3  C   UNL A   1      41.137  20.806  26.985  1.00  0.00     0.188 C 
BRANCH   3   4
ATOM      4  O   UNL A   1      39.919  21.538  26.910  1.00  0.00    -0.376 OA
BRANCH   4   5
ATOM      5  C   UNL A   1      39.120  21.848  25.776  1.00  0.00     0.202 C 
BRANCH   5   6
ATOM      6  C   UNL A   1      37.570  21.936  25.870  1.00  0.00     0.261 C 
BRANCH   6   7
ATOM      7  O   UNL A   1      37.056  23.164  25.306  1.00  0.00    -0.461 OA
BRANCH   7   8
ATOM      8  C   UNL A   1      35.715  23.356  25.298  1.00  0.00     0.338 C 
ATOM      9  O   UNL A   1      35.114  23.658  26.326  1.00  0.00    -0.249 OA
BRANCH   8  10
ATOM     10  C   UNL A   1      35.020  23.089  23.866  1.00  0.00     0.168 C 
BRANCH  10  11
ATOM     11  C   UNL A   1      34.014  24.310  23.733  1.00  0.00     0.044 C 
ATOM     12  C   UNL A   1      34.193  25.548  24.591  1.00  0.00     0.007 C 
ENDBRANCH  10  11
BRANCH  10  13
ATOM     13  O   UNL A   1      36.072  23.148  22.904  1.00  0.00    -0.378 OA
ATOM     14  H   UNL A   1      36.225  24.071  22.648  1.00  0.00     0.212 HD
ENDBRANCH  10  13
BRANCH  10  15
ATOM     15  C   UNL A   1      34.208  21.705  23.707  1.00  0.00     0.063 C 
ATOM     16  C   UNL A   1      32.692  21.833  23.921  1.00  0.00     0.017 C 
ATOM     17  C   UNL A   1      34.269  20.498  24.694  1.00  0.00    -0.035 A 
ATOM     18  C   UNL A   1      32.466  21.893  25.419  1.00  0.00     0.036 C 
ATOM     19  C   UNL A   1      33.197  20.605  25.634  1.00  0.00    -0.044 A 
ATOM     20  C   UNL A   1      34.669  19.218  24.296  1.00  0.00     0.050 A 
ATOM     21  C   UNL A   1      32.516  19.505  26.148  1.00  0.00     0.008 A 
ATOM     22  C   UNL A   1      33.920  18.113  24.753  1.00  0.00     0.119 A 
ATOM     23  C   UNL A   1      32.854  18.259  25.653  1.00  0.00     0.047 A 
BRANCH  22  24
ATOM     24  O   UNL A   1      34.009  16.855  24.215  1.00  0.00    -0.497 OA
ATOM     25  C   UNL A   1      33.641  15.815  25.104  1.00  0.00     0.278 C 
ENDBRANCH  22  24
ENDBRANCH  10  15
ENDBRANCH   8  10
ENDBRANCH   7   8
ENDBRANCH   6   7
ENDBRANCH   5   6
ENDBRANCH   4   5
ENDBRANCH   3   4
ENDBRANCH   2   3
ENDBRANCH   1   2
BRANCH   1  26
ATOM     26  C   UNL A   1      43.554  19.698  25.951  1.00  0.00     0.188 C 
BRANCH  26  27
ATOM     27  C   UNL A   1      44.713  20.033  24.976  1.00  0.00     0.188 C 
BRANCH  27  28
ATOM     28  O   UNL A   1      45.547  21.181  25.116  1.00  0.00    -0.376 OA
BRANCH  28  29
ATOM     29  C   UNL A   1      45.264  22.176  26.081  1.00  0.00     0.202 C 
BRANCH  29  30
ATOM     30  C   UNL A   1      45.710  23.599  25.726  1.00  0.00     0.261 C 
BRANCH  30  31
ATOM     31  O   UNL A   1      44.866  24.295  24.797  1.00  0.00    -0.460 OA
BRANCH  31  32
ATOM     32  C   UNL A   1      43.556  23.953  24.826  1.00  0.00     0.338 C 
ATOM     33  O   UNL A   1      43.037  22.953  24.350  1.00  0.00    -0.246 OA
BRANCH  32  34
ATOM     34  C   UNL A   1      42.823  24.911  25.682  1.00  0.00     0.060 A 
ATOM     35  C   UNL A   1      43.260  26.244  25.718  1.00  0.00     0.016 A 
ATOM     36  C   UNL A   1      41.710  24.513  26.427  1.00  0.00     0.016 A 
ATOM     37  C   UNL A   1      42.611  27.175  26.522  1.00  0.00     0.010 A 
ATOM     38  C   UNL A   1      41.090  25.433  27.275  1.00  0.00     0.010 A 
ATOM     39  C   UNL A   1      41.570  26.753  27.356  1.00  0.00    -0.014 A 
BRANCH  39  40
ATOM     40  C   UNL A   1      41.214  27.604  28.512  1.00  0.00     0.031 A 
ATOM     41  C   UNL A   1      42.070  27.481  29.744  1.00  0.00     0.074 A 
ATOM     42  C   UNL A   1      40.213  28.495  28.453  1.00  0.00     0.049 A 
ATOM     43  N   UNL A   1      41.957  28.078  30.901  1.00  0.00    -0.248 NA
ATOM     44  C   UNL A   1      43.214  26.558  29.652  1.00  0.00     0.031 C 
ATOM     45  C   UNL A   1      39.368  28.743  27.288  1.00  0.00     0.029 A 
ATOM     46  N   UNL A   1      39.739  29.358  29.407  1.00  0.00    -0.354 N 
ATOM     47  C   UNL A   1      43.008  27.597  31.671  1.00  0.00     0.074 A 
ATOM     48  C   UNL A   1      43.731  26.640  30.867  1.00  0.00     0.031 C 
ATOM     49  C   UNL A   1      38.461  29.686  27.603  1.00  0.00     0.029 A 
ATOM     50  C   UNL A   1      38.643  30.077  29.001  1.00  0.00     0.049 A 
ATOM     51  H   UNL A   1      40.145  29.453  30.300  1.00  0.00     0.167 HD
ATOM     52  C   UNL A   1      43.345  27.933  32.937  1.00  0.00     0.037 A 
ATOM     53  C   UNL A   1      37.863  30.926  29.697  1.00  0.00     0.037 A 
ATOM     54  C   UNL A   1      42.613  28.880  33.732  1.00  0.00     0.049 A 
ATOM     55  C   UNL A   1      38.203  31.215  31.138  1.00  0.00     0.074 A 
ATOM     56  C   UNL A   1      42.858  29.292  35.029  1.00  0.00     0.029 A 
ATOM     57  N   UNL A   1      41.482  29.558  33.301  1.00  0.00    -0.354 N 
ATOM     58  N   UNL A   1      39.199  30.764  31.863  1.00  0.00    -0.248 NA
ATOM     59  C   UNL A   1      37.311  32.135  31.858  1.00  0.00     0.031 C 
ATOM     60  C   UNL A   1      41.841  30.176  35.403  1.00  0.00     0.029 A 
ATOM     61  C   UNL A   1      41.002  30.367  34.316  1.00  0.00     0.049 A 
ATOM     62  H   UNL A   1      41.080  29.476  32.406  1.00  0.00     0.167 HD
ATOM     63  C   UNL A   1      39.073  31.367  33.109  1.00  0.00     0.074 A 
ATOM     64  C   UNL A   1      37.909  32.227  33.037  1.00  0.00     0.031 C 
ATOM     65  C   UNL A   1      39.846  31.224  34.215  1.00  0.00     0.037 A 
BRANCH  52  66
ATOM     66  C   UNL A   1      44.528  27.239  33.547  1.00  0.00     0.064 A 
ATOM     67  C   UNL A   1      44.402  26.018  34.228  1.00  0.00     0.173 A 
ATOM     68  C   UNL A   1      45.810  27.797  33.434  1.00  0.00     0.173 A 
ATOM     69  F   UNL A   1      43.196  25.453  34.383  1.00  0.00    -0.203 F 
ATOM     70  C   UNL A   1      45.512  25.396  34.794  1.00  0.00     0.198 A 
ATOM     71  C   UNL A   1      46.922  27.156  33.973  1.00  0.00     0.198 A 
ATOM     72  F   UNL A   1      45.986  28.964  32.796  1.00  0.00    -0.203 F 
ATOM     73  F   UNL A   1      45.360  24.257  35.485  1.00  0.00    -0.200 F 
ATOM     74  C   UNL A   1      46.771  25.961  34.659  1.00  0.00     0.200 A 
ATOM     75  F   UNL A   1      48.139  27.698  33.831  1.00  0.00    -0.200 F 
ATOM     76  F   UNL A   1      47.839  25.357  35.197  1.00  0.00    -0.200 F 
ENDBRANCH  52  66
BRANCH  53  77
ATOM     77  C   UNL A   1      36.671  31.542  29.055  1.00  0.00     0.064 A 
ATOM     78  C   UNL A   1      36.639  32.907  28.736  1.00  0.00     0.173 A 
ATOM     79  C   UNL A   1      35.526  30.782  28.771  1.00  0.00     0.173 A 
ATOM     80  F   UNL A   1      37.697  33.684  29.010  1.00  0.00    -0.203 F 
ATOM     81  C   UNL A   1      35.502  33.490  28.178  1.00  0.00     0.198 A 
ATOM     82  C   UNL A   1      34.402  31.359  28.184  1.00  0.00     0.198 A 
ATOM     83  F   UNL A   1      35.501  29.472  29.061  1.00  0.00    -0.203 F 
ATOM     84  F   UNL A   1      35.479  34.808  27.933  1.00  0.00    -0.200 F 
ATOM     85  C   UNL A   1      34.387  32.715  27.897  1.00  0.00     0.200 A 
ATOM     86  F   UNL A   1      33.332  30.603  27.904  1.00  0.00    -0.200 F 
ATOM     87  F   UNL A   1      33.295  33.276  27.360  1.00  0.00    -0.200 F 
ENDBRANCH  53  77
BRANCH  65  88
ATOM     88  C   UNL A   1      39.490  32.048  35.419  1.00  0.00     0.064 A 
ATOM     89  C   UNL A   1      40.004  33.339  35.610  1.00  0.00     0.173 A 
ATOM     90  C   UNL A   1      38.582  31.554  36.369  1.00  0.00     0.173 A 
ATOM     91  F   UNL A   1      40.883  33.852  34.738  1.00  0.00    -0.203 F 
ATOM     92  C   UNL A   1      39.644  34.093  36.724  1.00  0.00     0.198 A 
ATOM     93  C   UNL A   1      38.197  32.325  37.463  1.00  0.00     0.198 A 
ATOM     94  F   UNL A   1      38.052  30.330  36.228  1.00  0.00    -0.203 F 
ATOM     95  F   UNL A   1      40.188  35.303  36.914  1.00  0.00    -0.200 F 
ATOM     96  C   UNL A   1      38.736  33.589  37.644  1.00  0.00     0.200 A 
ATOM     97  F   UNL A   1      37.305  31.844  38.339  1.00  0.00    -0.200 F 
ATOM     98  F   UNL A   1      38.384  34.322  38.710  1.00  0.00    -0.200 F 
ENDBRANCH  65  88
ENDBRANCH  39  40
ENDBRANCH  32  34
ENDBRANCH  31  32
ENDBRANCH  30  31
ENDBRANCH  29  30
ENDBRANCH  28  29
ENDBRANCH  27  28
ENDBRANCH  26  27
ENDBRANCH   1  26
TORSDOF 24
ENDMDL
