MODEL 1
REMARK VINA RESULT:     -11.9      0.000      0.000
REMARK SMILES O=C(OCCOCCOCCOCCOC(=O)c1ccc(-c2c3nc(c(-c4c(F)c(F)c(F)c(F)c4F)c4ccc([nH]4)c(-c4c(F)c(F)c(F)c(F)c4F)c4nc(c(-c5c(F)c(F)c(F)c(F)c5F)c5ccc2[nH]5)C=C4)C=C3)cc1)C1=Cc2c(Cl)ccc(Cl)c2O[C@@H]1C(F)(F)F
REMARK SMILES IDX 10 1 9 2 8 3 7 4 6 5 5 6 4 7 3 8 2 9 1 10 81 11 82 12 92 13
REMARK SMILES IDX 83 14 91 15 84 16 90 17 85 18 86 19 88 20 87 21 89 22 93 23
REMARK SMILES IDX 94 24 95 25 96 26 11 27 12 28 13 29 14 30 15 31 16 32 17 33
REMARK SMILES IDX 18 34 19 35 80 36 20 37 79 38 21 39 22 40 23 41 73 42 24 43
REMARK SMILES IDX 78 44 72 45 74 46 25 47 77 48 71 49 70 50 26 52 58 53 38 54
REMARK SMILES IDX 57 55 39 56 42 57 56 58 75 59 40 60 41 61 55 63 76 64 43 65
REMARK SMILES IDX 27 66 28 67 36 68 29 69 30 70 34 71 37 72 31 73 32 74 35 75
REMARK SMILES IDX 33 76 59 77 60 78 68 79 61 80 62 81 66 82 69 83 63 84 64 85
REMARK SMILES IDX 67 86 65 87 44 88 45 89 53 90 46 91 47 92 51 93 54 94 48 95
REMARK SMILES IDX 49 96 52 97 50 98
REMARK H PARENT 74 51 42 62
REMARK Flexibility Score: inf
ROOT
ATOM      1  C   UNL A   1      35.228  33.559  30.118  1.00  0.00     0.188 C 
ENDROOT
BRANCH   1   2
ATOM      2  O   UNL A   1      35.452  33.892  28.769  1.00  0.00    -0.377 OA
BRANCH   2   3
ATOM      3  C   UNL A   1      35.380  32.762  27.933  1.00  0.00     0.188 C 
BRANCH   3   4
ATOM      4  C   UNL A   1      34.365  31.696  28.365  1.00  0.00     0.188 C 
BRANCH   4   5
ATOM      5  O   UNL A   1      33.782  30.691  27.463  1.00  0.00    -0.376 OA
BRANCH   5   6
ATOM      6  C   UNL A   1      33.090  29.201  27.703  1.00  0.00     0.202 C 
BRANCH   6   7
ATOM      7  C   UNL A   1      31.585  28.234  26.452  1.00  0.00     0.261 C 
BRANCH   7   8
ATOM      8  O   UNL A   1      31.048  26.834  26.610  1.00  0.00    -0.460 OA
BRANCH   8   9
ATOM      9  C   UNL A   1      30.890  26.218  25.432  1.00  0.00     0.338 C 
ATOM     10  O   UNL A   1      29.868  25.811  24.941  1.00  0.00    -0.246 OA
BRANCH   9  11
ATOM     11  C   UNL A   1      32.272  25.792  25.254  1.00  0.00     0.087 C 
ATOM     12  C   UNL A   1      32.650  24.622  26.053  1.00  0.00     0.029 C 
ATOM     13  C   UNL A   1      32.122  25.801  23.343  1.00  0.00     0.316 C 
ATOM     14  C   UNL A   1      32.807  22.936  25.410  1.00  0.00     0.037 A 
ATOM     15  O   UNL A   1      32.133  23.990  22.621  1.00  0.00    -0.474 OA
ATOM     16  C   UNL A   1      33.089  21.885  26.252  1.00  0.00     0.052 A 
ATOM     17  C   UNL A   1      32.458  22.566  23.747  1.00  0.00     0.148 A 
ATOM     18  Cl  UNL A   1      33.383  22.068  27.930  1.00  0.00    -0.084 Cl
ATOM     19  C   UNL A   1      33.085  20.603  25.671  1.00  0.00     0.023 A 
ATOM     20  C   UNL A   1      32.407  21.268  23.292  1.00  0.00     0.083 A 
ATOM     21  C   UNL A   1      32.758  20.315  24.283  1.00  0.00     0.026 A 
ATOM     22  Cl  UNL A   1      31.849  20.747  21.771  1.00  0.00    -0.080 Cl
BRANCH  13  23
ATOM     23  C   UNL A   1      33.194  27.085  23.200  1.00  0.00     0.430 C 
ATOM     24  F   UNL A   1      33.962  27.157  22.098  1.00  0.00    -0.167 F 
ATOM     25  F   UNL A   1      32.432  28.220  23.143  1.00  0.00    -0.167 F 
ATOM     26  F   UNL A   1      34.002  27.283  24.272  1.00  0.00    -0.167 F 
ENDBRANCH  13  23
ENDBRANCH   9  11
ENDBRANCH   8   9
ENDBRANCH   7   8
ENDBRANCH   6   7
ENDBRANCH   5   6
ENDBRANCH   4   5
ENDBRANCH   3   4
ENDBRANCH   2   3
ENDBRANCH   1   2
BRANCH   1  27
ATOM     27  C   UNL A   1      34.646  34.659  31.012  1.00  0.00     0.188 C 
BRANCH  27  28
ATOM     28  O   UNL A   1      33.759  34.399  32.083  1.00  0.00    -0.376 OA
BRANCH  28  29
ATOM     29  C   UNL A   1      34.002  33.364  33.016  1.00  0.00     0.202 C 
BRANCH  29  30
ATOM     30  C   UNL A   1      35.416  33.050  33.533  1.00  0.00     0.261 C 
BRANCH  30  31
ATOM     31  O   UNL A   1      36.000  31.818  33.093  1.00  0.00    -0.460 OA
BRANCH  31  32
ATOM     32  C   UNL A   1      37.188  31.505  33.651  1.00  0.00     0.338 C 
ATOM     33  O   UNL A   1      37.493  31.590  34.828  1.00  0.00    -0.246 OA
BRANCH  32  34
ATOM     34  C   UNL A   1      38.051  30.845  32.645  1.00  0.00     0.060 A 
ATOM     35  C   UNL A   1      39.144  30.095  33.106  1.00  0.00     0.016 A 
ATOM     36  C   UNL A   1      37.812  30.968  31.275  1.00  0.00     0.016 A 
ATOM     37  C   UNL A   1      40.026  29.504  32.208  1.00  0.00     0.010 A 
ATOM     38  C   UNL A   1      38.726  30.418  30.371  1.00  0.00     0.010 A 
ATOM     39  C   UNL A   1      39.860  29.726  30.838  1.00  0.00    -0.014 A 
BRANCH  39  40
ATOM     40  C   UNL A   1      41.003  29.469  29.934  1.00  0.00     0.031 A 
ATOM     41  C   UNL A   1      41.076  28.129  29.258  1.00  0.00     0.074 A 
ATOM     42  C   UNL A   1      41.923  30.414  29.674  1.00  0.00     0.049 A 
ATOM     43  N   UNL A   1      41.999  27.640  28.471  1.00  0.00    -0.248 NA
ATOM     44  C   UNL A   1      39.952  27.211  29.509  1.00  0.00     0.031 C 
ATOM     45  C   UNL A   1      41.916  31.767  30.220  1.00  0.00     0.029 A 
ATOM     46  N   UNL A   1      43.046  30.369  28.889  1.00  0.00    -0.354 N 
ATOM     47  C   UNL A   1      41.576  26.357  28.150  1.00  0.00     0.074 A 
ATOM     48  C   UNL A   1      40.333  26.128  28.851  1.00  0.00     0.031 C 
ATOM     49  C   UNL A   1      42.998  32.424  29.767  1.00  0.00     0.029 A 
ATOM     50  C   UNL A   1      43.791  31.521  28.934  1.00  0.00     0.049 A 
ATOM     51  H   UNL A   1      43.294  29.587  28.344  1.00  0.00     0.167 HD
ATOM     52  C   UNL A   1      42.173  25.453  27.339  1.00  0.00     0.037 A 
ATOM     53  C   UNL A   1      44.996  31.794  28.394  1.00  0.00     0.037 A 
ATOM     54  C   UNL A   1      43.416  25.690  26.653  1.00  0.00     0.049 A 
ATOM     55  C   UNL A   1      45.688  30.735  27.573  1.00  0.00     0.074 A 
ATOM     56  C   UNL A   1      44.102  24.847  25.797  1.00  0.00     0.029 A 
ATOM     57  N   UNL A   1      44.166  26.852  26.757  1.00  0.00    -0.354 N 
ATOM     58  N   UNL A   1      45.279  29.529  27.256  1.00  0.00    -0.248 NA
ATOM     59  C   UNL A   1      47.011  31.076  27.032  1.00  0.00     0.031 C 
ATOM     60  C   UNL A   1      45.305  25.466  25.450  1.00  0.00     0.029 A 
ATOM     61  C   UNL A   1      45.328  26.732  26.013  1.00  0.00     0.049 A 
ATOM     62  H   UNL A   1      43.911  27.645  27.282  1.00  0.00     0.167 HD
ATOM     63  C   UNL A   1      46.274  28.984  26.454  1.00  0.00     0.074 A 
ATOM     64  C   UNL A   1      47.298  29.998  26.318  1.00  0.00     0.031 C 
ATOM     65  C   UNL A   1      46.336  27.755  25.881  1.00  0.00     0.037 A 
BRANCH  52  66
ATOM     66  C   UNL A   1      41.516  24.110  27.190  1.00  0.00     0.064 A 
ATOM     67  C   UNL A   1      42.066  22.944  27.746  1.00  0.00     0.173 A 
ATOM     68  C   UNL A   1      40.301  23.992  26.498  1.00  0.00     0.173 A 
ATOM     69  F   UNL A   1      43.233  22.996  28.406  1.00  0.00    -0.203 F 
ATOM     70  C   UNL A   1      41.443  21.709  27.585  1.00  0.00     0.198 A 
ATOM     71  C   UNL A   1      39.660  22.763  26.373  1.00  0.00     0.198 A 
ATOM     72  F   UNL A   1      39.727  25.074  25.948  1.00  0.00    -0.203 F 
ATOM     73  F   UNL A   1      42.018  20.601  28.073  1.00  0.00    -0.200 F 
ATOM     74  C   UNL A   1      40.236  21.621  26.907  1.00  0.00     0.200 A 
ATOM     75  F   UNL A   1      38.484  22.684  25.735  1.00  0.00    -0.200 F 
ATOM     76  F   UNL A   1      39.631  20.434  26.762  1.00  0.00    -0.200 F 
ENDBRANCH  52  66
BRANCH  53  77
ATOM     77  C   UNL A   1      45.639  33.115  28.632  1.00  0.00     0.064 A 
ATOM     78  C   UNL A   1      45.445  34.185  27.747  1.00  0.00     0.173 A 
ATOM     79  C   UNL A   1      46.485  33.327  29.732  1.00  0.00     0.173 A 
ATOM     80  F   UNL A   1      44.664  34.029  26.669  1.00  0.00    -0.203 F 
ATOM     81  C   UNL A   1      46.091  35.405  27.938  1.00  0.00     0.198 A 
ATOM     82  C   UNL A   1      47.099  34.559  29.943  1.00  0.00     0.198 A 
ATOM     83  F   UNL A   1      46.708  32.338  30.609  1.00  0.00    -0.203 F 
ATOM     84  F   UNL A   1      45.934  36.390  27.043  1.00  0.00    -0.200 F 
ATOM     85  C   UNL A   1      46.913  35.593  29.039  1.00  0.00     0.200 A 
ATOM     86  F   UNL A   1      47.877  34.742  31.018  1.00  0.00    -0.200 F 
ATOM     87  F   UNL A   1      47.529  36.768  29.225  1.00  0.00    -0.200 F 
ENDBRANCH  53  77
BRANCH  65  88
ATOM     88  C   UNL A   1      47.527  27.453  25.011  1.00  0.00     0.064 A 
ATOM     89  C   UNL A   1      47.549  27.770  23.645  1.00  0.00     0.173 A 
ATOM     90  C   UNL A   1      48.679  26.876  25.567  1.00  0.00     0.173 A 
ATOM     91  F   UNL A   1      46.472  28.315  23.059  1.00  0.00    -0.203 F 
ATOM     92  C   UNL A   1      48.664  27.485  22.861  1.00  0.00     0.198 A 
ATOM     93  C   UNL A   1      49.808  26.632  24.790  1.00  0.00     0.198 A 
ATOM     94  F   UNL A   1      48.719  26.561  26.871  1.00  0.00    -0.203 F 
ATOM     95  F   UNL A   1      48.638  27.737  21.545  1.00  0.00    -0.200 F 
ATOM     96  C   UNL A   1      49.795  26.924  23.436  1.00  0.00     0.200 A 
ATOM     97  F   UNL A   1      50.907  26.112  25.353  1.00  0.00    -0.200 F 
ATOM     98  F   UNL A   1      50.871  26.660  22.682  1.00  0.00    -0.200 F 
ENDBRANCH  65  88
ENDBRANCH  39  40
ENDBRANCH  32  34
ENDBRANCH  31  32
ENDBRANCH  30  31
ENDBRANCH  29  30
ENDBRANCH  28  29
ENDBRANCH  27  28
ENDBRANCH   1  27
TORSDOF 21
ENDMDL
MODEL 2
REMARK VINA RESULT:     -11.8      5.585     10.878
REMARK SMILES O=C(OCCOCCOCCOCCOC(=O)c1ccc(-c2c3nc(c(-c4c(F)c(F)c(F)c(F)c4F)c4ccc([nH]4)c(-c4c(F)c(F)c(F)c(F)c4F)c4nc(c(-c5c(F)c(F)c(F)c(F)c5F)c5ccc2[nH]5)C=C4)C=C3)cc1)C1=Cc2c(Cl)ccc(Cl)c2O[C@@H]1C(F)(F)F
REMARK SMILES IDX 10 1 9 2 8 3 7 4 6 5 5 6 4 7 3 8 2 9 1 10 81 11 82 12 92 13
REMARK SMILES IDX 83 14 91 15 84 16 90 17 85 18 86 19 88 20 87 21 89 22 93 23
REMARK SMILES IDX 94 24 95 25 96 26 11 27 12 28 13 29 14 30 15 31 16 32 17 33
REMARK SMILES IDX 18 34 19 35 80 36 20 37 79 38 21 39 22 40 23 41 73 42 24 43
REMARK SMILES IDX 78 44 72 45 74 46 25 47 77 48 71 49 70 50 26 52 58 53 38 54
REMARK SMILES IDX 57 55 39 56 42 57 56 58 75 59 40 60 41 61 55 63 76 64 43 65
REMARK SMILES IDX 27 66 28 67 36 68 29 69 30 70 34 71 37 72 31 73 32 74 35 75
REMARK SMILES IDX 33 76 59 77 60 78 68 79 61 80 62 81 66 82 69 83 63 84 64 85
REMARK SMILES IDX 67 86 65 87 44 88 45 89 53 90 46 91 47 92 51 93 54 94 48 95
REMARK SMILES IDX 49 96 52 97 50 98
REMARK H PARENT 74 51 42 62
REMARK Flexibility Score: inf
ROOT
ATOM      1  C   UNL A   1      38.756  21.827  26.029  1.00  0.00     0.188 C 
ENDROOT
BRANCH   1   2
ATOM      2  O   UNL A   1      37.989  21.728  24.852  1.00  0.00    -0.377 OA
BRANCH   2   3
ATOM      3  C   UNL A   1      36.805  20.998  25.061  1.00  0.00     0.188 C 
BRANCH   3   4
ATOM      4  C   UNL A   1      35.646  21.797  25.673  1.00  0.00     0.188 C 
BRANCH   4   5
ATOM      5  O   UNL A   1      35.492  23.255  25.561  1.00  0.00    -0.376 OA
BRANCH   5   6
ATOM      6  C   UNL A   1      34.302  24.319  26.015  1.00  0.00     0.202 C 
BRANCH   6   7
ATOM      7  C   UNL A   1      33.162  25.650  24.714  1.00  0.00     0.261 C 
BRANCH   7   8
ATOM      8  O   UNL A   1      33.287  27.150  24.629  1.00  0.00    -0.460 OA
BRANCH   8   9
ATOM      9  C   UNL A   1      32.586  27.658  23.608  1.00  0.00     0.338 C 
ATOM     10  O   UNL A   1      33.009  28.150  22.592  1.00  0.00    -0.246 OA
BRANCH   9  11
ATOM     11  C   UNL A   1      31.334  27.869  24.323  1.00  0.00     0.087 C 
ATOM     12  C   UNL A   1      31.192  29.206  24.908  1.00  0.00     0.029 C 
ATOM     13  C   UNL A   1      30.285  27.205  22.862  1.00  0.00     0.316 C 
ATOM     14  C   UNL A   1      30.182  30.539  24.214  1.00  0.00     0.037 A 
ATOM     15  O   UNL A   1      29.296  28.641  21.988  1.00  0.00    -0.474 OA
ATOM     16  C   UNL A   1      30.173  31.789  24.790  1.00  0.00     0.052 A 
ATOM     17  C   UNL A   1      29.316  30.333  22.719  1.00  0.00     0.148 A 
ATOM     18  Cl  UNL A   1      31.032  32.179  26.220  1.00  0.00    -0.084 Cl
ATOM     19  C   UNL A   1      29.439  32.781  24.113  1.00  0.00     0.023 A 
ATOM     20  C   UNL A   1      28.690  31.389  22.098  1.00  0.00     0.083 A 
ATOM     21  C   UNL A   1      28.749  32.593  22.846  1.00  0.00     0.026 A 
ATOM     22  Cl  UNL A   1      28.019  31.392  20.534  1.00  0.00    -0.080 Cl
BRANCH  13  23
ATOM     23  C   UNL A   1      29.794  25.862  23.741  1.00  0.00     0.430 C 
ATOM     24  F   UNL A   1      29.987  25.864  25.072  1.00  0.00    -0.167 F 
ATOM     25  F   UNL A   1      28.434  25.789  23.609  1.00  0.00    -0.167 F 
ATOM     26  F   UNL A   1      30.237  24.670  23.268  1.00  0.00    -0.167 F 
ENDBRANCH  13  23
ENDBRANCH   9  11
ENDBRANCH   8   9
ENDBRANCH   7   8
ENDBRANCH   6   7
ENDBRANCH   5   6
ENDBRANCH   4   5
ENDBRANCH   3   4
ENDBRANCH   2   3
ENDBRANCH   1   2
BRANCH   1  27
ATOM     27  C   UNL A   1      40.137  21.164  26.009  1.00  0.00     0.188 C 
BRANCH  27  28
ATOM     28  O   UNL A   1      40.890  20.905  27.179  1.00  0.00    -0.376 OA
BRANCH  28  29
ATOM     29  C   UNL A   1      42.293  20.731  27.137  1.00  0.00     0.202 C 
BRANCH  29  30
ATOM     30  C   UNL A   1      43.167  21.417  26.075  1.00  0.00     0.261 C 
BRANCH  30  31
ATOM     31  O   UNL A   1      43.715  22.695  26.422  1.00  0.00    -0.460 OA
BRANCH  31  32
ATOM     32  C   UNL A   1      43.384  23.712  25.600  1.00  0.00     0.338 C 
ATOM     33  O   UNL A   1      43.463  23.731  24.384  1.00  0.00    -0.246 OA
BRANCH  32  34
ATOM     34  C   UNL A   1      42.712  24.779  26.376  1.00  0.00     0.060 A 
ATOM     35  C   UNL A   1      43.356  26.022  26.481  1.00  0.00     0.016 A 
ATOM     36  C   UNL A   1      41.484  24.570  27.007  1.00  0.00     0.016 A 
ATOM     37  C   UNL A   1      42.804  27.042  27.248  1.00  0.00     0.010 A 
ATOM     38  C   UNL A   1      40.954  25.576  27.819  1.00  0.00     0.010 A 
ATOM     39  C   UNL A   1      41.638  26.796  27.979  1.00  0.00    -0.014 A 
BRANCH  39  40
ATOM     40  C   UNL A   1      41.297  27.704  29.097  1.00  0.00     0.031 A 
ATOM     41  C   UNL A   1      42.138  27.633  30.340  1.00  0.00     0.074 A 
ATOM     42  C   UNL A   1      40.306  28.606  28.995  1.00  0.00     0.049 A 
ATOM     43  N   UNL A   1      42.011  28.277  31.471  1.00  0.00    -0.248 NA
ATOM     44  C   UNL A   1      43.279  26.702  30.302  1.00  0.00     0.031 C 
ATOM     45  C   UNL A   1      39.470  28.808  27.817  1.00  0.00     0.029 A 
ATOM     46  N   UNL A   1      39.832  29.513  29.908  1.00  0.00    -0.354 N 
ATOM     47  C   UNL A   1      43.041  27.816  32.281  1.00  0.00     0.074 A 
ATOM     48  C   UNL A   1      43.764  26.817  31.528  1.00  0.00     0.031 C 
ATOM     49  C   UNL A   1      38.570  29.770  28.082  1.00  0.00     0.029 A 
ATOM     50  C   UNL A   1      38.742  30.218  29.463  1.00  0.00     0.049 A 
ATOM     51  H   UNL A   1      40.237  29.647  30.797  1.00  0.00     0.167 HD
ATOM     52  C   UNL A   1      43.355  28.199  33.542  1.00  0.00     0.037 A 
ATOM     53  C   UNL A   1      37.953  31.095  30.116  1.00  0.00     0.037 A 
ATOM     54  C   UNL A   1      42.622  29.189  34.284  1.00  0.00     0.049 A 
ATOM     55  C   UNL A   1      38.266  31.433  31.553  1.00  0.00     0.074 A 
ATOM     56  C   UNL A   1      42.862  29.660  35.563  1.00  0.00     0.029 A 
ATOM     57  N   UNL A   1      41.495  29.852  33.818  1.00  0.00    -0.354 N 
ATOM     58  N   UNL A   1      39.250  31.010  32.311  1.00  0.00    -0.248 NA
ATOM     59  C   UNL A   1      37.358  32.372  32.224  1.00  0.00     0.031 C 
ATOM     60  C   UNL A   1      41.835  30.545  35.900  1.00  0.00     0.029 A 
ATOM     61  C   UNL A   1      41.005  30.697  34.800  1.00  0.00     0.049 A 
ATOM     62  H   UNL A   1      41.101  29.737  32.923  1.00  0.00     0.167 HD
ATOM     63  C   UNL A   1      39.099  31.656  33.533  1.00  0.00     0.074 A 
ATOM     64  C   UNL A   1      37.939  32.513  33.407  1.00  0.00     0.031 C 
ATOM     65  C   UNL A   1      39.852  31.550  34.657  1.00  0.00     0.037 A 
BRANCH  52  66
ATOM     66  C   UNL A   1      44.509  27.508  34.211  1.00  0.00     0.064 A 
ATOM     67  C   UNL A   1      44.348  26.316  34.935  1.00  0.00     0.173 A 
ATOM     68  C   UNL A   1      45.805  28.038  34.107  1.00  0.00     0.173 A 
ATOM     69  F   UNL A   1      43.130  25.773  35.078  1.00  0.00    -0.203 F 
ATOM     70  C   UNL A   1      45.432  25.701  35.555  1.00  0.00     0.198 A 
ATOM     71  C   UNL A   1      46.893  27.399  34.695  1.00  0.00     0.198 A 
ATOM     72  F   UNL A   1      46.019  29.174  33.425  1.00  0.00    -0.203 F 
ATOM     73  F   UNL A   1      45.243  24.596  36.290  1.00  0.00    -0.200 F 
ATOM     74  C   UNL A   1      46.705  26.237  35.427  1.00  0.00     0.200 A 
ATOM     75  F   UNL A   1      48.124  27.909  34.552  1.00  0.00    -0.200 F 
ATOM     76  F   UNL A   1      47.749  25.639  36.016  1.00  0.00    -0.200 F 
ENDBRANCH  52  66
BRANCH  53  77
ATOM     77  C   UNL A   1      36.778  31.696  29.431  1.00  0.00     0.064 A 
ATOM     78  C   UNL A   1      35.693  30.905  29.024  1.00  0.00     0.173 A 
ATOM     79  C   UNL A   1      36.726  33.068  29.139  1.00  0.00     0.173 A 
ATOM     80  F   UNL A   1      35.703  29.585  29.258  1.00  0.00    -0.203 F 
ATOM     81  C   UNL A   1      34.618  31.458  28.332  1.00  0.00     0.198 A 
ATOM     82  C   UNL A   1      35.632  33.626  28.482  1.00  0.00     0.198 A 
ATOM     83  F   UNL A   1      37.737  33.871  29.503  1.00  0.00    -0.203 F 
ATOM     84  F   UNL A   1      33.623  30.668  27.904  1.00  0.00    -0.200 F 
ATOM     85  C   UNL A   1      34.584  32.819  28.067  1.00  0.00     0.200 A 
ATOM     86  F   UNL A   1      35.597  34.943  28.245  1.00  0.00    -0.200 F 
ATOM     87  F   UNL A   1      33.547  33.350  27.406  1.00  0.00    -0.200 F 
ENDBRANCH  53  77
BRANCH  65  88
ATOM     88  C   UNL A   1      39.478  32.420  35.828  1.00  0.00     0.064 A 
ATOM     89  C   UNL A   1      40.033  33.694  36.015  1.00  0.00     0.173 A 
ATOM     90  C   UNL A   1      38.516  31.983  36.752  1.00  0.00     0.173 A 
ATOM     91  F   UNL A   1      40.964  34.159  35.167  1.00  0.00    -0.203 F 
ATOM     92  C   UNL A   1      39.668  34.482  37.104  1.00  0.00     0.198 A 
ATOM     93  C   UNL A   1      38.121  32.791  37.815  1.00  0.00     0.198 A 
ATOM     94  F   UNL A   1      37.943  30.777  36.617  1.00  0.00    -0.203 F 
ATOM     95  F   UNL A   1      40.259  35.669  37.299  1.00  0.00    -0.200 F 
ATOM     96  C   UNL A   1      38.706  34.034  37.997  1.00  0.00     0.200 A 
ATOM     97  F   UNL A   1      37.175  32.364  38.663  1.00  0.00    -0.200 F 
ATOM     98  F   UNL A   1      38.349  34.797  39.039  1.00  0.00    -0.200 F 
ENDBRANCH  65  88
ENDBRANCH  39  40
ENDBRANCH  32  34
ENDBRANCH  31  32
ENDBRANCH  30  31
ENDBRANCH  29  30
ENDBRANCH  28  29
ENDBRANCH  27  28
ENDBRANCH   1  27
TORSDOF 21
ENDMDL
MODEL 3
REMARK VINA RESULT:     -11.6      5.442     10.780
REMARK SMILES O=C(OCCOCCOCCOCCOC(=O)c1ccc(-c2c3nc(c(-c4c(F)c(F)c(F)c(F)c4F)c4ccc([nH]4)c(-c4c(F)c(F)c(F)c(F)c4F)c4nc(c(-c5c(F)c(F)c(F)c(F)c5F)c5ccc2[nH]5)C=C4)C=C3)cc1)C1=Cc2c(Cl)ccc(Cl)c2O[C@@H]1C(F)(F)F
REMARK SMILES IDX 10 1 9 2 8 3 7 4 6 5 5 6 4 7 3 8 2 9 1 10 81 11 82 12 92 13
REMARK SMILES IDX 83 14 91 15 84 16 90 17 85 18 86 19 88 20 87 21 89 22 93 23
REMARK SMILES IDX 94 24 95 25 96 26 11 27 12 28 13 29 14 30 15 31 16 32 17 33
REMARK SMILES IDX 18 34 19 35 80 36 20 37 79 38 21 39 22 40 23 41 73 42 24 43
REMARK SMILES IDX 78 44 72 45 74 46 25 47 77 48 71 49 70 50 26 52 58 53 38 54
REMARK SMILES IDX 57 55 39 56 42 57 56 58 75 59 40 60 41 61 55 63 76 64 43 65
REMARK SMILES IDX 27 66 28 67 36 68 29 69 30 70 34 71 37 72 31 73 32 74 35 75
REMARK SMILES IDX 33 76 59 77 60 78 68 79 61 80 62 81 66 82 69 83 63 84 64 85
REMARK SMILES IDX 67 86 65 87 44 88 45 89 53 90 46 91 47 92 51 93 54 94 48 95
REMARK SMILES IDX 49 96 52 97 50 98
REMARK H PARENT 74 51 42 62
REMARK Flexibility Score: inf
ROOT
ATOM      1  C   UNL A   1      39.000  22.175  26.305  1.00  0.00     0.188 C 
ENDROOT
BRANCH   1   2
ATOM      2  O   UNL A   1      37.871  22.103  25.468  1.00  0.00    -0.377 OA
BRANCH   2   3
ATOM      3  C   UNL A   1      37.709  20.817  24.918  1.00  0.00     0.188 C 
BRANCH   3   4
ATOM      4  C   UNL A   1      36.343  20.167  25.173  1.00  0.00     0.188 C 
BRANCH   4   5
ATOM      5  O   UNL A   1      35.124  20.908  25.531  1.00  0.00    -0.376 OA
BRANCH   5   6
ATOM      6  C   UNL A   1      33.653  20.458  26.155  1.00  0.00     0.202 C 
BRANCH   6   7
ATOM      7  C   UNL A   1      31.690  21.205  25.561  1.00  0.00     0.261 C 
BRANCH   7   8
ATOM      8  O   UNL A   1      31.141  22.588  25.804  1.00  0.00    -0.460 OA
BRANCH   8   9
ATOM      9  C   UNL A   1      32.046  23.542  25.552  1.00  0.00     0.338 C 
ATOM     10  O   UNL A   1      32.652  24.215  26.346  1.00  0.00    -0.246 OA
BRANCH   9  11
ATOM     11  C   UNL A   1      31.666  23.803  24.170  1.00  0.00     0.087 C 
ATOM     12  C   UNL A   1      30.517  24.702  24.020  1.00  0.00     0.029 C 
ATOM     13  C   UNL A   1      33.462  24.243  23.666  1.00  0.00     0.316 C 
ATOM     14  C   UNL A   1      30.622  26.450  23.563  1.00  0.00     0.037 A 
ATOM     15  O   UNL A   1      33.654  26.152  23.312  1.00  0.00    -0.474 OA
ATOM     16  C   UNL A   1      29.494  27.238  23.525  1.00  0.00     0.052 A 
ATOM     17  C   UNL A   1      32.157  27.229  23.309  1.00  0.00     0.148 A 
ATOM     18  Cl  UNL A   1      27.915  26.645  23.826  1.00  0.00    -0.084 Cl
ATOM     19  C   UNL A   1      29.697  28.605  23.263  1.00  0.00     0.023 A 
ATOM     20  C   UNL A   1      32.255  28.590  23.132  1.00  0.00     0.083 A 
ATOM     21  C   UNL A   1      30.994  29.240  23.084  1.00  0.00     0.026 A 
ATOM     22  Cl  UNL A   1      33.687  29.509  23.114  1.00  0.00    -0.080 Cl
BRANCH  13  23
ATOM     23  C   UNL A   1      33.586  22.889  22.681  1.00  0.00     0.430 C 
ATOM     24  F   UNL A   1      32.697  22.742  21.683  1.00  0.00    -0.167 F 
ATOM     25  F   UNL A   1      34.789  22.990  22.036  1.00  0.00    -0.167 F 
ATOM     26  F   UNL A   1      33.661  21.704  23.338  1.00  0.00    -0.167 F 
ENDBRANCH  13  23
ENDBRANCH   9  11
ENDBRANCH   8   9
ENDBRANCH   7   8
ENDBRANCH   6   7
ENDBRANCH   5   6
ENDBRANCH   4   5
ENDBRANCH   3   4
ENDBRANCH   2   3
ENDBRANCH   1   2
BRANCH   1  27
ATOM     27  C   UNL A   1      40.278  21.499  25.798  1.00  0.00     0.188 C 
BRANCH  27  28
ATOM     28  O   UNL A   1      41.033  20.587  26.572  1.00  0.00    -0.376 OA
BRANCH  28  29
ATOM     29  C   UNL A   1      42.407  20.361  26.326  1.00  0.00     0.202 C 
BRANCH  29  30
ATOM     30  C   UNL A   1      43.293  21.409  25.632  1.00  0.00     0.261 C 
BRANCH  30  31
ATOM     31  O   UNL A   1      43.606  22.586  26.386  1.00  0.00    -0.460 OA
BRANCH  31  32
ATOM     32  C   UNL A   1      43.600  23.742  25.691  1.00  0.00     0.338 C 
ATOM     33  O   UNL A   1      43.977  23.912  24.544  1.00  0.00    -0.246 OA
BRANCH  32  34
ATOM     34  C   UNL A   1      42.879  24.781  26.460  1.00  0.00     0.060 A 
ATOM     35  C   UNL A   1      43.430  26.072  26.499  1.00  0.00     0.016 A 
ATOM     36  C   UNL A   1      41.696  24.502  27.147  1.00  0.00     0.016 A 
ATOM     37  C   UNL A   1      42.832  27.073  27.255  1.00  0.00     0.010 A 
ATOM     38  C   UNL A   1      41.123  25.493  27.948  1.00  0.00     0.010 A 
ATOM     39  C   UNL A   1      41.717  26.766  28.041  1.00  0.00    -0.014 A 
BRANCH  39  40
ATOM     40  C   UNL A   1      41.351  27.684  29.142  1.00  0.00     0.031 A 
ATOM     41  C   UNL A   1      42.184  27.646  30.393  1.00  0.00     0.074 A 
ATOM     42  C   UNL A   1      40.345  28.566  29.020  1.00  0.00     0.049 A 
ATOM     43  N   UNL A   1      42.037  28.304  31.514  1.00  0.00    -0.248 NA
ATOM     44  C   UNL A   1      43.342  26.735  30.378  1.00  0.00     0.031 C 
ATOM     45  C   UNL A   1      39.516  28.736  27.832  1.00  0.00     0.029 A 
ATOM     46  N   UNL A   1      39.849  29.478  29.916  1.00  0.00    -0.354 N 
ATOM     47  C   UNL A   1      43.068  27.873  32.338  1.00  0.00     0.074 A 
ATOM     48  C   UNL A   1      43.815  26.876  31.606  1.00  0.00     0.031 C 
ATOM     49  C   UNL A   1      38.596  29.686  28.077  1.00  0.00     0.029 A 
ATOM     50  C   UNL A   1      38.750  30.157  29.453  1.00  0.00     0.049 A 
ATOM     51  H   UNL A   1      40.244  29.633  30.806  1.00  0.00     0.167 HD
ATOM     52  C   UNL A   1      43.366  28.280  33.595  1.00  0.00     0.037 A 
ATOM     53  C   UNL A   1      37.940  31.029  30.087  1.00  0.00     0.037 A 
ATOM     54  C   UNL A   1      42.609  29.268  34.317  1.00  0.00     0.049 A 
ATOM     55  C   UNL A   1      38.236  31.394  31.521  1.00  0.00     0.074 A 
ATOM     56  C   UNL A   1      42.831  29.761  35.591  1.00  0.00     0.029 A 
ATOM     57  N   UNL A   1      41.475  29.903  33.834  1.00  0.00    -0.354 N 
ATOM     58  N   UNL A   1      39.222  31.000  32.293  1.00  0.00    -0.248 NA
ATOM     59  C   UNL A   1      37.306  32.326  32.171  1.00  0.00     0.031 C 
ATOM     60  C   UNL A   1      41.785  30.633  35.907  1.00  0.00     0.029 A 
ATOM     61  C   UNL A   1      40.962  30.754  34.799  1.00  0.00     0.049 A 
ATOM     62  H   UNL A   1      41.090  29.768  32.937  1.00  0.00     0.167 HD
ATOM     63  C   UNL A   1      39.049  31.661  33.503  1.00  0.00     0.074 A 
ATOM     64  C   UNL A   1      37.875  32.495  33.356  1.00  0.00     0.031 C 
ATOM     65  C   UNL A   1      39.795  31.585  34.635  1.00  0.00     0.037 A 
BRANCH  52  66
ATOM     66  C   UNL A   1      44.527  27.620  34.283  1.00  0.00     0.064 A 
ATOM     67  C   UNL A   1      44.382  26.433  35.019  1.00  0.00     0.173 A 
ATOM     68  C   UNL A   1      45.812  28.174  34.186  1.00  0.00     0.173 A 
ATOM     69  F   UNL A   1      43.173  25.867  35.156  1.00  0.00    -0.203 F 
ATOM     70  C   UNL A   1      45.472  25.846  35.656  1.00  0.00     0.198 A 
ATOM     71  C   UNL A   1      46.907  27.563  34.791  1.00  0.00     0.198 A 
ATOM     72  F   UNL A   1      46.011  29.307  33.494  1.00  0.00    -0.203 F 
ATOM     73  F   UNL A   1      45.298  24.746  36.402  1.00  0.00    -0.200 F 
ATOM     74  C   UNL A   1      46.734  26.407  35.535  1.00  0.00     0.200 A 
ATOM     75  F   UNL A   1      48.129  28.096  34.655  1.00  0.00    -0.200 F 
ATOM     76  F   UNL A   1      47.785  25.835  36.140  1.00  0.00    -0.200 F 
ENDBRANCH  52  66
BRANCH  53  77
ATOM     77  C   UNL A   1      36.760  31.599  29.384  1.00  0.00     0.064 A 
ATOM     78  C   UNL A   1      35.663  30.796  29.040  1.00  0.00     0.173 A 
ATOM     79  C   UNL A   1      36.715  32.952  29.012  1.00  0.00     0.173 A 
ATOM     80  F   UNL A   1      35.665  29.492  29.352  1.00  0.00    -0.203 F 
ATOM     81  C   UNL A   1      34.582  31.316  28.332  1.00  0.00     0.198 A 
ATOM     82  C   UNL A   1      35.616  33.479  28.338  1.00  0.00     0.198 A 
ATOM     83  F   UNL A   1      37.737  33.766  29.313  1.00  0.00    -0.203 F 
ATOM     84  F   UNL A   1      33.575  30.511  27.965  1.00  0.00    -0.200 F 
ATOM     85  C   UNL A   1      34.556  32.659  27.987  1.00  0.00     0.200 A 
ATOM     86  F   UNL A   1      35.588  34.781  28.024  1.00  0.00    -0.200 F 
ATOM     87  F   UNL A   1      33.513  33.160  27.310  1.00  0.00    -0.200 F 
ENDBRANCH  53  77
BRANCH  65  88
ATOM     88  C   UNL A   1      39.397  32.465  35.789  1.00  0.00     0.064 A 
ATOM     89  C   UNL A   1      38.519  32.026  36.791  1.00  0.00     0.173 A 
ATOM     90  C   UNL A   1      39.938  33.754  35.913  1.00  0.00     0.173 A 
ATOM     91  F   UNL A   1      37.965  30.805  36.719  1.00  0.00    -0.203 F 
ATOM     92  C   UNL A   1      38.169  32.858  37.852  1.00  0.00     0.198 A 
ATOM     93  C   UNL A   1      39.620  34.567  36.997  1.00  0.00     0.198 A 
ATOM     94  F   UNL A   1      40.791  34.223  34.989  1.00  0.00    -0.203 F 
ATOM     95  F   UNL A   1      37.279  32.440  38.763  1.00  0.00    -0.200 F 
ATOM     96  C   UNL A   1      38.726  34.123  37.959  1.00  0.00     0.200 A 
ATOM     97  F   UNL A   1      40.178  35.780  37.109  1.00  0.00    -0.200 F 
ATOM     98  F   UNL A   1      38.396  34.918  38.986  1.00  0.00    -0.200 F 
ENDBRANCH  65  88
ENDBRANCH  39  40
ENDBRANCH  32  34
ENDBRANCH  31  32
ENDBRANCH  30  31
ENDBRANCH  29  30
ENDBRANCH  28  29
ENDBRANCH  27  28
ENDBRANCH   1  27
TORSDOF 21
ENDMDL
