MODEL 1
REMARK VINA RESULT:      -8.4      0.000      0.000
REMARK SMILES C[C@H](CNS(=O)(=O)CCC(=O)OCCOCCOCCOCCOC(=O)c1ccc(-c2c3nc(c(-c4c(F)c(F)c(F)c(F)c4F)c4ccc([nH]4)c(-c4c(F)c(F)c(F)c(F)c4F)c4nc(c(-c5c(F)c(F)c(F)c(F)c5F)c5ccc2[nH]5)C=C4)C=C3)cc1)c1ccccc1
REMARK SMILES IDX 16 1 15 2 14 3 13 4 12 5 10 6 11 7 9 8 8 9 5 10 6 11 7 12
REMARK SMILES IDX 4 13 3 15 2 16 1 17 90 18 91 19 95 20 92 21 94 22 93 23
REMARK SMILES IDX 17 24 18 25 19 26 20 27 21 28 22 29 23 30 24 31 25 32 26 33
REMARK SMILES IDX 27 34 28 35 89 36 29 37 88 38 30 39 31 40 32 41 82 42 33 43
REMARK SMILES IDX 87 44 81 45 83 46 34 47 86 48 80 49 79 50 35 52 67 53 47 54
REMARK SMILES IDX 66 55 48 56 51 57 65 58 84 59 49 60 50 61 64 63 85 64 52 65
REMARK SMILES IDX 36 66 37 67 45 68 38 69 39 70 43 71 46 72 40 73 41 74 44 75
REMARK SMILES IDX 42 76 68 77 69 78 77 79 70 80 71 81 75 82 78 83 72 84 73 85
REMARK SMILES IDX 76 86 74 87 53 88 54 89 62 90 55 91 56 92 60 93 63 94 57 95
REMARK SMILES IDX 58 96 61 97 59 98
REMARK H PARENT 4 14 83 51 51 62
REMARK Flexibility Score: inf
ROOT
ATOM      1  C   UNL A   1      38.942  21.520  25.738  1.00  0.00     0.188 C 
ENDROOT
BRANCH   1   2
ATOM      2  O   UNL A   1      37.855  21.800  24.857  1.00  0.00    -0.376 OA
BRANCH   2   3
ATOM      3  C   UNL A   1      36.756  20.891  24.882  1.00  0.00     0.202 C 
BRANCH   3   4
ATOM      4  C   UNL A   1      35.339  21.484  24.915  1.00  0.00     0.261 C 
BRANCH   4   5
ATOM      5  O   UNL A   1      35.336  22.841  24.417  1.00  0.00    -0.463 OA
BRANCH   5   6
ATOM      6  C   UNL A   1      35.241  23.839  25.319  1.00  0.00     0.306 C 
ATOM      7  O   UNL A   1      35.844  23.864  26.385  1.00  0.00    -0.252 OA
BRANCH   6   8
ATOM      8  C   UNL A   1      34.363  24.986  24.875  1.00  0.00     0.140 C 
BRANCH   8   9
ATOM      9  C   UNL A   1      33.418  25.620  25.878  1.00  0.00     0.165 C 
BRANCH   9  10
ATOM     10  S   UNL A   1      33.156  27.378  25.663  1.00  0.00     0.212 S 
ATOM     11  O   UNL A   1      33.918  27.813  24.512  1.00  0.00    -0.212 OA
ATOM     12  O   UNL A   1      33.302  28.054  26.930  1.00  0.00    -0.212 OA
BRANCH  10  13
ATOM     13  N   UNL A   1      31.538  27.545  25.213  1.00  0.00    -0.215 NA
ATOM     14  H   UNL A   1      31.158  28.352  25.710  1.00  0.00     0.141 HD
BRANCH  13  15
ATOM     15  C   UNL A   1      30.662  26.383  25.496  1.00  0.00     0.106 C 
BRANCH  15  16
ATOM     16  C   UNL A   1      29.696  25.983  24.349  1.00  0.00     0.031 C 
ATOM     17  C   UNL A   1      28.923  27.142  23.700  1.00  0.00     0.014 C 
BRANCH  16  18
ATOM     18  C   UNL A   1      30.533  25.268  23.308  1.00  0.00    -0.044 A 
ATOM     19  C   UNL A   1      30.707  23.597  23.743  1.00  0.00     0.004 A 
ATOM     20  C   UNL A   1      31.580  26.132  22.133  1.00  0.00     0.004 A 
ATOM     21  C   UNL A   1      32.025  22.719  23.044  1.00  0.00     0.000 A 
ATOM     22  C   UNL A   1      32.970  25.345  21.328  1.00  0.00     0.000 A 
ATOM     23  C   UNL A   1      33.282  23.606  21.728  1.00  0.00     0.000 A 
ENDBRANCH  16  18
ENDBRANCH  15  16
ENDBRANCH  13  15
ENDBRANCH  10  13
ENDBRANCH   9  10
ENDBRANCH   8   9
ENDBRANCH   6   8
ENDBRANCH   5   6
ENDBRANCH   4   5
ENDBRANCH   3   4
ENDBRANCH   2   3
ENDBRANCH   1   2
BRANCH   1  24
ATOM     24  C   UNL A   1      39.406  20.060  25.726  1.00  0.00     0.188 C 
BRANCH  24  25
ATOM     25  O   UNL A   1      40.716  19.944  26.269  1.00  0.00    -0.377 OA
BRANCH  25  26
ATOM     26  C   UNL A   1      40.888  20.466  27.576  1.00  0.00     0.188 C 
BRANCH  26  27
ATOM     27  C   UNL A   1      41.991  21.494  27.807  1.00  0.00     0.188 C 
BRANCH  27  28
ATOM     28  O   UNL A   1      41.782  22.857  27.473  1.00  0.00    -0.376 OA
BRANCH  28  29
ATOM     29  C   UNL A   1      42.221  23.362  26.223  1.00  0.00     0.202 C 
BRANCH  29  30
ATOM     30  C   UNL A   1      43.730  23.344  25.949  1.00  0.00     0.261 C 
BRANCH  30  31
ATOM     31  O   UNL A   1      44.407  22.082  26.147  1.00  0.00    -0.460 OA
BRANCH  31  32
ATOM     32  C   UNL A   1      45.709  22.095  25.751  1.00  0.00     0.338 C 
ATOM     33  O   UNL A   1      46.304  21.111  25.330  1.00  0.00    -0.246 OA
BRANCH  32  34
ATOM     34  C   UNL A   1      46.429  23.398  26.205  1.00  0.00     0.060 A 
ATOM     35  C   UNL A   1      46.713  24.497  27.892  1.00  0.00     0.016 A 
ATOM     36  C   UNL A   1      46.554  24.294  24.632  1.00  0.00     0.016 A 
ATOM     37  C   UNL A   1      47.036  26.219  27.795  1.00  0.00     0.010 A 
ATOM     38  C   UNL A   1      46.931  26.020  24.680  1.00  0.00     0.010 A 
ATOM     39  C   UNL A   1      47.195  26.907  26.215  1.00  0.00    -0.014 A 
BRANCH  39  40
ATOM     40  C   UNL A   1      47.885  28.195  26.227  1.00  0.00     0.031 A 
ATOM     41  C   UNL A   1      49.326  28.135  25.936  1.00  0.00     0.074 A 
ATOM     42  C   UNL A   1      47.172  29.324  26.452  1.00  0.00     0.049 A 
ATOM     43  N   UNL A   1      50.197  29.095  25.924  1.00  0.00    -0.248 NA
ATOM     44  C   UNL A   1      49.873  26.799  25.635  1.00  0.00     0.031 C 
ATOM     45  C   UNL A   1      45.723  29.410  26.715  1.00  0.00     0.029 A 
ATOM     46  N   UNL A   1      47.551  30.638  26.472  1.00  0.00    -0.354 N 
ATOM     47  C   UNL A   1      51.394  28.477  25.618  1.00  0.00     0.074 A 
ATOM     48  C   UNL A   1      51.163  27.056  25.549  1.00  0.00     0.031 C 
ATOM     49  C   UNL A   1      45.339  30.689  26.817  1.00  0.00     0.029 A 
ATOM     50  C   UNL A   1      46.516  31.521  26.706  1.00  0.00     0.049 A 
ATOM     51  H   UNL A   1      48.481  30.928  26.332  1.00  0.00     0.167 HD
ATOM     52  C   UNL A   1      52.574  29.080  25.377  1.00  0.00     0.037 A 
ATOM     53  C   UNL A   1      46.542  32.860  26.832  1.00  0.00     0.037 A 
ATOM     54  C   UNL A   1      52.725  30.497  25.502  1.00  0.00     0.049 A 
ATOM     55  C   UNL A   1      47.897  33.489  26.676  1.00  0.00     0.074 A 
ATOM     56  C   UNL A   1      53.865  31.263  25.424  1.00  0.00     0.029 A 
ATOM     57  N   UNL A   1      51.661  31.364  25.758  1.00  0.00    -0.354 N 
ATOM     58  N   UNL A   1      49.042  32.904  26.402  1.00  0.00    -0.248 NA
ATOM     59  C   UNL A   1      47.983  34.941  26.844  1.00  0.00     0.031 C 
ATOM     60  C   UNL A   1      53.497  32.588  25.681  1.00  0.00     0.029 A 
ATOM     61  C   UNL A   1      52.118  32.660  25.851  1.00  0.00     0.049 A 
ATOM     62  H   UNL A   1      50.721  31.088  25.855  1.00  0.00     0.167 HD
ATOM     63  C   UNL A   1      49.981  33.913  26.323  1.00  0.00     0.074 A 
ATOM     64  C   UNL A   1      49.265  35.153  26.578  1.00  0.00     0.031 C 
ATOM     65  C   UNL A   1      51.310  33.838  26.068  1.00  0.00     0.037 A 
BRANCH  52  66
ATOM     66  C   UNL A   1      53.707  28.164  25.041  1.00  0.00     0.064 A 
ATOM     67  C   UNL A   1      54.549  27.649  26.045  1.00  0.00     0.173 A 
ATOM     68  C   UNL A   1      54.079  27.963  23.706  1.00  0.00     0.173 A 
ATOM     69  F   UNL A   1      54.271  27.872  27.339  1.00  0.00    -0.203 F 
ATOM     70  C   UNL A   1      55.749  27.021  25.720  1.00  0.00     0.198 A 
ATOM     71  C   UNL A   1      55.265  27.306  23.387  1.00  0.00     0.198 A 
ATOM     72  F   UNL A   1      53.330  28.465  22.714  1.00  0.00    -0.203 F 
ATOM     73  F   UNL A   1      56.591  26.645  26.694  1.00  0.00    -0.200 F 
ATOM     74  C   UNL A   1      56.107  26.853  24.392  1.00  0.00     0.200 A 
ATOM     75  F   UNL A   1      55.619  27.157  22.103  1.00  0.00    -0.200 F 
ATOM     76  F   UNL A   1      57.280  26.286  24.081  1.00  0.00    -0.200 F 
ENDBRANCH  52  66
BRANCH  53  77
ATOM     77  C   UNL A   1      45.309  33.656  27.108  1.00  0.00     0.064 A 
ATOM     78  C   UNL A   1      44.890  33.917  28.422  1.00  0.00     0.173 A 
ATOM     79  C   UNL A   1      44.504  34.161  26.072  1.00  0.00     0.173 A 
ATOM     80  F   UNL A   1      45.614  33.466  29.457  1.00  0.00    -0.203 F 
ATOM     81  C   UNL A   1      43.704  34.607  28.687  1.00  0.00     0.198 A 
ATOM     82  C   UNL A   1      43.334  34.876  26.337  1.00  0.00     0.198 A 
ATOM     83  F   UNL A   1      44.854  33.964  24.793  1.00  0.00    -0.203 F 
ATOM     84  F   UNL A   1      43.306  34.789  29.954  1.00  0.00    -0.200 F 
ATOM     85  C   UNL A   1      42.926  35.086  27.644  1.00  0.00     0.200 A 
ATOM     86  F   UNL A   1      42.596  35.351  25.325  1.00  0.00    -0.200 F 
ATOM     87  F   UNL A   1      41.784  35.738  27.900  1.00  0.00    -0.200 F 
ENDBRANCH  53  77
BRANCH  65  88
ATOM     88  C   UNL A   1      52.039  35.136  25.977  1.00  0.00     0.064 A 
ATOM     89  C   UNL A   1      52.219  35.787  24.752  1.00  0.00     0.173 A 
ATOM     90  C   UNL A   1      52.438  35.783  27.155  1.00  0.00     0.173 A 
ATOM     91  F   UNL A   1      51.865  35.186  23.606  1.00  0.00    -0.203 F 
ATOM     92  C   UNL A   1      52.772  37.059  24.709  1.00  0.00     0.198 A 
ATOM     93  C   UNL A   1      52.958  37.068  27.110  1.00  0.00     0.198 A 
ATOM     94  F   UNL A   1      52.274  35.185  28.345  1.00  0.00    -0.203 F 
ATOM     95  F   UNL A   1      52.956  37.667  23.530  1.00  0.00    -0.200 F 
ATOM     96  C   UNL A   1      53.123  37.705  25.888  1.00  0.00     0.200 A 
ATOM     97  F   UNL A   1      53.276  37.698  28.248  1.00  0.00    -0.200 F 
ATOM     98  F   UNL A   1      53.618  38.948  25.847  1.00  0.00    -0.200 F 
ENDBRANCH  65  88
ENDBRANCH  39  40
ENDBRANCH  32  34
ENDBRANCH  31  32
ENDBRANCH  30  31
ENDBRANCH  29  30
ENDBRANCH  28  29
ENDBRANCH  27  28
ENDBRANCH  26  27
ENDBRANCH  25  26
ENDBRANCH  24  25
ENDBRANCH   1  24
TORSDOF 26
ENDMDL
MODEL 2
REMARK VINA RESULT:      -8.2      6.169     11.682
REMARK SMILES C[C@H](CNS(=O)(=O)CCC(=O)OCCOCCOCCOCCOC(=O)c1ccc(-c2c3nc(c(-c4c(F)c(F)c(F)c(F)c4F)c4ccc([nH]4)c(-c4c(F)c(F)c(F)c(F)c4F)c4nc(c(-c5c(F)c(F)c(F)c(F)c5F)c5ccc2[nH]5)C=C4)C=C3)cc1)c1ccccc1
REMARK SMILES IDX 16 1 15 2 14 3 13 4 12 5 10 6 11 7 9 8 8 9 5 10 6 11 7 12
REMARK SMILES IDX 4 13 3 15 2 16 1 17 90 18 91 19 95 20 92 21 94 22 93 23
REMARK SMILES IDX 17 24 18 25 19 26 20 27 21 28 22 29 23 30 24 31 25 32 26 33
REMARK SMILES IDX 27 34 28 35 89 36 29 37 88 38 30 39 31 40 32 41 82 42 33 43
REMARK SMILES IDX 87 44 81 45 83 46 34 47 86 48 80 49 79 50 35 52 67 53 47 54
REMARK SMILES IDX 66 55 48 56 51 57 65 58 84 59 49 60 50 61 64 63 85 64 52 65
REMARK SMILES IDX 36 66 37 67 45 68 38 69 39 70 43 71 46 72 40 73 41 74 44 75
REMARK SMILES IDX 42 76 68 77 69 78 77 79 70 80 71 81 75 82 78 83 72 84 73 85
REMARK SMILES IDX 76 86 74 87 53 88 54 89 62 90 55 91 56 92 60 93 63 94 57 95
REMARK SMILES IDX 58 96 61 97 59 98
REMARK H PARENT 4 14 83 51 51 62
REMARK Flexibility Score: inf
ROOT
ATOM      1  C   UNL A   1      32.973  36.066  29.545  1.00  0.00     0.188 C 
ENDROOT
BRANCH   1   2
ATOM      2  O   UNL A   1      34.251  35.566  29.154  1.00  0.00    -0.376 OA
BRANCH   2   3
ATOM      3  C   UNL A   1      34.414  34.149  29.152  1.00  0.00     0.202 C 
BRANCH   3   4
ATOM      4  C   UNL A   1      35.061  33.505  27.916  1.00  0.00     0.261 C 
BRANCH   4   5
ATOM      5  O   UNL A   1      35.924  32.411  28.297  1.00  0.00    -0.463 OA
BRANCH   5   6
ATOM      6  C   UNL A   1      35.532  31.161  27.975  1.00  0.00     0.306 C 
ATOM      7  O   UNL A   1      34.536  30.901  27.312  1.00  0.00    -0.252 OA
BRANCH   6   8
ATOM      8  C   UNL A   1      36.474  30.080  28.452  1.00  0.00     0.140 C 
BRANCH   8   9
ATOM      9  C   UNL A   1      37.965  30.256  28.236  1.00  0.00     0.165 C 
BRANCH   9  10
ATOM     10  S   UNL A   1      39.004  29.192  29.233  1.00  0.00     0.212 S 
ATOM     11  O   UNL A   1      38.456  29.147  30.572  1.00  0.00    -0.212 OA
ATOM     12  O   UNL A   1      40.393  29.528  29.026  1.00  0.00    -0.212 OA
BRANCH  10  13
ATOM     13  N   UNL A   1      38.789  27.637  28.614  1.00  0.00    -0.215 NA
ATOM     14  H   UNL A   1      38.761  26.989  29.402  1.00  0.00     0.141 HD
BRANCH  13  15
ATOM     15  C   UNL A   1      39.833  27.163  27.673  1.00  0.00     0.106 C 
BRANCH  15  16
ATOM     16  C   UNL A   1      40.703  25.984  28.184  1.00  0.00     0.031 C 
ATOM     17  C   UNL A   1      40.249  24.584  27.739  1.00  0.00     0.014 C 
BRANCH  16  18
ATOM     18  C   UNL A   1      42.116  26.250  27.706  1.00  0.00    -0.044 A 
ATOM     19  C   UNL A   1      43.083  26.824  29.028  1.00  0.00     0.004 A 
ATOM     20  C   UNL A   1      42.544  26.434  25.971  1.00  0.00     0.004 A 
ATOM     21  C   UNL A   1      44.529  27.695  28.645  1.00  0.00     0.000 A 
ATOM     22  C   UNL A   1      44.013  27.300  25.434  1.00  0.00     0.000 A 
ATOM     23  C   UNL A   1      45.090  27.982  26.721  1.00  0.00     0.000 A 
ENDBRANCH  16  18
ENDBRANCH  15  16
ENDBRANCH  13  15
ENDBRANCH  10  13
ENDBRANCH   9  10
ENDBRANCH   8   9
ENDBRANCH   6   8
ENDBRANCH   5   6
ENDBRANCH   4   5
ENDBRANCH   3   4
ENDBRANCH   2   3
ENDBRANCH   1   2
BRANCH   1  24
ATOM     24  C   UNL A   1      32.847  36.379  31.039  1.00  0.00     0.188 C 
BRANCH  24  25
ATOM     25  O   UNL A   1      32.574  35.195  31.781  1.00  0.00    -0.377 OA
BRANCH  25  26
ATOM     26  C   UNL A   1      33.608  34.763  32.650  1.00  0.00     0.188 C 
BRANCH  26  27
ATOM     27  C   UNL A   1      34.752  35.726  32.951  1.00  0.00     0.188 C 
BRANCH  27  28
ATOM     28  O   UNL A   1      35.783  35.355  33.852  1.00  0.00    -0.376 OA
BRANCH  28  29
ATOM     29  C   UNL A   1      35.632  34.214  34.681  1.00  0.00     0.202 C 
BRANCH  29  30
ATOM     30  C   UNL A   1      36.807  33.229  34.739  1.00  0.00     0.261 C 
BRANCH  30  31
ATOM     31  O   UNL A   1      37.885  33.562  35.643  1.00  0.00    -0.460 OA
BRANCH  31  32
ATOM     32  C   UNL A   1      38.851  34.334  35.076  1.00  0.00     0.338 C 
ATOM     33  O   UNL A   1      38.877  35.557  35.148  1.00  0.00    -0.246 OA
BRANCH  32  34
ATOM     34  C   UNL A   1      39.712  33.520  34.066  1.00  0.00     0.060 A 
ATOM     35  C   UNL A   1      39.468  32.147  32.587  1.00  0.00     0.016 A 
ATOM     36  C   UNL A   1      41.326  33.530  34.895  1.00  0.00     0.016 A 
ATOM     37  C   UNL A   1      40.760  31.034  32.178  1.00  0.00     0.010 A 
ATOM     38  C   UNL A   1      42.554  32.382  34.350  1.00  0.00     0.010 A 
ATOM     39  C   UNL A   1      42.263  31.221  33.014  1.00  0.00    -0.014 A 
BRANCH  39  40
ATOM     40  C   UNL A   1      43.379  30.581  32.322  1.00  0.00     0.031 A 
ATOM     41  C   UNL A   1      43.968  31.365  31.226  1.00  0.00     0.074 A 
ATOM     42  C   UNL A   1      43.813  29.371  32.748  1.00  0.00     0.049 A 
ATOM     43  N   UNL A   1      44.923  31.042  30.412  1.00  0.00    -0.248 NA
ATOM     44  C   UNL A   1      43.385  32.700  30.997  1.00  0.00     0.031 C 
ATOM     45  C   UNL A   1      43.257  28.581  33.864  1.00  0.00     0.029 A 
ATOM     46  N   UNL A   1      44.846  28.584  32.318  1.00  0.00    -0.354 N 
ATOM     47  C   UNL A   1      45.052  32.132  29.573  1.00  0.00     0.074 A 
ATOM     48  C   UNL A   1      44.021  33.082  29.906  1.00  0.00     0.031 C 
ATOM     49  C   UNL A   1      43.977  27.468  34.055  1.00  0.00     0.029 A 
ATOM     50  C   UNL A   1      45.000  27.414  33.035  1.00  0.00     0.049 A 
ATOM     51  H   UNL A   1      45.428  28.831  31.564  1.00  0.00     0.167 HD
ATOM     52  C   UNL A   1      45.997  32.317  28.631  1.00  0.00     0.037 A 
ATOM     53  C   UNL A   1      45.874  26.407  32.856  1.00  0.00     0.037 A 
ATOM     54  C   UNL A   1      46.965  31.305  28.339  1.00  0.00     0.049 A 
ATOM     55  C   UNL A   1      46.838  26.594  31.719  1.00  0.00     0.074 A 
ATOM     56  C   UNL A   1      47.909  31.264  27.340  1.00  0.00     0.029 A 
ATOM     57  N   UNL A   1      47.085  30.123  29.071  1.00  0.00    -0.354 N 
ATOM     58  N   UNL A   1      46.954  27.620  30.906  1.00  0.00    -0.248 NA
ATOM     59  C   UNL A   1      47.783  25.506  31.459  1.00  0.00     0.031 C 
ATOM     60  C   UNL A   1      48.568  30.033  27.437  1.00  0.00     0.029 A 
ATOM     61  C   UNL A   1      48.083  29.335  28.540  1.00  0.00     0.049 A 
ATOM     62  H   UNL A   1      46.538  29.886  29.854  1.00  0.00     0.167 HD
ATOM     63  C   UNL A   1      48.007  27.328  30.063  1.00  0.00     0.074 A 
ATOM     64  C   UNL A   1      48.499  26.021  30.469  1.00  0.00     0.031 C 
ATOM     65  C   UNL A   1      48.527  28.058  29.048  1.00  0.00     0.037 A 
BRANCH  52  66
ATOM     66  C   UNL A   1      45.914  33.609  27.883  1.00  0.00     0.064 A 
ATOM     67  C   UNL A   1      46.648  34.737  28.295  1.00  0.00     0.173 A 
ATOM     68  C   UNL A   1      44.953  33.782  26.880  1.00  0.00     0.173 A 
ATOM     69  F   UNL A   1      47.533  34.636  29.299  1.00  0.00    -0.203 F 
ATOM     70  C   UNL A   1      46.375  35.999  27.772  1.00  0.00     0.198 A 
ATOM     71  C   UNL A   1      44.708  35.041  26.336  1.00  0.00     0.198 A 
ATOM     72  F   UNL A   1      44.203  32.746  26.477  1.00  0.00    -0.203 F 
ATOM     73  F   UNL A   1      47.003  37.077  28.265  1.00  0.00    -0.200 F 
ATOM     74  C   UNL A   1      45.404  36.150  26.796  1.00  0.00     0.200 A 
ATOM     75  F   UNL A   1      43.758  35.190  25.403  1.00  0.00    -0.200 F 
ATOM     76  F   UNL A   1      45.114  37.369  26.322  1.00  0.00    -0.200 F 
ENDBRANCH  52  66
BRANCH  53  77
ATOM     77  C   UNL A   1      45.879  25.195  33.729  1.00  0.00     0.064 A 
ATOM     78  C   UNL A   1      45.045  24.100  33.458  1.00  0.00     0.173 A 
ATOM     79  C   UNL A   1      46.700  25.103  34.866  1.00  0.00     0.173 A 
ATOM     80  F   UNL A   1      44.239  24.122  32.386  1.00  0.00    -0.203 F 
ATOM     81  C   UNL A   1      44.999  22.989  34.305  1.00  0.00     0.198 A 
ATOM     82  C   UNL A   1      46.675  23.981  35.698  1.00  0.00     0.198 A 
ATOM     83  F   UNL A   1      47.535  26.107  35.175  1.00  0.00    -0.203 F 
ATOM     84  F   UNL A   1      44.148  21.987  34.046  1.00  0.00    -0.200 F 
ATOM     85  C   UNL A   1      45.813  22.931  35.425  1.00  0.00     0.200 A 
ATOM     86  F   UNL A   1      47.477  23.923  36.769  1.00  0.00    -0.200 F 
ATOM     87  F   UNL A   1      45.760  21.871  36.243  1.00  0.00    -0.200 F 
ENDBRANCH  53  77
BRANCH  65  88
ATOM     88  C   UNL A   1      49.728  27.487  28.373  1.00  0.00     0.064 A 
ATOM     89  C   UNL A   1      49.615  26.712  27.214  1.00  0.00     0.173 A 
ATOM     90  C   UNL A   1      51.005  27.840  28.830  1.00  0.00     0.173 A 
ATOM     91  F   UNL A   1      48.407  26.341  26.762  1.00  0.00    -0.203 F 
ATOM     92  C   UNL A   1      50.751  26.313  26.524  1.00  0.00     0.198 A 
ATOM     93  C   UNL A   1      52.136  27.469  28.118  1.00  0.00     0.198 A 
ATOM     94  F   UNL A   1      51.146  28.587  29.937  1.00  0.00    -0.203 F 
ATOM     95  F   UNL A   1      50.632  25.556  25.424  1.00  0.00    -0.200 F 
ATOM     96  C   UNL A   1      52.008  26.707  26.965  1.00  0.00     0.200 A 
ATOM     97  F   UNL A   1      53.345  27.867  28.532  1.00  0.00    -0.200 F 
ATOM     98  F   UNL A   1      53.099  26.355  26.275  1.00  0.00    -0.200 F 
ENDBRANCH  65  88
ENDBRANCH  39  40
ENDBRANCH  32  34
ENDBRANCH  31  32
ENDBRANCH  30  31
ENDBRANCH  29  30
ENDBRANCH  28  29
ENDBRANCH  27  28
ENDBRANCH  26  27
ENDBRANCH  25  26
ENDBRANCH  24  25
ENDBRANCH   1  24
TORSDOF 26
ENDMDL
MODEL 3
REMARK VINA RESULT:      -8.1      5.059      8.506
REMARK SMILES C[C@H](CNS(=O)(=O)CCC(=O)OCCOCCOCCOCCOC(=O)c1ccc(-c2c3nc(c(-c4c(F)c(F)c(F)c(F)c4F)c4ccc([nH]4)c(-c4c(F)c(F)c(F)c(F)c4F)c4nc(c(-c5c(F)c(F)c(F)c(F)c5F)c5ccc2[nH]5)C=C4)C=C3)cc1)c1ccccc1
REMARK SMILES IDX 16 1 15 2 14 3 13 4 12 5 10 6 11 7 9 8 8 9 5 10 6 11 7 12
REMARK SMILES IDX 4 13 3 15 2 16 1 17 90 18 91 19 95 20 92 21 94 22 93 23
REMARK SMILES IDX 17 24 18 25 19 26 20 27 21 28 22 29 23 30 24 31 25 32 26 33
REMARK SMILES IDX 27 34 28 35 89 36 29 37 88 38 30 39 31 40 32 41 82 42 33 43
REMARK SMILES IDX 87 44 81 45 83 46 34 47 86 48 80 49 79 50 35 52 67 53 47 54
REMARK SMILES IDX 66 55 48 56 51 57 65 58 84 59 49 60 50 61 64 63 85 64 52 65
REMARK SMILES IDX 36 66 37 67 45 68 38 69 39 70 43 71 46 72 40 73 41 74 44 75
REMARK SMILES IDX 42 76 68 77 69 78 77 79 70 80 71 81 75 82 78 83 72 84 73 85
REMARK SMILES IDX 76 86 74 87 53 88 54 89 62 90 55 91 56 92 60 93 63 94 57 95
REMARK SMILES IDX 58 96 61 97 59 98
REMARK H PARENT 4 14 83 51 51 62
REMARK Flexibility Score: inf
ROOT
ATOM      1  C   UNL A   1      39.024  22.198  26.126  1.00  0.00     0.188 C 
ENDROOT
BRANCH   1   2
ATOM      2  O   UNL A   1      37.934  22.398  25.227  1.00  0.00    -0.376 OA
BRANCH   2   3
ATOM      3  C   UNL A   1      37.142  21.255  24.911  1.00  0.00     0.202 C 
BRANCH   3   4
ATOM      4  C   UNL A   1      35.784  21.110  25.613  1.00  0.00     0.261 C 
BRANCH   4   5
ATOM      5  O   UNL A   1      35.356  22.371  26.173  1.00  0.00    -0.463 OA
BRANCH   5   6
ATOM      6  C   UNL A   1      34.099  22.448  26.657  1.00  0.00     0.306 C 
ATOM      7  O   UNL A   1      33.698  21.828  27.635  1.00  0.00    -0.252 OA
BRANCH   6   8
ATOM      8  C   UNL A   1      33.217  23.432  25.922  1.00  0.00     0.140 C 
BRANCH   8   9
ATOM      9  C   UNL A   1      33.734  24.073  24.649  1.00  0.00     0.165 C 
BRANCH   9  10
ATOM     10  S   UNL A   1      33.172  23.302  23.133  1.00  0.00     0.212 S 
ATOM     11  O   UNL A   1      32.956  21.895  23.393  1.00  0.00    -0.212 OA
ATOM     12  O   UNL A   1      34.006  23.720  22.031  1.00  0.00    -0.212 OA
BRANCH  10  13
ATOM     13  N   UNL A   1      31.636  23.939  22.842  1.00  0.00    -0.215 NA
ATOM     14  H   UNL A   1      31.394  23.735  21.872  1.00  0.00     0.141 HD
BRANCH  13  15
ATOM     15  C   UNL A   1      31.488  25.400  23.050  1.00  0.00     0.106 C 
BRANCH  15  16
ATOM     16  C   UNL A   1      30.420  25.818  24.095  1.00  0.00     0.031 C 
ATOM     17  C   UNL A   1      30.971  26.396  25.409  1.00  0.00     0.014 C 
BRANCH  16  18
ATOM     18  C   UNL A   1      29.522  26.831  23.416  1.00  0.00    -0.044 A 
ATOM     19  C   UNL A   1      30.490  28.011  22.590  1.00  0.00     0.004 A 
ATOM     20  C   UNL A   1      27.792  27.049  23.847  1.00  0.00     0.004 A 
ATOM     21  C   UNL A   1      29.754  29.532  22.215  1.00  0.00     0.000 A 
ATOM     22  C   UNL A   1      26.904  28.564  23.508  1.00  0.00     0.000 A 
ATOM     23  C   UNL A   1      27.817  29.892  22.681  1.00  0.00     0.000 A 
ENDBRANCH  16  18
ENDBRANCH  15  16
ENDBRANCH  13  15
ENDBRANCH  10  13
ENDBRANCH   9  10
ENDBRANCH   8   9
ENDBRANCH   6   8
ENDBRANCH   5   6
ENDBRANCH   4   5
ENDBRANCH   3   4
ENDBRANCH   2   3
ENDBRANCH   1   2
BRANCH   1  24
ATOM     24  C   UNL A   1      39.725  20.844  25.979  1.00  0.00     0.188 C 
BRANCH  24  25
ATOM     25  O   UNL A   1      41.036  20.893  26.531  1.00  0.00    -0.377 OA
BRANCH  25  26
ATOM     26  C   UNL A   1      41.145  21.516  27.800  1.00  0.00     0.188 C 
BRANCH  26  27
ATOM     27  C   UNL A   1      42.448  22.229  28.147  1.00  0.00     0.188 C 
BRANCH  27  28
ATOM     28  O   UNL A   1      42.430  23.422  28.917  1.00  0.00    -0.376 OA
BRANCH  28  29
ATOM     29  C   UNL A   1      41.943  24.629  28.354  1.00  0.00     0.202 C 
BRANCH  29  30
ATOM     30  C   UNL A   1      42.932  25.795  28.232  1.00  0.00     0.261 C 
BRANCH  30  31
ATOM     31  O   UNL A   1      44.003  25.635  27.274  1.00  0.00    -0.460 OA
BRANCH  31  32
ATOM     32  C   UNL A   1      44.255  26.758  26.548  1.00  0.00     0.338 C 
ATOM     33  O   UNL A   1      44.436  26.761  25.336  1.00  0.00    -0.246 OA
BRANCH  32  34
ATOM     34  C   UNL A   1      44.611  27.964  27.467  1.00  0.00     0.060 A 
ATOM     35  C   UNL A   1      45.586  28.339  29.210  1.00  0.00     0.016 A 
ATOM     36  C   UNL A   1      43.329  29.156  26.990  1.00  0.00     0.016 A 
ATOM     37  C   UNL A   1      45.170  29.736  30.186  1.00  0.00     0.010 A 
ATOM     38  C   UNL A   1      43.045  30.545  28.045  1.00  0.00     0.010 A 
ATOM     39  C   UNL A   1      43.974  30.816  29.555  1.00  0.00    -0.014 A 
BRANCH  39  40
ATOM     40  C   UNL A   1      44.014  32.134  30.184  1.00  0.00     0.031 A 
ATOM     41  C   UNL A   1      44.949  33.090  29.573  1.00  0.00     0.074 A 
ATOM     42  C   UNL A   1      43.184  32.395  31.221  1.00  0.00     0.049 A 
ATOM     43  N   UNL A   1      45.234  34.300  29.938  1.00  0.00    -0.248 NA
ATOM     44  C   UNL A   1      45.690  32.610  28.392  1.00  0.00     0.031 C 
ATOM     45  C   UNL A   1      42.217  31.462  31.830  1.00  0.00     0.029 A 
ATOM     46  N   UNL A   1      42.987  33.536  31.950  1.00  0.00    -0.354 N 
ATOM     47  C   UNL A   1      46.189  34.724  29.033  1.00  0.00     0.074 A 
ATOM     48  C   UNL A   1      46.509  33.619  28.166  1.00  0.00     0.031 C 
ATOM     49  C   UNL A   1      41.509  32.076  32.787  1.00  0.00     0.029 A 
ATOM     50  C   UNL A   1      42.015  33.424  32.923  1.00  0.00     0.049 A 
ATOM     51  H   UNL A   1      43.495  34.365  31.793  1.00  0.00     0.167 HD
ATOM     52  C   UNL A   1      46.710  35.961  28.931  1.00  0.00     0.037 A 
ATOM     53  C   UNL A   1      41.604  34.324  33.834  1.00  0.00     0.037 A 
ATOM     54  C   UNL A   1      46.362  36.995  29.858  1.00  0.00     0.049 A 
ATOM     55  C   UNL A   1      42.292  35.658  33.768  1.00  0.00     0.074 A 
ATOM     56  C   UNL A   1      46.883  38.261  29.987  1.00  0.00     0.029 A 
ATOM     57  N   UNL A   1      45.386  36.845  30.844  1.00  0.00    -0.354 N 
ATOM     58  N   UNL A   1      43.214  36.060  32.921  1.00  0.00    -0.248 NA
ATOM     59  C   UNL A   1      41.907  36.659  34.764  1.00  0.00     0.031 C 
ATOM     60  C   UNL A   1      46.255  38.861  31.085  1.00  0.00     0.029 A 
ATOM     61  C   UNL A   1      45.294  37.995  31.598  1.00  0.00     0.049 A 
ATOM     62  H   UNL A   1      44.842  36.036  30.981  1.00  0.00     0.167 HD
ATOM     63  C   UNL A   1      43.494  37.371  33.249  1.00  0.00     0.074 A 
ATOM     64  C   UNL A   1      42.637  37.697  34.378  1.00  0.00     0.031 C 
ATOM     65  C   UNL A   1      44.371  38.234  32.683  1.00  0.00     0.037 A 
BRANCH  52  66
ATOM     66  C   UNL A   1      47.712  36.149  27.836  1.00  0.00     0.064 A 
ATOM     67  C   UNL A   1      49.060  35.784  28.013  1.00  0.00     0.173 A 
ATOM     68  C   UNL A   1      47.374  36.877  26.689  1.00  0.00     0.173 A 
ATOM     69  F   UNL A   1      49.445  35.144  29.129  1.00  0.00    -0.203 F 
ATOM     70  C   UNL A   1      50.037  36.196  27.111  1.00  0.00     0.198 A 
ATOM     71  C   UNL A   1      48.351  37.258  25.773  1.00  0.00     0.198 A 
ATOM     72  F   UNL A   1      46.110  37.279  26.492  1.00  0.00    -0.203 F 
ATOM     73  F   UNL A   1      51.329  35.940  27.362  1.00  0.00    -0.200 F 
ATOM     74  C   UNL A   1      49.682  36.935  25.994  1.00  0.00     0.200 A 
ATOM     75  F   UNL A   1      48.010  37.986  24.700  1.00  0.00    -0.200 F 
ATOM     76  F   UNL A   1      50.627  37.366  25.148  1.00  0.00    -0.200 F 
ENDBRANCH  52  66
BRANCH  53  77
ATOM     77  C   UNL A   1      40.539  34.014  34.834  1.00  0.00     0.064 A 
ATOM     78  C   UNL A   1      40.852  33.437  36.075  1.00  0.00     0.173 A 
ATOM     79  C   UNL A   1      39.181  34.264  34.574  1.00  0.00     0.173 A 
ATOM     80  F   UNL A   1      42.130  33.176  36.387  1.00  0.00    -0.203 F 
ATOM     81  C   UNL A   1      39.856  33.087  36.990  1.00  0.00     0.198 A 
ATOM     82  C   UNL A   1      38.186  33.940  35.500  1.00  0.00     0.198 A 
ATOM     83  F   UNL A   1      38.811  34.830  33.415  1.00  0.00    -0.203 F 
ATOM     84  F   UNL A   1      40.188  32.486  38.141  1.00  0.00    -0.200 F 
ATOM     85  C   UNL A   1      38.524  33.338  36.702  1.00  0.00     0.200 A 
ATOM     86  F   UNL A   1      36.902  34.201  35.224  1.00  0.00    -0.200 F 
ATOM     87  F   UNL A   1      37.568  32.991  37.575  1.00  0.00    -0.200 F 
ENDBRANCH  53  77
BRANCH  65  88
ATOM     88  C   UNL A   1      44.380  39.621  33.231  1.00  0.00     0.064 A 
ATOM     89  C   UNL A   1      43.478  40.591  32.779  1.00  0.00     0.173 A 
ATOM     90  C   UNL A   1      45.217  39.926  34.313  1.00  0.00     0.173 A 
ATOM     91  F   UNL A   1      42.677  40.336  31.733  1.00  0.00    -0.203 F 
ATOM     92  C   UNL A   1      43.409  41.829  33.402  1.00  0.00     0.198 A 
ATOM     93  C   UNL A   1      45.120  41.152  34.955  1.00  0.00     0.198 A 
ATOM     94  F   UNL A   1      46.089  39.015  34.773  1.00  0.00    -0.203 F 
ATOM     95  F   UNL A   1      42.554  42.755  32.950  1.00  0.00    -0.200 F 
ATOM     96  C   UNL A   1      44.214  42.101  34.500  1.00  0.00     0.200 A 
ATOM     97  F   UNL A   1      45.881  41.406  36.027  1.00  0.00    -0.200 F 
ATOM     98  F   UNL A   1      44.116  43.281  35.125  1.00  0.00    -0.200 F 
ENDBRANCH  65  88
ENDBRANCH  39  40
ENDBRANCH  32  34
ENDBRANCH  31  32
ENDBRANCH  30  31
ENDBRANCH  29  30
ENDBRANCH  28  29
ENDBRANCH  27  28
ENDBRANCH  26  27
ENDBRANCH  25  26
ENDBRANCH  24  25
ENDBRANCH   1  24
TORSDOF 26
ENDMDL
