MODEL 1
REMARK VINA RESULT:     -10.1      0.000      0.000
REMARK SMILES O=C(C[C@H]1S/C(=[NH+]/N=C/c2cccc(Cl)c2)NC1=O)OCCOCCOCCOCCOC(=O)c1ccc(-c2c3nc(c(-c4c(F)c(F)c(F)c(F)c4F)c4ccc([nH]4)c(-c4c(F)c(F)c(F)c(F)c4F)c4nc(c(-c5c(F)c(F)c(F)c(F)c5F)c5ccc2[nH]5)C=C4)C=C3)cc1
REMARK SMILES IDX 25 1 24 2 23 3 22 4 21 5 20 6 2 7 1 8 3 9 4 10 5 11 18 12
REMARK SMILES IDX 6 13 17 14 19 15 7 16 8 19 9 20 10 21 11 22 16 23 12 24
REMARK SMILES IDX 14 25 13 26 15 27 26 28 27 29 28 30 29 31 30 32 31 33 32 34
REMARK SMILES IDX 33 35 34 36 35 37 36 38 97 39 37 40 96 41 38 42 39 43 40 44
REMARK SMILES IDX 90 45 41 46 95 47 89 48 91 49 42 50 94 51 88 52 87 53 43 55
REMARK SMILES IDX 75 56 55 57 74 58 56 59 59 60 73 61 92 62 57 63 58 64 72 66
REMARK SMILES IDX 93 67 60 68 44 69 45 70 53 71 46 72 47 73 51 74 54 75 48 76
REMARK SMILES IDX 49 77 52 78 50 79 76 80 77 81 85 82 78 83 79 84 83 85 86 86
REMARK SMILES IDX 80 87 81 88 84 89 82 90 61 91 62 92 70 93 63 94 64 95 68 96
REMARK SMILES IDX 71 97 65 98 66 99 69 100 67 101
REMARK H PARENT 17 17 7 18 91 54 59 65
REMARK Flexibility Score: inf
ROOT
ATOM      1  C   UNL A   1      35.571  30.420  28.500  1.00  0.00     0.188 C 
ENDROOT
BRANCH   1   2
ATOM      2  C   UNL A   1      35.177  29.434  27.396  1.00  0.00     0.188 C 
BRANCH   2   3
ATOM      3  O   UNL A   1      33.811  29.425  27.009  1.00  0.00    -0.376 OA
BRANCH   3   4
ATOM      4  C   UNL A   1      32.840  28.493  27.457  1.00  0.00     0.202 C 
BRANCH   4   5
ATOM      5  C   UNL A   1      32.022  27.706  26.452  1.00  0.00     0.261 C 
BRANCH   5   6
ATOM      6  O   UNL A   1      32.604  26.513  25.882  1.00  0.00    -0.463 OA
BRANCH   6   7
ATOM      7  C   UNL A   1      33.396  26.310  24.819  1.00  0.00     0.307 C 
ATOM      8  O   UNL A   1      34.067  27.249  24.394  1.00  0.00    -0.252 OA
BRANCH   7   9
ATOM      9  C   UNL A   1      33.428  24.985  24.097  1.00  0.00     0.150 C 
BRANCH   9  10
ATOM     10  C   UNL A   1      32.491  24.819  22.912  1.00  0.00     0.184 C 
ATOM     11  S   UNL A   1      30.778  24.673  23.549  1.00  0.00    -0.020 SA
ATOM     12  C   UNL A   1      32.437  26.042  22.025  1.00  0.00     0.322 C 
ATOM     13  C   UNL A   1      30.492  26.348  23.241  1.00  0.00     0.337 C 
ATOM     14  N   UNL A   1      31.447  26.869  22.433  1.00  0.00    -0.202 N 
ATOM     15  O   UNL A   1      33.204  26.271  21.102  1.00  0.00    -0.246 OA
ATOM     16  N   UNL A   1      29.487  27.022  23.681  1.00  0.00    -0.142 N 
ATOM     17  H   UNL A   1      31.422  27.812  22.153  1.00  0.00     0.316 HD
ATOM     18  H   UNL A   1      28.786  26.678  24.281  1.00  0.00     0.343 HD
BRANCH  16  19
ATOM     19  N   UNL A   1      29.553  28.312  23.175  1.00  0.00    -0.093 NA
ATOM     20  C   UNL A   1      28.402  28.790  22.849  1.00  0.00     0.166 C 
BRANCH  20  21
ATOM     21  C   UNL A   1      28.350  30.151  22.303  1.00  0.00    -0.002 A 
ATOM     22  C   UNL A   1      27.936  30.350  20.977  1.00  0.00     0.010 A 
ATOM     23  C   UNL A   1      28.756  31.219  23.095  1.00  0.00     0.030 A 
ATOM     24  C   UNL A   1      27.928  31.631  20.437  1.00  0.00     0.002 A 
ATOM     25  C   UNL A   1      28.757  32.495  22.540  1.00  0.00     0.041 A 
ATOM     26  C   UNL A   1      28.344  32.706  21.220  1.00  0.00     0.020 A 
ATOM     27  Cl  UNL A   1      29.289  33.829  23.486  1.00  0.00    -0.084 Cl
ENDBRANCH  20  21
ENDBRANCH  16  19
ENDBRANCH   9  10
ENDBRANCH   7   9
ENDBRANCH   6   7
ENDBRANCH   5   6
ENDBRANCH   4   5
ENDBRANCH   3   4
ENDBRANCH   2   3
ENDBRANCH   1   2
BRANCH   1  28
ATOM     28  O   UNL A   1      36.331  31.543  28.072  1.00  0.00    -0.377 OA
BRANCH  28  29
ATOM     29  C   UNL A   1      35.600  32.751  27.969  1.00  0.00     0.188 C 
BRANCH  29  30
ATOM     30  C   UNL A   1      34.098  32.661  28.316  1.00  0.00     0.188 C 
BRANCH  30  31
ATOM     31  O   UNL A   1      33.172  33.671  27.949  1.00  0.00    -0.376 OA
BRANCH  31  32
ATOM     32  C   UNL A   1      33.135  34.909  28.636  1.00  0.00     0.202 C 
BRANCH  32  33
ATOM     33  C   UNL A   1      33.911  35.129  29.945  1.00  0.00     0.261 C 
BRANCH  33  34
ATOM     34  O   UNL A   1      33.328  36.044  30.882  1.00  0.00    -0.460 OA
BRANCH  34  35
ATOM     35  C   UNL A   1      32.857  35.487  32.018  1.00  0.00     0.338 C 
ATOM     36  O   UNL A   1      31.689  35.343  32.346  1.00  0.00    -0.246 OA
BRANCH  35  37
ATOM     37  C   UNL A   1      33.975  34.861  32.753  1.00  0.00     0.060 A 
ATOM     38  C   UNL A   1      35.158  35.603  32.893  1.00  0.00     0.016 A 
ATOM     39  C   UNL A   1      33.880  33.573  33.286  1.00  0.00     0.016 A 
ATOM     40  C   UNL A   1      36.270  35.042  33.507  1.00  0.00     0.010 A 
ATOM     41  C   UNL A   1      35.013  32.989  33.862  1.00  0.00     0.010 A 
ATOM     42  C   UNL A   1      36.224  33.704  33.914  1.00  0.00    -0.014 A 
BRANCH  42  43
ATOM     43  C   UNL A   1      37.516  32.993  34.049  1.00  0.00     0.031 A 
ATOM     44  C   UNL A   1      38.307  33.240  35.307  1.00  0.00     0.074 A 
ATOM     45  C   UNL A   1      37.926  32.085  33.149  1.00  0.00     0.049 A 
ATOM     46  N   UNL A   1      39.438  32.714  35.701  1.00  0.00    -0.248 NA
ATOM     47  C   UNL A   1      37.736  34.212  36.256  1.00  0.00     0.031 C 
ATOM     48  C   UNL A   1      37.211  31.715  31.931  1.00  0.00     0.029 A 
ATOM     49  N   UNL A   1      39.050  31.300  33.136  1.00  0.00    -0.354 N 
ATOM     50  C   UNL A   1      39.712  33.297  36.932  1.00  0.00     0.074 A 
ATOM     51  C   UNL A   1      38.653  34.240  37.208  1.00  0.00     0.031 C 
ATOM     52  C   UNL A   1      37.918  30.773  31.282  1.00  0.00     0.029 A 
ATOM     53  C   UNL A   1      39.143  30.492  32.030  1.00  0.00     0.049 A 
ATOM     54  H   UNL A   1      39.725  31.313  33.852  1.00  0.00     0.167 HD
ATOM     55  C   UNL A   1      40.751  33.062  37.765  1.00  0.00     0.037 A 
ATOM     56  C   UNL A   1      40.119  29.637  31.667  1.00  0.00     0.037 A 
ATOM     57  C   UNL A   1      41.803  32.121  37.488  1.00  0.00     0.049 A 
ATOM     58  C   UNL A   1      41.306  29.448  32.579  1.00  0.00     0.074 A 
ATOM     59  C   UNL A   1      42.898  31.798  38.266  1.00  0.00     0.029 A 
ATOM     60  N   UNL A   1      41.889  31.359  36.333  1.00  0.00    -0.354 N 
ATOM     61  N   UNL A   1      41.551  29.985  33.750  1.00  0.00    -0.248 NA
ATOM     62  C   UNL A   1      42.350  28.520  32.118  1.00  0.00     0.031 C 
ATOM     63  C   UNL A   1      43.683  30.885  37.553  1.00  0.00     0.029 A 
ATOM     64  C   UNL A   1      43.036  30.585  36.363  1.00  0.00     0.049 A 
ATOM     65  H   UNL A   1      41.232  31.368  35.598  1.00  0.00     0.167 HD
ATOM     66  C   UNL A   1      42.750  29.430  34.184  1.00  0.00     0.074 A 
ATOM     67  C   UNL A   1      43.176  28.507  33.154  1.00  0.00     0.031 C 
ATOM     68  C   UNL A   1      43.435  29.658  35.334  1.00  0.00     0.037 A 
BRANCH  55  69
ATOM     69  C   UNL A   1      40.820  33.869  39.029  1.00  0.00     0.064 A 
ATOM     70  C   UNL A   1      41.560  35.059  39.115  1.00  0.00     0.173 A 
ATOM     71  C   UNL A   1      40.125  33.445  40.173  1.00  0.00     0.173 A 
ATOM     72  F   UNL A   1      42.259  35.497  38.058  1.00  0.00    -0.203 F 
ATOM     73  C   UNL A   1      41.624  35.778  40.307  1.00  0.00     0.198 A 
ATOM     74  C   UNL A   1      40.165  34.183  41.351  1.00  0.00     0.198 A 
ATOM     75  F   UNL A   1      39.406  32.314  40.146  1.00  0.00    -0.203 F 
ATOM     76  F   UNL A   1      42.383  36.880  40.382  1.00  0.00    -0.200 F 
ATOM     77  C   UNL A   1      40.921  35.344  41.421  1.00  0.00     0.200 A 
ATOM     78  F   UNL A   1      39.475  33.769  42.422  1.00  0.00    -0.200 F 
ATOM     79  F   UNL A   1      40.979  36.039  42.565  1.00  0.00    -0.200 F 
ENDBRANCH  55  69
BRANCH  56  80
ATOM     80  C   UNL A   1      40.021  28.889  30.385  1.00  0.00     0.064 A 
ATOM     81  C   UNL A   1      39.450  27.610  30.333  1.00  0.00     0.173 A 
ATOM     82  C   UNL A   1      40.528  29.424  29.192  1.00  0.00     0.173 A 
ATOM     83  F   UNL A   1      38.972  27.043  31.451  1.00  0.00    -0.203 F 
ATOM     84  C   UNL A   1      39.413  26.884  29.143  1.00  0.00     0.198 A 
ATOM     85  C   UNL A   1      40.463  28.711  27.997  1.00  0.00     0.198 A 
ATOM     86  F   UNL A   1      41.087  30.643  29.186  1.00  0.00    -0.203 F 
ATOM     87  F   UNL A   1      38.913  25.641  29.135  1.00  0.00    -0.200 F 
ATOM     88  C   UNL A   1      39.915  27.437  27.975  1.00  0.00     0.200 A 
ATOM     89  F   UNL A   1      40.939  29.254  26.867  1.00  0.00    -0.200 F 
ATOM     90  F   UNL A   1      39.881  26.740  26.832  1.00  0.00    -0.200 F 
ENDBRANCH  56  80
BRANCH  68  91
ATOM     91  C   UNL A   1      44.681  28.851  35.569  1.00  0.00     0.064 A 
ATOM     92  C   UNL A   1      44.650  27.600  36.202  1.00  0.00     0.173 A 
ATOM     93  C   UNL A   1      45.924  29.330  35.125  1.00  0.00     0.173 A 
ATOM     94  F   UNL A   1      43.490  27.100  36.653  1.00  0.00    -0.203 F 
ATOM     95  C   UNL A   1      45.821  26.878  36.419  1.00  0.00     0.198 A 
ATOM     96  C   UNL A   1      47.088  28.589  35.309  1.00  0.00     0.198 A 
ATOM     97  F   UNL A   1      46.010  30.516  34.501  1.00  0.00    -0.203 F 
ATOM     98  F   UNL A   1      45.775  25.716  37.083  1.00  0.00    -0.200 F 
ATOM     99  C   UNL A   1      47.037  27.369  35.966  1.00  0.00     0.200 A 
ATOM    100  F   UNL A   1      48.257  29.055  34.852  1.00  0.00    -0.200 F 
ATOM    101  F   UNL A   1      48.162  26.671  36.173  1.00  0.00    -0.200 F 
ENDBRANCH  68  91
ENDBRANCH  42  43
ENDBRANCH  35  37
ENDBRANCH  34  35
ENDBRANCH  33  34
ENDBRANCH  32  33
ENDBRANCH  31  32
ENDBRANCH  30  31
ENDBRANCH  29  30
ENDBRANCH  28  29
ENDBRANCH   1  28
TORSDOF 23
ENDMDL
MODEL 2
REMARK VINA RESULT:      -9.3      5.086      9.120
REMARK SMILES O=C(C[C@H]1S/C(=[NH+]/N=C/c2cccc(Cl)c2)NC1=O)OCCOCCOCCOCCOC(=O)c1ccc(-c2c3nc(c(-c4c(F)c(F)c(F)c(F)c4F)c4ccc([nH]4)c(-c4c(F)c(F)c(F)c(F)c4F)c4nc(c(-c5c(F)c(F)c(F)c(F)c5F)c5ccc2[nH]5)C=C4)C=C3)cc1
REMARK SMILES IDX 25 1 24 2 23 3 22 4 21 5 20 6 2 7 1 8 3 9 4 10 5 11 18 12
REMARK SMILES IDX 6 13 17 14 19 15 7 16 8 19 9 20 10 21 11 22 16 23 12 24
REMARK SMILES IDX 14 25 13 26 15 27 26 28 27 29 28 30 29 31 30 32 31 33 32 34
REMARK SMILES IDX 33 35 34 36 35 37 36 38 97 39 37 40 96 41 38 42 39 43 40 44
REMARK SMILES IDX 90 45 41 46 95 47 89 48 91 49 42 50 94 51 88 52 87 53 43 55
REMARK SMILES IDX 75 56 55 57 74 58 56 59 59 60 73 61 92 62 57 63 58 64 72 66
REMARK SMILES IDX 93 67 60 68 44 69 45 70 53 71 46 72 47 73 51 74 54 75 48 76
REMARK SMILES IDX 49 77 52 78 50 79 76 80 77 81 85 82 78 83 79 84 83 85 86 86
REMARK SMILES IDX 80 87 81 88 84 89 82 90 61 91 62 92 70 93 63 94 64 95 68 96
REMARK SMILES IDX 71 97 65 98 66 99 69 100 67 101
REMARK H PARENT 17 17 7 18 91 54 59 65
REMARK Flexibility Score: inf
ROOT
ATOM      1  C   UNL A   1      34.288  31.084  27.246  1.00  0.00     0.188 C 
ENDROOT
BRANCH   1   2
ATOM      2  C   UNL A   1      33.540  29.748  27.298  1.00  0.00     0.188 C 
BRANCH   2   3
ATOM      3  O   UNL A   1      33.997  28.728  26.423  1.00  0.00    -0.376 OA
BRANCH   3   4
ATOM      4  C   UNL A   1      33.666  28.621  25.048  1.00  0.00     0.202 C 
BRANCH   4   5
ATOM      5  C   UNL A   1      32.246  28.883  24.585  1.00  0.00     0.261 C 
BRANCH   5   6
ATOM      6  O   UNL A   1      31.666  27.983  23.616  1.00  0.00    -0.463 OA
BRANCH   6   7
ATOM      7  C   UNL A   1      30.597  27.174  23.656  1.00  0.00     0.307 C 
ATOM      8  O   UNL A   1      29.524  27.591  23.222  1.00  0.00    -0.252 OA
BRANCH   7   9
ATOM      9  C   UNL A   1      30.664  25.801  24.279  1.00  0.00     0.150 C 
BRANCH   9  10
ATOM     10  C   UNL A   1      31.999  25.372  24.865  1.00  0.00     0.184 C 
ATOM     11  S   UNL A   1      31.678  24.466  26.426  1.00  0.00    -0.020 SA
ATOM     12  C   UNL A   1      32.723  24.359  24.009  1.00  0.00     0.322 C 
ATOM     13  C   UNL A   1      31.816  22.952  25.607  1.00  0.00     0.337 C 
ATOM     14  N   UNL A   1      32.384  23.105  24.386  1.00  0.00    -0.202 N 
ATOM     15  O   UNL A   1      33.470  24.633  23.081  1.00  0.00    -0.246 OA
ATOM     16  N   UNL A   1      31.468  21.812  26.092  1.00  0.00    -0.142 N 
ATOM     17  H   UNL A   1      32.544  22.333  23.796  1.00  0.00     0.316 HD
ATOM     18  H   UNL A   1      31.041  21.669  26.967  1.00  0.00     0.343 HD
BRANCH  16  19
ATOM     19  N   UNL A   1      31.791  20.816  25.181  1.00  0.00    -0.093 NA
ATOM     20  C   UNL A   1      32.632  19.956  25.644  1.00  0.00     0.166 C 
BRANCH  20  21
ATOM     21  C   UNL A   1      33.045  18.855  24.766  1.00  0.00    -0.002 A 
ATOM     22  C   UNL A   1      32.533  18.780  23.462  1.00  0.00     0.010 A 
ATOM     23  C   UNL A   1      33.905  17.879  25.256  1.00  0.00     0.030 A 
ATOM     24  C   UNL A   1      32.883  17.715  22.639  1.00  0.00     0.002 A 
ATOM     25  C   UNL A   1      34.237  16.810  24.429  1.00  0.00     0.041 A 
ATOM     26  C   UNL A   1      33.735  16.726  23.126  1.00  0.00     0.020 A 
ATOM     27  Cl  UNL A   1      35.269  15.569  25.023  1.00  0.00    -0.084 Cl
ENDBRANCH  20  21
ENDBRANCH  16  19
ENDBRANCH   9  10
ENDBRANCH   7   9
ENDBRANCH   6   7
ENDBRANCH   5   6
ENDBRANCH   4   5
ENDBRANCH   3   4
ENDBRANCH   2   3
ENDBRANCH   1   2
BRANCH   1  28
ATOM     28  O   UNL A   1      34.563  31.679  28.507  1.00  0.00    -0.377 OA
BRANCH  28  29
ATOM     29  C   UNL A   1      34.613  33.095  28.497  1.00  0.00     0.188 C 
BRANCH  29  30
ATOM     30  C   UNL A   1      33.301  33.812  28.112  1.00  0.00     0.188 C 
BRANCH  30  31
ATOM     31  O   UNL A   1      32.605  34.659  29.013  1.00  0.00    -0.376 OA
BRANCH  31  32
ATOM     32  C   UNL A   1      33.293  35.638  29.770  1.00  0.00     0.202 C 
BRANCH  32  33
ATOM     33  C   UNL A   1      33.439  35.522  31.297  1.00  0.00     0.261 C 
BRANCH  33  34
ATOM     34  O   UNL A   1      34.651  34.924  31.773  1.00  0.00    -0.460 OA
BRANCH  34  35
ATOM     35  C   UNL A   1      34.547  33.631  32.153  1.00  0.00     0.338 C 
ATOM     36  O   UNL A   1      34.025  32.716  31.536  1.00  0.00    -0.246 OA
BRANCH  35  37
ATOM     37  C   UNL A   1      35.360  33.414  33.367  1.00  0.00     0.060 A 
ATOM     38  C   UNL A   1      35.175  34.299  34.440  1.00  0.00     0.016 A 
ATOM     39  C   UNL A   1      36.293  32.377  33.457  1.00  0.00     0.016 A 
ATOM     40  C   UNL A   1      35.962  34.194  35.580  1.00  0.00     0.010 A 
ATOM     41  C   UNL A   1      37.118  32.299  34.582  1.00  0.00     0.010 A 
ATOM     42  C   UNL A   1      36.992  33.248  35.615  1.00  0.00    -0.014 A 
BRANCH  42  43
ATOM     43  C   UNL A   1      38.115  33.503  36.547  1.00  0.00     0.031 A 
ATOM     44  C   UNL A   1      39.345  34.160  35.976  1.00  0.00     0.074 A 
ATOM     45  C   UNL A   1      38.015  33.263  37.864  1.00  0.00     0.049 A 
ATOM     46  N   UNL A   1      40.445  34.538  36.573  1.00  0.00    -0.248 NA
ATOM     47  C   UNL A   1      39.325  34.432  34.528  1.00  0.00     0.031 C 
ATOM     48  C   UNL A   1      36.850  32.695  38.536  1.00  0.00     0.029 A 
ATOM     49  N   UNL A   1      38.917  33.483  38.873  1.00  0.00    -0.354 N 
ATOM     50  C   UNL A   1      41.243  35.082  35.575  1.00  0.00     0.074 A 
ATOM     51  C   UNL A   1      40.523  34.956  34.330  1.00  0.00     0.031 C 
ATOM     52  C   UNL A   1      37.110  32.607  39.853  1.00  0.00     0.029 A 
ATOM     53  C   UNL A   1      38.466  33.092  40.108  1.00  0.00     0.049 A 
ATOM     54  H   UNL A   1      39.804  33.886  38.725  1.00  0.00     0.167 HD
ATOM     55  C   UNL A   1      42.468  35.646  35.687  1.00  0.00     0.037 A 
ATOM     56  C   UNL A   1      39.092  33.116  41.301  1.00  0.00     0.037 A 
ATOM     57  C   UNL A   1      43.181  35.771  36.929  1.00  0.00     0.049 A 
ATOM     58  C   UNL A   1      40.489  33.682  41.387  1.00  0.00     0.074 A 
ATOM     59  C   UNL A   1      44.423  36.333  37.157  1.00  0.00     0.029 A 
ATOM     60  N   UNL A   1      42.713  35.315  38.152  1.00  0.00    -0.354 N 
ATOM     61  N   UNL A   1      41.231  34.213  40.446  1.00  0.00    -0.248 NA
ATOM     62  C   UNL A   1      41.129  33.658  42.710  1.00  0.00     0.031 C 
ATOM     63  C   UNL A   1      44.735  36.160  38.510  1.00  0.00     0.029 A 
ATOM     64  C   UNL A   1      43.655  35.558  39.138  1.00  0.00     0.049 A 
ATOM     65  H   UNL A   1      41.840  34.882  38.298  1.00  0.00     0.167 HD
ATOM     66  C   UNL A   1      42.403  34.626  41.069  1.00  0.00     0.074 A 
ATOM     67  C   UNL A   1      42.268  34.291  42.470  1.00  0.00     0.031 C 
ATOM     68  C   UNL A   1      43.494  35.232  40.532  1.00  0.00     0.037 A 
BRANCH  55  69
ATOM     69  C   UNL A   1      43.126  36.125  34.425  1.00  0.00     0.064 A 
ATOM     70  C   UNL A   1      43.083  37.471  34.027  1.00  0.00     0.173 A 
ATOM     71  C   UNL A   1      43.817  35.221  33.605  1.00  0.00     0.173 A 
ATOM     72  F   UNL A   1      42.417  38.372  34.764  1.00  0.00    -0.203 F 
ATOM     73  C   UNL A   1      43.683  37.886  32.840  1.00  0.00     0.198 A 
ATOM     74  C   UNL A   1      44.443  35.645  32.437  1.00  0.00     0.198 A 
ATOM     75  F   UNL A   1      43.886  33.923  33.937  1.00  0.00    -0.203 F 
ATOM     76  F   UNL A   1      43.580  39.164  32.451  1.00  0.00    -0.200 F 
ATOM     77  C   UNL A   1      44.369  36.975  32.051  1.00  0.00     0.200 A 
ATOM     78  F   UNL A   1      45.116  34.765  31.683  1.00  0.00    -0.200 F 
ATOM     79  F   UNL A   1      44.951  37.376  30.913  1.00  0.00    -0.200 F 
ENDBRANCH  55  69
BRANCH  56  80
ATOM     80  C   UNL A   1      38.410  32.593  42.515  1.00  0.00     0.064 A 
ATOM     81  C   UNL A   1      38.559  31.256  42.913  1.00  0.00     0.173 A 
ATOM     82  C   UNL A   1      37.565  33.409  43.282  1.00  0.00     0.173 A 
ATOM     83  F   UNL A   1      39.336  30.428  42.198  1.00  0.00    -0.203 F 
ATOM     84  C   UNL A   1      37.872  30.751  44.015  1.00  0.00     0.198 A 
ATOM     85  C   UNL A   1      36.903  32.910  44.402  1.00  0.00     0.198 A 
ATOM     86  F   UNL A   1      37.385  34.694  42.945  1.00  0.00    -0.203 F 
ATOM     87  F   UNL A   1      37.990  29.456  44.338  1.00  0.00    -0.200 F 
ATOM     88  C   UNL A   1      37.049  31.579  44.762  1.00  0.00     0.200 A 
ATOM     89  F   UNL A   1      36.118  33.718  45.128  1.00  0.00    -0.200 F 
ATOM     90  F   UNL A   1      36.387  31.093  45.821  1.00  0.00    -0.200 F 
ENDBRANCH  56  80
BRANCH  68  91
ATOM     91  C   UNL A   1      44.597  35.631  41.472  1.00  0.00     0.064 A 
ATOM     92  C   UNL A   1      45.636  34.754  41.816  1.00  0.00     0.173 A 
ATOM     93  C   UNL A   1      44.625  36.926  42.013  1.00  0.00     0.173 A 
ATOM     94  F   UNL A   1      45.652  33.503  41.333  1.00  0.00    -0.203 F 
ATOM     95  C   UNL A   1      46.640  35.145  42.699  1.00  0.00     0.198 A 
ATOM     96  C   UNL A   1      45.651  37.326  42.866  1.00  0.00     0.198 A 
ATOM     97  F   UNL A   1      43.663  37.810  41.708  1.00  0.00    -0.203 F 
ATOM     98  F   UNL A   1      47.586  34.270  43.063  1.00  0.00    -0.200 F 
ATOM     99  C   UNL A   1      46.650  36.432  43.217  1.00  0.00     0.200 A 
ATOM    100  F   UNL A   1      45.670  38.576  43.348  1.00  0.00    -0.200 F 
ATOM    101  F   UNL A   1      47.618  36.808  44.064  1.00  0.00    -0.200 F 
ENDBRANCH  68  91
ENDBRANCH  42  43
ENDBRANCH  35  37
ENDBRANCH  34  35
ENDBRANCH  33  34
ENDBRANCH  32  33
ENDBRANCH  31  32
ENDBRANCH  30  31
ENDBRANCH  29  30
ENDBRANCH  28  29
ENDBRANCH   1  28
TORSDOF 23
ENDMDL
MODEL 3
REMARK VINA RESULT:      -9.2      2.385      4.491
REMARK SMILES O=C(C[C@H]1S/C(=[NH+]/N=C/c2cccc(Cl)c2)NC1=O)OCCOCCOCCOCCOC(=O)c1ccc(-c2c3nc(c(-c4c(F)c(F)c(F)c(F)c4F)c4ccc([nH]4)c(-c4c(F)c(F)c(F)c(F)c4F)c4nc(c(-c5c(F)c(F)c(F)c(F)c5F)c5ccc2[nH]5)C=C4)C=C3)cc1
REMARK SMILES IDX 25 1 24 2 23 3 22 4 21 5 20 6 2 7 1 8 3 9 4 10 5 11 18 12
REMARK SMILES IDX 6 13 17 14 19 15 7 16 8 19 9 20 10 21 11 22 16 23 12 24
REMARK SMILES IDX 14 25 13 26 15 27 26 28 27 29 28 30 29 31 30 32 31 33 32 34
REMARK SMILES IDX 33 35 34 36 35 37 36 38 97 39 37 40 96 41 38 42 39 43 40 44
REMARK SMILES IDX 90 45 41 46 95 47 89 48 91 49 42 50 94 51 88 52 87 53 43 55
REMARK SMILES IDX 75 56 55 57 74 58 56 59 59 60 73 61 92 62 57 63 58 64 72 66
REMARK SMILES IDX 93 67 60 68 44 69 45 70 53 71 46 72 47 73 51 74 54 75 48 76
REMARK SMILES IDX 49 77 52 78 50 79 76 80 77 81 85 82 78 83 79 84 83 85 86 86
REMARK SMILES IDX 80 87 81 88 84 89 82 90 61 91 62 92 70 93 63 94 64 95 68 96
REMARK SMILES IDX 71 97 65 98 66 99 69 100 67 101
REMARK H PARENT 17 17 7 18 91 54 59 65
REMARK Flexibility Score: inf
ROOT
ATOM      1  C   UNL A   1      35.523  31.223  29.453  1.00  0.00     0.188 C 
ENDROOT
BRANCH   1   2
ATOM      2  C   UNL A   1      36.002  29.772  29.338  1.00  0.00     0.188 C 
BRANCH   2   3
ATOM      3  O   UNL A   1      36.262  29.290  28.028  1.00  0.00    -0.376 OA
BRANCH   3   4
ATOM      4  C   UNL A   1      35.452  29.535  26.890  1.00  0.00     0.202 C 
BRANCH   4   5
ATOM      5  C   UNL A   1      34.099  28.861  26.761  1.00  0.00     0.261 C 
BRANCH   5   6
ATOM      6  O   UNL A   1      33.296  29.159  25.599  1.00  0.00    -0.463 OA
BRANCH   6   7
ATOM      7  C   UNL A   1      31.997  29.456  25.446  1.00  0.00     0.307 C 
ATOM      8  O   UNL A   1      31.465  30.211  26.258  1.00  0.00    -0.252 OA
BRANCH   7   9
ATOM      9  C   UNL A   1      31.166  28.837  24.350  1.00  0.00     0.150 C 
BRANCH   9  10
ATOM     10  C   UNL A   1      30.675  27.416  24.573  1.00  0.00     0.184 C 
ATOM     11  S   UNL A   1      30.988  26.452  23.046  1.00  0.00    -0.020 SA
ATOM     12  C   UNL A   1      31.463  26.676  25.629  1.00  0.00     0.322 C 
ATOM     13  C   UNL A   1      32.441  25.806  23.721  1.00  0.00     0.337 C 
ATOM     14  N   UNL A   1      32.496  26.014  25.058  1.00  0.00    -0.202 N 
ATOM     15  O   UNL A   1      31.230  26.708  26.828  1.00  0.00    -0.246 OA
ATOM     16  N   UNL A   1      33.347  25.172  23.061  1.00  0.00    -0.142 N 
ATOM     17  H   UNL A   1      33.257  25.695  25.595  1.00  0.00     0.316 HD
ATOM     18  H   UNL A   1      33.344  25.017  22.089  1.00  0.00     0.343 HD
BRANCH  16  19
ATOM     19  N   UNL A   1      34.329  24.742  23.943  1.00  0.00    -0.093 NA
ATOM     20  C   UNL A   1      34.971  23.706  23.525  1.00  0.00     0.166 C 
BRANCH  20  21
ATOM     21  C   UNL A   1      36.035  23.165  24.376  1.00  0.00    -0.002 A 
ATOM     22  C   UNL A   1      36.671  24.001  25.306  1.00  0.00     0.010 A 
ATOM     23  C   UNL A   1      36.428  21.840  24.218  1.00  0.00     0.030 A 
ATOM     24  C   UNL A   1      37.712  23.509  26.085  1.00  0.00     0.002 A 
ATOM     25  C   UNL A   1      37.480  21.362  24.993  1.00  0.00     0.041 A 
ATOM     26  C   UNL A   1      38.119  22.186  25.925  1.00  0.00     0.020 A 
ATOM     27  Cl  UNL A   1      38.010  19.738  24.791  1.00  0.00    -0.084 Cl
ENDBRANCH  20  21
ENDBRANCH  16  19
ENDBRANCH   9  10
ENDBRANCH   7   9
ENDBRANCH   6   7
ENDBRANCH   5   6
ENDBRANCH   4   5
ENDBRANCH   3   4
ENDBRANCH   2   3
ENDBRANCH   1   2
BRANCH   1  28
ATOM     28  O   UNL A   1      36.281  32.176  28.721  1.00  0.00    -0.377 OA
BRANCH  28  29
ATOM     29  C   UNL A   1      35.512  33.076  27.943  1.00  0.00     0.188 C 
BRANCH  29  30
ATOM     30  C   UNL A   1      33.984  32.857  27.974  1.00  0.00     0.188 C 
BRANCH  30  31
ATOM     31  O   UNL A   1      33.061  33.929  27.872  1.00  0.00    -0.376 OA
BRANCH  31  32
ATOM     32  C   UNL A   1      33.003  34.937  28.864  1.00  0.00     0.202 C 
BRANCH  32  33
ATOM     33  C   UNL A   1      33.954  34.935  30.073  1.00  0.00     0.261 C 
BRANCH  33  34
ATOM     34  O   UNL A   1      33.616  35.822  31.147  1.00  0.00    -0.460 OA
BRANCH  34  35
ATOM     35  C   UNL A   1      33.292  35.222  32.313  1.00  0.00     0.338 C 
ATOM     36  O   UNL A   1      32.178  34.912  32.703  1.00  0.00    -0.246 OA
BRANCH  35  37
ATOM     37  C   UNL A   1      34.528  34.783  32.994  1.00  0.00     0.060 A 
ATOM     38  C   UNL A   1      35.736  35.372  32.592  1.00  0.00     0.016 A 
ATOM     39  C   UNL A   1      34.513  33.808  33.995  1.00  0.00     0.016 A 
ATOM     40  C   UNL A   1      36.940  34.949  33.141  1.00  0.00     0.010 A 
ATOM     41  C   UNL A   1      35.727  33.347  34.514  1.00  0.00     0.010 A 
ATOM     42  C   UNL A   1      36.942  33.876  34.039  1.00  0.00    -0.014 A 
BRANCH  42  43
ATOM     43  C   UNL A   1      38.204  33.113  34.179  1.00  0.00     0.031 A 
ATOM     44  C   UNL A   1      38.985  33.308  35.453  1.00  0.00     0.074 A 
ATOM     45  C   UNL A   1      38.592  32.206  33.269  1.00  0.00     0.049 A 
ATOM     46  N   UNL A   1      40.089  32.733  35.853  1.00  0.00    -0.248 NA
ATOM     47  C   UNL A   1      38.437  34.285  36.410  1.00  0.00     0.031 C 
ATOM     48  C   UNL A   1      37.881  31.885  32.035  1.00  0.00     0.029 A 
ATOM     49  N   UNL A   1      39.686  31.379  33.258  1.00  0.00    -0.354 N 
ATOM     50  C   UNL A   1      40.366  33.284  37.098  1.00  0.00     0.074 A 
ATOM     51  C   UNL A   1      39.340  34.261  37.375  1.00  0.00     0.031 C 
ATOM     52  C   UNL A   1      38.562  30.927  31.380  1.00  0.00     0.029 A 
ATOM     53  C   UNL A   1      39.764  30.587  32.139  1.00  0.00     0.049 A 
ATOM     54  H   UNL A   1      40.350  31.353  33.984  1.00  0.00     0.167 HD
ATOM     55  C   UNL A   1      41.384  32.994  37.942  1.00  0.00     0.037 A 
ATOM     56  C   UNL A   1      40.712  29.701  31.775  1.00  0.00     0.037 A 
ATOM     57  C   UNL A   1      42.402  32.018  37.663  1.00  0.00     0.049 A 
ATOM     58  C   UNL A   1      41.877  29.451  32.701  1.00  0.00     0.074 A 
ATOM     59  C   UNL A   1      43.473  31.640  38.451  1.00  0.00     0.029 A 
ATOM     60  N   UNL A   1      42.477  31.274  36.495  1.00  0.00    -0.354 N 
ATOM     61  N   UNL A   1      42.125  29.958  33.885  1.00  0.00    -0.248 NA
ATOM     62  C   UNL A   1      42.892  28.492  32.238  1.00  0.00     0.031 C 
ATOM     63  C   UNL A   1      44.232  30.710  37.732  1.00  0.00     0.029 A 
ATOM     64  C   UNL A   1      43.593  30.456  36.528  1.00  0.00     0.049 A 
ATOM     65  H   UNL A   1      41.832  31.320  35.752  1.00  0.00     0.167 HD
ATOM     66  C   UNL A   1      43.295  29.350  34.326  1.00  0.00     0.074 A 
ATOM     67  C   UNL A   1      43.701  28.429  33.285  1.00  0.00     0.031 C 
ATOM     68  C   UNL A   1      43.972  29.532  35.489  1.00  0.00     0.037 A 
BRANCH  55  69
ATOM     69  C   UNL A   1      41.464  33.776  39.221  1.00  0.00     0.064 A 
ATOM     70  C   UNL A   1      40.751  33.400  40.371  1.00  0.00     0.173 A 
ATOM     71  C   UNL A   1      42.276  34.919  39.297  1.00  0.00     0.173 A 
ATOM     72  F   UNL A   1      39.944  32.330  40.345  1.00  0.00    -0.203 F 
ATOM     73  C   UNL A   1      40.827  34.157  41.538  1.00  0.00     0.198 A 
ATOM     74  C   UNL A   1      42.374  35.652  40.475  1.00  0.00     0.198 A 
ATOM     75  F   UNL A   1      42.976  35.323  38.227  1.00  0.00    -0.203 F 
ATOM     76  F   UNL A   1      40.093  33.812  42.606  1.00  0.00    -0.200 F 
ATOM     77  C   UNL A   1      41.644  35.276  41.592  1.00  0.00     0.200 A 
ATOM     78  F   UNL A   1      43.174  36.725  40.528  1.00  0.00    -0.200 F 
ATOM     79  F   UNL A   1      41.720  35.999  42.718  1.00  0.00    -0.200 F 
ENDBRANCH  55  69
BRANCH  56  80
ATOM     80  C   UNL A   1      40.604  28.980  30.479  1.00  0.00     0.064 A 
ATOM     81  C   UNL A   1      41.224  29.472  29.321  1.00  0.00     0.173 A 
ATOM     82  C   UNL A   1      39.850  27.804  30.362  1.00  0.00     0.173 A 
ATOM     83  F   UNL A   1      41.937  30.608  29.374  1.00  0.00    -0.203 F 
ATOM     84  C   UNL A   1      41.073  28.829  28.094  1.00  0.00     0.198 A 
ATOM     85  C   UNL A   1      39.725  27.145  29.141  1.00  0.00     0.198 A 
ATOM     86  F   UNL A   1      39.234  27.291  31.438  1.00  0.00    -0.203 F 
ATOM     87  F   UNL A   1      41.630  29.353  26.993  1.00  0.00    -0.200 F 
ATOM     88  C   UNL A   1      40.328  27.664  28.005  1.00  0.00     0.200 A 
ATOM     89  F   UNL A   1      39.014  26.012  29.063  1.00  0.00    -0.200 F 
ATOM     90  F   UNL A   1      40.182  27.047  26.825  1.00  0.00    -0.200 F 
ENDBRANCH  56  80
BRANCH  68  91
ATOM     91  C   UNL A   1      45.182  28.674  35.727  1.00  0.00     0.064 A 
ATOM     92  C   UNL A   1      46.469  29.077  35.338  1.00  0.00     0.173 A 
ATOM     93  C   UNL A   1      45.052  27.440  36.383  1.00  0.00     0.173 A 
ATOM     94  F   UNL A   1      46.648  30.243  34.700  1.00  0.00    -0.203 F 
ATOM     95  C   UNL A   1      47.573  28.257  35.560  1.00  0.00     0.198 A 
ATOM     96  C   UNL A   1      46.163  26.640  36.638  1.00  0.00     0.198 A 
ATOM     97  F   UNL A   1      43.847  27.012  36.789  1.00  0.00    -0.203 F 
ATOM     98  F   UNL A   1      48.782  28.632  35.122  1.00  0.00    -0.200 F 
ATOM     99  C   UNL A   1      47.420  27.044  36.215  1.00  0.00     0.200 A 
ATOM    100  F   UNL A   1      46.016  25.479  37.289  1.00  0.00    -0.200 F 
ATOM    101  F   UNL A   1      48.484  26.258  36.430  1.00  0.00    -0.200 F 
ENDBRANCH  68  91
ENDBRANCH  42  43
ENDBRANCH  35  37
ENDBRANCH  34  35
ENDBRANCH  33  34
ENDBRANCH  32  33
ENDBRANCH  31  32
ENDBRANCH  30  31
ENDBRANCH  29  30
ENDBRANCH  28  29
ENDBRANCH   1  28
TORSDOF 23
ENDMDL
