MODEL 1
REMARK VINA RESULT:     -11.2      0.000      0.000
REMARK SMILES O=C(OCCOCCOCCOCCOC(=O)[C@H]1Cc2[nH]cnc2CN1C(=O)c1ccncc1Cl)c1ccc(-c2c3nc(c(-c4c(F)c(F)c(F)c(F)c4F)c4ccc([nH]4)c(-c4c(F)c(F)c(F)c(F)c4F)c4nc(c(-c5c(F)c(F)c(F)c(F)c5F)c5ccc2[nH]5)C=C4)C=C3)cc1
REMARK SMILES IDX 9 1 8 2 7 3 6 4 5 5 4 6 3 7 2 8 1 9 36 10 37 11 98 12 38 13
REMARK SMILES IDX 97 14 39 15 40 16 41 17 91 18 42 19 96 20 90 21 92 22 43 23
REMARK SMILES IDX 95 24 89 25 88 26 44 28 76 29 56 30 75 31 57 32 60 33 74 34
REMARK SMILES IDX 93 35 58 36 59 37 73 39 94 40 61 41 45 42 46 43 54 44 47 45
REMARK SMILES IDX 48 46 52 47 55 48 49 49 50 50 53 51 51 52 77 53 78 54 86 55
REMARK SMILES IDX 79 56 80 57 84 58 87 59 81 60 82 61 85 62 83 63 62 64 63 65
REMARK SMILES IDX 71 66 64 67 65 68 69 69 72 70 66 71 67 72 70 73 68 74 10 75
REMARK SMILES IDX 11 76 12 77 13 78 14 79 15 80 16 81 17 82 18 83 19 84 26 85
REMARK SMILES IDX 20 86 25 87 21 88 24 89 22 90 23 92 27 93 28 94 29 95 30 96
REMARK SMILES IDX 34 97 31 98 33 99 35 100 32 101
REMARK H PARENT 92 27 60 38 21 91
REMARK Flexibility Score: inf
ROOT
ATOM      1  O   UNL A   1      41.791  20.658  25.773  1.00  0.00    -0.377 OA
ENDROOT
BRANCH   1   2
ATOM      2  C   UNL A   1      41.656  19.273  26.115  1.00  0.00     0.188 C 
BRANCH   2   3
ATOM      3  C   UNL A   1      42.983  18.518  26.358  1.00  0.00     0.188 C 
BRANCH   3   4
ATOM      4  O   UNL A   1      43.921  18.608  25.296  1.00  0.00    -0.376 OA
BRANCH   4   5
ATOM      5  C   UNL A   1      45.276  18.235  25.472  1.00  0.00     0.202 C 
BRANCH   5   6
ATOM      6  C   UNL A   1      46.392  19.302  25.492  1.00  0.00     0.261 C 
BRANCH   6   7
ATOM      7  O   UNL A   1      46.247  20.492  24.690  1.00  0.00    -0.460 OA
BRANCH   7   8
ATOM      8  C   UNL A   1      45.152  21.151  24.264  1.00  0.00     0.338 C 
ATOM      9  O   UNL A   1      44.641  20.883  23.180  1.00  0.00    -0.246 OA
BRANCH   8  10
ATOM     10  C   UNL A   1      44.675  22.336  24.994  1.00  0.00     0.060 A 
ATOM     11  C   UNL A   1      43.777  23.245  24.442  1.00  0.00     0.016 A 
ATOM     12  C   UNL A   1      45.182  22.534  26.292  1.00  0.00     0.016 A 
ATOM     13  C   UNL A   1      43.335  24.313  25.196  1.00  0.00     0.010 A 
ATOM     14  C   UNL A   1      44.783  23.636  27.033  1.00  0.00     0.010 A 
ATOM     15  C   UNL A   1      43.886  24.536  26.459  1.00  0.00    -0.014 A 
BRANCH  15  16
ATOM     16  C   UNL A   1      43.657  25.867  26.992  1.00  0.00     0.031 A 
ATOM     17  C   UNL A   1      44.679  26.916  26.751  1.00  0.00     0.074 A 
ATOM     18  C   UNL A   1      42.601  26.060  27.802  1.00  0.00     0.049 A 
ATOM     19  N   UNL A   1      45.391  27.552  27.627  1.00  0.00    -0.248 NA
ATOM     20  C   UNL A   1      44.970  27.279  25.359  1.00  0.00     0.031 C 
ATOM     21  C   UNL A   1      41.424  25.200  27.975  1.00  0.00     0.029 A 
ATOM     22  N   UNL A   1      42.335  27.124  28.605  1.00  0.00    -0.354 N 
ATOM     23  C   UNL A   1      46.112  28.510  26.917  1.00  0.00     0.074 A 
ATOM     24  C   UNL A   1      45.875  28.246  25.520  1.00  0.00     0.031 C 
ATOM     25  C   UNL A   1      40.480  25.877  28.660  1.00  0.00     0.029 A 
ATOM     26  C   UNL A   1      41.039  27.150  29.080  1.00  0.00     0.049 A 
ATOM     27  H   UNL A   1      43.004  27.812  28.827  1.00  0.00     0.167 HD
ATOM     28  C   UNL A   1      46.722  29.563  27.529  1.00  0.00     0.037 A 
ATOM     29  C   UNL A   1      40.432  28.190  29.693  1.00  0.00     0.037 A 
ATOM     30  C   UNL A   1      46.992  29.303  28.915  1.00  0.00     0.049 A 
ATOM     31  C   UNL A   1      41.486  29.068  30.255  1.00  0.00     0.074 A 
ATOM     32  C   UNL A   1      47.772  28.390  29.597  1.00  0.00     0.029 A 
ATOM     33  N   UNL A   1      46.204  29.893  29.870  1.00  0.00    -0.354 N 
ATOM     34  N   UNL A   1      42.252  28.743  31.260  1.00  0.00    -0.248 NA
ATOM     35  C   UNL A   1      41.970  30.167  29.433  1.00  0.00     0.031 C 
ATOM     36  C   UNL A   1      47.079  28.143  30.818  1.00  0.00     0.029 A 
ATOM     37  C   UNL A   1      45.927  28.928  30.803  1.00  0.00     0.049 A 
ATOM     38  H   UNL A   1      45.897  30.828  29.883  1.00  0.00     0.167 HD
ATOM     39  C   UNL A   1      43.481  29.317  30.972  1.00  0.00     0.074 A 
ATOM     40  C   UNL A   1      43.218  30.264  29.896  1.00  0.00     0.031 C 
ATOM     41  C   UNL A   1      44.643  28.775  31.442  1.00  0.00     0.037 A 
BRANCH  28  42
ATOM     42  C   UNL A   1      46.821  30.944  26.934  1.00  0.00     0.064 A 
ATOM     43  C   UNL A   1      48.068  31.600  26.883  1.00  0.00     0.173 A 
ATOM     44  C   UNL A   1      45.694  31.757  26.690  1.00  0.00     0.173 A 
ATOM     45  F   UNL A   1      49.205  30.931  27.129  1.00  0.00    -0.203 F 
ATOM     46  C   UNL A   1      48.169  32.978  26.666  1.00  0.00     0.198 A 
ATOM     47  C   UNL A   1      45.802  33.122  26.424  1.00  0.00     0.198 A 
ATOM     48  F   UNL A   1      44.445  31.286  26.806  1.00  0.00    -0.203 F 
ATOM     49  F   UNL A   1      49.365  33.578  26.744  1.00  0.00    -0.200 F 
ATOM     50  C   UNL A   1      47.036  33.738  26.442  1.00  0.00     0.200 A 
ATOM     51  F   UNL A   1      44.691  33.845  26.229  1.00  0.00    -0.200 F 
ATOM     52  F   UNL A   1      47.125  35.067  26.294  1.00  0.00    -0.200 F 
ENDBRANCH  28  42
BRANCH  29  53
ATOM     53  C   UNL A   1      39.028  28.605  29.490  1.00  0.00     0.064 A 
ATOM     54  C   UNL A   1      38.165  28.804  30.574  1.00  0.00     0.173 A 
ATOM     55  C   UNL A   1      38.570  29.043  28.228  1.00  0.00     0.173 A 
ATOM     56  F   UNL A   1      38.551  28.468  31.813  1.00  0.00    -0.203 F 
ATOM     57  C   UNL A   1      36.914  29.407  30.405  1.00  0.00     0.198 A 
ATOM     58  C   UNL A   1      37.318  29.627  28.060  1.00  0.00     0.198 A 
ATOM     59  F   UNL A   1      39.364  28.992  27.148  1.00  0.00    -0.203 F 
ATOM     60  F   UNL A   1      36.134  29.631  31.471  1.00  0.00    -0.200 F 
ATOM     61  C   UNL A   1      36.494  29.819  29.150  1.00  0.00     0.200 A 
ATOM     62  F   UNL A   1      36.942  30.053  26.845  1.00  0.00    -0.200 F 
ATOM     63  F   UNL A   1      35.315  30.437  28.998  1.00  0.00    -0.200 F 
ENDBRANCH  29  53
BRANCH  41  64
ATOM     64  C   UNL A   1      44.542  27.714  32.497  1.00  0.00     0.064 A 
ATOM     65  C   UNL A   1      44.428  28.005  33.866  1.00  0.00     0.173 A 
ATOM     66  C   UNL A   1      44.383  26.379  32.100  1.00  0.00     0.173 A 
ATOM     67  F   UNL A   1      44.457  29.271  34.305  1.00  0.00    -0.203 F 
ATOM     68  C   UNL A   1      44.209  26.995  34.801  1.00  0.00     0.198 A 
ATOM     69  C   UNL A   1      44.131  25.377  33.033  1.00  0.00     0.198 A 
ATOM     70  F   UNL A   1      44.412  26.056  30.798  1.00  0.00    -0.203 F 
ATOM     71  F   UNL A   1      44.101  27.296  36.104  1.00  0.00    -0.200 F 
ATOM     72  C   UNL A   1      44.054  25.683  34.384  1.00  0.00     0.200 A 
ATOM     73  F   UNL A   1      43.927  24.118  32.622  1.00  0.00    -0.200 F 
ATOM     74  F   UNL A   1      43.794  24.719  35.278  1.00  0.00    -0.200 F 
ENDBRANCH  41  64
ENDBRANCH  15  16
ENDBRANCH   8  10
ENDBRANCH   7   8
ENDBRANCH   6   7
ENDBRANCH   5   6
ENDBRANCH   4   5
ENDBRANCH   3   4
ENDBRANCH   2   3
ENDBRANCH   1   2
BRANCH   1  75
ATOM     75  C   UNL A   1      41.568  21.533  26.868  1.00  0.00     0.188 C 
BRANCH  75  76
ATOM     76  C   UNL A   1      40.098  21.874  27.166  1.00  0.00     0.188 C 
BRANCH  76  77
ATOM     77  O   UNL A   1      39.284  22.385  26.116  1.00  0.00    -0.376 OA
BRANCH  77  78
ATOM     78  C   UNL A   1      38.449  23.503  26.411  1.00  0.00     0.202 C 
BRANCH  78  79
ATOM     79  C   UNL A   1      37.115  23.587  25.660  1.00  0.00     0.261 C 
BRANCH  79  80
ATOM     80  O   UNL A   1      36.959  22.558  24.657  1.00  0.00    -0.462 OA
BRANCH  80  81
ATOM     81  C   UNL A   1      35.913  22.711  23.799  1.00  0.00     0.329 C 
ATOM     82  O   UNL A   1      35.840  23.600  22.958  1.00  0.00    -0.250 OA
BRANCH  81  83
ATOM     83  C   UNL A   1      34.794  21.679  24.026  1.00  0.00     0.201 C 
ATOM     84  C   UNL A   1      35.148  20.520  24.984  1.00  0.00     0.093 C 
ATOM     85  N   UNL A   1      33.368  22.085  24.228  1.00  0.00    -0.318 N 
ATOM     86  C   UNL A   1      34.080  19.493  24.896  1.00  0.00     0.042 A 
ATOM     87  C   UNL A   1      32.384  21.045  23.810  1.00  0.00     0.179 C 
ATOM     88  N   UNL A   1      34.109  18.182  25.268  1.00  0.00    -0.348 N 
ATOM     89  C   UNL A   1      32.825  19.721  24.377  1.00  0.00     0.081 A 
ATOM     90  C   UNL A   1      32.885  17.658  24.933  1.00  0.00     0.197 A 
ATOM     91  H   UNL A   1      34.858  17.705  25.691  1.00  0.00     0.167 HD
ATOM     92  N   UNL A   1      32.096  18.561  24.386  1.00  0.00    -0.240 NA
BRANCH  85  93
ATOM     93  C   UNL A   1      32.916  23.005  25.173  1.00  0.00     0.256 C 
ATOM     94  O   UNL A   1      33.079  22.875  26.385  1.00  0.00    -0.269 OA
BRANCH  93  95
ATOM     95  C   UNL A   1      32.182  24.214  24.775  1.00  0.00     0.061 A 
ATOM     96  C   UNL A   1      30.920  24.046  24.194  1.00  0.00     0.035 A 
ATOM     97  C   UNL A   1      32.784  25.470  24.777  1.00  0.00     0.072 A 
ATOM     98  C   UNL A   1      30.281  25.163  23.686  1.00  0.00     0.112 A 
ATOM     99  C   UNL A   1      32.054  26.526  24.251  1.00  0.00     0.132 A 
ATOM    100  Cl  UNL A   1      34.374  25.762  25.365  1.00  0.00    -0.082 Cl
ATOM    101  N   UNL A   1      30.811  26.406  23.719  1.00  0.00    -0.263 NA
ENDBRANCH  93  95
ENDBRANCH  85  93
ENDBRANCH  81  83
ENDBRANCH  80  81
ENDBRANCH  79  80
ENDBRANCH  78  79
ENDBRANCH  77  78
ENDBRANCH  76  77
ENDBRANCH  75  76
ENDBRANCH   1  75
TORSDOF 22
ENDMDL
MODEL 2
REMARK VINA RESULT:     -11.1      3.397      5.731
REMARK SMILES O=C(OCCOCCOCCOCCOC(=O)[C@H]1Cc2[nH]cnc2CN1C(=O)c1ccncc1Cl)c1ccc(-c2c3nc(c(-c4c(F)c(F)c(F)c(F)c4F)c4ccc([nH]4)c(-c4c(F)c(F)c(F)c(F)c4F)c4nc(c(-c5c(F)c(F)c(F)c(F)c5F)c5ccc2[nH]5)C=C4)C=C3)cc1
REMARK SMILES IDX 9 1 8 2 7 3 6 4 5 5 4 6 3 7 2 8 1 9 36 10 37 11 98 12 38 13
REMARK SMILES IDX 97 14 39 15 40 16 41 17 91 18 42 19 96 20 90 21 92 22 43 23
REMARK SMILES IDX 95 24 89 25 88 26 44 28 76 29 56 30 75 31 57 32 60 33 74 34
REMARK SMILES IDX 93 35 58 36 59 37 73 39 94 40 61 41 45 42 46 43 54 44 47 45
REMARK SMILES IDX 48 46 52 47 55 48 49 49 50 50 53 51 51 52 77 53 78 54 86 55
REMARK SMILES IDX 79 56 80 57 84 58 87 59 81 60 82 61 85 62 83 63 62 64 63 65
REMARK SMILES IDX 71 66 64 67 65 68 69 69 72 70 66 71 67 72 70 73 68 74 10 75
REMARK SMILES IDX 11 76 12 77 13 78 14 79 15 80 16 81 17 82 18 83 19 84 26 85
REMARK SMILES IDX 20 86 25 87 21 88 24 89 22 90 23 92 27 93 28 94 29 95 30 96
REMARK SMILES IDX 34 97 31 98 33 99 35 100 32 101
REMARK H PARENT 92 27 60 38 21 91
REMARK Flexibility Score: inf
ROOT
ATOM      1  O   UNL A   1      33.877  20.350  24.246  1.00  0.00    -0.377 OA
ENDROOT
BRANCH   1   2
ATOM      2  C   UNL A   1      34.211  20.287  25.638  1.00  0.00     0.188 C 
BRANCH   2   3
ATOM      3  C   UNL A   1      34.359  21.652  26.347  1.00  0.00     0.188 C 
BRANCH   3   4
ATOM      4  O   UNL A   1      35.341  22.510  25.785  1.00  0.00    -0.376 OA
BRANCH   4   5
ATOM      5  C   UNL A   1      36.708  22.143  25.742  1.00  0.00     0.202 C 
BRANCH   5   6
ATOM      6  C   UNL A   1      37.813  23.176  26.049  1.00  0.00     0.261 C 
BRANCH   6   7
ATOM      7  O   UNL A   1      39.179  22.732  26.180  1.00  0.00    -0.460 OA
BRANCH   7   8
ATOM      8  C   UNL A   1      40.127  23.021  27.092  1.00  0.00     0.338 C 
ATOM      9  O   UNL A   1      40.607  22.138  27.799  1.00  0.00    -0.246 OA
BRANCH   8  10
ATOM     10  C   UNL A   1      40.455  24.422  27.396  1.00  0.00     0.060 A 
ATOM     11  C   UNL A   1      41.149  24.798  28.542  1.00  0.00     0.016 A 
ATOM     12  C   UNL A   1      40.017  25.394  26.477  1.00  0.00     0.016 A 
ATOM     13  C   UNL A   1      41.463  26.126  28.746  1.00  0.00     0.010 A 
ATOM     14  C   UNL A   1      40.282  26.736  26.707  1.00  0.00     0.010 A 
ATOM     15  C   UNL A   1      40.976  27.090  27.863  1.00  0.00    -0.014 A 
BRANCH  15  16
ATOM     16  C   UNL A   1      41.021  28.451  28.367  1.00  0.00     0.031 A 
ATOM     17  C   UNL A   1      42.226  29.272  28.092  1.00  0.00     0.074 A 
ATOM     18  C   UNL A   1      40.036  28.865  29.184  1.00  0.00     0.049 A 
ATOM     19  N   UNL A   1      43.063  29.774  28.946  1.00  0.00    -0.248 NA
ATOM     20  C   UNL A   1      42.564  29.543  26.689  1.00  0.00     0.031 C 
ATOM     21  C   UNL A   1      38.715  28.259  29.388  1.00  0.00     0.029 A 
ATOM     22  N   UNL A   1      39.997  29.977  29.964  1.00  0.00    -0.354 N 
ATOM     23  C   UNL A   1      43.948  30.556  28.206  1.00  0.00     0.074 A 
ATOM     24  C   UNL A   1      43.643  30.315  26.818  1.00  0.00     0.031 C 
ATOM     25  C   UNL A   1      37.934  29.122  30.067  1.00  0.00     0.029 A 
ATOM     26  C   UNL A   1      38.738  30.268  30.452  1.00  0.00     0.049 A 
ATOM     27  H   UNL A   1      40.791  30.523  30.164  1.00  0.00     0.167 HD
ATOM     28  C   UNL A   1      44.762  31.479  28.788  1.00  0.00     0.037 A 
ATOM     29  C   UNL A   1      38.358  31.420  31.047  1.00  0.00     0.037 A 
ATOM     30  C   UNL A   1      44.996  31.200  30.176  1.00  0.00     0.049 A 
ATOM     31  C   UNL A   1      39.572  32.084  31.577  1.00  0.00     0.074 A 
ATOM     32  C   UNL A   1      45.590  30.165  30.871  1.00  0.00     0.029 A 
ATOM     33  N   UNL A   1      44.355  31.953  31.125  1.00  0.00    -0.354 N 
ATOM     34  N   UNL A   1      40.273  31.635  32.582  1.00  0.00    -0.248 NA
ATOM     35  C   UNL A   1      40.251  33.049  30.726  1.00  0.00     0.031 C 
ATOM     36  C   UNL A   1      44.881  30.084  32.105  1.00  0.00     0.029 A 
ATOM     37  C   UNL A   1      43.906  31.081  32.083  1.00  0.00     0.049 A 
ATOM     38  H   UNL A   1      44.238  32.931  31.120  1.00  0.00     0.167 HD
ATOM     39  C   UNL A   1      41.587  31.948  32.268  1.00  0.00     0.074 A 
ATOM     40  C   UNL A   1      41.500  32.906  31.173  1.00  0.00     0.031 C 
ATOM     41  C   UNL A   1      42.626  31.198  32.738  1.00  0.00     0.037 A 
BRANCH  28  42
ATOM     42  C   UNL A   1      45.123  32.801  28.160  1.00  0.00     0.064 A 
ATOM     43  C   UNL A   1      46.475  33.116  27.910  1.00  0.00     0.173 A 
ATOM     44  C   UNL A   1      44.220  33.882  28.073  1.00  0.00     0.173 A 
ATOM     45  F   UNL A   1      47.425  32.172  27.995  1.00  0.00    -0.203 F 
ATOM     46  C   UNL A   1      46.893  34.426  27.657  1.00  0.00     0.198 A 
ATOM     47  C   UNL A   1      44.635  35.178  27.770  1.00  0.00     0.198 A 
ATOM     48  F   UNL A   1      42.924  33.744  28.384  1.00  0.00    -0.203 F 
ATOM     49  F   UNL A   1      48.201  34.697  27.543  1.00  0.00    -0.200 F 
ATOM     50  C   UNL A   1      45.974  35.457  27.592  1.00  0.00     0.200 A 
ATOM     51  F   UNL A   1      43.731  36.167  27.731  1.00  0.00    -0.200 F 
ATOM     52  F   UNL A   1      46.378  36.720  27.409  1.00  0.00    -0.200 F 
ENDBRANCH  28  42
BRANCH  29  53
ATOM     53  C   UNL A   1      37.060  32.100  30.849  1.00  0.00     0.064 A 
ATOM     54  C   UNL A   1      36.068  32.074  31.835  1.00  0.00     0.173 A 
ATOM     55  C   UNL A   1      36.859  32.991  29.772  1.00  0.00     0.173 A 
ATOM     56  F   UNL A   1      36.214  31.296  32.918  1.00  0.00    -0.203 F 
ATOM     57  C   UNL A   1      34.937  32.893  31.750  1.00  0.00     0.198 A 
ATOM     58  C   UNL A   1      35.725  33.793  29.681  1.00  0.00     0.198 A 
ATOM     59  F   UNL A   1      37.800  33.165  28.832  1.00  0.00    -0.203 F 
ATOM     60  F   UNL A   1      34.032  32.883  32.738  1.00  0.00    -0.200 F 
ATOM     61  C   UNL A   1      34.768  33.752  30.675  1.00  0.00     0.200 A 
ATOM     62  F   UNL A   1      35.595  34.644  28.653  1.00  0.00    -0.200 F 
ATOM     63  F   UNL A   1      33.708  34.568  30.618  1.00  0.00    -0.200 F 
ENDBRANCH  29  53
BRANCH  41  64
ATOM     64  C   UNL A   1      42.333  30.199  33.819  1.00  0.00     0.064 A 
ATOM     65  C   UNL A   1      41.792  28.929  33.560  1.00  0.00     0.173 A 
ATOM     66  C   UNL A   1      42.770  30.467  35.123  1.00  0.00     0.173 A 
ATOM     67  F   UNL A   1      41.458  28.564  32.315  1.00  0.00    -0.203 F 
ATOM     68  C   UNL A   1      41.653  27.985  34.576  1.00  0.00     0.198 A 
ATOM     69  C   UNL A   1      42.661  29.510  36.129  1.00  0.00     0.198 A 
ATOM     70  F   UNL A   1      43.359  31.638  35.409  1.00  0.00    -0.203 F 
ATOM     71  F   UNL A   1      41.136  26.778  34.306  1.00  0.00    -0.200 F 
ATOM     72  C   UNL A   1      42.095  28.273  35.858  1.00  0.00     0.200 A 
ATOM     73  F   UNL A   1      43.139  29.771  37.353  1.00  0.00    -0.200 F 
ATOM     74  F   UNL A   1      42.007  27.348  36.823  1.00  0.00    -0.200 F 
ENDBRANCH  41  64
ENDBRANCH  15  16
ENDBRANCH   8  10
ENDBRANCH   7   8
ENDBRANCH   6   7
ENDBRANCH   5   6
ENDBRANCH   4   5
ENDBRANCH   3   4
ENDBRANCH   2   3
ENDBRANCH   1   2
BRANCH   1  75
ATOM     75  C   UNL A   1      32.529  20.720  24.007  1.00  0.00     0.188 C 
BRANCH  75  76
ATOM     76  C   UNL A   1      32.320  22.001  23.180  1.00  0.00     0.188 C 
BRANCH  76  77
ATOM     77  O   UNL A   1      31.386  22.971  23.639  1.00  0.00    -0.376 OA
BRANCH  77  78
ATOM     78  C   UNL A   1      31.538  23.456  24.972  1.00  0.00     0.202 C 
BRANCH  78  79
ATOM     79  C   UNL A   1      32.436  24.684  25.164  1.00  0.00     0.261 C 
BRANCH  79  80
ATOM     80  O   UNL A   1      32.283  25.306  26.460  1.00  0.00    -0.462 OA
BRANCH  80  81
ATOM     81  C   UNL A   1      31.408  26.347  26.526  1.00  0.00     0.329 C 
ATOM     82  O   UNL A   1      30.192  26.227  26.440  1.00  0.00    -0.250 OA
BRANCH  81  83
ATOM     83  C   UNL A   1      32.108  27.711  26.667  1.00  0.00     0.201 C 
ATOM     84  C   UNL A   1      33.652  27.670  26.625  1.00  0.00     0.093 C 
ATOM     85  N   UNL A   1      31.615  28.933  25.959  1.00  0.00    -0.318 N 
ATOM     86  C   UNL A   1      34.170  29.002  27.027  1.00  0.00     0.042 A 
ATOM     87  C   UNL A   1      31.964  30.208  26.651  1.00  0.00     0.179 C 
ATOM     88  N   UNL A   1      35.413  29.349  27.466  1.00  0.00    -0.348 N 
ATOM     89  C   UNL A   1      33.420  30.156  27.033  1.00  0.00     0.081 A 
ATOM     90  C   UNL A   1      35.361  30.690  27.750  1.00  0.00     0.197 A 
ATOM     91  H   UNL A   1      36.191  28.756  27.561  1.00  0.00     0.167 HD
ATOM     92  N   UNL A   1      34.170  31.200  27.508  1.00  0.00    -0.240 NA
BRANCH  85  93
ATOM     93  C   UNL A   1      31.373  29.032  24.590  1.00  0.00     0.256 C 
ATOM     94  O   UNL A   1      30.470  29.710  24.103  1.00  0.00    -0.269 OA
BRANCH  93  95
ATOM     95  C   UNL A   1      32.192  28.301  23.612  1.00  0.00     0.061 A 
ATOM     96  C   UNL A   1      33.433  28.847  23.267  1.00  0.00     0.035 A 
ATOM     97  C   UNL A   1      31.684  27.222  22.892  1.00  0.00     0.072 A 
ATOM     98  C   UNL A   1      34.149  28.249  22.245  1.00  0.00     0.112 A 
ATOM     99  C   UNL A   1      32.486  26.690  21.893  1.00  0.00     0.132 A 
ATOM    100  Cl  UNL A   1      30.124  26.548  23.162  1.00  0.00    -0.082 Cl
ATOM    101  N   UNL A   1      33.712  27.168  21.563  1.00  0.00    -0.263 NA
ENDBRANCH  93  95
ENDBRANCH  85  93
ENDBRANCH  81  83
ENDBRANCH  80  81
ENDBRANCH  79  80
ENDBRANCH  78  79
ENDBRANCH  77  78
ENDBRANCH  76  77
ENDBRANCH  75  76
ENDBRANCH   1  75
TORSDOF 22
ENDMDL
MODEL 3
REMARK VINA RESULT:     -10.9      3.153      8.771
REMARK SMILES O=C(OCCOCCOCCOCCOC(=O)[C@H]1Cc2[nH]cnc2CN1C(=O)c1ccncc1Cl)c1ccc(-c2c3nc(c(-c4c(F)c(F)c(F)c(F)c4F)c4ccc([nH]4)c(-c4c(F)c(F)c(F)c(F)c4F)c4nc(c(-c5c(F)c(F)c(F)c(F)c5F)c5ccc2[nH]5)C=C4)C=C3)cc1
REMARK SMILES IDX 9 1 8 2 7 3 6 4 5 5 4 6 3 7 2 8 1 9 36 10 37 11 98 12 38 13
REMARK SMILES IDX 97 14 39 15 40 16 41 17 91 18 42 19 96 20 90 21 92 22 43 23
REMARK SMILES IDX 95 24 89 25 88 26 44 28 76 29 56 30 75 31 57 32 60 33 74 34
REMARK SMILES IDX 93 35 58 36 59 37 73 39 94 40 61 41 45 42 46 43 54 44 47 45
REMARK SMILES IDX 48 46 52 47 55 48 49 49 50 50 53 51 51 52 77 53 78 54 86 55
REMARK SMILES IDX 79 56 80 57 84 58 87 59 81 60 82 61 85 62 83 63 62 64 63 65
REMARK SMILES IDX 71 66 64 67 65 68 69 69 72 70 66 71 67 72 70 73 68 74 10 75
REMARK SMILES IDX 11 76 12 77 13 78 14 79 15 80 16 81 17 82 18 83 19 84 26 85
REMARK SMILES IDX 20 86 25 87 21 88 24 89 22 90 23 92 27 93 28 94 29 95 30 96
REMARK SMILES IDX 34 97 31 98 33 99 35 100 32 101
REMARK H PARENT 92 27 60 38 21 91
REMARK Flexibility Score: inf
ROOT
ATOM      1  O   UNL A   1      32.625  27.970  22.386  1.00  0.00    -0.377 OA
ENDROOT
BRANCH   1   2
ATOM      2  C   UNL A   1      31.911  28.801  23.310  1.00  0.00     0.188 C 
BRANCH   2   3
ATOM      3  C   UNL A   1      32.739  29.329  24.504  1.00  0.00     0.188 C 
BRANCH   3   4
ATOM      4  O   UNL A   1      31.971  29.909  25.549  1.00  0.00    -0.376 OA
BRANCH   4   5
ATOM      5  C   UNL A   1      32.584  30.460  26.700  1.00  0.00     0.202 C 
BRANCH   5   6
ATOM      6  C   UNL A   1      33.998  30.013  27.132  1.00  0.00     0.261 C 
BRANCH   6   7
ATOM      7  O   UNL A   1      34.955  31.007  27.553  1.00  0.00    -0.460 OA
BRANCH   7   8
ATOM      8  C   UNL A   1      35.465  31.295  28.766  1.00  0.00     0.338 C 
ATOM      9  O   UNL A   1      35.028  32.237  29.423  1.00  0.00    -0.246 OA
BRANCH   8  10
ATOM     10  C   UNL A   1      36.684  30.618  29.233  1.00  0.00     0.060 A 
ATOM     11  C   UNL A   1      37.961  31.046  28.882  1.00  0.00     0.016 A 
ATOM     12  C   UNL A   1      36.513  29.485  30.051  1.00  0.00     0.016 A 
ATOM     13  C   UNL A   1      39.065  30.393  29.389  1.00  0.00     0.010 A 
ATOM     14  C   UNL A   1      37.619  28.792  30.518  1.00  0.00     0.010 A 
ATOM     15  C   UNL A   1      38.888  29.236  30.151  1.00  0.00    -0.014 A 
BRANCH  15  16
ATOM     16  C   UNL A   1      40.080  28.421  30.299  1.00  0.00     0.031 A 
ATOM     17  C   UNL A   1      40.768  28.397  31.614  1.00  0.00     0.074 A 
ATOM     18  C   UNL A   1      40.596  27.835  29.204  1.00  0.00     0.049 A 
ATOM     19  N   UNL A   1      41.970  28.794  31.894  1.00  0.00    -0.248 NA
ATOM     20  C   UNL A   1      40.013  27.901  32.772  1.00  0.00     0.031 C 
ATOM     21  C   UNL A   1      39.945  27.608  27.908  1.00  0.00     0.029 A 
ATOM     22  N   UNL A   1      41.815  27.253  29.052  1.00  0.00    -0.354 N 
ATOM     23  C   UNL A   1      42.187  28.457  33.228  1.00  0.00     0.074 A 
ATOM     24  C   UNL A   1      40.926  27.983  33.741  1.00  0.00     0.031 C 
ATOM     25  C   UNL A   1      40.695  26.754  27.182  1.00  0.00     0.029 A 
ATOM     26  C   UNL A   1      41.925  26.489  27.906  1.00  0.00     0.049 A 
ATOM     27  H   UNL A   1      42.550  27.366  29.697  1.00  0.00     0.167 HD
ATOM     28  C   UNL A   1      43.433  28.432  33.779  1.00  0.00     0.037 A 
ATOM     29  C   UNL A   1      42.917  25.619  27.618  1.00  0.00     0.037 A 
ATOM     30  C   UNL A   1      44.362  29.254  33.057  1.00  0.00     0.049 A 
ATOM     31  C   UNL A   1      44.105  25.997  28.421  1.00  0.00     0.074 A 
ATOM     32  C   UNL A   1      44.455  30.605  32.785  1.00  0.00     0.029 A 
ATOM     33  N   UNL A   1      45.290  28.656  32.244  1.00  0.00    -0.354 N 
ATOM     34  N   UNL A   1      44.809  27.079  28.224  1.00  0.00    -0.248 NA
ATOM     35  C   UNL A   1      44.280  25.368  29.721  1.00  0.00     0.031 C 
ATOM     36  C   UNL A   1      45.074  30.689  31.504  1.00  0.00     0.029 A 
ATOM     37  C   UNL A   1      45.325  29.384  31.083  1.00  0.00     0.049 A 
ATOM     38  H   UNL A   1      45.828  27.858  32.454  1.00  0.00     0.167 HD
ATOM     39  C   UNL A   1      45.202  27.483  29.491  1.00  0.00     0.074 A 
ATOM     40  C   UNL A   1      44.940  26.339  30.356  1.00  0.00     0.031 C 
ATOM     41  C   UNL A   1      45.448  28.796  29.771  1.00  0.00     0.037 A 
BRANCH  28  42
ATOM     42  C   UNL A   1      43.878  27.433  34.816  1.00  0.00     0.064 A 
ATOM     43  C   UNL A   1      44.378  27.881  36.055  1.00  0.00     0.173 A 
ATOM     44  C   UNL A   1      44.109  26.072  34.521  1.00  0.00     0.173 A 
ATOM     45  F   UNL A   1      44.242  29.164  36.426  1.00  0.00    -0.203 F 
ATOM     46  C   UNL A   1      45.109  27.043  36.903  1.00  0.00     0.198 A 
ATOM     47  C   UNL A   1      44.795  25.227  35.392  1.00  0.00     0.198 A 
ATOM     48  F   UNL A   1      43.777  25.540  33.337  1.00  0.00    -0.203 F 
ATOM     49  F   UNL A   1      45.666  27.543  38.015  1.00  0.00    -0.200 F 
ATOM     50  C   UNL A   1      45.321  25.718  36.569  1.00  0.00     0.200 A 
ATOM     51  F   UNL A   1      45.008  23.951  35.041  1.00  0.00    -0.200 F 
ATOM     52  F   UNL A   1      46.071  24.930  37.350  1.00  0.00    -0.200 F 
ENDBRANCH  28  42
BRANCH  29  53
ATOM     53  C   UNL A   1      42.744  24.306  26.963  1.00  0.00     0.064 A 
ATOM     54  C   UNL A   1      43.224  24.069  25.669  1.00  0.00     0.173 A 
ATOM     55  C   UNL A   1      42.304  23.179  27.690  1.00  0.00     0.173 A 
ATOM     56  F   UNL A   1      43.713  25.081  24.937  1.00  0.00    -0.203 F 
ATOM     57  C   UNL A   1      43.263  22.778  25.133  1.00  0.00     0.198 A 
ATOM     58  C   UNL A   1      42.327  21.896  27.148  1.00  0.00     0.198 A 
ATOM     59  F   UNL A   1      41.924  23.286  28.972  1.00  0.00    -0.203 F 
ATOM     60  F   UNL A   1      43.778  22.579  23.913  1.00  0.00    -0.200 F 
ATOM     61  C   UNL A   1      42.817  21.694  25.874  1.00  0.00     0.200 A 
ATOM     62  F   UNL A   1      41.925  20.855  27.891  1.00  0.00    -0.200 F 
ATOM     63  F   UNL A   1      42.896  20.453  25.376  1.00  0.00    -0.200 F 
ENDBRANCH  29  53
BRANCH  41  64
ATOM     64  C   UNL A   1      45.549  29.750  28.617  1.00  0.00     0.064 A 
ATOM     65  C   UNL A   1      44.426  30.319  27.995  1.00  0.00     0.173 A 
ATOM     66  C   UNL A   1      46.812  30.229  28.246  1.00  0.00     0.173 A 
ATOM     67  F   UNL A   1      43.185  29.990  28.380  1.00  0.00    -0.203 F 
ATOM     68  C   UNL A   1      44.566  31.296  27.011  1.00  0.00     0.198 A 
ATOM     69  C   UNL A   1      46.947  31.230  27.287  1.00  0.00     0.198 A 
ATOM     70  F   UNL A   1      47.914  29.770  28.859  1.00  0.00    -0.203 F 
ATOM     71  F   UNL A   1      43.480  31.828  26.432  1.00  0.00    -0.200 F 
ATOM     72  C   UNL A   1      45.826  31.756  26.663  1.00  0.00     0.200 A 
ATOM     73  F   UNL A   1      48.163  31.711  26.992  1.00  0.00    -0.200 F 
ATOM     74  F   UNL A   1      45.958  32.730  25.752  1.00  0.00    -0.200 F 
ENDBRANCH  41  64
ENDBRANCH  15  16
ENDBRANCH   8  10
ENDBRANCH   7   8
ENDBRANCH   6   7
ENDBRANCH   5   6
ENDBRANCH   4   5
ENDBRANCH   3   4
ENDBRANCH   2   3
ENDBRANCH   1   2
BRANCH   1  75
ATOM     75  C   UNL A   1      32.295  26.595  22.495  1.00  0.00     0.188 C 
BRANCH  75  76
ATOM     76  C   UNL A   1      33.485  25.625  22.596  1.00  0.00     0.188 C 
BRANCH  76  77
ATOM     77  O   UNL A   1      34.134  25.461  23.852  1.00  0.00    -0.376 OA
BRANCH  77  78
ATOM     78  C   UNL A   1      33.422  25.864  25.021  1.00  0.00     0.202 C 
BRANCH  78  79
ATOM     79  C   UNL A   1      33.256  24.814  26.126  1.00  0.00     0.261 C 
BRANCH  79  80
ATOM     80  O   UNL A   1      32.488  23.662  25.707  1.00  0.00    -0.462 OA
BRANCH  80  81
ATOM     81  C   UNL A   1      32.646  22.533  26.453  1.00  0.00     0.329 C 
ATOM     82  O   UNL A   1      32.529  22.495  27.672  1.00  0.00    -0.250 OA
BRANCH  81  83
ATOM     83  C   UNL A   1      33.045  21.309  25.610  1.00  0.00     0.201 C 
ATOM     84  C   UNL A   1      32.156  21.038  24.375  1.00  0.00     0.093 C 
ATOM     85  N   UNL A   1      34.471  20.999  25.283  1.00  0.00    -0.318 N 
ATOM     86  C   UNL A   1      32.504  19.703  23.828  1.00  0.00     0.042 A 
ATOM     87  C   UNL A   1      34.730  19.550  25.044  1.00  0.00     0.179 C 
ATOM     88  N   UNL A   1      31.788  18.899  22.991  1.00  0.00    -0.348 N 
ATOM     89  C   UNL A   1      33.667  19.025  24.115  1.00  0.00     0.081 A 
ATOM     90  C   UNL A   1      32.529  17.755  22.828  1.00  0.00     0.197 A 
ATOM     91  H   UNL A   1      30.915  19.099  22.586  1.00  0.00     0.167 HD
ATOM     92  N   UNL A   1      33.661  17.801  23.501  1.00  0.00    -0.240 NA
BRANCH  85  93
ATOM     93  C   UNL A   1      35.377  21.882  24.698  1.00  0.00     0.256 C 
ATOM     94  O   UNL A   1      35.238  22.355  23.571  1.00  0.00    -0.269 OA
BRANCH  93  95
ATOM     95  C   UNL A   1      36.596  22.308  25.399  1.00  0.00     0.061 A 
ATOM     96  C   UNL A   1      36.626  23.606  25.921  1.00  0.00     0.035 A 
ATOM     97  C   UNL A   1      37.759  21.542  25.376  1.00  0.00     0.072 A 
ATOM     98  C   UNL A   1      37.815  24.068  26.457  1.00  0.00     0.112 A 
ATOM     99  C   UNL A   1      38.896  22.095  25.947  1.00  0.00     0.132 A 
ATOM    100  Cl  UNL A   1      37.857  19.981  24.659  1.00  0.00    -0.082 Cl
ATOM    101  N   UNL A   1      38.948  23.333  26.500  1.00  0.00    -0.263 NA
ENDBRANCH  93  95
ENDBRANCH  85  93
ENDBRANCH  81  83
ENDBRANCH  80  81
ENDBRANCH  79  80
ENDBRANCH  78  79
ENDBRANCH  77  78
ENDBRANCH  76  77
ENDBRANCH  75  76
ENDBRANCH   1  75
TORSDOF 22
ENDMDL
