MODEL 1
REMARK VINA RESULT:     -10.3      0.000      0.000
REMARK SMILES CCc1ccc(S(=O)(=O)N[C@H](C(=O)OCCOCCOCCOCCOC(=O)c2ccc(-c3c4nc(c(-c5c(F)c(F)c(F)c(F)c5F)c5ccc([nH]5)c(-c5c(F)c(F)c(F)c(F)c5F)c5nc(c(-c6c(F)c(F)c(F)c(F)c6F)c6ccc3[nH]6)C=C5)C=C4)cc2)C(C)C)cc1
REMARK SMILES IDX 19 1 18 2 17 3 16 4 15 5 14 6 12 7 13 8 11 9 10 10 7 12 8 13
REMARK SMILES IDX 9 14 6 15 3 16 4 17 96 18 5 19 95 20 2 21 1 22 92 23 93 24
REMARK SMILES IDX 94 25 20 26 21 27 22 28 23 29 24 30 25 31 26 32 27 33 28 34
REMARK SMILES IDX 29 35 30 36 91 37 31 38 90 39 32 40 33 41 34 42 84 43 35 44
REMARK SMILES IDX 89 45 83 46 85 47 36 48 88 49 82 50 81 51 37 53 69 54 49 55
REMARK SMILES IDX 68 56 50 57 53 58 67 59 86 60 51 61 52 62 66 64 87 65 54 66
REMARK SMILES IDX 38 67 39 68 47 69 40 70 41 71 45 72 48 73 42 74 43 75 46 76
REMARK SMILES IDX 44 77 70 78 71 79 79 80 72 81 73 82 77 83 80 84 74 85 75 86
REMARK SMILES IDX 78 87 76 88 55 89 56 90 64 91 57 92 58 93 62 94 65 95 59 96
REMARK SMILES IDX 60 97 63 98 61 99
REMARK H PARENT 10 11 85 52 53 63
REMARK Flexibility Score: inf
ROOT
ATOM      1  C   UNL A   1      33.878  33.684  28.039  1.00  0.00     0.188 C 
ENDROOT
BRANCH   1   2
ATOM      2  C   UNL A   1      35.033  32.684  28.263  1.00  0.00     0.188 C 
BRANCH   2   3
ATOM      3  O   UNL A   1      34.858  31.507  27.499  1.00  0.00    -0.376 OA
BRANCH   3   4
ATOM      4  C   UNL A   1      33.636  30.794  27.585  1.00  0.00     0.202 C 
BRANCH   4   5
ATOM      5  C   UNL A   1      32.931  30.139  26.384  1.00  0.00     0.261 C 
BRANCH   5   6
ATOM      6  O   UNL A   1      31.779  30.732  25.770  1.00  0.00    -0.462 OA
BRANCH   6   7
ATOM      7  C   UNL A   1      31.224  29.938  24.817  1.00  0.00     0.324 C 
ATOM      8  O   UNL A   1      30.194  30.198  24.202  1.00  0.00    -0.250 OA
BRANCH   7   9
ATOM      9  C   UNL A   1      31.887  28.591  24.599  1.00  0.00     0.182 C 
BRANCH   9  10
ATOM     10  N   UNL A   1      30.805  27.591  24.952  1.00  0.00    -0.197 NA
ATOM     11  H   UNL A   1      30.065  28.122  25.411  1.00  0.00     0.142 HD
BRANCH  10  12
ATOM     12  S   UNL A   1      31.105  26.250  25.937  1.00  0.00     0.241 S 
ATOM     13  O   UNL A   1      29.914  25.426  25.868  1.00  0.00    -0.207 OA
ATOM     14  O   UNL A   1      31.593  26.775  27.190  1.00  0.00    -0.207 OA
BRANCH  12  15
ATOM     15  C   UNL A   1      32.451  25.284  25.260  1.00  0.00     0.082 A 
ATOM     16  C   UNL A   1      34.521  23.559  24.413  1.00  0.00    -0.048 A 
ATOM     17  C   UNL A   1      34.713  24.430  25.493  1.00  0.00     0.005 A 
ATOM     18  C   UNL A   1      33.332  23.678  23.673  1.00  0.00     0.005 A 
ATOM     19  C   UNL A   1      33.679  25.270  25.929  1.00  0.00     0.022 A 
ATOM     20  C   UNL A   1      32.313  24.561  24.074  1.00  0.00     0.022 A 
BRANCH  16  21
ATOM     21  C   UNL A   1      35.539  22.504  24.029  1.00  0.00     0.032 C 
ATOM     22  C   UNL A   1      36.653  22.981  23.097  1.00  0.00     0.009 C 
ENDBRANCH  16  21
ENDBRANCH  12  15
ENDBRANCH  10  12
ENDBRANCH   9  10
BRANCH   9  23
ATOM     23  C   UNL A   1      32.226  28.455  23.087  1.00  0.00     0.012 C 
ATOM     24  C   UNL A   1      33.656  27.949  22.864  1.00  0.00     0.009 C 
ATOM     25  C   UNL A   1      31.261  27.549  22.314  1.00  0.00     0.009 C 
ENDBRANCH   9  23
ENDBRANCH   7   9
ENDBRANCH   6   7
ENDBRANCH   5   6
ENDBRANCH   4   5
ENDBRANCH   3   4
ENDBRANCH   2   3
ENDBRANCH   1   2
BRANCH   1  26
ATOM     26  O   UNL A   1      33.207  34.138  29.221  1.00  0.00    -0.377 OA
BRANCH  26  27
ATOM     27  C   UNL A   1      33.357  35.531  29.536  1.00  0.00     0.188 C 
BRANCH  27  28
ATOM     28  C   UNL A   1      32.925  35.938  30.951  1.00  0.00     0.188 C 
BRANCH  28  29
ATOM     29  O   UNL A   1      32.825  34.888  31.917  1.00  0.00    -0.376 OA
BRANCH  29  30
ATOM     30  C   UNL A   1      34.005  34.507  32.619  1.00  0.00     0.202 C 
BRANCH  30  31
ATOM     31  C   UNL A   1      34.438  33.065  32.375  1.00  0.00     0.261 C 
BRANCH  31  32
ATOM     32  O   UNL A   1      35.438  32.649  33.318  1.00  0.00    -0.460 OA
BRANCH  32  33
ATOM     33  C   UNL A   1      36.690  33.081  33.045  1.00  0.00     0.338 C 
ATOM     34  O   UNL A   1      37.235  34.090  33.456  1.00  0.00    -0.246 OA
BRANCH  33  35
ATOM     35  C   UNL A   1      37.403  32.069  32.245  1.00  0.00     0.060 A 
ATOM     36  C   UNL A   1      38.293  31.215  32.911  1.00  0.00     0.016 A 
ATOM     37  C   UNL A   1      37.299  32.046  30.852  1.00  0.00     0.016 A 
ATOM     38  C   UNL A   1      39.154  30.404  32.181  1.00  0.00     0.010 A 
ATOM     39  C   UNL A   1      38.173  31.243  30.117  1.00  0.00     0.010 A 
ATOM     40  C   UNL A   1      39.146  30.476  30.782  1.00  0.00    -0.014 A 
BRANCH  40  41
ATOM     41  C   UNL A   1      40.328  29.988  30.040  1.00  0.00     0.031 A 
ATOM     42  C   UNL A   1      41.453  30.961  29.802  1.00  0.00     0.074 A 
ATOM     43  C   UNL A   1      40.414  28.714  29.626  1.00  0.00     0.049 A 
ATOM     44  N   UNL A   1      42.578  30.792  29.158  1.00  0.00    -0.248 NA
ATOM     45  C   UNL A   1      41.283  32.312  30.368  1.00  0.00     0.031 C 
ATOM     46  C   UNL A   1      39.401  27.684  29.841  1.00  0.00     0.029 A 
ATOM     47  N   UNL A   1      41.407  28.075  28.929  1.00  0.00    -0.354 N 
ATOM     48  C   UNL A   1      43.238  32.013  29.230  1.00  0.00     0.074 A 
ATOM     49  C   UNL A   1      42.386  32.922  29.960  1.00  0.00     0.031 C 
ATOM     50  C   UNL A   1      39.818  26.540  29.269  1.00  0.00     0.029 A 
ATOM     51  C   UNL A   1      41.112  26.768  28.630  1.00  0.00     0.049 A 
ATOM     52  H   UNL A   1      42.250  28.512  28.667  1.00  0.00     0.167 HD
ATOM     53  C   UNL A   1      44.452  32.342  28.733  1.00  0.00     0.037 A 
ATOM     54  C   UNL A   1      41.811  25.874  27.905  1.00  0.00     0.037 A 
ATOM     55  C   UNL A   1      45.301  31.427  28.022  1.00  0.00     0.049 A 
ATOM     56  C   UNL A   1      43.147  26.281  27.335  1.00  0.00     0.074 A 
ATOM     57  C   UNL A   1      46.559  31.650  27.490  1.00  0.00     0.029 A 
ATOM     58  N   UNL A   1      44.972  30.109  27.744  1.00  0.00    -0.354 N 
ATOM     59  N   UNL A   1      43.779  27.426  27.434  1.00  0.00    -0.248 NA
ATOM     60  C   UNL A   1      43.876  25.263  26.565  1.00  0.00     0.031 C 
ATOM     61  C   UNL A   1      46.973  30.476  26.852  1.00  0.00     0.029 A 
ATOM     62  C   UNL A   1      45.998  29.509  27.035  1.00  0.00     0.049 A 
ATOM     63  H   UNL A   1      44.135  29.667  28.011  1.00  0.00     0.167 HD
ATOM     64  C   UNL A   1      44.992  27.253  26.779  1.00  0.00     0.074 A 
ATOM     65  C   UNL A   1      45.011  25.889  26.294  1.00  0.00     0.031 C 
ATOM     66  C   UNL A   1      46.001  28.138  26.594  1.00  0.00     0.037 A 
BRANCH  53  67
ATOM     67  C   UNL A   1      44.925  33.754  28.915  1.00  0.00     0.064 A 
ATOM     68  C   UNL A   1      44.613  34.763  27.993  1.00  0.00     0.173 A 
ATOM     69  C   UNL A   1      45.660  34.109  30.057  1.00  0.00     0.173 A 
ATOM     70  F   UNL A   1      43.931  34.470  26.876  1.00  0.00    -0.203 F 
ATOM     71  C   UNL A   1      45.026  36.077  28.204  1.00  0.00     0.198 A 
ATOM     72  C   UNL A   1      46.050  35.427  30.277  1.00  0.00     0.198 A 
ATOM     73  F   UNL A   1      45.987  33.179  30.966  1.00  0.00    -0.203 F 
ATOM     74  F   UNL A   1      44.745  37.021  27.295  1.00  0.00    -0.200 F 
ATOM     75  C   UNL A   1      45.735  36.409  29.349  1.00  0.00     0.200 A 
ATOM     76  F   UNL A   1      46.726  35.747  31.388  1.00  0.00    -0.200 F 
ATOM     77  F   UNL A   1      46.119  37.676  29.558  1.00  0.00    -0.200 F 
ENDBRANCH  53  67
BRANCH  54  78
ATOM     78  C   UNL A   1      41.267  24.511  27.662  1.00  0.00     0.064 A 
ATOM     79  C   UNL A   1      41.846  23.382  28.258  1.00  0.00     0.173 A 
ATOM     80  C   UNL A   1      40.190  24.306  26.787  1.00  0.00     0.173 A 
ATOM     81  F   UNL A   1      42.892  23.523  29.085  1.00  0.00    -0.203 F 
ATOM     82  C   UNL A   1      41.392  22.098  27.959  1.00  0.00     0.198 A 
ATOM     83  C   UNL A   1      39.717  23.024  26.514  1.00  0.00     0.198 A 
ATOM     84  F   UNL A   1      39.599  25.353  26.192  1.00  0.00    -0.203 F 
ATOM     85  F   UNL A   1      42.006  21.033  28.492  1.00  0.00    -0.200 F 
ATOM     86  C   UNL A   1      40.327  21.921  27.089  1.00  0.00     0.200 A 
ATOM     87  F   UNL A   1      38.679  22.859  25.682  1.00  0.00    -0.200 F 
ATOM     88  F   UNL A   1      39.897  20.686  26.797  1.00  0.00    -0.200 F 
ENDBRANCH  54  78
BRANCH  66  89
ATOM     89  C   UNL A   1      47.236  27.639  25.903  1.00  0.00     0.064 A 
ATOM     90  C   UNL A   1      48.318  27.103  26.614  1.00  0.00     0.173 A 
ATOM     91  C   UNL A   1      47.316  27.667  24.502  1.00  0.00     0.173 A 
ATOM     92  F   UNL A   1      48.293  27.065  27.954  1.00  0.00    -0.203 F 
ATOM     93  C   UNL A   1      49.453  26.646  25.950  1.00  0.00     0.198 A 
ATOM     94  C   UNL A   1      48.439  27.178  23.839  1.00  0.00     0.198 A 
ATOM     95  F   UNL A   1      46.302  28.157  23.774  1.00  0.00    -0.203 F 
ATOM     96  F   UNL A   1      50.499  26.190  26.651  1.00  0.00    -0.200 F 
ATOM     97  C   UNL A   1      49.510  26.678  24.564  1.00  0.00     0.200 A 
ATOM     98  F   UNL A   1      48.485  27.195  22.500  1.00  0.00    -0.200 F 
ATOM     99  F   UNL A   1      50.601  26.235  23.926  1.00  0.00    -0.200 F 
ENDBRANCH  66  89
ENDBRANCH  40  41
ENDBRANCH  33  35
ENDBRANCH  32  33
ENDBRANCH  31  32
ENDBRANCH  30  31
ENDBRANCH  29  30
ENDBRANCH  28  29
ENDBRANCH  27  28
ENDBRANCH  26  27
ENDBRANCH   1  26
TORSDOF 25
ENDMDL
MODEL 2
REMARK VINA RESULT:      -9.9      1.398      2.295
REMARK SMILES CCc1ccc(S(=O)(=O)N[C@H](C(=O)OCCOCCOCCOCCOC(=O)c2ccc(-c3c4nc(c(-c5c(F)c(F)c(F)c(F)c5F)c5ccc([nH]5)c(-c5c(F)c(F)c(F)c(F)c5F)c5nc(c(-c6c(F)c(F)c(F)c(F)c6F)c6ccc3[nH]6)C=C5)C=C4)cc2)C(C)C)cc1
REMARK SMILES IDX 19 1 18 2 17 3 16 4 15 5 14 6 12 7 13 8 11 9 10 10 7 12 8 13
REMARK SMILES IDX 9 14 6 15 3 16 4 17 96 18 5 19 95 20 2 21 1 22 92 23 93 24
REMARK SMILES IDX 94 25 20 26 21 27 22 28 23 29 24 30 25 31 26 32 27 33 28 34
REMARK SMILES IDX 29 35 30 36 91 37 31 38 90 39 32 40 33 41 34 42 84 43 35 44
REMARK SMILES IDX 89 45 83 46 85 47 36 48 88 49 82 50 81 51 37 53 69 54 49 55
REMARK SMILES IDX 68 56 50 57 53 58 67 59 86 60 51 61 52 62 66 64 87 65 54 66
REMARK SMILES IDX 38 67 39 68 47 69 40 70 41 71 45 72 48 73 42 74 43 75 46 76
REMARK SMILES IDX 44 77 70 78 71 79 79 80 72 81 73 82 77 83 80 84 74 85 75 86
REMARK SMILES IDX 78 87 76 88 55 89 56 90 64 91 57 92 58 93 62 94 65 95 59 96
REMARK SMILES IDX 60 97 63 98 61 99
REMARK H PARENT 10 11 85 52 53 63
REMARK Flexibility Score: inf
ROOT
ATOM      1  C   UNL A   1      34.315  32.543  28.005  1.00  0.00     0.188 C 
ENDROOT
BRANCH   1   2
ATOM      2  C   UNL A   1      33.885  31.087  27.722  1.00  0.00     0.188 C 
BRANCH   2   3
ATOM      3  O   UNL A   1      32.591  31.029  27.154  1.00  0.00    -0.376 OA
BRANCH   3   4
ATOM      4  C   UNL A   1      32.108  29.799  26.639  1.00  0.00     0.202 C 
BRANCH   4   5
ATOM      5  C   UNL A   1      32.261  28.444  27.355  1.00  0.00     0.261 C 
BRANCH   5   6
ATOM      6  O   UNL A   1      31.407  27.332  27.054  1.00  0.00    -0.462 OA
BRANCH   6   7
ATOM      7  C   UNL A   1      31.449  26.977  25.743  1.00  0.00     0.324 C 
ATOM      8  O   UNL A   1      30.496  27.033  24.972  1.00  0.00    -0.250 OA
BRANCH   7   9
ATOM      9  C   UNL A   1      32.751  26.370  25.256  1.00  0.00     0.182 C 
BRANCH   9  10
ATOM     10  N   UNL A   1      32.442  24.891  25.138  1.00  0.00    -0.197 NA
ATOM     11  H   UNL A   1      31.434  24.800  25.268  1.00  0.00     0.142 HD
BRANCH  10  12
ATOM     12  S   UNL A   1      33.155  23.738  26.148  1.00  0.00     0.241 S 
ATOM     13  O   UNL A   1      32.257  23.580  27.275  1.00  0.00    -0.207 OA
ATOM     14  O   UNL A   1      34.527  24.153  26.323  1.00  0.00    -0.207 OA
BRANCH  12  15
ATOM     15  C   UNL A   1      33.230  22.158  25.312  1.00  0.00     0.082 A 
ATOM     16  C   UNL A   1      33.297  19.535  24.263  1.00  0.00    -0.048 A 
ATOM     17  C   UNL A   1      34.408  20.068  24.930  1.00  0.00     0.005 A 
ATOM     18  C   UNL A   1      32.214  20.392  23.999  1.00  0.00     0.005 A 
ATOM     19  C   UNL A   1      34.368  21.360  25.471  1.00  0.00     0.022 A 
ATOM     20  C   UNL A   1      32.194  21.709  24.491  1.00  0.00     0.022 A 
BRANCH  16  21
ATOM     21  C   UNL A   1      33.226  18.085  23.831  1.00  0.00     0.032 C 
ATOM     22  C   UNL A   1      34.480  17.258  24.115  1.00  0.00     0.009 C 
ENDBRANCH  16  21
ENDBRANCH  12  15
ENDBRANCH  10  12
ENDBRANCH   9  10
BRANCH   9  23
ATOM     23  C   UNL A   1      33.052  26.936  23.839  1.00  0.00     0.012 C 
ATOM     24  C   UNL A   1      33.999  28.142  23.894  1.00  0.00     0.009 C 
ATOM     25  C   UNL A   1      33.633  25.903  22.867  1.00  0.00     0.009 C 
ENDBRANCH   9  23
ENDBRANCH   7   9
ENDBRANCH   6   7
ENDBRANCH   5   6
ENDBRANCH   4   5
ENDBRANCH   3   4
ENDBRANCH   2   3
ENDBRANCH   1   2
BRANCH   1  26
ATOM     26  O   UNL A   1      34.064  33.021  29.332  1.00  0.00    -0.377 OA
BRANCH  26  27
ATOM     27  C   UNL A   1      34.539  34.343  29.627  1.00  0.00     0.188 C 
BRANCH  27  28
ATOM     28  C   UNL A   1      33.597  35.210  30.474  1.00  0.00     0.188 C 
BRANCH  28  29
ATOM     29  O   UNL A   1      33.224  34.691  31.753  1.00  0.00    -0.376 OA
BRANCH  29  30
ATOM     30  C   UNL A   1      34.253  34.477  32.715  1.00  0.00     0.202 C 
BRANCH  30  31
ATOM     31  C   UNL A   1      34.587  33.008  32.957  1.00  0.00     0.261 C 
BRANCH  31  32
ATOM     32  O   UNL A   1      35.853  32.857  33.617  1.00  0.00    -0.460 OA
BRANCH  32  33
ATOM     33  C   UNL A   1      36.905  33.394  32.957  1.00  0.00     0.338 C 
ATOM     34  O   UNL A   1      37.317  34.538  33.020  1.00  0.00    -0.246 OA
BRANCH  33  35
ATOM     35  C   UNL A   1      37.610  32.341  32.203  1.00  0.00     0.060 A 
ATOM     36  C   UNL A   1      38.557  31.567  32.889  1.00  0.00     0.016 A 
ATOM     37  C   UNL A   1      37.439  32.204  30.824  1.00  0.00     0.016 A 
ATOM     38  C   UNL A   1      39.407  30.725  32.182  1.00  0.00     0.010 A 
ATOM     39  C   UNL A   1      38.301  31.369  30.111  1.00  0.00     0.010 A 
ATOM     40  C   UNL A   1      39.329  30.685  30.784  1.00  0.00    -0.014 A 
BRANCH  40  41
ATOM     41  C   UNL A   1      40.488  30.172  30.023  1.00  0.00     0.031 A 
ATOM     42  C   UNL A   1      41.620  31.127  29.749  1.00  0.00     0.074 A 
ATOM     43  C   UNL A   1      40.549  28.892  29.624  1.00  0.00     0.049 A 
ATOM     44  N   UNL A   1      42.729  30.935  29.083  1.00  0.00    -0.248 NA
ATOM     45  C   UNL A   1      41.480  32.487  30.299  1.00  0.00     0.031 C 
ATOM     46  C   UNL A   1      39.527  27.878  29.874  1.00  0.00     0.029 A 
ATOM     47  N   UNL A   1      41.518  28.231  28.915  1.00  0.00    -0.354 N 
ATOM     48  C   UNL A   1      43.406  32.148  29.124  1.00  0.00     0.074 A 
ATOM     49  C   UNL A   1      42.582  33.077  29.860  1.00  0.00     0.031 C 
ATOM     50  C   UNL A   1      39.917  26.720  29.309  1.00  0.00     0.029 A 
ATOM     51  C   UNL A   1      41.200  26.924  28.640  1.00  0.00     0.049 A 
ATOM     52  H   UNL A   1      42.361  28.652  28.629  1.00  0.00     0.167 HD
ATOM     53  C   UNL A   1      44.613  32.454  28.597  1.00  0.00     0.037 A 
ATOM     54  C   UNL A   1      41.872  26.011  27.912  1.00  0.00     0.037 A 
ATOM     55  C   UNL A   1      45.435  31.519  27.881  1.00  0.00     0.049 A 
ATOM     56  C   UNL A   1      43.201  26.392  27.309  1.00  0.00     0.074 A 
ATOM     57  C   UNL A   1      46.683  31.718  27.319  1.00  0.00     0.029 A 
ATOM     58  N   UNL A   1      45.083  30.201  27.627  1.00  0.00    -0.354 N 
ATOM     59  N   UNL A   1      43.849  27.531  27.378  1.00  0.00    -0.248 NA
ATOM     60  C   UNL A   1      43.899  25.355  26.537  1.00  0.00     0.031 C 
ATOM     61  C   UNL A   1      47.069  30.531  26.688  1.00  0.00     0.029 A 
ATOM     62  C   UNL A   1      46.085  29.579  26.904  1.00  0.00     0.049 A 
ATOM     63  H   UNL A   1      44.246  29.774  27.918  1.00  0.00     0.167 HD
ATOM     64  C   UNL A   1      45.045  27.333  26.700  1.00  0.00     0.074 A 
ATOM     65  C   UNL A   1      45.037  25.963  26.233  1.00  0.00     0.031 C 
ATOM     66  C   UNL A   1      46.062  28.203  26.482  1.00  0.00     0.037 A 
BRANCH  53  67
ATOM     67  C   UNL A   1      45.108  33.861  28.751  1.00  0.00     0.064 A 
ATOM     68  C   UNL A   1      45.929  34.244  29.822  1.00  0.00     0.173 A 
ATOM     69  C   UNL A   1      44.798  34.828  27.782  1.00  0.00     0.173 A 
ATOM     70  F   UNL A   1      46.237  33.361  30.785  1.00  0.00    -0.203 F 
ATOM     71  C   UNL A   1      46.413  35.545  29.923  1.00  0.00     0.198 A 
ATOM     72  C   UNL A   1      45.305  36.122  27.872  1.00  0.00     0.198 A 
ATOM     73  F   UNL A   1      44.015  34.514  26.740  1.00  0.00    -0.203 F 
ATOM     74  F   UNL A   1      47.170  35.899  30.972  1.00  0.00    -0.200 F 
ATOM     75  C   UNL A   1      46.109  36.480  28.943  1.00  0.00     0.200 A 
ATOM     76  F   UNL A   1      45.017  37.020  26.920  1.00  0.00    -0.200 F 
ATOM     77  F   UNL A   1      46.589  37.729  29.034  1.00  0.00    -0.200 F 
ENDBRANCH  53  67
BRANCH  54  78
ATOM     78  C   UNL A   1      41.305  24.652  27.699  1.00  0.00     0.064 A 
ATOM     79  C   UNL A   1      41.870  23.526  28.313  1.00  0.00     0.173 A 
ATOM     80  C   UNL A   1      40.220  24.447  26.835  1.00  0.00     0.173 A 
ATOM     81  F   UNL A   1      42.923  23.667  29.132  1.00  0.00    -0.203 F 
ATOM     82  C   UNL A   1      41.395  22.244  28.042  1.00  0.00     0.198 A 
ATOM     83  C   UNL A   1      39.726  23.168  26.589  1.00  0.00     0.198 A 
ATOM     84  F   UNL A   1      39.642  25.491  26.222  1.00  0.00    -0.203 F 
ATOM     85  F   UNL A   1      41.995  21.180  28.593  1.00  0.00    -0.200 F 
ATOM     86  C   UNL A   1      40.321  22.066  27.182  1.00  0.00     0.200 A 
ATOM     87  F   UNL A   1      38.680  23.002  25.767  1.00  0.00    -0.200 F 
ATOM     88  F   UNL A   1      39.871  20.833  26.916  1.00  0.00    -0.200 F 
ENDBRANCH  54  78
BRANCH  66  89
ATOM     89  C   UNL A   1      47.274  27.678  25.771  1.00  0.00     0.064 A 
ATOM     90  C   UNL A   1      47.386  27.709  24.374  1.00  0.00     0.173 A 
ATOM     91  C   UNL A   1      48.355  27.168  26.508  1.00  0.00     0.173 A 
ATOM     92  F   UNL A   1      46.375  28.177  23.627  1.00  0.00    -0.203 F 
ATOM     93  C   UNL A   1      48.521  27.216  23.738  1.00  0.00     0.198 A 
ATOM     94  C   UNL A   1      49.503  26.707  25.870  1.00  0.00     0.198 A 
ATOM     95  F   UNL A   1      48.303  27.129  27.847  1.00  0.00    -0.203 F 
ATOM     96  F   UNL A   1      48.584  27.203  22.400  1.00  0.00    -0.200 F 
ATOM     97  C   UNL A   1      49.580  26.721  24.486  1.00  0.00     0.200 A 
ATOM     98  F   UNL A   1      50.530  26.244  26.594  1.00  0.00    -0.200 F 
ATOM     99  F   UNL A   1      50.674  26.250  23.871  1.00  0.00    -0.200 F 
ENDBRANCH  66  89
ENDBRANCH  40  41
ENDBRANCH  33  35
ENDBRANCH  32  33
ENDBRANCH  31  32
ENDBRANCH  30  31
ENDBRANCH  29  30
ENDBRANCH  28  29
ENDBRANCH  27  28
ENDBRANCH  26  27
ENDBRANCH   1  26
TORSDOF 25
ENDMDL
MODEL 3
REMARK VINA RESULT:      -9.7      4.430      8.725
REMARK SMILES CCc1ccc(S(=O)(=O)N[C@H](C(=O)OCCOCCOCCOCCOC(=O)c2ccc(-c3c4nc(c(-c5c(F)c(F)c(F)c(F)c5F)c5ccc([nH]5)c(-c5c(F)c(F)c(F)c(F)c5F)c5nc(c(-c6c(F)c(F)c(F)c(F)c6F)c6ccc3[nH]6)C=C5)C=C4)cc2)C(C)C)cc1
REMARK SMILES IDX 19 1 18 2 17 3 16 4 15 5 14 6 12 7 13 8 11 9 10 10 7 12 8 13
REMARK SMILES IDX 9 14 6 15 3 16 4 17 96 18 5 19 95 20 2 21 1 22 92 23 93 24
REMARK SMILES IDX 94 25 20 26 21 27 22 28 23 29 24 30 25 31 26 32 27 33 28 34
REMARK SMILES IDX 29 35 30 36 91 37 31 38 90 39 32 40 33 41 34 42 84 43 35 44
REMARK SMILES IDX 89 45 83 46 85 47 36 48 88 49 82 50 81 51 37 53 69 54 49 55
REMARK SMILES IDX 68 56 50 57 53 58 67 59 86 60 51 61 52 62 66 64 87 65 54 66
REMARK SMILES IDX 38 67 39 68 47 69 40 70 41 71 45 72 48 73 42 74 43 75 46 76
REMARK SMILES IDX 44 77 70 78 71 79 79 80 72 81 73 82 77 83 80 84 74 85 75 86
REMARK SMILES IDX 78 87 76 88 55 89 56 90 64 91 57 92 58 93 62 94 65 95 59 96
REMARK SMILES IDX 60 97 63 98 61 99
REMARK H PARENT 10 11 85 52 53 63
REMARK Flexibility Score: inf
ROOT
ATOM      1  C   UNL A   1      30.776  28.081  24.328  1.00  0.00     0.188 C 
ENDROOT
BRANCH   1   2
ATOM      2  C   UNL A   1      30.844  28.357  22.811  1.00  0.00     0.188 C 
BRANCH   2   3
ATOM      3  O   UNL A   1      31.966  29.151  22.477  1.00  0.00    -0.376 OA
BRANCH   3   4
ATOM      4  C   UNL A   1      33.271  28.629  22.663  1.00  0.00     0.202 C 
BRANCH   4   5
ATOM      5  C   UNL A   1      33.748  27.276  22.104  1.00  0.00     0.261 C 
BRANCH   5   6
ATOM      6  O   UNL A   1      33.099  26.045  22.451  1.00  0.00    -0.462 OA
BRANCH   6   7
ATOM      7  C   UNL A   1      33.458  25.591  23.680  1.00  0.00     0.324 C 
ATOM      8  O   UNL A   1      33.997  26.272  24.548  1.00  0.00    -0.250 OA
BRANCH   7   9
ATOM      9  C   UNL A   1      33.264  24.107  23.929  1.00  0.00     0.182 C 
BRANCH   9  10
ATOM     10  N   UNL A   1      32.690  24.044  25.330  1.00  0.00    -0.197 NA
ATOM     11  H   UNL A   1      32.698  25.001  25.684  1.00  0.00     0.142 HD
BRANCH  10  12
ATOM     12  S   UNL A   1      33.377  23.087  26.542  1.00  0.00     0.241 S 
ATOM     13  O   UNL A   1      32.365  22.950  27.569  1.00  0.00    -0.207 OA
ATOM     14  O   UNL A   1      34.671  23.664  26.823  1.00  0.00    -0.207 OA
BRANCH  12  15
ATOM     15  C   UNL A   1      33.708  21.446  25.909  1.00  0.00     0.082 A 
ATOM     16  C   UNL A   1      34.110  18.950  24.647  1.00  0.00    -0.048 A 
ATOM     17  C   UNL A   1      32.849  19.307  25.140  1.00  0.00     0.005 A 
ATOM     18  C   UNL A   1      35.194  19.797  24.934  1.00  0.00     0.005 A 
ATOM     19  C   UNL A   1      32.642  20.554  25.745  1.00  0.00     0.022 A 
ATOM     20  C   UNL A   1      35.001  21.025  25.593  1.00  0.00     0.022 A 
BRANCH  16  21
ATOM     21  C   UNL A   1      34.336  17.700  23.821  1.00  0.00     0.032 C 
ATOM     22  C   UNL A   1      33.151  17.264  22.959  1.00  0.00     0.009 C 
ENDBRANCH  16  21
ENDBRANCH  12  15
ENDBRANCH  10  12
ENDBRANCH   9  10
BRANCH   9  23
ATOM     23  C   UNL A   1      32.199  23.581  22.924  1.00  0.00     0.012 C 
ATOM     24  C   UNL A   1      32.488  22.141  22.485  1.00  0.00     0.009 C 
ATOM     25  C   UNL A   1      30.760  23.652  23.450  1.00  0.00     0.009 C 
ENDBRANCH   9  23
ENDBRANCH   7   9
ENDBRANCH   6   7
ENDBRANCH   5   6
ENDBRANCH   4   5
ENDBRANCH   3   4
ENDBRANCH   2   3
ENDBRANCH   1   2
BRANCH   1  26
ATOM     26  O   UNL A   1      31.200  29.155  25.178  1.00  0.00    -0.377 OA
BRANCH  26  27
ATOM     27  C   UNL A   1      31.712  28.777  26.465  1.00  0.00     0.188 C 
BRANCH  27  28
ATOM     28  C   UNL A   1      32.752  29.730  27.068  1.00  0.00     0.188 C 
BRANCH  28  29
ATOM     29  O   UNL A   1      32.755  31.072  26.572  1.00  0.00    -0.376 OA
BRANCH  29  30
ATOM     30  C   UNL A   1      31.656  31.913  26.907  1.00  0.00     0.202 C 
BRANCH  30  31
ATOM     31  C   UNL A   1      32.035  33.373  27.137  1.00  0.00     0.261 C 
BRANCH  31  32
ATOM     32  O   UNL A   1      32.610  33.569  28.439  1.00  0.00    -0.460 OA
BRANCH  32  33
ATOM     33  C   UNL A   1      33.749  34.299  28.452  1.00  0.00     0.338 C 
ATOM     34  O   UNL A   1      33.855  35.512  28.410  1.00  0.00    -0.246 OA
BRANCH  33  35
ATOM     35  C   UNL A   1      34.908  33.411  28.657  1.00  0.00     0.060 A 
ATOM     36  C   UNL A   1      34.678  32.164  29.254  1.00  0.00     0.016 A 
ATOM     37  C   UNL A   1      36.207  33.848  28.390  1.00  0.00     0.016 A 
ATOM     38  C   UNL A   1      35.753  31.389  29.677  1.00  0.00     0.010 A 
ATOM     39  C   UNL A   1      37.286  33.079  28.828  1.00  0.00     0.010 A 
ATOM     40  C   UNL A   1      37.055  31.883  29.533  1.00  0.00    -0.014 A 
BRANCH  40  41
ATOM     41  C   UNL A   1      38.130  31.305  30.368  1.00  0.00     0.031 A 
ATOM     42  C   UNL A   1      39.030  30.277  29.733  1.00  0.00     0.074 A 
ATOM     43  C   UNL A   1      38.323  31.708  31.633  1.00  0.00     0.049 A 
ATOM     44  N   UNL A   1      40.021  29.603  30.254  1.00  0.00    -0.248 NA
ATOM     45  C   UNL A   1      38.774  29.966  28.315  1.00  0.00     0.031 C 
ATOM     46  C   UNL A   1      37.536  32.725  32.327  1.00  0.00     0.029 A 
ATOM     47  N   UNL A   1      39.245  31.300  32.561  1.00  0.00    -0.354 N 
ATOM     48  C   UNL A   1      40.493  28.783  29.236  1.00  0.00     0.074 A 
ATOM     49  C   UNL A   1      39.673  29.025  28.072  1.00  0.00     0.031 C 
ATOM     50  C   UNL A   1      37.999  32.849  33.584  1.00  0.00     0.029 A 
ATOM     51  C   UNL A   1      39.097  31.905  33.784  1.00  0.00     0.049 A 
ATOM     52  H   UNL A   1      39.947  30.636  32.370  1.00  0.00     0.167 HD
ATOM     53  C   UNL A   1      41.525  27.909  29.271  1.00  0.00     0.037 A 
ATOM     54  C   UNL A   1      39.767  31.696  34.934  1.00  0.00     0.037 A 
ATOM     55  C   UNL A   1      42.346  27.686  30.428  1.00  0.00     0.049 A 
ATOM     56  C   UNL A   1      40.892  30.691  34.951  1.00  0.00     0.074 A 
ATOM     57  C   UNL A   1      43.429  26.837  30.569  1.00  0.00     0.029 A 
ATOM     58  N   UNL A   1      42.170  28.323  31.648  1.00  0.00    -0.354 N 
ATOM     59  N   UNL A   1      41.352  29.943  33.976  1.00  0.00    -0.248 NA
ATOM     60  C   UNL A   1      41.600  30.512  36.226  1.00  0.00     0.031 C 
ATOM     61  C   UNL A   1      43.882  26.929  31.890  1.00  0.00     0.029 A 
ATOM     62  C   UNL A   1      43.116  27.874  32.553  1.00  0.00     0.049 A 
ATOM     63  H   UNL A   1      41.475  28.993  31.841  1.00  0.00     0.167 HD
ATOM     64  C   UNL A   1      42.427  29.241  34.507  1.00  0.00     0.074 A 
ATOM     65  C   UNL A   1      42.555  29.659  35.888  1.00  0.00     0.031 C 
ATOM     66  C   UNL A   1      43.238  28.334  33.911  1.00  0.00     0.037 A 
BRANCH  53  67
ATOM     67  C   UNL A   1      41.809  27.109  28.035  1.00  0.00     0.064 A 
ATOM     68  C   UNL A   1      41.163  25.891  27.777  1.00  0.00     0.173 A 
ATOM     69  C   UNL A   1      42.704  27.596  27.070  1.00  0.00     0.173 A 
ATOM     70  F   UNL A   1      40.314  25.373  28.678  1.00  0.00    -0.203 F 
ATOM     71  C   UNL A   1      41.409  25.186  26.602  1.00  0.00     0.198 A 
ATOM     72  C   UNL A   1      42.929  26.901  25.885  1.00  0.00     0.198 A 
ATOM     73  F   UNL A   1      43.350  28.754  27.271  1.00  0.00    -0.203 F 
ATOM     74  F   UNL A   1      40.806  24.008  26.389  1.00  0.00    -0.200 F 
ATOM     75  C   UNL A   1      42.284  25.696  25.653  1.00  0.00     0.200 A 
ATOM     76  F   UNL A   1      43.767  27.400  24.967  1.00  0.00    -0.200 F 
ATOM     77  F   UNL A   1      42.509  25.023  24.516  1.00  0.00    -0.200 F 
ENDBRANCH  53  67
BRANCH  54  78
ATOM     78  C   UNL A   1      39.395  32.438  36.168  1.00  0.00     0.064 A 
ATOM     79  C   UNL A   1      38.409  31.953  37.038  1.00  0.00     0.173 A 
ATOM     80  C   UNL A   1      39.984  33.674  36.475  1.00  0.00     0.173 A 
ATOM     81  F   UNL A   1      37.800  30.787  36.777  1.00  0.00    -0.203 F 
ATOM     82  C   UNL A   1      37.998  32.693  38.145  1.00  0.00     0.198 A 
ATOM     83  C   UNL A   1      39.594  34.398  37.600  1.00  0.00     0.198 A 
ATOM     84  F   UNL A   1      40.934  34.183  35.677  1.00  0.00    -0.203 F 
ATOM     85  F   UNL A   1      37.007  32.236  38.923  1.00  0.00    -0.200 F 
ATOM     86  C   UNL A   1      38.593  33.914  38.427  1.00  0.00     0.200 A 
ATOM     87  F   UNL A   1      40.181  35.571  37.875  1.00  0.00    -0.200 F 
ATOM     88  F   UNL A   1      38.192  34.627  39.488  1.00  0.00    -0.200 F 
ENDBRANCH  54  78
BRANCH  66  89
ATOM     89  C   UNL A   1      44.375  27.789  34.725  1.00  0.00     0.064 A 
ATOM     90  C   UNL A   1      44.253  26.610  35.474  1.00  0.00     0.173 A 
ATOM     91  C   UNL A   1      45.617  28.443  34.722  1.00  0.00     0.173 A 
ATOM     92  F   UNL A   1      43.083  25.956  35.517  1.00  0.00    -0.203 F 
ATOM     93  C   UNL A   1      45.323  26.126  36.221  1.00  0.00     0.198 A 
ATOM     94  C   UNL A   1      46.695  27.937  35.443  1.00  0.00     0.198 A 
ATOM     95  F   UNL A   1      45.790  29.567  34.011  1.00  0.00    -0.203 F 
ATOM     96  F   UNL A   1      45.168  25.029  36.975  1.00  0.00    -0.200 F 
ATOM     97  C   UNL A   1      46.543  26.785  36.200  1.00  0.00     0.200 A 
ATOM     98  F   UNL A   1      47.877  28.566  35.409  1.00  0.00    -0.200 F 
ATOM     99  F   UNL A   1      47.573  26.315  36.917  1.00  0.00    -0.200 F 
ENDBRANCH  66  89
ENDBRANCH  40  41
ENDBRANCH  33  35
ENDBRANCH  32  33
ENDBRANCH  31  32
ENDBRANCH  30  31
ENDBRANCH  29  30
ENDBRANCH  28  29
ENDBRANCH  27  28
ENDBRANCH  26  27
ENDBRANCH   1  26
TORSDOF 25
ENDMDL
