MODEL 1
REMARK VINA RESULT:     -11.1      0.000      0.000
REMARK SMILES O=C(Cc1c(C(=O)c2cc3c(cn2)CCCC3)[nH]c2cc(Cl)ccc12)OCCOCCOCCOCCOC(=O)c1ccc(-c2c3nc(c(-c4c(F)c(F)c(F)c(F)c4F)c4ccc([nH]4)c(-c4c(F)c(F)c(F)c(F)c4F)c4nc(c(-c5c(F)c(F)c(F)c(F)c5F)c5ccc2[nH]5)C=C4)C=C3)cc1
REMARK SMILES IDX 31 1 30 2 29 3 28 4 27 5 26 6 2 7 1 8 3 9 4 10 5 11 25 12
REMARK SMILES IDX 18 13 19 14 24 15 20 17 23 18 21 19 22 20 6 21 7 22 8 23
REMARK SMILES IDX 9 24 13 25 10 26 12 27 11 28 17 29 14 30 16 31 15 32 32 33
REMARK SMILES IDX 33 34 34 35 35 36 36 37 37 38 38 39 39 40 40 41 41 42 42 43
REMARK SMILES IDX 103 44 43 45 102 46 44 47 45 48 46 49 96 50 47 51 101 52
REMARK SMILES IDX 95 53 97 54 48 55 100 56 94 57 93 58 49 60 81 61 61 62 80 63
REMARK SMILES IDX 62 64 65 65 79 66 98 67 63 68 64 69 78 71 99 72 66 73 50 74
REMARK SMILES IDX 51 75 59 76 52 77 53 78 57 79 60 80 54 81 55 82 58 83 56 84
REMARK SMILES IDX 82 85 83 86 91 87 84 88 85 89 89 90 92 91 86 92 87 93 90 94
REMARK SMILES IDX 88 95 67 96 68 97 76 98 69 99 70 100 74 101 77 102 71 103
REMARK SMILES IDX 72 104 75 105 73 106
REMARK H PARENT 18 16 97 59 65 70
REMARK Flexibility Score: inf
ROOT
ATOM      1  C   UNL A   1      41.547  19.992  26.948  1.00  0.00     0.188 C 
ENDROOT
BRANCH   1   2
ATOM      2  C   UNL A   1      41.448  21.407  26.368  1.00  0.00     0.188 C 
BRANCH   2   3
ATOM      3  O   UNL A   1      40.161  22.011  26.390  1.00  0.00    -0.376 OA
BRANCH   3   4
ATOM      4  C   UNL A   1      39.056  21.413  25.717  1.00  0.00     0.202 C 
BRANCH   4   5
ATOM      5  C   UNL A   1      37.761  22.191  25.411  1.00  0.00     0.261 C 
BRANCH   5   6
ATOM      6  O   UNL A   1      37.125  21.906  24.169  1.00  0.00    -0.463 OA
BRANCH   6   7
ATOM      7  C   UNL A   1      36.390  22.917  23.651  1.00  0.00     0.310 C 
ATOM      8  O   UNL A   1      36.248  23.050  22.441  1.00  0.00    -0.252 OA
BRANCH   7   9
ATOM      9  C   UNL A   1      35.983  23.947  24.662  1.00  0.00     0.161 C 
BRANCH   9  10
ATOM     10  C   UNL A   1      34.537  24.337  24.671  1.00  0.00     0.000 A 
ATOM     11  C   UNL A   1      33.641  23.657  25.487  1.00  0.00     0.093 A 
ATOM     12  C   UNL A   1      33.739  25.239  23.884  1.00  0.00     0.004 A 
ATOM     13  N   UNL A   1      32.529  24.456  25.581  1.00  0.00    -0.351 N 
ATOM     14  C   UNL A   1      32.516  25.363  24.548  1.00  0.00     0.048 A 
ATOM     15  C   UNL A   1      33.878  25.971  22.682  1.00  0.00     0.012 A 
ATOM     16  H   UNL A   1      31.841  24.389  26.282  1.00  0.00     0.167 HD
ATOM     17  C   UNL A   1      31.510  26.256  24.148  1.00  0.00     0.047 A 
ATOM     18  C   UNL A   1      32.863  26.820  22.225  1.00  0.00     0.021 A 
ATOM     19  C   UNL A   1      31.711  26.983  22.974  1.00  0.00     0.043 A 
ATOM     20  Cl  UNL A   1      30.495  28.069  22.424  1.00  0.00    -0.084 Cl
BRANCH  11  21
ATOM     21  C   UNL A   1      33.875  22.372  26.129  1.00  0.00     0.227 C 
ATOM     22  O   UNL A   1      34.388  22.239  27.239  1.00  0.00    -0.285 OA
BRANCH  21  23
ATOM     23  C   UNL A   1      33.537  21.158  25.386  1.00  0.00     0.113 A 
ATOM     24  C   UNL A   1      34.401  20.076  25.457  1.00  0.00     0.036 A 
ATOM     25  N   UNL A   1      32.432  21.231  24.611  1.00  0.00    -0.252 NA
ATOM     26  C   UNL A   1      34.128  18.984  24.645  1.00  0.00    -0.041 A 
ATOM     27  C   UNL A   1      32.169  20.149  23.864  1.00  0.00     0.115 A 
ATOM     28  C   UNL A   1      32.991  19.025  23.820  1.00  0.00    -0.026 A 
ATOM     29  C   UNL A   1      35.100  17.836  24.612  1.00  0.00     0.036 C 
ATOM     30  C   UNL A   1      32.618  17.871  22.935  1.00  0.00     0.037 C 
ATOM     31  C   UNL A   1      34.534  16.596  23.926  1.00  0.00     0.005 C 
ATOM     32  C   UNL A   1      33.815  16.973  22.634  1.00  0.00     0.005 C 
ENDBRANCH  21  23
ENDBRANCH  11  21
ENDBRANCH   9  10
ENDBRANCH   7   9
ENDBRANCH   6   7
ENDBRANCH   5   6
ENDBRANCH   4   5
ENDBRANCH   3   4
ENDBRANCH   2   3
ENDBRANCH   1   2
BRANCH   1  33
ATOM     33  O   UNL A   1      42.065  19.060  26.010  1.00  0.00    -0.377 OA
BRANCH  33  34
ATOM     34  C   UNL A   1      43.170  19.504  25.235  1.00  0.00     0.188 C 
BRANCH  34  35
ATOM     35  C   UNL A   1      44.580  19.022  25.635  1.00  0.00     0.188 C 
BRANCH  35  36
ATOM     36  O   UNL A   1      45.567  19.897  25.116  1.00  0.00    -0.376 OA
BRANCH  36  37
ATOM     37  C   UNL A   1      45.207  21.202  24.712  1.00  0.00     0.202 C 
BRANCH  37  38
ATOM     38  C   UNL A   1      45.553  22.408  25.604  1.00  0.00     0.261 C 
BRANCH  38  39
ATOM     39  O   UNL A   1      44.468  23.049  26.287  1.00  0.00    -0.460 OA
BRANCH  39  40
ATOM     40  C   UNL A   1      44.179  24.332  25.983  1.00  0.00     0.338 C 
ATOM     41  O   UNL A   1      43.942  24.780  24.874  1.00  0.00    -0.246 OA
BRANCH  40  42
ATOM     42  C   UNL A   1      43.953  25.068  27.263  1.00  0.00     0.060 A 
ATOM     43  C   UNL A   1      44.615  26.270  27.549  1.00  0.00     0.016 A 
ATOM     44  C   UNL A   1      43.131  24.482  28.236  1.00  0.00     0.016 A 
ATOM     45  C   UNL A   1      44.412  26.906  28.779  1.00  0.00     0.010 A 
ATOM     46  C   UNL A   1      42.921  25.122  29.464  1.00  0.00     0.010 A 
ATOM     47  C   UNL A   1      43.525  26.361  29.725  1.00  0.00    -0.014 A 
BRANCH  47  48
ATOM     48  C   UNL A   1      42.992  27.234  30.801  1.00  0.00     0.031 A 
ATOM     49  C   UNL A   1      43.625  27.376  32.149  1.00  0.00     0.074 A 
ATOM     50  C   UNL A   1      41.864  27.912  30.509  1.00  0.00     0.049 A 
ATOM     51  N   UNL A   1      43.306  28.202  33.117  1.00  0.00    -0.248 NA
ATOM     52  C   UNL A   1      44.744  26.480  32.469  1.00  0.00     0.031 C 
ATOM     53  C   UNL A   1      41.133  27.801  29.244  1.00  0.00     0.029 A 
ATOM     54  N   UNL A   1      41.141  28.826  31.230  1.00  0.00    -0.354 N 
ATOM     55  C   UNL A   1      44.194  27.945  34.151  1.00  0.00     0.074 A 
ATOM     56  C   UNL A   1      45.040  26.852  33.711  1.00  0.00     0.031 C 
ATOM     57  C   UNL A   1      40.090  28.640  29.261  1.00  0.00     0.029 A 
ATOM     58  C   UNL A   1      40.067  29.336  30.543  1.00  0.00     0.049 A 
ATOM     59  H   UNL A   1      41.370  29.091  32.150  1.00  0.00     0.167 HD
ATOM     60  C   UNL A   1      44.295  28.581  35.343  1.00  0.00     0.037 A 
ATOM     61  C   UNL A   1      39.170  30.275  30.892  1.00  0.00     0.037 A 
ATOM     62  C   UNL A   1      43.439  29.663  35.767  1.00  0.00     0.049 A 
ATOM     63  C   UNL A   1      39.305  30.952  32.221  1.00  0.00     0.074 A 
ATOM     64  C   UNL A   1      43.512  30.416  36.928  1.00  0.00     0.029 A 
ATOM     65  N   UNL A   1      42.346  30.138  35.056  1.00  0.00    -0.354 N 
ATOM     66  N   UNL A   1      40.219  30.779  33.144  1.00  0.00    -0.248 NA
ATOM     67  C   UNL A   1      38.293  31.963  32.557  1.00  0.00     0.031 C 
ATOM     68  C   UNL A   1      42.437  31.310  36.943  1.00  0.00     0.029 A 
ATOM     69  C   UNL A   1      41.720  31.149  35.769  1.00  0.00     0.049 A 
ATOM     70  H   UNL A   1      42.059  29.807  34.174  1.00  0.00     0.167 HD
ATOM     71  C   UNL A   1      39.906  31.669  34.159  1.00  0.00     0.074 A 
ATOM     72  C   UNL A   1      38.726  32.392  33.734  1.00  0.00     0.031 C 
ATOM     73  C   UNL A   1      40.545  31.863  35.337  1.00  0.00     0.037 A 
BRANCH  60  74
ATOM     74  C   UNL A   1      45.387  28.165  36.288  1.00  0.00     0.064 A 
ATOM     75  C   UNL A   1      46.644  28.786  36.258  1.00  0.00     0.173 A 
ATOM     76  C   UNL A   1      45.132  27.249  37.321  1.00  0.00     0.173 A 
ATOM     77  F   UNL A   1      46.935  29.674  35.295  1.00  0.00    -0.203 F 
ATOM     78  C   UNL A   1      47.606  28.504  37.225  1.00  0.00     0.198 A 
ATOM     79  C   UNL A   1      46.089  26.986  38.298  1.00  0.00     0.198 A 
ATOM     80  F   UNL A   1      43.940  26.641  37.407  1.00  0.00    -0.203 F 
ATOM     81  F   UNL A   1      48.803  29.106  37.173  1.00  0.00    -0.200 F 
ATOM     82  C   UNL A   1      47.325  27.614  38.250  1.00  0.00     0.200 A 
ATOM     83  F   UNL A   1      45.808  26.140  39.300  1.00  0.00    -0.200 F 
ATOM     84  F   UNL A   1      48.241  27.367  39.196  1.00  0.00    -0.200 F 
ENDBRANCH  60  74
BRANCH  61  85
ATOM     85  C   UNL A   1      38.113  30.661  29.925  1.00  0.00     0.064 A 
ATOM     86  C   UNL A   1      37.049  29.794  29.647  1.00  0.00     0.173 A 
ATOM     87  C   UNL A   1      38.113  31.920  29.309  1.00  0.00     0.173 A 
ATOM     88  F   UNL A   1      37.013  28.577  30.209  1.00  0.00    -0.203 F 
ATOM     89  C   UNL A   1      36.025  30.170  28.782  1.00  0.00     0.198 A 
ATOM     90  C   UNL A   1      37.075  32.305  28.464  1.00  0.00     0.198 A 
ATOM     91  F   UNL A   1      39.103  32.790  29.558  1.00  0.00    -0.203 F 
ATOM     92  F   UNL A   1      35.030  29.314  28.514  1.00  0.00    -0.200 F 
ATOM     93  C   UNL A   1      36.035  31.428  28.197  1.00  0.00     0.200 A 
ATOM     94  F   UNL A   1      37.077  33.529  27.919  1.00  0.00    -0.200 F 
ATOM     95  F   UNL A   1      35.040  31.795  27.378  1.00  0.00    -0.200 F 
ENDBRANCH  61  85
BRANCH  73  96
ATOM     96  C   UNL A   1      39.988  32.903  36.264  1.00  0.00     0.064 A 
ATOM     97  C   UNL A   1      38.963  32.596  37.169  1.00  0.00     0.173 A 
ATOM     98  C   UNL A   1      40.543  34.191  36.305  1.00  0.00     0.173 A 
ATOM     99  F   UNL A   1      38.390  31.383  37.154  1.00  0.00    -0.203 F 
ATOM    100  C   UNL A   1      38.511  33.543  38.083  1.00  0.00     0.198 A 
ATOM    101  C   UNL A   1      40.106  35.127  37.237  1.00  0.00     0.198 A 
ATOM    102  F   UNL A   1      41.528  34.531  35.461  1.00  0.00    -0.203 F 
ATOM    103  F   UNL A   1      37.515  33.236  38.926  1.00  0.00    -0.200 F 
ATOM    104  C   UNL A   1      39.090  34.803  38.124  1.00  0.00     0.200 A 
ATOM    105  F   UNL A   1      40.674  36.340  37.284  1.00  0.00    -0.200 F 
ATOM    106  F   UNL A   1      38.668  35.706  39.021  1.00  0.00    -0.200 F 
ENDBRANCH  73  96
ENDBRANCH  47  48
ENDBRANCH  40  42
ENDBRANCH  39  40
ENDBRANCH  38  39
ENDBRANCH  37  38
ENDBRANCH  36  37
ENDBRANCH  35  36
ENDBRANCH  34  35
ENDBRANCH  33  34
ENDBRANCH   1  33
TORSDOF 23
ENDMDL
MODEL 2
REMARK VINA RESULT:     -10.4      5.386     10.636
REMARK SMILES O=C(Cc1c(C(=O)c2cc3c(cn2)CCCC3)[nH]c2cc(Cl)ccc12)OCCOCCOCCOCCOC(=O)c1ccc(-c2c3nc(c(-c4c(F)c(F)c(F)c(F)c4F)c4ccc([nH]4)c(-c4c(F)c(F)c(F)c(F)c4F)c4nc(c(-c5c(F)c(F)c(F)c(F)c5F)c5ccc2[nH]5)C=C4)C=C3)cc1
REMARK SMILES IDX 31 1 30 2 29 3 28 4 27 5 26 6 2 7 1 8 3 9 4 10 5 11 25 12
REMARK SMILES IDX 18 13 19 14 24 15 20 17 23 18 21 19 22 20 6 21 7 22 8 23
REMARK SMILES IDX 9 24 13 25 10 26 12 27 11 28 17 29 14 30 16 31 15 32 32 33
REMARK SMILES IDX 33 34 34 35 35 36 36 37 37 38 38 39 39 40 40 41 41 42 42 43
REMARK SMILES IDX 103 44 43 45 102 46 44 47 45 48 46 49 96 50 47 51 101 52
REMARK SMILES IDX 95 53 97 54 48 55 100 56 94 57 93 58 49 60 81 61 61 62 80 63
REMARK SMILES IDX 62 64 65 65 79 66 98 67 63 68 64 69 78 71 99 72 66 73 50 74
REMARK SMILES IDX 51 75 59 76 52 77 53 78 57 79 60 80 54 81 55 82 58 83 56 84
REMARK SMILES IDX 82 85 83 86 91 87 84 88 85 89 89 90 92 91 86 92 87 93 90 94
REMARK SMILES IDX 88 95 67 96 68 97 76 98 69 99 70 100 74 101 77 102 71 103
REMARK SMILES IDX 72 104 75 105 73 106
REMARK H PARENT 18 16 97 59 65 70
REMARK Flexibility Score: inf
ROOT
ATOM      1  C   UNL A   1      33.210  28.835  27.682  1.00  0.00     0.188 C 
ENDROOT
BRANCH   1   2
ATOM      2  C   UNL A   1      31.815  28.524  27.125  1.00  0.00     0.188 C 
BRANCH   2   3
ATOM      3  O   UNL A   1      31.295  27.232  27.411  1.00  0.00    -0.376 OA
BRANCH   3   4
ATOM      4  C   UNL A   1      31.075  26.281  26.372  1.00  0.00     0.202 C 
BRANCH   4   5
ATOM      5  C   UNL A   1      30.222  25.014  26.585  1.00  0.00     0.261 C 
BRANCH   5   6
ATOM      6  O   UNL A   1      30.885  23.888  27.151  1.00  0.00    -0.463 OA
BRANCH   6   7
ATOM      7  C   UNL A   1      31.587  23.131  26.276  1.00  0.00     0.310 C 
ATOM      8  O   UNL A   1      31.084  22.721  25.236  1.00  0.00    -0.252 OA
BRANCH   7   9
ATOM      9  C   UNL A   1      32.914  22.672  26.805  1.00  0.00     0.161 C 
BRANCH   9  10
ATOM     10  C   UNL A   1      33.696  21.744  25.929  1.00  0.00     0.000 A 
ATOM     11  C   UNL A   1      34.815  22.210  25.251  1.00  0.00     0.093 A 
ATOM     12  C   UNL A   1      33.493  20.396  25.466  1.00  0.00     0.004 A 
ATOM     13  N   UNL A   1      35.521  21.097  24.869  1.00  0.00    -0.351 N 
ATOM     14  C   UNL A   1      34.702  19.993  24.893  1.00  0.00     0.048 A 
ATOM     15  C   UNL A   1      32.441  19.452  25.442  1.00  0.00     0.012 A 
ATOM     16  H   UNL A   1      36.473  21.089  24.614  1.00  0.00     0.167 HD
ATOM     17  C   UNL A   1      34.938  18.688  24.433  1.00  0.00     0.047 A 
ATOM     18  C   UNL A   1      32.630  18.164  24.929  1.00  0.00     0.021 A 
ATOM     19  C   UNL A   1      33.878  17.782  24.465  1.00  0.00     0.043 A 
ATOM     20  Cl  UNL A   1      34.106  16.179  23.884  1.00  0.00    -0.084 Cl
BRANCH  11  21
ATOM     21  C   UNL A   1      35.163  23.607  25.033  1.00  0.00     0.227 C 
ATOM     22  O   UNL A   1      36.099  24.179  25.589  1.00  0.00    -0.285 OA
BRANCH  21  23
ATOM     23  C   UNL A   1      34.312  24.399  24.145  1.00  0.00     0.113 A 
ATOM     24  C   UNL A   1      34.212  25.764  24.369  1.00  0.00     0.036 A 
ATOM     25  N   UNL A   1      33.618  23.702  23.218  1.00  0.00    -0.252 NA
ATOM     26  C   UNL A   1      33.302  26.474  23.597  1.00  0.00    -0.041 A 
ATOM     27  C   UNL A   1      32.773  24.417  22.461  1.00  0.00     0.115 A 
ATOM     28  C   UNL A   1      32.555  25.783  22.628  1.00  0.00    -0.026 A 
ATOM     29  C   UNL A   1      33.084  27.935  23.883  1.00  0.00     0.036 C 
ATOM     30  C   UNL A   1      31.572  26.489  21.740  1.00  0.00     0.037 C 
ATOM     31  C   UNL A   1      32.300  28.646  22.784  1.00  0.00     0.005 C 
ATOM     32  C   UNL A   1      31.104  27.809  22.344  1.00  0.00     0.005 C 
ENDBRANCH  21  23
ENDBRANCH  11  21
ENDBRANCH   9  10
ENDBRANCH   7   9
ENDBRANCH   6   7
ENDBRANCH   5   6
ENDBRANCH   4   5
ENDBRANCH   3   4
ENDBRANCH   2   3
ENDBRANCH   1   2
BRANCH   1  33
ATOM     33  O   UNL A   1      33.772  30.005  27.104  1.00  0.00    -0.377 OA
BRANCH  33  34
ATOM     34  C   UNL A   1      33.103  31.225  27.390  1.00  0.00     0.188 C 
BRANCH  34  35
ATOM     35  C   UNL A   1      33.957  32.447  27.785  1.00  0.00     0.188 C 
BRANCH  35  36
ATOM     36  O   UNL A   1      33.754  32.774  29.149  1.00  0.00    -0.376 OA
BRANCH  36  37
ATOM     37  C   UNL A   1      34.630  32.261  30.131  1.00  0.00     0.202 C 
BRANCH  37  38
ATOM     38  C   UNL A   1      34.815  33.005  31.466  1.00  0.00     0.261 C 
BRANCH  38  39
ATOM     39  O   UNL A   1      36.031  33.744  31.641  1.00  0.00    -0.460 OA
BRANCH  39  40
ATOM     40  C   UNL A   1      36.934  33.302  32.541  1.00  0.00     0.338 C 
ATOM     41  O   UNL A   1      36.834  33.353  33.755  1.00  0.00    -0.246 OA
BRANCH  40  42
ATOM     42  C   UNL A   1      37.969  32.514  31.806  1.00  0.00     0.060 A 
ATOM     43  C   UNL A   1      37.920  32.351  30.415  1.00  0.00     0.016 A 
ATOM     44  C   UNL A   1      38.952  31.846  32.548  1.00  0.00     0.016 A 
ATOM     45  C   UNL A   1      38.883  31.566  29.768  1.00  0.00     0.010 A 
ATOM     46  C   UNL A   1      39.920  31.067  31.901  1.00  0.00     0.010 A 
ATOM     47  C   UNL A   1      39.918  30.960  30.502  1.00  0.00    -0.014 A 
BRANCH  47  48
ATOM     48  C   UNL A   1      41.142  30.515  29.790  1.00  0.00     0.031 A 
ATOM     49  C   UNL A   1      42.343  31.382  29.575  1.00  0.00     0.074 A 
ATOM     50  C   UNL A   1      41.124  29.254  29.315  1.00  0.00     0.049 A 
ATOM     51  N   UNL A   1      43.507  31.051  29.069  1.00  0.00    -0.248 NA
ATOM     52  C   UNL A   1      42.232  32.796  29.955  1.00  0.00     0.031 C 
ATOM     53  C   UNL A   1      39.981  28.343  29.420  1.00  0.00     0.029 A 
ATOM     54  N   UNL A   1      42.080  28.514  28.667  1.00  0.00    -0.354 N 
ATOM     55  C   UNL A   1      44.277  32.204  29.090  1.00  0.00     0.074 A 
ATOM     56  C   UNL A   1      43.433  33.259  29.617  1.00  0.00     0.031 C 
ATOM     57  C   UNL A   1      40.311  27.158  28.892  1.00  0.00     0.029 A 
ATOM     58  C   UNL A   1      41.681  27.228  28.397  1.00  0.00     0.049 A 
ATOM     59  H   UNL A   1      42.964  28.870  28.421  1.00  0.00     0.167 HD
ATOM     60  C   UNL A   1      45.573  32.351  28.719  1.00  0.00     0.037 A 
ATOM     61  C   UNL A   1      42.346  26.206  27.829  1.00  0.00     0.037 A 
ATOM     62  C   UNL A   1      46.396  31.290  28.190  1.00  0.00     0.049 A 
ATOM     63  C   UNL A   1      43.775  26.405  27.422  1.00  0.00     0.074 A 
ATOM     64  C   UNL A   1      47.739  31.328  27.853  1.00  0.00     0.029 A 
ATOM     65  N   UNL A   1      45.953  30.006  27.906  1.00  0.00    -0.354 N 
ATOM     66  N   UNL A   1      44.527  27.469  27.552  1.00  0.00    -0.248 NA
ATOM     67  C   UNL A   1      44.452  25.260  26.799  1.00  0.00     0.031 C 
ATOM     68  C   UNL A   1      48.096  30.085  27.320  1.00  0.00     0.029 A 
ATOM     69  C   UNL A   1      46.988  29.256  27.368  1.00  0.00     0.049 A 
ATOM     70  H   UNL A   1      45.039  29.676  28.065  1.00  0.00     0.167 HD
ATOM     71  C   UNL A   1      45.769  27.120  27.046  1.00  0.00     0.074 A 
ATOM     72  C   UNL A   1      45.676  25.739  26.620  1.00  0.00     0.031 C 
ATOM     73  C   UNL A   1      46.884  27.882  26.947  1.00  0.00     0.037 A 
BRANCH  60  74
ATOM     74  C   UNL A   1      46.220  33.695  28.892  1.00  0.00     0.064 A 
ATOM     75  C   UNL A   1      46.187  34.651  27.867  1.00  0.00     0.173 A 
ATOM     76  C   UNL A   1      46.747  34.085  30.135  1.00  0.00     0.173 A 
ATOM     77  F   UNL A   1      45.688  34.332  26.663  1.00  0.00    -0.203 F 
ATOM     78  C   UNL A   1      46.657  35.945  28.077  1.00  0.00     0.198 A 
ATOM     79  C   UNL A   1      47.197  35.385  30.347  1.00  0.00     0.198 A 
ATOM     80  F   UNL A   1      46.786  33.214  31.155  1.00  0.00    -0.203 F 
ATOM     81  F   UNL A   1      46.620  36.841  27.080  1.00  0.00    -0.200 F 
ATOM     82  C   UNL A   1      47.151  36.315  29.319  1.00  0.00     0.200 A 
ATOM     83  F   UNL A   1      47.655  35.746  31.554  1.00  0.00    -0.200 F 
ATOM     84  F   UNL A   1      47.576  37.569  29.528  1.00  0.00    -0.200 F 
ENDBRANCH  60  74
BRANCH  61  85
ATOM     85  C   UNL A   1      41.671  24.894  27.686  1.00  0.00     0.064 A 
ATOM     86  C   UNL A   1      40.622  24.727  26.773  1.00  0.00     0.173 A 
ATOM     87  C   UNL A   1      42.097  23.771  28.409  1.00  0.00     0.173 A 
ATOM     88  F   UNL A   1      40.178  25.776  26.065  1.00  0.00    -0.203 F 
ATOM     89  C   UNL A   1      40.018  23.485  26.593  1.00  0.00     0.198 A 
ATOM     90  C   UNL A   1      41.510  22.524  28.210  1.00  0.00     0.198 A 
ATOM     91  F   UNL A   1      43.110  23.879  29.282  1.00  0.00    -0.203 F 
ATOM     92  F   UNL A   1      39.001  23.357  25.731  1.00  0.00    -0.200 F 
ATOM     93  C   UNL A   1      40.468  22.384  27.305  1.00  0.00     0.200 A 
ATOM     94  F   UNL A   1      41.962  21.458  28.883  1.00  0.00    -0.200 F 
ATOM     95  F   UNL A   1      39.897  21.186  27.120  1.00  0.00    -0.200 F 
ENDBRANCH  61  85
BRANCH  73  96
ATOM     96  C   UNL A   1      48.106  27.246  26.354  1.00  0.00     0.064 A 
ATOM     97  C   UNL A   1      48.375  27.327  24.980  1.00  0.00     0.173 A 
ATOM     98  C   UNL A   1      49.058  26.627  27.178  1.00  0.00     0.173 A 
ATOM     99  F   UNL A   1      47.486  27.894  24.152  1.00  0.00    -0.203 F 
ATOM    100  C   UNL A   1      49.553  26.809  24.452  1.00  0.00     0.198 A 
ATOM    101  C   UNL A   1      50.246  26.132  26.649  1.00  0.00     0.198 A 
ATOM    102  F   UNL A   1      48.848  26.528  28.499  1.00  0.00    -0.203 F 
ATOM    103  F   UNL A   1      49.780  26.877  23.133  1.00  0.00    -0.200 F 
ATOM    104  C   UNL A   1      50.492  26.222  25.287  1.00  0.00     0.200 A 
ATOM    105  F   UNL A   1      51.159  25.577  27.459  1.00  0.00    -0.200 F 
ATOM    106  F   UNL A   1      51.636  25.743  24.778  1.00  0.00    -0.200 F 
ENDBRANCH  73  96
ENDBRANCH  47  48
ENDBRANCH  40  42
ENDBRANCH  39  40
ENDBRANCH  38  39
ENDBRANCH  37  38
ENDBRANCH  36  37
ENDBRANCH  35  36
ENDBRANCH  34  35
ENDBRANCH  33  34
ENDBRANCH   1  33
TORSDOF 23
ENDMDL
MODEL 3
REMARK VINA RESULT:     -10.3      5.895     11.522
REMARK SMILES O=C(Cc1c(C(=O)c2cc3c(cn2)CCCC3)[nH]c2cc(Cl)ccc12)OCCOCCOCCOCCOC(=O)c1ccc(-c2c3nc(c(-c4c(F)c(F)c(F)c(F)c4F)c4ccc([nH]4)c(-c4c(F)c(F)c(F)c(F)c4F)c4nc(c(-c5c(F)c(F)c(F)c(F)c5F)c5ccc2[nH]5)C=C4)C=C3)cc1
REMARK SMILES IDX 31 1 30 2 29 3 28 4 27 5 26 6 2 7 1 8 3 9 4 10 5 11 25 12
REMARK SMILES IDX 18 13 19 14 24 15 20 17 23 18 21 19 22 20 6 21 7 22 8 23
REMARK SMILES IDX 9 24 13 25 10 26 12 27 11 28 17 29 14 30 16 31 15 32 32 33
REMARK SMILES IDX 33 34 34 35 35 36 36 37 37 38 38 39 39 40 40 41 41 42 42 43
REMARK SMILES IDX 103 44 43 45 102 46 44 47 45 48 46 49 96 50 47 51 101 52
REMARK SMILES IDX 95 53 97 54 48 55 100 56 94 57 93 58 49 60 81 61 61 62 80 63
REMARK SMILES IDX 62 64 65 65 79 66 98 67 63 68 64 69 78 71 99 72 66 73 50 74
REMARK SMILES IDX 51 75 59 76 52 77 53 78 57 79 60 80 54 81 55 82 58 83 56 84
REMARK SMILES IDX 82 85 83 86 91 87 84 88 85 89 89 90 92 91 86 92 87 93 90 94
REMARK SMILES IDX 88 95 67 96 68 97 76 98 69 99 70 100 74 101 77 102 71 103
REMARK SMILES IDX 72 104 75 105 73 106
REMARK H PARENT 18 16 97 59 65 70
REMARK Flexibility Score: inf
ROOT
ATOM      1  C   UNL A   1      32.617  35.902  29.664  1.00  0.00     0.188 C 
ENDROOT
BRANCH   1   2
ATOM      2  C   UNL A   1      33.515  35.277  28.589  1.00  0.00     0.188 C 
BRANCH   2   3
ATOM      3  O   UNL A   1      33.433  33.866  28.441  1.00  0.00    -0.376 OA
BRANCH   3   4
ATOM      4  C   UNL A   1      34.543  33.109  27.964  1.00  0.00     0.202 C 
BRANCH   4   5
ATOM      5  C   UNL A   1      34.598  31.573  28.071  1.00  0.00     0.261 C 
BRANCH   5   6
ATOM      6  O   UNL A   1      33.497  30.856  27.522  1.00  0.00    -0.463 OA
BRANCH   6   7
ATOM      7  C   UNL A   1      33.745  29.562  27.214  1.00  0.00     0.310 C 
ATOM      8  O   UNL A   1      34.877  29.172  26.952  1.00  0.00    -0.252 OA
BRANCH   7   9
ATOM      9  C   UNL A   1      32.506  28.743  27.005  1.00  0.00     0.161 C 
BRANCH   9  10
ATOM     10  C   UNL A   1      31.827  28.889  25.678  1.00  0.00     0.000 A 
ATOM     11  C   UNL A   1      32.070  27.964  24.670  1.00  0.00     0.093 A 
ATOM     12  C   UNL A   1      31.005  29.909  25.081  1.00  0.00     0.004 A 
ATOM     13  N   UNL A   1      31.055  28.117  23.758  1.00  0.00    -0.351 N 
ATOM     14  C   UNL A   1      30.459  29.345  23.925  1.00  0.00     0.048 A 
ATOM     15  C   UNL A   1      30.650  31.249  25.354  1.00  0.00     0.012 A 
ATOM     16  H   UNL A   1      30.793  27.449  23.085  1.00  0.00     0.167 HD
ATOM     17  C   UNL A   1      29.503  29.995  23.129  1.00  0.00     0.047 A 
ATOM     18  C   UNL A   1      29.748  31.944  24.540  1.00  0.00     0.021 A 
ATOM     19  C   UNL A   1      29.158  31.305  23.462  1.00  0.00     0.043 A 
ATOM     20  Cl  UNL A   1      28.013  32.158  22.501  1.00  0.00    -0.084 Cl
BRANCH  11  21
ATOM     21  C   UNL A   1      33.169  27.011  24.631  1.00  0.00     0.227 C 
ATOM     22  O   UNL A   1      34.317  27.295  24.292  1.00  0.00    -0.285 OA
BRANCH  21  23
ATOM     23  C   UNL A   1      32.882  25.613  24.956  1.00  0.00     0.113 A 
ATOM     24  C   UNL A   1      33.738  24.945  25.818  1.00  0.00     0.036 A 
ATOM     25  N   UNL A   1      31.834  25.062  24.305  1.00  0.00    -0.252 NA
ATOM     26  C   UNL A   1      33.520  23.588  26.011  1.00  0.00    -0.041 A 
ATOM     27  C   UNL A   1      31.623  23.757  24.538  1.00  0.00     0.115 A 
ATOM     28  C   UNL A   1      32.444  22.976  25.346  1.00  0.00    -0.026 A 
ATOM     29  C   UNL A   1      34.491  22.804  26.853  1.00  0.00     0.036 C 
ATOM     30  C   UNL A   1      32.133  21.518  25.527  1.00  0.00     0.037 C 
ATOM     31  C   UNL A   1      33.973  21.418  27.224  1.00  0.00     0.005 C 
ATOM     32  C   UNL A   1      33.346  20.732  26.015  1.00  0.00     0.005 C 
ENDBRANCH  21  23
ENDBRANCH  11  21
ENDBRANCH   9  10
ENDBRANCH   7   9
ENDBRANCH   6   7
ENDBRANCH   5   6
ENDBRANCH   4   5
ENDBRANCH   3   4
ENDBRANCH   2   3
ENDBRANCH   1   2
BRANCH   1  33
ATOM     33  O   UNL A   1      33.365  36.455  30.737  1.00  0.00    -0.377 OA
BRANCH  33  34
ATOM     34  C   UNL A   1      33.686  35.566  31.797  1.00  0.00     0.188 C 
BRANCH  34  35
ATOM     35  C   UNL A   1      34.870  34.598  31.602  1.00  0.00     0.188 C 
BRANCH  35  36
ATOM     36  O   UNL A   1      34.402  33.271  31.427  1.00  0.00    -0.376 OA
BRANCH  36  37
ATOM     37  C   UNL A   1      35.113  32.195  32.002  1.00  0.00     0.202 C 
BRANCH  37  38
ATOM     38  C   UNL A   1      35.849  32.383  33.341  1.00  0.00     0.261 C 
BRANCH  38  39
ATOM     39  O   UNL A   1      36.923  31.480  33.630  1.00  0.00    -0.460 OA
BRANCH  39  40
ATOM     40  C   UNL A   1      38.024  31.958  34.247  1.00  0.00     0.338 C 
ATOM     41  O   UNL A   1      38.084  32.413  35.376  1.00  0.00    -0.246 OA
BRANCH  40  42
ATOM     42  C   UNL A   1      39.209  31.609  33.407  1.00  0.00     0.060 A 
ATOM     43  C   UNL A   1      40.314  30.929  33.937  1.00  0.00     0.016 A 
ATOM     44  C   UNL A   1      39.248  32.066  32.082  1.00  0.00     0.016 A 
ATOM     45  C   UNL A   1      41.425  30.661  33.129  1.00  0.00     0.010 A 
ATOM     46  C   UNL A   1      40.356  31.793  31.271  1.00  0.00     0.010 A 
ATOM     47  C   UNL A   1      41.433  31.049  31.777  1.00  0.00    -0.014 A 
BRANCH  47  48
ATOM     48  C   UNL A   1      42.387  30.397  30.845  1.00  0.00     0.031 A 
ATOM     49  C   UNL A   1      42.124  29.093  30.160  1.00  0.00     0.074 A 
ATOM     50  C   UNL A   1      43.552  31.045  30.642  1.00  0.00     0.049 A 
ATOM     51  N   UNL A   1      42.843  28.497  29.238  1.00  0.00    -0.248 NA
ATOM     52  C   UNL A   1      40.922  28.350  30.559  1.00  0.00     0.031 C 
ATOM     53  C   UNL A   1      43.932  32.294  31.306  1.00  0.00     0.029 A 
ATOM     54  N   UNL A   1      44.617  30.765  29.826  1.00  0.00    -0.354 N 
ATOM     55  C   UNL A   1      42.172  27.324  28.927  1.00  0.00     0.074 A 
ATOM     56  C   UNL A   1      41.010  27.266  29.793  1.00  0.00     0.031 C 
ATOM     57  C   UNL A   1      45.125  32.693  30.845  1.00  0.00     0.029 A 
ATOM     58  C   UNL A   1      45.601  31.721  29.868  1.00  0.00     0.049 A 
ATOM     59  H   UNL A   1      44.670  29.957  29.266  1.00  0.00     0.167 HD
ATOM     60  C   UNL A   1      42.496  26.399  27.990  1.00  0.00     0.037 A 
ATOM     61  C   UNL A   1      46.754  31.821  29.183  1.00  0.00     0.037 A 
ATOM     62  C   UNL A   1      43.662  26.469  27.142  1.00  0.00     0.049 A 
ATOM     63  C   UNL A   1      47.088  30.777  28.162  1.00  0.00     0.074 A 
ATOM     64  C   UNL A   1      44.035  25.616  26.116  1.00  0.00     0.029 A 
ATOM     65  N   UNL A   1      44.650  27.440  27.228  1.00  0.00    -0.354 N 
ATOM     66  N   UNL A   1      46.388  29.731  27.797  1.00  0.00    -0.248 NA
ATOM     67  C   UNL A   1      48.363  30.928  27.449  1.00  0.00     0.031 C 
ATOM     68  C   UNL A   1      45.270  26.039  25.617  1.00  0.00     0.029 A 
ATOM     69  C   UNL A   1      45.646  27.185  26.297  1.00  0.00     0.049 A 
ATOM     70  H   UNL A   1      44.645  28.198  27.856  1.00  0.00     0.167 HD
ATOM     71  C   UNL A   1      47.126  29.111  26.801  1.00  0.00     0.074 A 
ATOM     72  C   UNL A   1      48.321  29.905  26.607  1.00  0.00     0.031 C 
ATOM     73  C   UNL A   1      46.833  27.982  26.113  1.00  0.00     0.037 A 
BRANCH  60  74
ATOM     74  C   UNL A   1      41.575  25.229  27.788  1.00  0.00     0.064 A 
ATOM     75  C   UNL A   1      40.420  25.347  27.002  1.00  0.00     0.173 A 
ATOM     76  C   UNL A   1      41.923  23.952  28.257  1.00  0.00     0.173 A 
ATOM     77  F   UNL A   1      40.048  26.544  26.525  1.00  0.00    -0.203 F 
ATOM     78  C   UNL A   1      39.645  24.231  26.695  1.00  0.00     0.198 A 
ATOM     79  C   UNL A   1      41.157  22.835  27.930  1.00  0.00     0.198 A 
ATOM     80  F   UNL A   1      43.028  23.781  28.997  1.00  0.00    -0.203 F 
ATOM     81  F   UNL A   1      38.541  24.368  25.947  1.00  0.00    -0.200 F 
ATOM     82  C   UNL A   1      40.020  22.975  27.149  1.00  0.00     0.200 A 
ATOM     83  F   UNL A   1      41.532  21.619  28.352  1.00  0.00    -0.200 F 
ATOM     84  F   UNL A   1      39.289  21.898  26.827  1.00  0.00    -0.200 F 
ENDBRANCH  60  74
BRANCH  61  85
ATOM     85  C   UNL A   1      47.629  32.997  29.409  1.00  0.00     0.064 A 
ATOM     86  C   UNL A   1      47.499  34.146  28.618  1.00  0.00     0.173 A 
ATOM     87  C   UNL A   1      48.567  33.020  30.451  1.00  0.00     0.173 A 
ATOM     88  F   UNL A   1      46.620  34.165  27.606  1.00  0.00    -0.203 F 
ATOM     89  C   UNL A   1      48.280  35.274  28.858  1.00  0.00     0.198 A 
ATOM     90  C   UNL A   1      49.329  34.157  30.706  1.00  0.00     0.198 A 
ATOM     91  F   UNL A   1      48.714  31.949  31.245  1.00  0.00    -0.203 F 
ATOM     92  F   UNL A   1      48.153  36.352  28.073  1.00  0.00    -0.200 F 
ATOM     93  C   UNL A   1      49.188  35.281  29.907  1.00  0.00     0.200 A 
ATOM     94  F   UNL A   1      50.188  34.168  31.734  1.00  0.00    -0.200 F 
ATOM     95  F   UNL A   1      49.927  36.373  30.147  1.00  0.00    -0.200 F 
ENDBRANCH  61  85
BRANCH  73  96
ATOM     96  C   UNL A   1      47.817  27.527  25.077  1.00  0.00     0.064 A 
ATOM     97  C   UNL A   1      47.666  27.877  23.727  1.00  0.00     0.173 A 
ATOM     98  C   UNL A   1      48.965  26.812  25.450  1.00  0.00     0.173 A 
ATOM     99  F   UNL A   1      46.577  28.545  23.322  1.00  0.00    -0.203 F 
ATOM    100  C   UNL A   1      48.629  27.523  22.787  1.00  0.00     0.198 A 
ATOM    101  C   UNL A   1      49.937  26.482  24.511  1.00  0.00     0.198 A 
ATOM    102  F   UNL A   1      49.155  26.458  26.729  1.00  0.00    -0.203 F 
ATOM    103  F   UNL A   1      48.455  27.847  21.498  1.00  0.00    -0.200 F 
ATOM    104  C   UNL A   1      49.769  26.837  23.180  1.00  0.00     0.200 A 
ATOM    105  F   UNL A   1      51.044  25.830  24.894  1.00  0.00    -0.200 F 
ATOM    106  F   UNL A   1      50.705  26.517  22.276  1.00  0.00    -0.200 F 
ENDBRANCH  73  96
ENDBRANCH  47  48
ENDBRANCH  40  42
ENDBRANCH  39  40
ENDBRANCH  38  39
ENDBRANCH  37  38
ENDBRANCH  36  37
ENDBRANCH  35  36
ENDBRANCH  34  35
ENDBRANCH  33  34
ENDBRANCH   1  33
TORSDOF 23
ENDMDL
