MODEL 1
REMARK VINA RESULT:      -7.7      0.000      0.000
REMARK SMILES CCCc1cc(OC(F)(F)F)cc2c1O[C@H](C(F)(F)F)C(C(=O)OCCOCCOCCOCCOC(=O)c1ccc(-c3c4nc(c(-c5c(F)c(F)c(F)c(F)c5F)c5ccc([nH]5)c(-c5c(F)c(F)c(F)c(F)c5F)c5nc(c(-c6c(F)c(F)c(F)c(F)c6F)c6ccc3[nH]6)C=C5)C=C4)cc1)=C2
REMARK SMILES IDX 30 1 29 2 28 3 27 4 26 5 25 6 24 7 22 8 23 9 21 10 4 11 5 12
REMARK SMILES IDX 14 13 6 14 13 15 15 16 12 17 102 18 16 19 3 20 2 21 1 22
REMARK SMILES IDX 7 23 8 24 9 25 10 26 11 27 17 28 18 29 19 30 20 31 31 32
REMARK SMILES IDX 32 33 33 34 34 35 35 36 36 37 37 38 38 39 39 40 40 41 101 42
REMARK SMILES IDX 41 43 100 44 42 45 43 46 44 47 94 48 45 49 99 50 93 51 95 52
REMARK SMILES IDX 46 53 98 54 92 55 91 56 47 58 79 59 59 60 78 61 60 62 63 63
REMARK SMILES IDX 77 64 96 65 61 66 62 67 76 69 97 70 64 71 48 72 49 73 57 74
REMARK SMILES IDX 50 75 51 76 55 77 58 78 52 79 53 80 56 81 54 82 80 83 81 84
REMARK SMILES IDX 89 85 82 86 83 87 87 88 90 89 84 90 85 91 88 92 86 93 65 94
REMARK SMILES IDX 66 95 74 96 67 97 68 98 72 99 75 100 69 101 70 102 73 103
REMARK SMILES IDX 71 104
REMARK H PARENT 95 57 63 68
REMARK Flexibility Score: inf
ROOT
ATOM      1  O   UNL A   1      45.179  32.078  25.371  1.00  0.00    -0.377 OA
ENDROOT
BRANCH   1   2
ATOM      2  C   UNL A   1      44.155  33.051  25.483  1.00  0.00     0.188 C 
BRANCH   2   3
ATOM      3  C   UNL A   1      44.582  34.447  25.987  1.00  0.00     0.188 C 
BRANCH   3   4
ATOM      4  O   UNL A   1      43.507  35.196  26.519  1.00  0.00    -0.376 OA
BRANCH   4   5
ATOM      5  C   UNL A   1      43.757  36.291  27.375  1.00  0.00     0.202 C 
BRANCH   5   6
ATOM      6  C   UNL A   1      43.007  37.629  27.259  1.00  0.00     0.261 C 
BRANCH   6   7
ATOM      7  O   UNL A   1      43.544  38.765  27.941  1.00  0.00    -0.460 OA
BRANCH   7   8
ATOM      8  C   UNL A   1      42.820  39.903  27.925  1.00  0.00     0.338 C 
ATOM      9  O   UNL A   1      42.024  40.262  28.776  1.00  0.00    -0.246 OA
BRANCH   8  10
ATOM     10  C   UNL A   1      43.224  40.743  26.780  1.00  0.00     0.087 C 
ATOM     11  C   UNL A   1      44.056  44.039  24.397  1.00  0.00    -0.002 A 
ATOM     12  C   UNL A   1      43.278  44.244  23.250  1.00  0.00     0.054 A 
ATOM     13  C   UNL A   1      43.744  42.933  25.191  1.00  0.00     0.131 A 
ATOM     14  C   UNL A   1      42.297  43.330  22.847  1.00  0.00     0.130 A 
ATOM     15  C   UNL A   1      42.745  42.013  24.820  1.00  0.00     0.021 A 
ATOM     16  O   UNL A   1      44.398  42.821  26.397  1.00  0.00    -0.475 OA
ATOM     17  C   UNL A   1      42.048  42.201  23.629  1.00  0.00     0.058 A 
ATOM     18  C   UNL A   1      42.376  40.959  25.762  1.00  0.00     0.027 C 
ATOM     19  C   UNL A   1      44.552  41.457  26.849  1.00  0.00     0.316 C 
BRANCH  11  20
ATOM     20  C   UNL A   1      45.136  45.007  24.832  1.00  0.00     0.039 C 
BRANCH  20  21
ATOM     21  C   UNL A   1      46.556  44.777  24.297  1.00  0.00     0.001 C 
ATOM     22  C   UNL A   1      46.764  45.170  22.843  1.00  0.00     0.004 C 
ENDBRANCH  20  21
ENDBRANCH  11  20
BRANCH  14  23
ATOM     23  O   UNL A   1      41.508  43.445  21.737  1.00  0.00    -0.406 OA
BRANCH  23  24
ATOM     24  C   UNL A   1      42.092  43.130  20.482  1.00  0.00     0.573 C 
ATOM     25  F   UNL A   1      43.007  44.059  20.127  1.00  0.00    -0.132 F 
ATOM     26  F   UNL A   1      42.674  41.912  20.507  1.00  0.00    -0.132 F 
ATOM     27  F   UNL A   1      41.125  43.115  19.541  1.00  0.00    -0.132 F 
ENDBRANCH  23  24
ENDBRANCH  14  23
BRANCH  19  28
ATOM     28  C   UNL A   1      45.717  40.789  26.079  1.00  0.00     0.430 C 
ATOM     29  F   UNL A   1      46.708  40.345  26.889  1.00  0.00    -0.167 F 
ATOM     30  F   UNL A   1      45.287  39.722  25.360  1.00  0.00    -0.167 F 
ATOM     31  F   UNL A   1      46.286  41.638  25.193  1.00  0.00    -0.167 F 
ENDBRANCH  19  28
ENDBRANCH   8  10
ENDBRANCH   7   8
ENDBRANCH   6   7
ENDBRANCH   5   6
ENDBRANCH   4   5
ENDBRANCH   3   4
ENDBRANCH   2   3
ENDBRANCH   1   2
BRANCH   1  32
ATOM     32  C   UNL A   1      45.161  30.950  26.241  1.00  0.00     0.188 C 
BRANCH  32  33
ATOM     33  C   UNL A   1      46.257  29.854  26.223  1.00  0.00     0.188 C 
BRANCH  33  34
ATOM     34  O   UNL A   1      45.965  28.715  25.435  1.00  0.00    -0.376 OA
BRANCH  34  35
ATOM     35  C   UNL A   1      44.926  27.845  25.841  1.00  0.00     0.202 C 
BRANCH  35  36
ATOM     36  C   UNL A   1      45.256  26.854  26.964  1.00  0.00     0.261 C 
BRANCH  36  37
ATOM     37  O   UNL A   1      44.218  26.642  27.933  1.00  0.00    -0.460 OA
BRANCH  37  38
ATOM     38  C   UNL A   1      44.534  26.868  29.224  1.00  0.00     0.338 C 
ATOM     39  O   UNL A   1      44.860  26.042  30.062  1.00  0.00    -0.246 OA
BRANCH  38  40
ATOM     40  C   UNL A   1      44.606  28.328  29.419  1.00  0.00     0.060 A 
ATOM     41  C   UNL A   1      45.746  28.876  30.022  1.00  0.00     0.016 A 
ATOM     42  C   UNL A   1      43.560  29.151  28.996  1.00  0.00     0.016 A 
ATOM     43  C   UNL A   1      45.824  30.250  30.241  1.00  0.00     0.010 A 
ATOM     44  C   UNL A   1      43.628  30.524  29.238  1.00  0.00     0.010 A 
ATOM     45  C   UNL A   1      44.743  31.072  29.897  1.00  0.00    -0.014 A 
BRANCH  45  46
ATOM     46  C   UNL A   1      44.692  32.455  30.428  1.00  0.00     0.031 A 
ATOM     47  C   UNL A   1      45.594  33.486  29.807  1.00  0.00     0.074 A 
ATOM     48  C   UNL A   1      43.835  32.800  31.403  1.00  0.00     0.049 A 
ATOM     49  N   UNL A   1      45.734  34.754  30.096  1.00  0.00    -0.248 NA
ATOM     50  C   UNL A   1      46.458  33.020  28.710  1.00  0.00     0.031 C 
ATOM     51  C   UNL A   1      42.885  31.899  32.052  1.00  0.00     0.029 A 
ATOM     52  N   UNL A   1      43.627  34.010  32.016  1.00  0.00    -0.354 N 
ATOM     53  C   UNL A   1      46.700  35.233  29.220  1.00  0.00     0.074 A 
ATOM     54  C   UNL A   1      47.142  34.114  28.418  1.00  0.00     0.031 C 
ATOM     55  C   UNL A   1      42.199  32.588  32.980  1.00  0.00     0.029 A 
ATOM     56  C   UNL A   1      42.682  33.969  33.009  1.00  0.00     0.049 A 
ATOM     57  H   UNL A   1      44.112  34.830  31.766  1.00  0.00     0.167 HD
ATOM     58  C   UNL A   1      47.168  36.497  29.089  1.00  0.00     0.037 A 
ATOM     59  C   UNL A   1      42.271  34.933  33.855  1.00  0.00     0.037 A 
ATOM     60  C   UNL A   1      46.729  37.606  29.894  1.00  0.00     0.049 A 
ATOM     61  C   UNL A   1      42.862  36.316  33.738  1.00  0.00     0.074 A 
ATOM     62  C   UNL A   1      47.130  38.929  29.833  1.00  0.00     0.029 A 
ATOM     63  N   UNL A   1      45.795  37.518  30.916  1.00  0.00    -0.354 N 
ATOM     64  N   UNL A   1      43.753  36.772  32.890  1.00  0.00    -0.248 NA
ATOM     65  C   UNL A   1      42.382  37.324  34.695  1.00  0.00     0.031 C 
ATOM     66  C   UNL A   1      46.488  39.628  30.860  1.00  0.00     0.029 A 
ATOM     67  C   UNL A   1      45.630  38.758  31.513  1.00  0.00     0.049 A 
ATOM     68  H   UNL A   1      45.321  36.696  31.180  1.00  0.00     0.167 HD
ATOM     69  C   UNL A   1      43.911  38.120  33.185  1.00  0.00     0.074 A 
ATOM     70  C   UNL A   1      43.012  38.413  34.281  1.00  0.00     0.031 C 
ATOM     71  C   UNL A   1      44.724  39.036  32.600  1.00  0.00     0.037 A 
BRANCH  58  72
ATOM     72  C   UNL A   1      48.232  36.738  28.057  1.00  0.00     0.064 A 
ATOM     73  C   UNL A   1      47.924  37.188  26.765  1.00  0.00     0.173 A 
ATOM     74  C   UNL A   1      49.584  36.538  28.375  1.00  0.00     0.173 A 
ATOM     75  F   UNL A   1      46.646  37.379  26.401  1.00  0.00    -0.203 F 
ATOM     76  C   UNL A   1      48.927  37.400  25.821  1.00  0.00     0.198 A 
ATOM     77  C   UNL A   1      50.586  36.784  27.442  1.00  0.00     0.198 A 
ATOM     78  F   UNL A   1      49.935  36.108  29.597  1.00  0.00    -0.203 F 
ATOM     79  F   UNL A   1      48.605  37.777  24.576  1.00  0.00    -0.200 F 
ATOM     80  C   UNL A   1      50.257  37.207  26.163  1.00  0.00     0.200 A 
ATOM     81  F   UNL A   1      51.871  36.610  27.779  1.00  0.00    -0.200 F 
ATOM     82  F   UNL A   1      51.221  37.420  25.257  1.00  0.00    -0.200 F 
ENDBRANCH  58  72
BRANCH  59  83
ATOM     83  C   UNL A   1      41.249  34.630  34.894  1.00  0.00     0.064 A 
ATOM     84  C   UNL A   1      41.623  34.243  36.189  1.00  0.00     0.173 A 
ATOM     85  C   UNL A   1      39.878  34.692  34.604  1.00  0.00     0.173 A 
ATOM     86  F   UNL A   1      42.922  34.144  36.510  1.00  0.00    -0.203 F 
ATOM     87  C   UNL A   1      40.667  33.905  37.145  1.00  0.00     0.198 A 
ATOM     88  C   UNL A   1      38.922  34.385  35.570  1.00  0.00     0.198 A 
ATOM     89  F   UNL A   1      39.465  35.053  33.380  1.00  0.00    -0.203 F 
ATOM     90  F   UNL A   1      41.054  33.484  38.356  1.00  0.00    -0.200 F 
ATOM     91  C   UNL A   1      39.317  33.982  36.837  1.00  0.00     0.200 A 
ATOM     92  F   UNL A   1      37.619  34.476  35.272  1.00  0.00    -0.200 F 
ATOM     93  F   UNL A   1      38.397  33.659  37.756  1.00  0.00    -0.200 F 
ENDBRANCH  59  83
BRANCH  71  94
ATOM     94  C   UNL A   1      44.643  40.453  33.099  1.00  0.00     0.064 A 
ATOM     95  C   UNL A   1      45.540  40.959  34.051  1.00  0.00     0.173 A 
ATOM     96  C   UNL A   1      43.668  41.326  32.591  1.00  0.00     0.173 A 
ATOM     97  F   UNL A   1      46.486  40.165  34.578  1.00  0.00    -0.203 F 
ATOM     98  C   UNL A   1      45.438  42.272  34.506  1.00  0.00     0.198 A 
ATOM     99  C   UNL A   1      43.593  42.649  33.019  1.00  0.00     0.198 A 
ATOM    100  F   UNL A   1      42.792  40.900  31.669  1.00  0.00    -0.203 F 
ATOM    101  F   UNL A   1      46.265  42.712  35.465  1.00  0.00    -0.200 F 
ATOM    102  C   UNL A   1      44.470  43.117  33.986  1.00  0.00     0.200 A 
ATOM    103  F   UNL A   1      42.670  43.469  32.499  1.00  0.00    -0.200 F 
ATOM    104  F   UNL A   1      44.376  44.381  34.421  1.00  0.00    -0.200 F 
ENDBRANCH  71  94
ENDBRANCH  45  46
ENDBRANCH  38  40
ENDBRANCH  37  38
ENDBRANCH  36  37
ENDBRANCH  35  36
ENDBRANCH  34  35
ENDBRANCH  33  34
ENDBRANCH  32  33
ENDBRANCH   1  32
TORSDOF 25
ENDMDL
MODEL 2
REMARK VINA RESULT:      -7.7      6.244     12.822
REMARK SMILES CCCc1cc(OC(F)(F)F)cc2c1O[C@H](C(F)(F)F)C(C(=O)OCCOCCOCCOCCOC(=O)c1ccc(-c3c4nc(c(-c5c(F)c(F)c(F)c(F)c5F)c5ccc([nH]5)c(-c5c(F)c(F)c(F)c(F)c5F)c5nc(c(-c6c(F)c(F)c(F)c(F)c6F)c6ccc3[nH]6)C=C5)C=C4)cc1)=C2
REMARK SMILES IDX 30 1 29 2 28 3 27 4 26 5 25 6 24 7 22 8 23 9 21 10 4 11 5 12
REMARK SMILES IDX 14 13 6 14 13 15 15 16 12 17 102 18 16 19 3 20 2 21 1 22
REMARK SMILES IDX 7 23 8 24 9 25 10 26 11 27 17 28 18 29 19 30 20 31 31 32
REMARK SMILES IDX 32 33 33 34 34 35 35 36 36 37 37 38 38 39 39 40 40 41 101 42
REMARK SMILES IDX 41 43 100 44 42 45 43 46 44 47 94 48 45 49 99 50 93 51 95 52
REMARK SMILES IDX 46 53 98 54 92 55 91 56 47 58 79 59 59 60 78 61 60 62 63 63
REMARK SMILES IDX 77 64 96 65 61 66 62 67 76 69 97 70 64 71 48 72 49 73 57 74
REMARK SMILES IDX 50 75 51 76 55 77 58 78 52 79 53 80 56 81 54 82 80 83 81 84
REMARK SMILES IDX 89 85 82 86 83 87 87 88 90 89 84 90 85 91 88 92 86 93 65 94
REMARK SMILES IDX 66 95 74 96 67 97 68 98 72 99 75 100 69 101 70 102 73 103
REMARK SMILES IDX 71 104
REMARK H PARENT 95 57 63 68
REMARK Flexibility Score: inf
ROOT
ATOM      1  O   UNL A   1      37.332  28.486  31.810  1.00  0.00    -0.377 OA
ENDROOT
BRANCH   1   2
ATOM      2  C   UNL A   1      38.653  27.977  31.737  1.00  0.00     0.188 C 
BRANCH   2   3
ATOM      3  C   UNL A   1      39.541  28.528  30.600  1.00  0.00     0.188 C 
BRANCH   3   4
ATOM      4  O   UNL A   1      40.398  27.549  30.045  1.00  0.00    -0.376 OA
BRANCH   4   5
ATOM      5  C   UNL A   1      40.024  26.857  28.873  1.00  0.00     0.202 C 
BRANCH   5   6
ATOM      6  C   UNL A   1      40.331  27.382  27.460  1.00  0.00     0.261 C 
BRANCH   6   7
ATOM      7  O   UNL A   1      41.620  27.947  27.214  1.00  0.00    -0.460 OA
BRANCH   7   8
ATOM      8  C   UNL A   1      42.123  27.838  25.967  1.00  0.00     0.338 C 
ATOM      9  O   UNL A   1      41.882  28.575  25.026  1.00  0.00    -0.246 OA
BRANCH   8  10
ATOM     10  C   UNL A   1      43.132  26.760  25.921  1.00  0.00     0.087 C 
ATOM     11  C   UNL A   1      46.425  24.473  24.843  1.00  0.00    -0.002 A 
ATOM     12  C   UNL A   1      46.202  23.202  24.299  1.00  0.00     0.054 A 
ATOM     13  C   UNL A   1      45.299  25.229  25.181  1.00  0.00     0.131 A 
ATOM     14  C   UNL A   1      44.917  22.656  24.193  1.00  0.00     0.130 A 
ATOM     15  C   UNL A   1      43.996  24.713  25.059  1.00  0.00     0.021 A 
ATOM     16  O   UNL A   1      45.512  26.535  25.562  1.00  0.00    -0.475 OA
ATOM     17  C   UNL A   1      43.814  23.412  24.594  1.00  0.00     0.058 A 
ATOM     18  C   UNL A   1      42.862  25.602  25.298  1.00  0.00     0.027 C 
ATOM     19  C   UNL A   1      44.508  27.044  26.469  1.00  0.00     0.316 C 
BRANCH  11  20
ATOM     20  C   UNL A   1      47.810  25.067  24.985  1.00  0.00     0.039 C 
BRANCH  20  21
ATOM     21  C   UNL A   1      48.362  25.875  23.803  1.00  0.00     0.001 C 
ATOM     22  C   UNL A   1      49.603  26.698  24.114  1.00  0.00     0.004 C 
ENDBRANCH  20  21
ENDBRANCH  11  20
BRANCH  14  23
ATOM     23  O   UNL A   1      44.614  21.420  23.693  1.00  0.00    -0.406 OA
BRANCH  23  24
ATOM     24  C   UNL A   1      44.895  20.295  24.511  1.00  0.00     0.573 C 
ATOM     25  F   UNL A   1      44.152  19.229  24.140  1.00  0.00    -0.132 F 
ATOM     26  F   UNL A   1      46.204  19.971  24.461  1.00  0.00    -0.132 F 
ATOM     27  F   UNL A   1      44.584  20.596  25.790  1.00  0.00    -0.132 F 
ENDBRANCH  23  24
ENDBRANCH  14  23
BRANCH  19  28
ATOM     28  C   UNL A   1      44.789  26.512  27.896  1.00  0.00     0.430 C 
ATOM     29  F   UNL A   1      44.345  27.339  28.872  1.00  0.00    -0.167 F 
ATOM     30  F   UNL A   1      44.199  25.308  28.099  1.00  0.00    -0.167 F 
ATOM     31  F   UNL A   1      46.111  26.326  28.112  1.00  0.00    -0.167 F 
ENDBRANCH  19  28
ENDBRANCH   8  10
ENDBRANCH   7   8
ENDBRANCH   6   7
ENDBRANCH   5   6
ENDBRANCH   4   5
ENDBRANCH   3   4
ENDBRANCH   2   3
ENDBRANCH   1   2
BRANCH   1  32
ATOM     32  C   UNL A   1      37.132  29.836  32.217  1.00  0.00     0.188 C 
BRANCH  32  33
ATOM     33  C   UNL A   1      35.941  30.698  31.723  1.00  0.00     0.188 C 
BRANCH  33  34
ATOM     34  O   UNL A   1      36.047  32.086  31.981  1.00  0.00    -0.376 OA
BRANCH  34  35
ATOM     35  C   UNL A   1      35.614  32.589  33.230  1.00  0.00     0.202 C 
BRANCH  35  36
ATOM     36  C   UNL A   1      36.344  33.827  33.766  1.00  0.00     0.261 C 
BRANCH  36  37
ATOM     37  O   UNL A   1      37.776  33.795  33.671  1.00  0.00    -0.460 OA
BRANCH  37  38
ATOM     38  C   UNL A   1      38.314  34.084  32.469  1.00  0.00     0.338 C 
ATOM     39  O   UNL A   1      38.045  35.030  31.746  1.00  0.00    -0.246 OA
BRANCH  38  40
ATOM     40  C   UNL A   1      39.438  33.156  32.246  1.00  0.00     0.060 A 
ATOM     41  C   UNL A   1      40.505  33.152  33.154  1.00  0.00     0.016 A 
ATOM     42  C   UNL A   1      39.430  32.286  31.153  1.00  0.00     0.016 A 
ATOM     43  C   UNL A   1      41.590  32.304  32.947  1.00  0.00     0.010 A 
ATOM     44  C   UNL A   1      40.530  31.454  30.934  1.00  0.00     0.010 A 
ATOM     45  C   UNL A   1      41.630  31.489  31.808  1.00  0.00    -0.014 A 
BRANCH  45  46
ATOM     46  C   UNL A   1      42.911  30.850  31.424  1.00  0.00     0.031 A 
ATOM     47  C   UNL A   1      43.814  31.587  30.474  1.00  0.00     0.074 A 
ATOM     48  C   UNL A   1      43.287  29.668  31.941  1.00  0.00     0.049 A 
ATOM     49  N   UNL A   1      44.978  31.239  29.989  1.00  0.00    -0.248 NA
ATOM     50  C   UNL A   1      43.335  32.898  30.005  1.00  0.00     0.031 C 
ATOM     51  C   UNL A   1      42.516  28.881  32.901  1.00  0.00     0.029 A 
ATOM     52  N   UNL A   1      44.421  28.926  31.727  1.00  0.00    -0.354 N 
ATOM     53  C   UNL A   1      45.367  32.283  29.161  1.00  0.00     0.074 A 
ATOM     54  C   UNL A   1      44.299  33.259  29.174  1.00  0.00     0.031 C 
ATOM     55  C   UNL A   1      43.198  27.759  33.188  1.00  0.00     0.029 A 
ATOM     56  C   UNL A   1      44.437  27.737  32.411  1.00  0.00     0.049 A 
ATOM     57  H   UNL A   1      45.154  29.219  31.138  1.00  0.00     0.167 HD
ATOM     58  C   UNL A   1      46.517  32.422  28.460  1.00  0.00     0.037 A 
ATOM     59  C   UNL A   1      45.343  26.739  32.393  1.00  0.00     0.037 A 
ATOM     60  C   UNL A   1      47.574  31.445  28.445  1.00  0.00     0.049 A 
ATOM     61  C   UNL A   1      46.582  26.884  31.545  1.00  0.00     0.074 A 
ATOM     62  C   UNL A   1      48.785  31.494  27.779  1.00  0.00     0.029 A 
ATOM     63  N   UNL A   1      47.539  30.235  29.122  1.00  0.00    -0.354 N 
ATOM     64  N   UNL A   1      46.960  27.886  30.787  1.00  0.00    -0.248 NA
ATOM     65  C   UNL A   1      47.528  25.759  31.558  1.00  0.00     0.031 C 
ATOM     66  C   UNL A   1      49.455  30.286  28.000  1.00  0.00     0.029 A 
ATOM     67  C   UNL A   1      48.695  29.515  28.864  1.00  0.00     0.049 A 
ATOM     68  H   UNL A   1      46.801  29.931  29.699  1.00  0.00     0.167 HD
ATOM     69  C   UNL A   1      48.197  27.529  30.265  1.00  0.00     0.074 A 
ATOM     70  C   UNL A   1      48.514  26.224  30.807  1.00  0.00     0.031 C 
ATOM     71  C   UNL A   1      49.001  28.219  29.418  1.00  0.00     0.037 A 
BRANCH  58  72
ATOM     72  C   UNL A   1      46.676  33.661  27.626  1.00  0.00     0.064 A 
ATOM     73  C   UNL A   1      46.146  33.758  26.331  1.00  0.00     0.173 A 
ATOM     74  C   UNL A   1      47.351  34.778  28.142  1.00  0.00     0.173 A 
ATOM     75  F   UNL A   1      45.506  32.712  25.783  1.00  0.00    -0.203 F 
ATOM     76  C   UNL A   1      46.309  34.915  25.573  1.00  0.00     0.198 A 
ATOM     77  C   UNL A   1      47.482  35.946  27.396  1.00  0.00     0.198 A 
ATOM     78  F   UNL A   1      47.878  34.741  29.375  1.00  0.00    -0.203 F 
ATOM     79  F   UNL A   1      45.842  34.964  24.318  1.00  0.00    -0.200 F 
ATOM     80  C   UNL A   1      46.969  36.010  26.110  1.00  0.00     0.200 A 
ATOM     81  F   UNL A   1      48.108  37.007  27.921  1.00  0.00    -0.200 F 
ATOM     82  F   UNL A   1      47.119  37.126  25.382  1.00  0.00    -0.200 F 
ENDBRANCH  58  72
BRANCH  59  83
ATOM     83  C   UNL A   1      45.114  25.508  33.198  1.00  0.00     0.064 A 
ATOM     84  C   UNL A   1      44.341  24.449  32.703  1.00  0.00     0.173 A 
ATOM     85  C   UNL A   1      45.639  25.380  34.493  1.00  0.00     0.173 A 
ATOM     86  F   UNL A   1      43.795  24.534  31.480  1.00  0.00    -0.203 F 
ATOM     87  C   UNL A   1      44.081  23.321  33.479  1.00  0.00     0.198 A 
ATOM     88  C   UNL A   1      45.405  24.238  35.256  1.00  0.00     0.198 A 
ATOM     89  F   UNL A   1      46.383  26.365  35.018  1.00  0.00    -0.203 F 
ATOM     90  F   UNL A   1      43.292  22.350  33.000  1.00  0.00    -0.200 F 
ATOM     91  C   UNL A   1      44.618  23.213  34.753  1.00  0.00     0.200 A 
ATOM     92  F   UNL A   1      45.939  24.132  36.480  1.00  0.00    -0.200 F 
ATOM     93  F   UNL A   1      44.369  22.128  35.498  1.00  0.00    -0.200 F 
ENDBRANCH  59  83
BRANCH  71  94
ATOM     94  C   UNL A   1      50.325  27.602  29.062  1.00  0.00     0.064 A 
ATOM     95  C   UNL A   1      51.496  27.883  29.782  1.00  0.00     0.173 A 
ATOM     96  C   UNL A   1      50.416  26.689  27.999  1.00  0.00     0.173 A 
ATOM     97  F   UNL A   1      51.469  28.755  30.802  1.00  0.00    -0.203 F 
ATOM     98  C   UNL A   1      52.713  27.307  29.425  1.00  0.00     0.198 A 
ATOM     99  C   UNL A   1      51.627  26.085  27.669  1.00  0.00     0.198 A 
ATOM    100  F   UNL A   1      49.327  26.373  27.283  1.00  0.00    -0.203 F 
ATOM    101  F   UNL A   1      53.829  27.642  30.088  1.00  0.00    -0.200 F 
ATOM    102  C   UNL A   1      52.777  26.405  28.375  1.00  0.00     0.200 A 
ATOM    103  F   UNL A   1      51.681  25.199  26.666  1.00  0.00    -0.200 F 
ATOM    104  F   UNL A   1      53.948  25.848  28.036  1.00  0.00    -0.200 F 
ENDBRANCH  71  94
ENDBRANCH  45  46
ENDBRANCH  38  40
ENDBRANCH  37  38
ENDBRANCH  36  37
ENDBRANCH  35  36
ENDBRANCH  34  35
ENDBRANCH  33  34
ENDBRANCH  32  33
ENDBRANCH   1  32
TORSDOF 25
ENDMDL
MODEL 3
REMARK VINA RESULT:      -7.6      6.422     14.057
REMARK SMILES CCCc1cc(OC(F)(F)F)cc2c1O[C@H](C(F)(F)F)C(C(=O)OCCOCCOCCOCCOC(=O)c1ccc(-c3c4nc(c(-c5c(F)c(F)c(F)c(F)c5F)c5ccc([nH]5)c(-c5c(F)c(F)c(F)c(F)c5F)c5nc(c(-c6c(F)c(F)c(F)c(F)c6F)c6ccc3[nH]6)C=C5)C=C4)cc1)=C2
REMARK SMILES IDX 30 1 29 2 28 3 27 4 26 5 25 6 24 7 22 8 23 9 21 10 4 11 5 12
REMARK SMILES IDX 14 13 6 14 13 15 15 16 12 17 102 18 16 19 3 20 2 21 1 22
REMARK SMILES IDX 7 23 8 24 9 25 10 26 11 27 17 28 18 29 19 30 20 31 31 32
REMARK SMILES IDX 32 33 33 34 34 35 35 36 36 37 37 38 38 39 39 40 40 41 101 42
REMARK SMILES IDX 41 43 100 44 42 45 43 46 44 47 94 48 45 49 99 50 93 51 95 52
REMARK SMILES IDX 46 53 98 54 92 55 91 56 47 58 79 59 59 60 78 61 60 62 63 63
REMARK SMILES IDX 77 64 96 65 61 66 62 67 76 69 97 70 64 71 48 72 49 73 57 74
REMARK SMILES IDX 50 75 51 76 55 77 58 78 52 79 53 80 56 81 54 82 80 83 81 84
REMARK SMILES IDX 89 85 82 86 83 87 87 88 90 89 84 90 85 91 88 92 86 93 65 94
REMARK SMILES IDX 66 95 74 96 67 97 68 98 72 99 75 100 69 101 70 102 73 103
REMARK SMILES IDX 71 104
REMARK H PARENT 95 57 63 68
REMARK Flexibility Score: inf
ROOT
ATOM      1  O   UNL A   1      37.392  28.447  31.797  1.00  0.00    -0.377 OA
ENDROOT
BRANCH   1   2
ATOM      2  C   UNL A   1      38.673  27.863  31.641  1.00  0.00     0.188 C 
BRANCH   2   3
ATOM      3  C   UNL A   1      39.573  28.459  30.537  1.00  0.00     0.188 C 
BRANCH   3   4
ATOM      4  O   UNL A   1      40.389  27.492  29.906  1.00  0.00    -0.376 OA
BRANCH   4   5
ATOM      5  C   UNL A   1      39.980  26.897  28.693  1.00  0.00     0.202 C 
BRANCH   5   6
ATOM      6  C   UNL A   1      40.318  27.490  27.315  1.00  0.00     0.261 C 
BRANCH   6   7
ATOM      7  O   UNL A   1      41.631  28.017  27.110  1.00  0.00    -0.460 OA
BRANCH   7   8
ATOM      8  C   UNL A   1      42.175  27.879  25.884  1.00  0.00     0.338 C 
ATOM      9  O   UNL A   1      41.985  28.608  24.926  1.00  0.00    -0.246 OA
BRANCH   8  10
ATOM     10  C   UNL A   1      43.159  26.778  25.888  1.00  0.00     0.087 C 
ATOM     11  C   UNL A   1      46.425  24.393  24.947  1.00  0.00    -0.002 A 
ATOM     12  C   UNL A   1      46.187  23.114  24.426  1.00  0.00     0.054 A 
ATOM     13  C   UNL A   1      45.309  25.182  25.238  1.00  0.00     0.131 A 
ATOM     14  C   UNL A   1      44.893  22.596  24.299  1.00  0.00     0.130 A 
ATOM     15  C   UNL A   1      43.997  24.692  25.094  1.00  0.00     0.021 A 
ATOM     16  O   UNL A   1      45.542  26.491  25.596  1.00  0.00    -0.475 OA
ATOM     17  C   UNL A   1      43.798  23.385  24.654  1.00  0.00     0.058 A 
ATOM     18  C   UNL A   1      42.878  25.612  25.284  1.00  0.00     0.027 C 
ATOM     19  C   UNL A   1      44.528  27.043  26.465  1.00  0.00     0.316 C 
BRANCH  11  20
ATOM     20  C   UNL A   1      47.819  24.958  25.112  1.00  0.00     0.039 C 
BRANCH  20  21
ATOM     21  C   UNL A   1      48.426  25.713  23.921  1.00  0.00     0.001 C 
ATOM     22  C   UNL A   1      48.777  27.168  24.197  1.00  0.00     0.004 C 
ENDBRANCH  20  21
ENDBRANCH  11  20
BRANCH  14  23
ATOM     23  O   UNL A   1      44.574  21.356  23.818  1.00  0.00    -0.406 OA
BRANCH  23  24
ATOM     24  C   UNL A   1      44.616  20.269  24.730  1.00  0.00     0.573 C 
ATOM     25  F   UNL A   1      44.361  19.100  24.102  1.00  0.00    -0.132 F 
ATOM     26  F   UNL A   1      45.815  20.196  25.346  1.00  0.00    -0.132 F 
ATOM     27  F   UNL A   1      43.669  20.452  25.674  1.00  0.00    -0.132 F 
ENDBRANCH  23  24
ENDBRANCH  14  23
BRANCH  19  28
ATOM     28  C   UNL A   1      44.760  26.537  27.910  1.00  0.00     0.430 C 
ATOM     29  F   UNL A   1      44.238  27.357  28.854  1.00  0.00    -0.167 F 
ATOM     30  F   UNL A   1      44.206  25.314  28.100  1.00  0.00    -0.167 F 
ATOM     31  F   UNL A   1      46.076  26.405  28.191  1.00  0.00    -0.167 F 
ENDBRANCH  19  28
ENDBRANCH   8  10
ENDBRANCH   7   8
ENDBRANCH   6   7
ENDBRANCH   5   6
ENDBRANCH   4   5
ENDBRANCH   3   4
ENDBRANCH   2   3
ENDBRANCH   1   2
BRANCH   1  32
ATOM     32  C   UNL A   1      37.296  29.805  32.215  1.00  0.00     0.188 C 
BRANCH  32  33
ATOM     33  C   UNL A   1      36.165  30.755  31.744  1.00  0.00     0.188 C 
BRANCH  33  34
ATOM     34  O   UNL A   1      36.422  32.137  31.912  1.00  0.00    -0.376 OA
BRANCH  34  35
ATOM     35  C   UNL A   1      36.154  32.740  33.163  1.00  0.00     0.202 C 
BRANCH  35  36
ATOM     36  C   UNL A   1      37.016  33.951  33.543  1.00  0.00     0.261 C 
BRANCH  36  37
ATOM     37  O   UNL A   1      38.429  33.795  33.349  1.00  0.00    -0.460 OA
BRANCH  37  38
ATOM     38  C   UNL A   1      38.904  34.034  32.110  1.00  0.00     0.338 C 
ATOM     39  O   UNL A   1      38.537  34.898  31.330  1.00  0.00    -0.246 OA
BRANCH  38  40
ATOM     40  C   UNL A   1      40.093  33.184  31.914  1.00  0.00     0.060 A 
ATOM     41  C   UNL A   1      41.162  33.295  32.812  1.00  0.00     0.016 A 
ATOM     42  C   UNL A   1      40.144  32.273  30.856  1.00  0.00     0.016 A 
ATOM     43  C   UNL A   1      42.306  32.521  32.630  1.00  0.00     0.010 A 
ATOM     44  C   UNL A   1      41.301  31.516  30.660  1.00  0.00     0.010 A 
ATOM     45  C   UNL A   1      42.400  31.667  31.524  1.00  0.00    -0.014 A 
BRANCH  45  46
ATOM     46  C   UNL A   1      43.723  31.110  31.154  1.00  0.00     0.031 A 
ATOM     47  C   UNL A   1      44.053  29.712  31.600  1.00  0.00     0.074 A 
ATOM     48  C   UNL A   1      44.592  31.807  30.403  1.00  0.00     0.049 A 
ATOM     49  N   UNL A   1      45.138  29.008  31.404  1.00  0.00    -0.248 NA
ATOM     50  C   UNL A   1      43.013  29.012  32.373  1.00  0.00     0.031 C 
ATOM     51  C   UNL A   1      44.367  33.152  29.879  1.00  0.00     0.029 A 
ATOM     52  N   UNL A   1      45.843  31.471  29.950  1.00  0.00    -0.354 N 
ATOM     53  C   UNL A   1      44.912  27.789  32.030  1.00  0.00     0.074 A 
ATOM     54  C   UNL A   1      43.606  27.862  32.647  1.00  0.00     0.031 C 
ATOM     55  C   UNL A   1      45.451  33.532  29.180  1.00  0.00     0.029 A 
ATOM     56  C   UNL A   1      46.454  32.468  29.232  1.00  0.00     0.049 A 
ATOM     57  H   UNL A   1      46.262  30.597  30.124  1.00  0.00     0.167 HD
ATOM     58  C   UNL A   1      45.718  26.702  32.077  1.00  0.00     0.037 A 
ATOM     59  C   UNL A   1      47.690  32.519  28.698  1.00  0.00     0.037 A 
ATOM     60  C   UNL A   1      47.019  26.637  31.467  1.00  0.00     0.049 A 
ATOM     61  C   UNL A   1      48.598  31.321  28.828  1.00  0.00     0.074 A 
ATOM     62  C   UNL A   1      47.910  25.579  31.445  1.00  0.00     0.029 A 
ATOM     63  N   UNL A   1      47.621  27.681  30.779  1.00  0.00    -0.354 N 
ATOM     64  N   UNL A   1      48.369  30.160  29.395  1.00  0.00    -0.248 NA
ATOM     65  C   UNL A   1      49.937  31.439  28.234  1.00  0.00     0.031 C 
ATOM     66  C   UNL A   1      49.077  26.004  30.801  1.00  0.00     0.029 A 
ATOM     67  C   UNL A   1      48.884  27.301  30.355  1.00  0.00     0.049 A 
ATOM     68  H   UNL A   1      47.212  28.562  30.617  1.00  0.00     0.167 HD
ATOM     69  C   UNL A   1      49.515  29.402  29.195  1.00  0.00     0.074 A 
ATOM     70  C   UNL A   1      50.433  30.228  28.439  1.00  0.00     0.031 C 
ATOM     71  C   UNL A   1      49.785  28.133  29.595  1.00  0.00     0.037 A 
BRANCH  58  72
ATOM     72  C   UNL A   1      45.225  25.506  32.842  1.00  0.00     0.064 A 
ATOM     73  C   UNL A   1      45.535  25.312  34.196  1.00  0.00     0.173 A 
ATOM     74  C   UNL A   1      44.411  24.552  32.213  1.00  0.00     0.173 A 
ATOM     75  F   UNL A   1      46.325  26.185  34.841  1.00  0.00    -0.203 F 
ATOM     76  C   UNL A   1      45.072  24.193  34.884  1.00  0.00     0.198 A 
ATOM     77  C   UNL A   1      43.920  23.454  32.913  1.00  0.00     0.198 A 
ATOM     78  F   UNL A   1      44.083  24.688  30.919  1.00  0.00    -0.203 F 
ATOM     79  F   UNL A   1      45.426  24.000  36.162  1.00  0.00    -0.200 F 
ATOM     80  C   UNL A   1      44.258  23.270  34.245  1.00  0.00     0.200 A 
ATOM     81  F   UNL A   1      43.123  22.571  32.297  1.00  0.00    -0.200 F 
ATOM     82  F   UNL A   1      43.806  22.199  34.911  1.00  0.00    -0.200 F 
ENDBRANCH  58  72
BRANCH  59  83
ATOM     83  C   UNL A   1      48.150  33.746  27.994  1.00  0.00     0.064 A 
ATOM     84  C   UNL A   1      48.740  34.807  28.694  1.00  0.00     0.173 A 
ATOM     85  C   UNL A   1      47.978  33.897  26.609  1.00  0.00     0.173 A 
ATOM     86  F   UNL A   1      48.903  34.724  30.023  1.00  0.00    -0.203 F 
ATOM     87  C   UNL A   1      49.119  35.980  28.042  1.00  0.00     0.198 A 
ATOM     88  C   UNL A   1      48.388  35.055  25.954  1.00  0.00     0.198 A 
ATOM     89  F   UNL A   1      47.416  32.913  25.891  1.00  0.00    -0.203 F 
ATOM     90  F   UNL A   1      49.629  37.000  28.746  1.00  0.00    -0.200 F 
ATOM     91  C   UNL A   1      48.948  36.101  26.671  1.00  0.00     0.200 A 
ATOM     92  F   UNL A   1      48.234  35.161  24.627  1.00  0.00    -0.200 F 
ATOM     93  F   UNL A   1      49.314  37.227  26.045  1.00  0.00    -0.200 F 
ENDBRANCH  59  83
BRANCH  71  94
ATOM     94  C   UNL A   1      51.104  27.542  29.183  1.00  0.00     0.064 A 
ATOM     95  C   UNL A   1      51.249  26.793  28.005  1.00  0.00     0.173 A 
ATOM     96  C   UNL A   1      52.250  27.754  29.967  1.00  0.00     0.173 A 
ATOM     97  F   UNL A   1      50.185  26.551  27.223  1.00  0.00    -0.203 F 
ATOM     98  C   UNL A   1      52.480  26.245  27.650  1.00  0.00     0.198 A 
ATOM     99  C   UNL A   1      53.486  27.238  29.589  1.00  0.00     0.198 A 
ATOM    100  F   UNL A   1      52.173  28.472  31.097  1.00  0.00    -0.203 F 
ATOM    101  F   UNL A   1      52.578  25.479  26.554  1.00  0.00    -0.200 F 
ATOM    102  C   UNL A   1      53.598  26.473  28.437  1.00  0.00     0.200 A 
ATOM    103  F   UNL A   1      54.569  27.476  30.341  1.00  0.00    -0.200 F 
ATOM    104  F   UNL A   1      54.782  25.949  28.092  1.00  0.00    -0.200 F 
ENDBRANCH  71  94
ENDBRANCH  45  46
ENDBRANCH  38  40
ENDBRANCH  37  38
ENDBRANCH  36  37
ENDBRANCH  35  36
ENDBRANCH  34  35
ENDBRANCH  33  34
ENDBRANCH  32  33
ENDBRANCH   1  32
TORSDOF 25
ENDMDL
