MODEL 1
REMARK VINA RESULT:     -11.3      0.000      0.000
REMARK SMILES Cc1ccc(-c2nnc(S[C@@H](C)C(=O)OCCOCCOCCOCCOC(=O)c3ccc(-c4c5nc(c(-c6c(F)c(F)c(F)c(F)c6F)c6ccc([nH]6)c(-c6c(F)c(F)c(F)c(F)c6F)c6nc(c(-c7c(F)c(F)c(F)c(F)c7F)c7ccc4[nH]7)C=C6)C=C5)cc3)n2C)cc1
REMARK SMILES IDX 20 1 19 2 18 3 17 4 16 5 15 6 13 7 14 8 11 9 12 10 10 11
REMARK SMILES IDX 9 12 6 13 7 14 93 15 8 16 94 17 5 18 1 19 2 20 3 21 96 22
REMARK SMILES IDX 4 23 95 24 21 25 22 26 23 27 24 28 25 29 26 30 27 31 28 32
REMARK SMILES IDX 29 33 30 34 31 35 92 36 32 37 91 38 33 39 34 40 35 41 85 42
REMARK SMILES IDX 36 43 90 44 84 45 86 46 37 47 89 48 83 49 82 50 38 52 70 53
REMARK SMILES IDX 50 54 69 55 51 56 54 57 68 58 87 59 52 60 53 61 67 63 88 64
REMARK SMILES IDX 55 65 39 66 40 67 48 68 41 69 42 70 46 71 49 72 43 73 44 74
REMARK SMILES IDX 47 75 45 76 71 77 72 78 80 79 73 80 74 81 78 82 81 83 75 84
REMARK SMILES IDX 76 85 79 86 77 87 56 88 57 89 65 90 58 91 59 92 63 93 66 94
REMARK SMILES IDX 60 95 61 96 64 97 62 98
REMARK H PARENT 86 51 54 62
REMARK Flexibility Score: inf
ROOT
ATOM      1  C   UNL A   1      34.656  32.425  27.636  1.00  0.00     0.188 C 
ENDROOT
BRANCH   1   2
ATOM      2  C   UNL A   1      33.695  31.132  27.517  1.00  0.00     0.188 C 
BRANCH   2   3
ATOM      3  O   UNL A   1      34.218  29.832  27.218  1.00  0.00    -0.376 OA
BRANCH   3   4
ATOM      4  C   UNL A   1      33.473  28.758  26.650  1.00  0.00     0.202 C 
BRANCH   4   5
ATOM      5  C   UNL A   1      33.265  28.827  25.227  1.00  0.00     0.261 C 
BRANCH   5   6
ATOM      6  O   UNL A   1      32.255  27.901  24.923  1.00  0.00    -0.462 OA
BRANCH   6   7
ATOM      7  C   UNL A   1      31.350  28.591  24.215  1.00  0.00     0.319 C 
ATOM      8  O   UNL A   1      30.836  29.659  24.560  1.00  0.00    -0.251 OA
BRANCH   7   9
ATOM      9  C   UNL A   1      30.814  27.846  23.080  1.00  0.00     0.161 C 
ATOM     10  C   UNL A   1      29.454  27.397  23.570  1.00  0.00     0.032 C 
BRANCH   9  11
ATOM     11  S   UNL A   1      31.641  26.663  22.049  1.00  0.00    -0.071 SA
BRANCH  11  12
ATOM     12  C   UNL A   1      32.545  25.325  22.656  1.00  0.00     0.192 A 
ATOM     13  C   UNL A   1      33.134  23.228  23.140  1.00  0.00     0.164 A 
ATOM     14  N   UNL A   1      34.057  23.773  22.375  1.00  0.00    -0.129 NA
ATOM     15  N   UNL A   1      32.131  24.188  23.322  1.00  0.00    -0.305 N 
ATOM     16  N   UNL A   1      33.701  25.055  22.084  1.00  0.00    -0.123 NA
ATOM     17  C   UNL A   1      30.928  24.031  24.087  1.00  0.00     0.154 C 
BRANCH  13  18
ATOM     18  C   UNL A   1      33.317  21.905  23.775  1.00  0.00     0.019 A 
ATOM     19  C   UNL A   1      34.237  17.760  24.493  1.00  0.00     0.044 C 
ATOM     20  C   UNL A   1      33.810  19.198  24.439  1.00  0.00    -0.051 A 
ATOM     21  C   UNL A   1      32.613  19.552  23.822  1.00  0.00     0.004 A 
ATOM     22  C   UNL A   1      34.639  20.217  24.918  1.00  0.00     0.004 A 
ATOM     23  C   UNL A   1      32.366  20.898  23.525  1.00  0.00     0.012 A 
ATOM     24  C   UNL A   1      34.390  21.560  24.594  1.00  0.00     0.012 A 
ENDBRANCH  13  18
ENDBRANCH  11  12
ENDBRANCH   9  11
ENDBRANCH   7   9
ENDBRANCH   6   7
ENDBRANCH   5   6
ENDBRANCH   4   5
ENDBRANCH   3   4
ENDBRANCH   2   3
ENDBRANCH   1   2
BRANCH   1  25
ATOM     25  O   UNL A   1      34.297  33.825  27.682  1.00  0.00    -0.377 OA
BRANCH  25  26
ATOM     26  C   UNL A   1      33.286  34.362  28.529  1.00  0.00     0.188 C 
BRANCH  26  27
ATOM     27  C   UNL A   1      33.757  34.863  29.862  1.00  0.00     0.188 C 
BRANCH  27  28
ATOM     28  O   UNL A   1      33.883  33.878  30.866  1.00  0.00    -0.376 OA
BRANCH  28  29
ATOM     29  C   UNL A   1      35.172  33.845  31.473  1.00  0.00     0.202 C 
BRANCH  29  30
ATOM     30  C   UNL A   1      36.366  33.605  30.505  1.00  0.00     0.261 C 
BRANCH  30  31
ATOM     31  O   UNL A   1      37.167  32.452  30.890  1.00  0.00    -0.460 OA
BRANCH  31  32
ATOM     32  C   UNL A   1      36.537  31.243  31.004  1.00  0.00     0.338 C 
ATOM     33  O   UNL A   1      35.914  30.864  32.011  1.00  0.00    -0.246 OA
BRANCH  32  34
ATOM     34  C   UNL A   1      37.017  30.282  29.938  1.00  0.00     0.060 A 
ATOM     35  C   UNL A   1      37.307  28.962  30.312  1.00  0.00     0.016 A 
ATOM     36  C   UNL A   1      37.689  30.808  28.842  1.00  0.00     0.016 A 
ATOM     37  C   UNL A   1      38.493  28.356  29.874  1.00  0.00     0.010 A 
ATOM     38  C   UNL A   1      38.938  30.268  28.526  1.00  0.00     0.010 A 
ATOM     39  C   UNL A   1      39.431  29.123  29.174  1.00  0.00    -0.014 A 
BRANCH  39  40
ATOM     40  C   UNL A   1      40.930  29.036  29.484  1.00  0.00     0.031 A 
ATOM     41  C   UNL A   1      41.718  27.772  28.740  1.00  0.00     0.074 A 
ATOM     42  C   UNL A   1      41.316  30.139  30.284  1.00  0.00     0.049 A 
ATOM     43  N   UNL A   1      42.703  27.028  29.219  1.00  0.00    -0.248 NA
ATOM     44  C   UNL A   1      41.252  27.162  27.485  1.00  0.00     0.031 C 
ATOM     45  C   UNL A   1      42.450  31.110  30.605  1.00  0.00     0.029 A 
ATOM     46  N   UNL A   1      40.712  30.287  31.542  1.00  0.00    -0.354 N 
ATOM     47  C   UNL A   1      43.108  26.033  28.315  1.00  0.00     0.074 A 
ATOM     48  C   UNL A   1      42.103  26.146  27.283  1.00  0.00     0.031 C 
ATOM     49  C   UNL A   1      42.593  31.422  31.895  1.00  0.00     0.029 A 
ATOM     50  C   UNL A   1      41.715  30.495  32.499  1.00  0.00     0.049 A 
ATOM     51  H   UNL A   1      39.745  30.250  31.722  1.00  0.00     0.167 HD
ATOM     52  C   UNL A   1      44.218  25.204  28.480  1.00  0.00     0.037 A 
ATOM     53  C   UNL A   1      41.682  30.366  33.822  1.00  0.00     0.037 A 
ATOM     54  C   UNL A   1      44.865  25.265  29.836  1.00  0.00     0.049 A 
ATOM     55  C   UNL A   1      42.227  28.887  34.092  1.00  0.00     0.074 A 
ATOM     56  C   UNL A   1      46.160  25.551  30.276  1.00  0.00     0.029 A 
ATOM     57  N   UNL A   1      44.119  25.159  31.030  1.00  0.00    -0.354 N 
ATOM     58  N   UNL A   1      43.049  28.151  33.326  1.00  0.00    -0.248 NA
ATOM     59  C   UNL A   1      41.952  28.161  35.323  1.00  0.00     0.031 C 
ATOM     60  C   UNL A   1      46.162  25.698  31.704  1.00  0.00     0.029 A 
ATOM     61  C   UNL A   1      44.840  25.643  32.154  1.00  0.00     0.049 A 
ATOM     62  H   UNL A   1      43.206  24.794  31.078  1.00  0.00     0.167 HD
ATOM     63  C   UNL A   1      43.399  26.904  33.937  1.00  0.00     0.074 A 
ATOM     64  C   UNL A   1      42.682  27.034  35.212  1.00  0.00     0.031 C 
ATOM     65  C   UNL A   1      44.212  25.817  33.506  1.00  0.00     0.037 A 
BRANCH  52  66
ATOM     66  C   UNL A   1      44.933  24.380  27.316  1.00  0.00     0.064 A 
ATOM     67  C   UNL A   1      46.029  24.919  26.577  1.00  0.00     0.173 A 
ATOM     68  C   UNL A   1      44.576  23.097  26.837  1.00  0.00     0.173 A 
ATOM     69  F   UNL A   1      46.663  26.034  26.948  1.00  0.00    -0.203 F 
ATOM     70  C   UNL A   1      46.590  24.323  25.430  1.00  0.00     0.198 A 
ATOM     71  C   UNL A   1      45.157  22.482  25.706  1.00  0.00     0.198 A 
ATOM     72  F   UNL A   1      43.691  22.323  27.461  1.00  0.00    -0.203 F 
ATOM     73  F   UNL A   1      47.581  24.946  24.773  1.00  0.00    -0.200 F 
ATOM     74  C   UNL A   1      46.145  23.105  24.984  1.00  0.00     0.200 A 
ATOM     75  F   UNL A   1      44.749  21.258  25.336  1.00  0.00    -0.200 F 
ATOM     76  F   UNL A   1      46.689  22.524  23.906  1.00  0.00    -0.200 F 
ENDBRANCH  52  66
BRANCH  53  77
ATOM     77  C   UNL A   1      40.622  31.425  34.229  1.00  0.00     0.064 A 
ATOM     78  C   UNL A   1      39.355  30.907  34.699  1.00  0.00     0.173 A 
ATOM     79  C   UNL A   1      41.058  32.551  34.948  1.00  0.00     0.173 A 
ATOM     80  F   UNL A   1      38.747  29.910  34.050  1.00  0.00    -0.203 F 
ATOM     81  C   UNL A   1      38.797  31.241  35.948  1.00  0.00     0.198 A 
ATOM     82  C   UNL A   1      40.464  32.915  36.183  1.00  0.00     0.198 A 
ATOM     83  F   UNL A   1      42.244  33.098  34.645  1.00  0.00    -0.203 F 
ATOM     84  F   UNL A   1      37.766  30.539  36.449  1.00  0.00    -0.200 F 
ATOM     85  C   UNL A   1      39.398  32.204  36.720  1.00  0.00     0.200 A 
ATOM     86  F   UNL A   1      41.048  33.855  36.936  1.00  0.00    -0.200 F 
ATOM     87  F   UNL A   1      39.014  32.389  37.993  1.00  0.00    -0.200 F 
ENDBRANCH  53  77
BRANCH  65  88
ATOM     88  C   UNL A   1      44.605  24.629  34.410  1.00  0.00     0.064 A 
ATOM     89  C   UNL A   1      44.202  23.305  34.203  1.00  0.00     0.173 A 
ATOM     90  C   UNL A   1      45.308  24.851  35.632  1.00  0.00     0.173 A 
ATOM     91  F   UNL A   1      43.321  22.994  33.240  1.00  0.00    -0.203 F 
ATOM     92  C   UNL A   1      44.663  22.260  35.018  1.00  0.00     0.198 A 
ATOM     93  C   UNL A   1      45.691  23.822  36.487  1.00  0.00     0.198 A 
ATOM     94  F   UNL A   1      45.647  26.079  36.049  1.00  0.00    -0.203 F 
ATOM     95  F   UNL A   1      44.361  20.994  34.704  1.00  0.00    -0.200 F 
ATOM     96  C   UNL A   1      45.424  22.518  36.146  1.00  0.00     0.200 A 
ATOM     97  F   UNL A   1      46.332  24.109  37.628  1.00  0.00    -0.200 F 
ATOM     98  F   UNL A   1      45.888  21.517  36.905  1.00  0.00    -0.200 F 
ENDBRANCH  65  88
ENDBRANCH  39  40
ENDBRANCH  32  34
ENDBRANCH  31  32
ENDBRANCH  30  31
ENDBRANCH  29  30
ENDBRANCH  28  29
ENDBRANCH  27  28
ENDBRANCH  26  27
ENDBRANCH  25  26
ENDBRANCH   1  25
TORSDOF 23
ENDMDL
MODEL 2
REMARK VINA RESULT:     -10.9      1.451      2.212
REMARK SMILES Cc1ccc(-c2nnc(S[C@@H](C)C(=O)OCCOCCOCCOCCOC(=O)c3ccc(-c4c5nc(c(-c6c(F)c(F)c(F)c(F)c6F)c6ccc([nH]6)c(-c6c(F)c(F)c(F)c(F)c6F)c6nc(c(-c7c(F)c(F)c(F)c(F)c7F)c7ccc4[nH]7)C=C6)C=C5)cc3)n2C)cc1
REMARK SMILES IDX 20 1 19 2 18 3 17 4 16 5 15 6 13 7 14 8 11 9 12 10 10 11
REMARK SMILES IDX 9 12 6 13 7 14 93 15 8 16 94 17 5 18 1 19 2 20 3 21 96 22
REMARK SMILES IDX 4 23 95 24 21 25 22 26 23 27 24 28 25 29 26 30 27 31 28 32
REMARK SMILES IDX 29 33 30 34 31 35 92 36 32 37 91 38 33 39 34 40 35 41 85 42
REMARK SMILES IDX 36 43 90 44 84 45 86 46 37 47 89 48 83 49 82 50 38 52 70 53
REMARK SMILES IDX 50 54 69 55 51 56 54 57 68 58 87 59 52 60 53 61 67 63 88 64
REMARK SMILES IDX 55 65 39 66 40 67 48 68 41 69 42 70 46 71 49 72 43 73 44 74
REMARK SMILES IDX 47 75 45 76 71 77 72 78 80 79 73 80 74 81 78 82 81 83 75 84
REMARK SMILES IDX 76 85 79 86 77 87 56 88 57 89 65 90 58 91 59 92 63 93 66 94
REMARK SMILES IDX 60 95 61 96 64 97 62 98
REMARK H PARENT 86 51 54 62
REMARK Flexibility Score: inf
ROOT
ATOM      1  C   UNL A   1      33.912  31.063  27.445  1.00  0.00     0.188 C 
ENDROOT
BRANCH   1   2
ATOM      2  C   UNL A   1      32.502  30.606  26.804  1.00  0.00     0.188 C 
BRANCH   2   3
ATOM      3  O   UNL A   1      32.394  29.440  25.979  1.00  0.00    -0.376 OA
BRANCH   3   4
ATOM      4  C   UNL A   1      31.863  29.416  24.657  1.00  0.00     0.202 C 
BRANCH   4   5
ATOM      5  C   UNL A   1      32.770  28.983  23.628  1.00  0.00     0.261 C 
BRANCH   5   6
ATOM      6  O   UNL A   1      32.276  27.762  23.141  1.00  0.00    -0.462 OA
BRANCH   6   7
ATOM      7  C   UNL A   1      33.284  27.234  22.433  1.00  0.00     0.319 C 
ATOM      8  O   UNL A   1      34.115  27.877  21.785  1.00  0.00    -0.251 OA
BRANCH   7   9
ATOM      9  C   UNL A   1      33.184  25.787  22.277  1.00  0.00     0.161 C 
ATOM     10  C   UNL A   1      32.639  25.625  20.873  1.00  0.00     0.032 C 
BRANCH   9  11
ATOM     11  S   UNL A   1      32.568  24.594  23.436  1.00  0.00    -0.071 SA
BRANCH  11  12
ATOM     12  C   UNL A   1      32.742  22.888  23.244  1.00  0.00     0.192 A 
ATOM     13  C   UNL A   1      32.471  20.696  23.559  1.00  0.00     0.164 A 
ATOM     14  N   UNL A   1      32.108  21.007  22.332  1.00  0.00    -0.129 NA
ATOM     15  N   UNL A   1      32.861  21.885  24.187  1.00  0.00    -0.305 N 
ATOM     16  N   UNL A   1      32.279  22.344  22.137  1.00  0.00    -0.123 NA
ATOM     17  C   UNL A   1      33.332  22.024  25.534  1.00  0.00     0.154 C 
BRANCH  13  18
ATOM     18  C   UNL A   1      32.575  19.294  24.018  1.00  0.00     0.019 A 
ATOM     19  C   UNL A   1      34.077  15.440  25.216  1.00  0.00     0.044 C 
ATOM     20  C   UNL A   1      33.355  16.684  24.788  1.00  0.00    -0.051 A 
ATOM     21  C   UNL A   1      33.247  17.004  23.437  1.00  0.00     0.004 A 
ATOM     22  C   UNL A   1      32.858  17.592  25.728  1.00  0.00     0.004 A 
ATOM     23  C   UNL A   1      32.831  18.288  23.067  1.00  0.00     0.012 A 
ATOM     24  C   UNL A   1      32.465  18.884  25.345  1.00  0.00     0.012 A 
ENDBRANCH  13  18
ENDBRANCH  11  12
ENDBRANCH   9  11
ENDBRANCH   7   9
ENDBRANCH   6   7
ENDBRANCH   5   6
ENDBRANCH   4   5
ENDBRANCH   3   4
ENDBRANCH   2   3
ENDBRANCH   1   2
BRANCH   1  25
ATOM     25  O   UNL A   1      34.331  32.377  27.882  1.00  0.00    -0.377 OA
BRANCH  25  26
ATOM     26  C   UNL A   1      33.434  33.411  28.275  1.00  0.00     0.188 C 
BRANCH  26  27
ATOM     27  C   UNL A   1      33.987  34.411  29.247  1.00  0.00     0.188 C 
BRANCH  27  28
ATOM     28  O   UNL A   1      33.922  34.031  30.605  1.00  0.00    -0.376 OA
BRANCH  28  29
ATOM     29  C   UNL A   1      35.200  33.822  31.200  1.00  0.00     0.202 C 
BRANCH  29  30
ATOM     30  C   UNL A   1      36.361  33.515  30.211  1.00  0.00     0.261 C 
BRANCH  30  31
ATOM     31  O   UNL A   1      37.287  32.522  30.735  1.00  0.00    -0.460 OA
BRANCH  31  32
ATOM     32  C   UNL A   1      36.767  31.352  31.216  1.00  0.00     0.338 C 
ATOM     33  O   UNL A   1      36.493  31.139  32.410  1.00  0.00    -0.246 OA
BRANCH  32  34
ATOM     34  C   UNL A   1      36.936  30.233  30.211  1.00  0.00     0.060 A 
ATOM     35  C   UNL A   1      37.284  28.959  30.683  1.00  0.00     0.016 A 
ATOM     36  C   UNL A   1      37.313  30.571  28.918  1.00  0.00     0.016 A 
ATOM     37  C   UNL A   1      38.304  28.235  30.050  1.00  0.00     0.010 A 
ATOM     38  C   UNL A   1      38.426  29.925  28.376  1.00  0.00     0.010 A 
ATOM     39  C   UNL A   1      39.046  28.848  29.035  1.00  0.00    -0.014 A 
BRANCH  39  40
ATOM     40  C   UNL A   1      40.572  28.719  28.965  1.00  0.00     0.031 A 
ATOM     41  C   UNL A   1      41.115  27.329  28.227  1.00  0.00     0.074 A 
ATOM     42  C   UNL A   1      41.174  29.891  29.483  1.00  0.00     0.049 A 
ATOM     43  N   UNL A   1      42.174  26.598  28.540  1.00  0.00    -0.248 NA
ATOM     44  C   UNL A   1      40.329  26.591  27.226  1.00  0.00     0.031 C 
ATOM     45  C   UNL A   1      42.373  30.831  29.372  1.00  0.00     0.029 A 
ATOM     46  N   UNL A   1      40.918  30.232  30.820  1.00  0.00    -0.354 N 
ATOM     47  C   UNL A   1      42.312  25.476  27.708  1.00  0.00     0.074 A 
ATOM     48  C   UNL A   1      41.078  25.512  26.957  1.00  0.00     0.031 C 
ATOM     49  C   UNL A   1      42.850  31.296  30.529  1.00  0.00     0.029 A 
ATOM     50  C   UNL A   1      42.137  30.504  31.455  1.00  0.00     0.049 A 
ATOM     51  H   UNL A   1      40.029  30.272  31.242  1.00  0.00     0.167 HD
ATOM     52  C   UNL A   1      43.410  24.614  27.700  1.00  0.00     0.037 A 
ATOM     53  C   UNL A   1      42.444  30.546  32.749  1.00  0.00     0.037 A 
ATOM     54  C   UNL A   1      44.385  24.811  28.828  1.00  0.00     0.049 A 
ATOM     55  C   UNL A   1      43.008  29.086  33.073  1.00  0.00     0.074 A 
ATOM     56  C   UNL A   1      45.755  25.079  28.883  1.00  0.00     0.029 A 
ATOM     57  N   UNL A   1      43.970  24.899  30.174  1.00  0.00    -0.354 N 
ATOM     58  N   UNL A   1      43.589  28.213  32.233  1.00  0.00    -0.248 NA
ATOM     59  C   UNL A   1      43.044  28.538  34.421  1.00  0.00     0.031 C 
ATOM     60  C   UNL A   1      46.128  25.405  30.230  1.00  0.00     0.029 A 
ATOM     61  C   UNL A   1      44.965  25.482  31.002  1.00  0.00     0.049 A 
ATOM     62  H   UNL A   1      43.092  24.594  30.500  1.00  0.00     0.167 HD
ATOM     63  C   UNL A   1      44.059  27.036  32.900  1.00  0.00     0.074 A 
ATOM     64  C   UNL A   1      43.697  27.367  34.285  1.00  0.00     0.031 C 
ATOM     65  C   UNL A   1      44.711  25.860  32.432  1.00  0.00     0.037 A 
BRANCH  52  66
ATOM     66  C   UNL A   1      43.784  23.610  26.517  1.00  0.00     0.064 A 
ATOM     67  C   UNL A   1      43.187  22.317  26.413  1.00  0.00     0.173 A 
ATOM     68  C   UNL A   1      44.739  23.817  25.495  1.00  0.00     0.173 A 
ATOM     69  F   UNL A   1      42.135  21.953  27.148  1.00  0.00    -0.203 F 
ATOM     70  C   UNL A   1      43.594  21.321  25.503  1.00  0.00     0.198 A 
ATOM     71  C   UNL A   1      45.128  22.830  24.561  1.00  0.00     0.198 A 
ATOM     72  F   UNL A   1      45.315  24.997  25.284  1.00  0.00    -0.203 F 
ATOM     73  F   UNL A   1      43.004  20.115  25.528  1.00  0.00    -0.200 F 
ATOM     74  C   UNL A   1      44.577  21.573  24.581  1.00  0.00     0.200 A 
ATOM     75  F   UNL A   1      46.044  23.129  23.625  1.00  0.00    -0.200 F 
ATOM     76  F   UNL A   1      44.954  20.636  23.701  1.00  0.00    -0.200 F 
ENDBRANCH  52  66
BRANCH  53  77
ATOM     77  C   UNL A   1      41.547  31.705  33.261  1.00  0.00     0.064 A 
ATOM     78  C   UNL A   1      40.394  31.317  34.046  1.00  0.00     0.173 A 
ATOM     79  C   UNL A   1      42.179  32.863  33.745  1.00  0.00     0.173 A 
ATOM     80  F   UNL A   1      39.615  30.305  33.654  1.00  0.00    -0.203 F 
ATOM     81  C   UNL A   1      40.142  31.803  35.344  1.00  0.00     0.198 A 
ATOM     82  C   UNL A   1      41.890  33.380  35.033  1.00  0.00     0.198 A 
ATOM     83  F   UNL A   1      43.290  33.301  33.135  1.00  0.00    -0.203 F 
ATOM     84  F   UNL A   1      39.220  31.219  36.129  1.00  0.00    -0.200 F 
ATOM     85  C   UNL A   1      40.941  32.793  35.861  1.00  0.00     0.200 A 
ATOM     86  F   UNL A   1      42.666  34.347  35.538  1.00  0.00    -0.200 F 
ATOM     87  F   UNL A   1      40.857  33.122  37.160  1.00  0.00    -0.200 F 
ENDBRANCH  53  77
BRANCH  65  88
ATOM     88  C   UNL A   1      45.298  24.777  33.362  1.00  0.00     0.064 A 
ATOM     89  C   UNL A   1      44.561  23.730  33.928  1.00  0.00     0.173 A 
ATOM     90  C   UNL A   1      46.643  24.874  33.826  1.00  0.00     0.173 A 
ATOM     91  F   UNL A   1      43.229  23.669  33.787  1.00  0.00    -0.203 F 
ATOM     92  C   UNL A   1      45.175  22.732  34.699  1.00  0.00     0.198 A 
ATOM     93  C   UNL A   1      47.229  23.930  34.663  1.00  0.00     0.198 A 
ATOM     94  F   UNL A   1      47.444  25.896  33.490  1.00  0.00    -0.203 F 
ATOM     95  F   UNL A   1      44.458  21.677  35.108  1.00  0.00    -0.200 F 
ATOM     96  C   UNL A   1      46.512  22.822  35.047  1.00  0.00     0.200 A 
ATOM     97  F   UNL A   1      48.493  24.098  35.075  1.00  0.00    -0.200 F 
ATOM     98  F   UNL A   1      47.103  21.853  35.758  1.00  0.00    -0.200 F 
ENDBRANCH  65  88
ENDBRANCH  39  40
ENDBRANCH  32  34
ENDBRANCH  31  32
ENDBRANCH  30  31
ENDBRANCH  29  30
ENDBRANCH  28  29
ENDBRANCH  27  28
ENDBRANCH  26  27
ENDBRANCH  25  26
ENDBRANCH   1  25
TORSDOF 23
ENDMDL
MODEL 3
REMARK VINA RESULT:      -9.9      1.863      2.826
REMARK SMILES Cc1ccc(-c2nnc(S[C@@H](C)C(=O)OCCOCCOCCOCCOC(=O)c3ccc(-c4c5nc(c(-c6c(F)c(F)c(F)c(F)c6F)c6ccc([nH]6)c(-c6c(F)c(F)c(F)c(F)c6F)c6nc(c(-c7c(F)c(F)c(F)c(F)c7F)c7ccc4[nH]7)C=C6)C=C5)cc3)n2C)cc1
REMARK SMILES IDX 20 1 19 2 18 3 17 4 16 5 15 6 13 7 14 8 11 9 12 10 10 11
REMARK SMILES IDX 9 12 6 13 7 14 93 15 8 16 94 17 5 18 1 19 2 20 3 21 96 22
REMARK SMILES IDX 4 23 95 24 21 25 22 26 23 27 24 28 25 29 26 30 27 31 28 32
REMARK SMILES IDX 29 33 30 34 31 35 92 36 32 37 91 38 33 39 34 40 35 41 85 42
REMARK SMILES IDX 36 43 90 44 84 45 86 46 37 47 89 48 83 49 82 50 38 52 70 53
REMARK SMILES IDX 50 54 69 55 51 56 54 57 68 58 87 59 52 60 53 61 67 63 88 64
REMARK SMILES IDX 55 65 39 66 40 67 48 68 41 69 42 70 46 71 49 72 43 73 44 74
REMARK SMILES IDX 47 75 45 76 71 77 72 78 80 79 73 80 74 81 78 82 81 83 75 84
REMARK SMILES IDX 76 85 79 86 77 87 56 88 57 89 65 90 58 91 59 92 63 93 66 94
REMARK SMILES IDX 60 95 61 96 64 97 62 98
REMARK H PARENT 86 51 54 62
REMARK Flexibility Score: inf
ROOT
ATOM      1  C   UNL A   1      33.769  34.432  30.624  1.00  0.00     0.188 C 
ENDROOT
BRANCH   1   2
ATOM      2  C   UNL A   1      34.059  34.283  29.042  1.00  0.00     0.188 C 
BRANCH   2   3
ATOM      3  O   UNL A   1      35.208  33.580  28.551  1.00  0.00    -0.376 OA
BRANCH   3   4
ATOM      4  C   UNL A   1      35.172  32.477  27.651  1.00  0.00     0.202 C 
BRANCH   4   5
ATOM      5  C   UNL A   1      34.680  31.240  28.198  1.00  0.00     0.261 C 
BRANCH   5   6
ATOM      6  O   UNL A   1      33.421  31.015  27.618  1.00  0.00    -0.462 OA
BRANCH   6   7
ATOM      7  C   UNL A   1      33.498  29.788  27.084  1.00  0.00     0.319 C 
ATOM      8  O   UNL A   1      34.467  29.029  27.173  1.00  0.00    -0.251 OA
BRANCH   7   9
ATOM      9  C   UNL A   1      32.414  29.496  26.151  1.00  0.00     0.161 C 
ATOM     10  C   UNL A   1      31.628  30.790  26.114  1.00  0.00     0.032 C 
BRANCH   9  11
ATOM     11  S   UNL A   1      31.412  28.036  26.048  1.00  0.00    -0.071 SA
BRANCH  11  12
ATOM     12  C   UNL A   1      32.045  26.452  25.785  1.00  0.00     0.192 A 
ATOM     13  C   UNL A   1      33.499  24.772  25.588  1.00  0.00     0.164 A 
ATOM     14  N   UNL A   1      32.647  24.499  26.555  1.00  0.00    -0.129 NA
ATOM     15  N   UNL A   1      33.160  26.035  25.086  1.00  0.00    -0.305 N 
ATOM     16  N   UNL A   1      31.755  25.521  26.671  1.00  0.00    -0.123 NA
ATOM     17  C   UNL A   1      33.820  26.735  24.023  1.00  0.00     0.154 C 
BRANCH  13  18
ATOM     18  C   UNL A   1      34.478  23.778  25.096  1.00  0.00     0.019 A 
ATOM     19  C   UNL A   1      37.505  20.726  24.866  1.00  0.00     0.044 C 
ATOM     20  C   UNL A   1      36.489  21.821  24.729  1.00  0.00    -0.051 A 
ATOM     21  C   UNL A   1      36.847  23.146  24.961  1.00  0.00     0.004 A 
ATOM     22  C   UNL A   1      35.147  21.532  24.459  1.00  0.00     0.004 A 
ATOM     23  C   UNL A   1      35.845  24.112  25.111  1.00  0.00     0.012 A 
ATOM     24  C   UNL A   1      34.151  22.506  24.634  1.00  0.00     0.012 A 
ENDBRANCH  13  18
ENDBRANCH  11  12
ENDBRANCH   9  11
ENDBRANCH   7   9
ENDBRANCH   6   7
ENDBRANCH   5   6
ENDBRANCH   4   5
ENDBRANCH   3   4
ENDBRANCH   2   3
ENDBRANCH   1   2
BRANCH   1  25
ATOM     25  O   UNL A   1      33.134  35.519  31.335  1.00  0.00    -0.377 OA
BRANCH  25  26
ATOM     26  C   UNL A   1      33.839  36.606  31.928  1.00  0.00     0.188 C 
BRANCH  26  27
ATOM     27  C   UNL A   1      34.354  36.362  33.315  1.00  0.00     0.188 C 
BRANCH  27  28
ATOM     28  O   UNL A   1      35.412  35.432  33.411  1.00  0.00    -0.376 OA
BRANCH  28  29
ATOM     29  C   UNL A   1      35.100  34.294  34.211  1.00  0.00     0.202 C 
BRANCH  29  30
ATOM     30  C   UNL A   1      35.848  32.982  33.837  1.00  0.00     0.261 C 
BRANCH  30  31
ATOM     31  O   UNL A   1      36.263  32.961  32.442  1.00  0.00    -0.460 OA
BRANCH  31  32
ATOM     32  C   UNL A   1      37.548  32.585  32.161  1.00  0.00     0.338 C 
ATOM     33  O   UNL A   1      38.555  33.264  32.424  1.00  0.00    -0.246 OA
BRANCH  32  34
ATOM     34  C   UNL A   1      37.571  31.455  31.155  1.00  0.00     0.060 A 
ATOM     35  C   UNL A   1      37.819  30.154  31.619  1.00  0.00     0.016 A 
ATOM     36  C   UNL A   1      37.923  31.755  29.845  1.00  0.00     0.016 A 
ATOM     37  C   UNL A   1      38.740  29.337  30.948  1.00  0.00     0.010 A 
ATOM     38  C   UNL A   1      38.949  31.007  29.262  1.00  0.00     0.010 A 
ATOM     39  C   UNL A   1      39.493  29.879  29.899  1.00  0.00    -0.014 A 
BRANCH  39  40
ATOM     40  C   UNL A   1      40.996  29.608  29.768  1.00  0.00     0.031 A 
ATOM     41  C   UNL A   1      41.378  28.205  28.957  1.00  0.00     0.074 A 
ATOM     42  C   UNL A   1      41.725  30.696  30.308  1.00  0.00     0.049 A 
ATOM     43  N   UNL A   1      42.372  27.364  29.202  1.00  0.00    -0.248 NA
ATOM     44  C   UNL A   1      40.491  27.588  27.959  1.00  0.00     0.031 C 
ATOM     45  C   UNL A   1      43.005  31.521  30.187  1.00  0.00     0.029 A 
ATOM     46  N   UNL A   1      41.548  31.002  31.665  1.00  0.00    -0.354 N 
ATOM     47  C   UNL A   1      42.373  26.270  28.322  1.00  0.00     0.074 A 
ATOM     48  C   UNL A   1      41.123  26.455  27.620  1.00  0.00     0.031 C 
ATOM     49  C   UNL A   1      43.563  31.890  31.343  1.00  0.00     0.029 A 
ATOM     50  C   UNL A   1      42.809  31.130  32.264  1.00  0.00     0.049 A 
ATOM     51  H   UNL A   1      40.682  31.109  32.122  1.00  0.00     0.167 HD
ATOM     52  C   UNL A   1      43.381  25.309  28.241  1.00  0.00     0.037 A 
ATOM     53  C   UNL A   1      43.161  31.089  33.546  1.00  0.00     0.037 A 
ATOM     54  C   UNL A   1      44.408  25.365  29.337  1.00  0.00     0.049 A 
ATOM     55  C   UNL A   1      43.593  29.570  33.792  1.00  0.00     0.074 A 
ATOM     56  C   UNL A   1      45.799  25.499  29.352  1.00  0.00     0.029 A 
ATOM     57  N   UNL A   1      44.049  25.436  30.701  1.00  0.00    -0.354 N 
ATOM     58  N   UNL A   1      44.059  28.682  32.898  1.00  0.00    -0.248 NA
ATOM     59  C   UNL A   1      43.622  28.965  35.117  1.00  0.00     0.031 C 
ATOM     60  C   UNL A   1      46.247  25.732  30.695  1.00  0.00     0.029 A 
ATOM     61  C   UNL A   1      45.123  25.886  31.513  1.00  0.00     0.049 A 
ATOM     62  H   UNL A   1      43.157  25.202  31.047  1.00  0.00     0.167 HD
ATOM     63  C   UNL A   1      44.435  27.439  33.502  1.00  0.00     0.074 A 
ATOM     64  C   UNL A   1      44.154  27.745  34.910  1.00  0.00     0.031 C 
ATOM     65  C   UNL A   1      44.954  26.227  32.965  1.00  0.00     0.037 A 
BRANCH  52  66
ATOM     66  C   UNL A   1      43.617  24.324  27.007  1.00  0.00     0.064 A 
ATOM     67  C   UNL A   1      42.800  23.172  26.799  1.00  0.00     0.173 A 
ATOM     68  C   UNL A   1      44.637  24.411  26.031  1.00  0.00     0.173 A 
ATOM     69  F   UNL A   1      41.669  22.965  27.476  1.00  0.00    -0.203 F 
ATOM     70  C   UNL A   1      43.058  22.172  25.839  1.00  0.00     0.198 A 
ATOM     71  C   UNL A   1      44.880  23.426  25.047  1.00  0.00     0.198 A 
ATOM     72  F   UNL A   1      45.426  25.476  25.916  1.00  0.00    -0.203 F 
ATOM     73  F   UNL A   1      42.258  21.097  25.767  1.00  0.00    -0.200 F 
ATOM     74  C   UNL A   1      44.109  22.293  24.967  1.00  0.00     0.200 A 
ATOM     75  F   UNL A   1      45.873  23.606  24.162  1.00  0.00    -0.200 F 
ATOM     76  F   UNL A   1      44.347  21.356  24.040  1.00  0.00    -0.200 F 
ENDBRANCH  52  66
BRANCH  53  77
ATOM     77  C   UNL A   1      42.398  32.306  34.136  1.00  0.00     0.064 A 
ATOM     78  C   UNL A   1      41.226  31.998  34.928  1.00  0.00     0.173 A 
ATOM     79  C   UNL A   1      43.154  33.367  34.661  1.00  0.00     0.173 A 
ATOM     80  F   UNL A   1      40.340  31.092  34.505  1.00  0.00    -0.203 F 
ATOM     81  C   UNL A   1      41.050  32.439  36.253  1.00  0.00     0.198 A 
ATOM     82  C   UNL A   1      42.944  33.843  35.980  1.00  0.00     0.198 A 
ATOM     83  F   UNL A   1      44.293  33.721  34.048  1.00  0.00    -0.203 F 
ATOM     84  F   UNL A   1      40.087  31.913  37.030  1.00  0.00    -0.200 F 
ATOM     85  C   UNL A   1      41.955  33.315  36.800  1.00  0.00     0.200 A 
ATOM     86  F   UNL A   1      43.825  34.699  36.513  1.00  0.00    -0.200 F 
ATOM     87  F   UNL A   1      41.930  33.583  38.115  1.00  0.00    -0.200 F 
ENDBRANCH  53  77
BRANCH  65  88
ATOM     88  C   UNL A   1      45.466  25.055  33.829  1.00  0.00     0.064 A 
ATOM     89  C   UNL A   1      44.715  23.919  34.152  1.00  0.00     0.173 A 
ATOM     90  C   UNL A   1      46.728  25.139  34.489  1.00  0.00     0.173 A 
ATOM     91  F   UNL A   1      43.420  23.829  33.817  1.00  0.00    -0.203 F 
ATOM     92  C   UNL A   1      45.270  22.853  34.875  1.00  0.00     0.198 A 
ATOM     93  C   UNL A   1      47.243  24.117  35.280  1.00  0.00     0.198 A 
ATOM     94  F   UNL A   1      47.511  26.223  34.399  1.00  0.00    -0.203 F 
ATOM     95  F   UNL A   1      44.561  21.729  35.046  1.00  0.00    -0.200 F 
ATOM     96  C   UNL A   1      46.540  22.944  35.419  1.00  0.00     0.200 A 
ATOM     97  F   UNL A   1      48.428  24.276  35.885  1.00  0.00    -0.200 F 
ATOM     98  F   UNL A   1      47.079  21.914  36.084  1.00  0.00    -0.200 F 
ENDBRANCH  65  88
ENDBRANCH  39  40
ENDBRANCH  32  34
ENDBRANCH  31  32
ENDBRANCH  30  31
ENDBRANCH  29  30
ENDBRANCH  28  29
ENDBRANCH  27  28
ENDBRANCH  26  27
ENDBRANCH  25  26
ENDBRANCH   1  25
TORSDOF 23
ENDMDL
