MODEL 1
REMARK VINA RESULT:     -10.3      0.000      0.000
REMARK SMILES CC[N@@H+](C)Cc1cc2c(cc1Cl)C=C(C(=O)OCCOCCOCCOCCOC(=O)c1ccc(-c3c4nc(c(-c5c(F)c(F)c(F)c(F)c5F)c5ccc([nH]5)c(-c5c(F)c(F)c(F)c(F)c5F)c5nc(c(-c6c(F)c(F)c(F)c(F)c6F)c6ccc3[nH]6)C=C5)C=C4)cc1)[C@@H](C(F)(F)F)O2
REMARK SMILES IDX 22 1 21 2 20 3 19 4 18 5 17 6 15 7 16 8 14 9 6 10 7 11 11 12
REMARK SMILES IDX 8 13 10 14 12 15 9 16 100 17 13 18 95 19 5 20 3 21 4 22 2 24
REMARK SMILES IDX 1 25 96 26 97 27 98 28 99 29 23 30 24 31 25 32 26 33 27 34
REMARK SMILES IDX 28 35 29 36 30 37 31 38 32 39 33 40 94 41 34 42 93 43 35 44
REMARK SMILES IDX 36 45 37 46 87 47 38 48 92 49 86 50 88 51 39 52 91 53 85 54
REMARK SMILES IDX 84 55 40 57 72 58 52 59 71 60 53 61 56 62 70 63 89 64 54 65
REMARK SMILES IDX 55 66 69 68 90 69 57 70 41 71 42 72 50 73 43 74 44 75 48 76
REMARK SMILES IDX 51 77 45 78 46 79 49 80 47 81 73 82 74 83 82 84 75 85 76 86
REMARK SMILES IDX 80 87 83 88 77 89 78 90 81 91 79 92 58 93 59 94 67 95 60 96
REMARK SMILES IDX 61 97 65 98 68 99 62 100 63 101 66 102 64 103
REMARK H PARENT 3 23 88 56 56 67
REMARK Flexibility Score: inf
ROOT
ATOM      1  C   UNL A   1      35.254  32.469  27.925  1.00  0.00     0.188 C 
ENDROOT
BRANCH   1   2
ATOM      2  C   UNL A   1      34.480  31.158  28.149  1.00  0.00     0.188 C 
BRANCH   2   3
ATOM      3  O   UNL A   1      33.986  30.580  26.941  1.00  0.00    -0.376 OA
BRANCH   3   4
ATOM      4  C   UNL A   1      32.594  30.287  26.894  1.00  0.00     0.202 C 
BRANCH   4   5
ATOM      5  C   UNL A   1      32.219  28.803  27.039  1.00  0.00     0.261 C 
BRANCH   5   6
ATOM      6  O   UNL A   1      33.296  27.887  26.783  1.00  0.00    -0.460 OA
BRANCH   6   7
ATOM      7  C   UNL A   1      33.466  27.519  25.500  1.00  0.00     0.338 C 
ATOM      8  O   UNL A   1      33.957  28.193  24.611  1.00  0.00    -0.246 OA
BRANCH   7   9
ATOM      9  C   UNL A   1      33.144  26.084  25.373  1.00  0.00     0.087 C 
ATOM     10  C   UNL A   1      33.523  21.098  24.804  1.00  0.00     0.029 A 
ATOM     11  C   UNL A   1      32.432  22.002  24.873  1.00  0.00     0.058 A 
ATOM     12  C   UNL A   1      34.804  21.611  25.067  1.00  0.00     0.050 A 
ATOM     13  C   UNL A   1      32.628  23.365  25.134  1.00  0.00     0.128 A 
ATOM     14  C   UNL A   1      34.981  22.949  25.430  1.00  0.00     0.033 A 
ATOM     15  Cl  UNL A   1      36.272  20.743  24.819  1.00  0.00    -0.084 Cl
ATOM     16  C   UNL A   1      33.907  23.831  25.419  1.00  0.00     0.019 A 
ATOM     17  O   UNL A   1      31.536  24.186  25.064  1.00  0.00    -0.475 OA
ATOM     18  C   UNL A   1      34.157  25.244  25.604  1.00  0.00     0.027 C 
ATOM     19  C   UNL A   1      31.747  25.634  25.034  1.00  0.00     0.316 C 
BRANCH  10  20
ATOM     20  C   UNL A   1      33.259  19.681  24.314  1.00  0.00     0.300 C 
BRANCH  20  21
ATOM     21  N   UNL A   1      33.757  18.534  25.090  1.00  0.00    -0.334 N 
ATOM     22  C   UNL A   1      34.633  17.652  24.324  1.00  0.00     0.333 C 
ATOM     23  H   UNL A   1      34.314  19.000  25.806  1.00  0.00     0.348 HD
BRANCH  21  24
ATOM     24  C   UNL A   1      32.771  17.770  25.856  1.00  0.00     0.258 C 
ATOM     25  C   UNL A   1      32.853  16.256  25.659  1.00  0.00     0.071 C 
ENDBRANCH  21  24
ENDBRANCH  20  21
ENDBRANCH  10  20
BRANCH  19  26
ATOM     26  C   UNL A   1      31.302  26.194  23.676  1.00  0.00     0.430 C 
ATOM     27  F   UNL A   1      32.308  26.163  22.770  1.00  0.00    -0.167 F 
ATOM     28  F   UNL A   1      30.283  25.472  23.150  1.00  0.00    -0.167 F 
ATOM     29  F   UNL A   1      30.879  27.475  23.771  1.00  0.00    -0.167 F 
ENDBRANCH  19  26
ENDBRANCH   7   9
ENDBRANCH   6   7
ENDBRANCH   5   6
ENDBRANCH   4   5
ENDBRANCH   3   4
ENDBRANCH   2   3
ENDBRANCH   1   2
BRANCH   1  30
ATOM     30  O   UNL A   1      34.421  33.595  27.706  1.00  0.00    -0.377 OA
BRANCH  30  31
ATOM     31  C   UNL A   1      34.621  34.748  28.525  1.00  0.00     0.188 C 
BRANCH  31  32
ATOM     32  C   UNL A   1      33.485  35.384  29.362  1.00  0.00     0.188 C 
BRANCH  32  33
ATOM     33  O   UNL A   1      33.290  34.785  30.638  1.00  0.00    -0.376 OA
BRANCH  33  34
ATOM     34  C   UNL A   1      33.895  35.435  31.749  1.00  0.00     0.202 C 
BRANCH  34  35
ATOM     35  C   UNL A   1      34.813  34.523  32.567  1.00  0.00     0.261 C 
BRANCH  35  36
ATOM     36  O   UNL A   1      35.841  33.862  31.812  1.00  0.00    -0.460 OA
BRANCH  36  37
ATOM     37  C   UNL A   1      35.752  32.523  31.662  1.00  0.00     0.338 C 
ATOM     38  O   UNL A   1      34.744  31.838  31.698  1.00  0.00    -0.246 OA
BRANCH  37  39
ATOM     39  C   UNL A   1      37.084  32.039  31.244  1.00  0.00     0.060 A 
ATOM     40  C   UNL A   1      37.828  31.212  32.088  1.00  0.00     0.016 A 
ATOM     41  C   UNL A   1      37.608  32.459  30.014  1.00  0.00     0.016 A 
ATOM     42  C   UNL A   1      39.089  30.774  31.685  1.00  0.00     0.010 A 
ATOM     43  C   UNL A   1      38.876  32.024  29.616  1.00  0.00     0.010 A 
ATOM     44  C   UNL A   1      39.611  31.159  30.439  1.00  0.00    -0.014 A 
BRANCH  44  45
ATOM     45  C   UNL A   1      40.831  30.490  29.930  1.00  0.00     0.031 A 
ATOM     46  C   UNL A   1      40.818  29.086  29.413  1.00  0.00     0.074 A 
ATOM     47  C   UNL A   1      41.973  31.202  29.930  1.00  0.00     0.049 A 
ATOM     48  N   UNL A   1      41.785  28.419  28.833  1.00  0.00    -0.248 NA
ATOM     49  C   UNL A   1      39.570  28.329  29.568  1.00  0.00     0.031 C 
ATOM     50  C   UNL A   1      42.103  32.569  30.439  1.00  0.00     0.029 A 
ATOM     51  N   UNL A   1      43.230  30.891  29.480  1.00  0.00    -0.354 N 
ATOM     52  C   UNL A   1      41.258  27.173  28.527  1.00  0.00     0.074 A 
ATOM     53  C   UNL A   1      39.899  27.159  29.031  1.00  0.00     0.031 C 
ATOM     54  C   UNL A   1      43.362  32.990  30.246  1.00  0.00     0.029 A 
ATOM     55  C   UNL A   1      44.130  31.918  29.620  1.00  0.00     0.049 A 
ATOM     56  H   UNL A   1      43.464  30.016  29.095  1.00  0.00     0.167 HD
ATOM     57  C   UNL A   1      41.854  26.150  27.868  1.00  0.00     0.037 A 
ATOM     58  C   UNL A   1      45.426  31.995  29.270  1.00  0.00     0.037 A 
ATOM     59  C   UNL A   1      43.213  26.170  27.386  1.00  0.00     0.049 A 
ATOM     60  C   UNL A   1      46.072  30.828  28.582  1.00  0.00     0.074 A 
ATOM     61  C   UNL A   1      43.888  25.197  26.668  1.00  0.00     0.029 A 
ATOM     62  N   UNL A   1      44.113  27.209  27.587  1.00  0.00    -0.354 N 
ATOM     63  N   UNL A   1      45.540  29.687  28.220  1.00  0.00    -0.248 NA
ATOM     64  C   UNL A   1      47.496  30.960  28.249  1.00  0.00     0.031 C 
ATOM     65  C   UNL A   1      45.207  25.623  26.480  1.00  0.00     0.029 A 
ATOM     66  C   UNL A   1      45.344  26.884  27.036  1.00  0.00     0.049 A 
ATOM     67  H   UNL A   1      43.906  28.052  28.053  1.00  0.00     0.167 HD
ATOM     68  C   UNL A   1      46.555  28.972  27.601  1.00  0.00     0.074 A 
ATOM     69  C   UNL A   1      47.732  29.817  27.620  1.00  0.00     0.031 C 
ATOM     70  C   UNL A   1      46.512  27.727  27.068  1.00  0.00     0.037 A 
BRANCH  57  71
ATOM     71  C   UNL A   1      41.043  24.915  27.605  1.00  0.00     0.064 A 
ATOM     72  C   UNL A   1      40.016  24.910  26.650  1.00  0.00     0.173 A 
ATOM     73  C   UNL A   1      41.361  23.700  28.232  1.00  0.00     0.173 A 
ATOM     74  F   UNL A   1      39.673  26.045  26.022  1.00  0.00    -0.203 F 
ATOM     75  C   UNL A   1      39.330  23.738  26.340  1.00  0.00     0.198 A 
ATOM     76  C   UNL A   1      40.689  22.525  27.902  1.00  0.00     0.198 A 
ATOM     77  F   UNL A   1      42.344  23.646  29.144  1.00  0.00    -0.203 F 
ATOM     78  F   UNL A   1      38.338  23.762  25.438  1.00  0.00    -0.200 F 
ATOM     79  C   UNL A   1      39.674  22.545  26.959  1.00  0.00     0.200 A 
ATOM     80  F   UNL A   1      41.035  21.370  28.488  1.00  0.00    -0.200 F 
ATOM     81  F   UNL A   1      39.027  21.414  26.644  1.00  0.00    -0.200 F 
ENDBRANCH  57  71
BRANCH  58  82
ATOM     82  C   UNL A   1      46.175  33.250  29.528  1.00  0.00     0.064 A 
ATOM     83  C   UNL A   1      46.854  33.443  30.739  1.00  0.00     0.173 A 
ATOM     84  C   UNL A   1      46.261  34.260  28.559  1.00  0.00     0.173 A 
ATOM     85  F   UNL A   1      46.788  32.509  31.700  1.00  0.00    -0.203 F 
ATOM     86  C   UNL A   1      47.588  34.603  30.973  1.00  0.00     0.198 A 
ATOM     87  C   UNL A   1      47.017  35.408  28.785  1.00  0.00     0.198 A 
ATOM     88  F   UNL A   1      45.635  34.117  27.382  1.00  0.00    -0.203 F 
ATOM     89  F   UNL A   1      48.206  34.775  32.149  1.00  0.00    -0.200 F 
ATOM     90  C   UNL A   1      47.675  35.581  29.993  1.00  0.00     0.200 A 
ATOM     91  F   UNL A   1      47.113  36.343  27.829  1.00  0.00    -0.200 F 
ATOM     92  F   UNL A   1      48.393  36.691  30.214  1.00  0.00    -0.200 F 
ENDBRANCH  58  82
BRANCH  70  93
ATOM     93  C   UNL A   1      47.776  27.193  26.459  1.00  0.00     0.064 A 
ATOM     94  C   UNL A   1      48.119  27.469  25.127  1.00  0.00     0.173 A 
ATOM     95  C   UNL A   1      48.683  26.450  27.230  1.00  0.00     0.173 A 
ATOM     96  F   UNL A   1      47.278  28.161  24.343  1.00  0.00    -0.203 F 
ATOM     97  C   UNL A   1      49.318  27.012  24.587  1.00  0.00     0.198 A 
ATOM     98  C   UNL A   1      49.893  26.018  26.696  1.00  0.00     0.198 A 
ATOM     99  F   UNL A   1      48.404  26.162  28.511  1.00  0.00    -0.203 F 
ATOM    100  F   UNL A   1      49.609  27.259  23.303  1.00  0.00    -0.200 F 
ATOM    101  C   UNL A   1      50.208  26.295  25.374  1.00  0.00     0.200 A 
ATOM    102  F   UNL A   1      50.758  25.338  27.461  1.00  0.00    -0.200 F 
ATOM    103  F   UNL A   1      51.369  25.869  24.857  1.00  0.00    -0.200 F 
ENDBRANCH  70  93
ENDBRANCH  44  45
ENDBRANCH  37  39
ENDBRANCH  36  37
ENDBRANCH  35  36
ENDBRANCH  34  35
ENDBRANCH  33  34
ENDBRANCH  32  33
ENDBRANCH  31  32
ENDBRANCH  30  31
ENDBRANCH   1  30
TORSDOF 24
ENDMDL
MODEL 2
REMARK VINA RESULT:     -10.0      4.959      8.907
REMARK SMILES CC[N@@H+](C)Cc1cc2c(cc1Cl)C=C(C(=O)OCCOCCOCCOCCOC(=O)c1ccc(-c3c4nc(c(-c5c(F)c(F)c(F)c(F)c5F)c5ccc([nH]5)c(-c5c(F)c(F)c(F)c(F)c5F)c5nc(c(-c6c(F)c(F)c(F)c(F)c6F)c6ccc3[nH]6)C=C5)C=C4)cc1)[C@@H](C(F)(F)F)O2
REMARK SMILES IDX 22 1 21 2 20 3 19 4 18 5 17 6 15 7 16 8 14 9 6 10 7 11 11 12
REMARK SMILES IDX 8 13 10 14 12 15 9 16 100 17 13 18 95 19 5 20 3 21 4 22 2 24
REMARK SMILES IDX 1 25 96 26 97 27 98 28 99 29 23 30 24 31 25 32 26 33 27 34
REMARK SMILES IDX 28 35 29 36 30 37 31 38 32 39 33 40 94 41 34 42 93 43 35 44
REMARK SMILES IDX 36 45 37 46 87 47 38 48 92 49 86 50 88 51 39 52 91 53 85 54
REMARK SMILES IDX 84 55 40 57 72 58 52 59 71 60 53 61 56 62 70 63 89 64 54 65
REMARK SMILES IDX 55 66 69 68 90 69 57 70 41 71 42 72 50 73 43 74 44 75 48 76
REMARK SMILES IDX 51 77 45 78 46 79 49 80 47 81 73 82 74 83 82 84 75 85 76 86
REMARK SMILES IDX 80 87 83 88 77 89 78 90 81 91 79 92 58 93 59 94 67 95 60 96
REMARK SMILES IDX 61 97 65 98 68 99 62 100 63 101 66 102 64 103
REMARK H PARENT 3 23 88 56 56 67
REMARK Flexibility Score: inf
ROOT
ATOM      1  C   UNL A   1      35.690  30.465  27.988  1.00  0.00     0.188 C 
ENDROOT
BRANCH   1   2
ATOM      2  C   UNL A   1      34.158  30.325  27.944  1.00  0.00     0.188 C 
BRANCH   2   3
ATOM      3  O   UNL A   1      33.594  30.667  26.679  1.00  0.00    -0.376 OA
BRANCH   3   4
ATOM      4  C   UNL A   1      32.335  30.086  26.361  1.00  0.00     0.202 C 
BRANCH   4   5
ATOM      5  C   UNL A   1      32.319  29.155  25.137  1.00  0.00     0.261 C 
BRANCH   5   6
ATOM      6  O   UNL A   1      33.496  28.345  24.989  1.00  0.00    -0.460 OA
BRANCH   6   7
ATOM      7  C   UNL A   1      33.530  27.543  23.909  1.00  0.00     0.338 C 
ATOM      8  O   UNL A   1      33.893  27.853  22.787  1.00  0.00    -0.246 OA
BRANCH   7   9
ATOM      9  C   UNL A   1      33.242  26.160  24.336  1.00  0.00     0.087 C 
ATOM     10  C   UNL A   1      33.671  21.253  25.366  1.00  0.00     0.029 A 
ATOM     11  C   UNL A   1      32.591  22.171  25.378  1.00  0.00     0.058 A 
ATOM     12  C   UNL A   1      34.958  21.773  25.150  1.00  0.00     0.050 A 
ATOM     13  C   UNL A   1      32.789  23.536  25.126  1.00  0.00     0.128 A 
ATOM     14  C   UNL A   1      35.162  23.148  25.004  1.00  0.00     0.033 A 
ATOM     15  Cl  UNL A   1      36.364  20.814  24.876  1.00  0.00    -0.084 Cl
ATOM     16  C   UNL A   1      34.081  24.019  24.946  1.00  0.00     0.019 A 
ATOM     17  O   UNL A   1      31.679  24.331  25.039  1.00  0.00    -0.475 OA
ATOM     18  C   UNL A   1      34.312  25.404  24.595  1.00  0.00     0.027 C 
ATOM     19  C   UNL A   1      31.823  25.679  24.488  1.00  0.00     0.316 C 
BRANCH  10  20
ATOM     20  C   UNL A   1      33.357  19.765  25.442  1.00  0.00     0.300 C 
BRANCH  20  21
ATOM     21  N   UNL A   1      33.613  18.904  24.276  1.00  0.00    -0.334 N 
ATOM     22  C   UNL A   1      32.467  18.785  23.380  1.00  0.00     0.333 C 
ATOM     23  H   UNL A   1      34.345  19.426  23.795  1.00  0.00     0.348 HD
BRANCH  21  24
ATOM     24  C   UNL A   1      34.224  17.598  24.534  1.00  0.00     0.258 C 
ATOM     25  C   UNL A   1      34.029  16.578  23.413  1.00  0.00     0.071 C 
ENDBRANCH  21  24
ENDBRANCH  20  21
ENDBRANCH  10  20
BRANCH  19  26
ATOM     26  C   UNL A   1      31.061  25.780  23.159  1.00  0.00     0.430 C 
ATOM     27  F   UNL A   1      30.618  27.039  22.933  1.00  0.00    -0.167 F 
ATOM     28  F   UNL A   1      31.851  25.451  22.108  1.00  0.00    -0.167 F 
ATOM     29  F   UNL A   1      29.988  24.958  23.127  1.00  0.00    -0.167 F 
ENDBRANCH  19  26
ENDBRANCH   7   9
ENDBRANCH   6   7
ENDBRANCH   5   6
ENDBRANCH   4   5
ENDBRANCH   3   4
ENDBRANCH   2   3
ENDBRANCH   1   2
BRANCH   1  30
ATOM     30  O   UNL A   1      36.151  31.783  27.740  1.00  0.00    -0.377 OA
BRANCH  30  31
ATOM     31  C   UNL A   1      35.655  32.835  28.568  1.00  0.00     0.188 C 
BRANCH  31  32
ATOM     32  C   UNL A   1      34.851  34.031  28.006  1.00  0.00     0.188 C 
BRANCH  32  33
ATOM     33  O   UNL A   1      34.397  34.950  28.993  1.00  0.00    -0.376 OA
BRANCH  33  34
ATOM     34  C   UNL A   1      32.990  35.055  29.171  1.00  0.00     0.202 C 
BRANCH  34  35
ATOM     35  C   UNL A   1      32.568  36.259  30.018  1.00  0.00     0.261 C 
BRANCH  35  36
ATOM     36  O   UNL A   1      33.204  36.349  31.303  1.00  0.00    -0.460 OA
BRANCH  36  37
ATOM     37  C   UNL A   1      32.914  35.399  32.218  1.00  0.00     0.338 C 
ATOM     38  O   UNL A   1      31.816  34.953  32.502  1.00  0.00    -0.246 OA
BRANCH  37  39
ATOM     39  C   UNL A   1      34.198  34.838  32.689  1.00  0.00     0.060 A 
ATOM     40  C   UNL A   1      34.210  33.737  33.547  1.00  0.00     0.016 A 
ATOM     41  C   UNL A   1      35.395  35.452  32.299  1.00  0.00     0.016 A 
ATOM     42  C   UNL A   1      35.429  33.226  33.993  1.00  0.00     0.010 A 
ATOM     43  C   UNL A   1      36.616  34.942  32.753  1.00  0.00     0.010 A 
ATOM     44  C   UNL A   1      36.639  33.812  33.581  1.00  0.00    -0.014 A 
BRANCH  44  45
ATOM     45  C   UNL A   1      37.913  33.109  33.863  1.00  0.00     0.031 A 
ATOM     46  C   UNL A   1      38.727  33.388  35.088  1.00  0.00     0.074 A 
ATOM     47  C   UNL A   1      38.317  32.182  32.975  1.00  0.00     0.049 A 
ATOM     48  N   UNL A   1      39.798  32.767  35.515  1.00  0.00    -0.248 NA
ATOM     49  C   UNL A   1      38.293  34.502  35.938  1.00  0.00     0.031 C 
ATOM     50  C   UNL A   1      37.614  31.854  31.734  1.00  0.00     0.029 A 
ATOM     51  N   UNL A   1      39.398  31.339  32.982  1.00  0.00    -0.354 N 
ATOM     52  C   UNL A   1      40.154  33.394  36.699  1.00  0.00     0.074 A 
ATOM     53  C   UNL A   1      39.213  34.479  36.898  1.00  0.00     0.031 C 
ATOM     54  C   UNL A   1      38.265  30.860  31.112  1.00  0.00     0.029 A 
ATOM     55  C   UNL A   1      39.438  30.496  31.900  1.00  0.00     0.049 A 
ATOM     56  H   UNL A   1      40.079  31.339  33.693  1.00  0.00     0.167 HD
ATOM     57  C   UNL A   1      41.163  33.076  37.547  1.00  0.00     0.037 A 
ATOM     58  C   UNL A   1      40.315  29.526  31.582  1.00  0.00     0.037 A 
ATOM     59  C   UNL A   1      42.104  32.004  37.330  1.00  0.00     0.049 A 
ATOM     60  C   UNL A   1      41.449  29.226  32.519  1.00  0.00     0.074 A 
ATOM     61  C   UNL A   1      43.130  31.578  38.156  1.00  0.00     0.029 A 
ATOM     62  N   UNL A   1      42.145  31.199  36.199  1.00  0.00    -0.354 N 
ATOM     63  N   UNL A   1      41.726  29.768  33.679  1.00  0.00    -0.248 NA
ATOM     64  C   UNL A   1      42.389  28.176  32.105  1.00  0.00     0.031 C 
ATOM     65  C   UNL A   1      43.824  30.553  37.504  1.00  0.00     0.029 A 
ATOM     66  C   UNL A   1      43.201  30.304  36.293  1.00  0.00     0.049 A 
ATOM     67  H   UNL A   1      41.518  31.257  35.442  1.00  0.00     0.167 HD
ATOM     68  C   UNL A   1      42.859  29.116  34.143  1.00  0.00     0.074 A 
ATOM     69  C   UNL A   1      43.207  28.123  33.147  1.00  0.00     0.031 C 
ATOM     70  C   UNL A   1      43.546  29.325  35.292  1.00  0.00     0.037 A 
BRANCH  57  71
ATOM     71  C   UNL A   1      41.305  33.879  38.807  1.00  0.00     0.064 A 
ATOM     72  C   UNL A   1      42.118  35.021  38.852  1.00  0.00     0.173 A 
ATOM     73  C   UNL A   1      40.545  33.569  39.945  1.00  0.00     0.173 A 
ATOM     74  F   UNL A   1      42.865  35.360  37.791  1.00  0.00    -0.203 F 
ATOM     75  C   UNL A   1      42.173  35.817  39.994  1.00  0.00     0.198 A 
ATOM     76  C   UNL A   1      40.583  34.382  41.076  1.00  0.00     0.198 A 
ATOM     77  F   UNL A   1      39.740  32.496  39.950  1.00  0.00    -0.203 F 
ATOM     78  F   UNL A   1      42.973  36.893  40.021  1.00  0.00    -0.200 F 
ATOM     79  C   UNL A   1      41.399  35.502  41.101  1.00  0.00     0.200 A 
ATOM     80  F   UNL A   1      39.820  34.086  42.138  1.00  0.00    -0.200 F 
ATOM     81  F   UNL A   1      41.436  36.282  42.191  1.00  0.00    -0.200 F 
ENDBRANCH  57  71
BRANCH  58  82
ATOM     82  C   UNL A   1      40.113  28.744  30.338  1.00  0.00     0.064 A 
ATOM     83  C   UNL A   1      40.655  29.179  29.121  1.00  0.00     0.173 A 
ATOM     84  C   UNL A   1      39.413  27.528  30.347  1.00  0.00     0.173 A 
ATOM     85  F   UNL A   1      41.321  30.342  29.063  1.00  0.00    -0.203 F 
ATOM     86  C   UNL A   1      40.499  28.430  27.957  1.00  0.00     0.198 A 
ATOM     87  C   UNL A   1      39.280  26.768  29.187  1.00  0.00     0.198 A 
ATOM     88  F   UNL A   1      38.883  27.066  31.489  1.00  0.00    -0.203 F 
ATOM     89  F   UNL A   1      41.004  28.882  26.801  1.00  0.00    -0.200 F 
ATOM     90  C   UNL A   1      39.820  27.222  27.993  1.00  0.00     0.200 A 
ATOM     91  F   UNL A   1      38.637  25.593  29.229  1.00  0.00    -0.200 F 
ATOM     92  F   UNL A   1      39.682  26.496  26.875  1.00  0.00    -0.200 F 
ENDBRANCH  58  82
BRANCH  70  93
ATOM     93  C   UNL A   1      44.751  28.466  35.542  1.00  0.00     0.064 A 
ATOM     94  C   UNL A   1      44.645  27.229  36.192  1.00  0.00     0.173 A 
ATOM     95  C   UNL A   1      46.016  28.855  35.072  1.00  0.00     0.173 A 
ATOM     96  F   UNL A   1      43.462  26.819  36.675  1.00  0.00    -0.203 F 
ATOM     97  C   UNL A   1      45.761  26.416  36.373  1.00  0.00     0.198 A 
ATOM     98  C   UNL A   1      47.125  28.028  35.230  1.00  0.00     0.198 A 
ATOM     99  F   UNL A   1      46.171  30.029  34.440  1.00  0.00    -0.203 F 
ATOM    100  F   UNL A   1      45.642  25.253  37.028  1.00  0.00    -0.200 F 
ATOM    101  C   UNL A   1      46.998  26.812  35.883  1.00  0.00     0.200 A 
ATOM    102  F   UNL A   1      48.315  28.406  34.744  1.00  0.00    -0.200 F 
ATOM    103  F   UNL A   1      48.068  26.022  36.045  1.00  0.00    -0.200 F 
ENDBRANCH  70  93
ENDBRANCH  44  45
ENDBRANCH  37  39
ENDBRANCH  36  37
ENDBRANCH  35  36
ENDBRANCH  34  35
ENDBRANCH  33  34
ENDBRANCH  32  33
ENDBRANCH  31  32
ENDBRANCH  30  31
ENDBRANCH   1  30
TORSDOF 24
ENDMDL
MODEL 3
REMARK VINA RESULT:      -9.9      5.094      7.377
REMARK SMILES CC[N@@H+](C)Cc1cc2c(cc1Cl)C=C(C(=O)OCCOCCOCCOCCOC(=O)c1ccc(-c3c4nc(c(-c5c(F)c(F)c(F)c(F)c5F)c5ccc([nH]5)c(-c5c(F)c(F)c(F)c(F)c5F)c5nc(c(-c6c(F)c(F)c(F)c(F)c6F)c6ccc3[nH]6)C=C5)C=C4)cc1)[C@@H](C(F)(F)F)O2
REMARK SMILES IDX 22 1 21 2 20 3 19 4 18 5 17 6 15 7 16 8 14 9 6 10 7 11 11 12
REMARK SMILES IDX 8 13 10 14 12 15 9 16 100 17 13 18 95 19 5 20 3 21 4 22 2 24
REMARK SMILES IDX 1 25 96 26 97 27 98 28 99 29 23 30 24 31 25 32 26 33 27 34
REMARK SMILES IDX 28 35 29 36 30 37 31 38 32 39 33 40 94 41 34 42 93 43 35 44
REMARK SMILES IDX 36 45 37 46 87 47 38 48 92 49 86 50 88 51 39 52 91 53 85 54
REMARK SMILES IDX 84 55 40 57 72 58 52 59 71 60 53 61 56 62 70 63 89 64 54 65
REMARK SMILES IDX 55 66 69 68 90 69 57 70 41 71 42 72 50 73 43 74 44 75 48 76
REMARK SMILES IDX 51 77 45 78 46 79 49 80 47 81 73 82 74 83 82 84 75 85 76 86
REMARK SMILES IDX 80 87 83 88 77 89 78 90 81 91 79 92 58 93 59 94 67 95 60 96
REMARK SMILES IDX 61 97 65 98 68 99 62 100 63 101 66 102 64 103
REMARK H PARENT 3 23 88 56 56 67
REMARK Flexibility Score: inf
ROOT
ATOM      1  C   UNL A   1      35.961  30.311  28.292  1.00  0.00     0.188 C 
ENDROOT
BRANCH   1   2
ATOM      2  C   UNL A   1      34.804  30.035  27.315  1.00  0.00     0.188 C 
BRANCH   2   3
ATOM      3  O   UNL A   1      33.533  29.937  27.956  1.00  0.00    -0.376 OA
BRANCH   3   4
ATOM      4  C   UNL A   1      32.488  29.318  27.214  1.00  0.00     0.202 C 
BRANCH   4   5
ATOM      5  C   UNL A   1      32.440  29.657  25.715  1.00  0.00     0.261 C 
BRANCH   5   6
ATOM      6  O   UNL A   1      32.063  28.561  24.867  1.00  0.00    -0.460 OA
BRANCH   6   7
ATOM      7  C   UNL A   1      33.073  27.856  24.326  1.00  0.00     0.338 C 
ATOM      8  O   UNL A   1      34.057  28.311  23.768  1.00  0.00    -0.246 OA
BRANCH   7   9
ATOM      9  C   UNL A   1      32.906  26.434  24.686  1.00  0.00     0.087 C 
ATOM     10  C   UNL A   1      33.767  21.545  25.513  1.00  0.00     0.029 A 
ATOM     11  C   UNL A   1      32.606  22.360  25.540  1.00  0.00     0.058 A 
ATOM     12  C   UNL A   1      35.004  22.190  25.349  1.00  0.00     0.050 A 
ATOM     13  C   UNL A   1      32.682  23.747  25.352  1.00  0.00     0.128 A 
ATOM     14  C   UNL A   1      35.083  23.583  25.267  1.00  0.00     0.033 A 
ATOM     15  Cl  UNL A   1      36.497  21.377  25.066  1.00  0.00    -0.084 Cl
ATOM     16  C   UNL A   1      33.927  24.353  25.223  1.00  0.00     0.019 A 
ATOM     17  O   UNL A   1      31.505  24.440  25.274  1.00  0.00    -0.475 OA
ATOM     18  C   UNL A   1      34.036  25.768  24.937  1.00  0.00     0.027 C 
ATOM     19  C   UNL A   1      31.534  25.820  24.785  1.00  0.00     0.316 C 
BRANCH  10  20
ATOM     20  C   UNL A   1      33.590  20.033  25.516  1.00  0.00     0.300 C 
BRANCH  20  21
ATOM     21  N   UNL A   1      33.754  19.275  24.266  1.00  0.00    -0.334 N 
ATOM     22  C   UNL A   1      32.517  19.143  23.501  1.00  0.00     0.333 C 
ATOM     23  H   UNL A   1      34.392  19.877  23.745  1.00  0.00     0.348 HD
BRANCH  21  24
ATOM     24  C   UNL A   1      34.467  17.999  24.350  1.00  0.00     0.258 C 
ATOM     25  C   UNL A   1      33.750  16.829  23.675  1.00  0.00     0.071 C 
ENDBRANCH  21  24
ENDBRANCH  20  21
ENDBRANCH  10  20
BRANCH  19  26
ATOM     26  C   UNL A   1      30.792  25.910  23.444  1.00  0.00     0.430 C 
ATOM     27  F   UNL A   1      31.654  25.986  22.402  1.00  0.00    -0.167 F 
ATOM     28  F   UNL A   1      30.018  24.819  23.230  1.00  0.00    -0.167 F 
ATOM     29  F   UNL A   1      29.985  26.993  23.385  1.00  0.00    -0.167 F 
ENDBRANCH  19  26
ENDBRANCH   7   9
ENDBRANCH   6   7
ENDBRANCH   5   6
ENDBRANCH   4   5
ENDBRANCH   3   4
ENDBRANCH   2   3
ENDBRANCH   1   2
BRANCH   1  30
ATOM     30  O   UNL A   1      36.701  31.481  27.985  1.00  0.00    -0.377 OA
BRANCH  30  31
ATOM     31  C   UNL A   1      36.301  32.709  28.595  1.00  0.00     0.188 C 
BRANCH  31  32
ATOM     32  C   UNL A   1      35.194  33.613  28.003  1.00  0.00     0.188 C 
BRANCH  32  33
ATOM     33  O   UNL A   1      34.688  34.590  28.906  1.00  0.00    -0.376 OA
BRANCH  33  34
ATOM     34  C   UNL A   1      33.277  34.763  28.935  1.00  0.00     0.202 C 
BRANCH  34  35
ATOM     35  C   UNL A   1      32.834  36.074  29.592  1.00  0.00     0.261 C 
BRANCH  35  36
ATOM     36  O   UNL A   1      33.395  36.320  30.892  1.00  0.00    -0.460 OA
BRANCH  36  37
ATOM     37  C   UNL A   1      32.966  35.554  31.918  1.00  0.00     0.338 C 
ATOM     38  O   UNL A   1      31.814  35.299  32.222  1.00  0.00    -0.246 OA
BRANCH  37  39
ATOM     39  C   UNL A   1      34.156  34.904  32.506  1.00  0.00     0.060 A 
ATOM     40  C   UNL A   1      34.025  33.705  33.209  1.00  0.00     0.016 A 
ATOM     41  C   UNL A   1      35.404  35.528  32.387  1.00  0.00     0.016 A 
ATOM     42  C   UNL A   1      35.155  33.109  33.770  1.00  0.00     0.010 A 
ATOM     43  C   UNL A   1      36.535  34.932  32.956  1.00  0.00     0.010 A 
ATOM     44  C   UNL A   1      36.418  33.707  33.627  1.00  0.00    -0.014 A 
BRANCH  44  45
ATOM     45  C   UNL A   1      37.627  32.940  34.011  1.00  0.00     0.031 A 
ATOM     46  C   UNL A   1      38.236  31.906  33.118  1.00  0.00     0.074 A 
ATOM     47  C   UNL A   1      38.182  33.218  35.205  1.00  0.00     0.049 A 
ATOM     48  N   UNL A   1      39.355  31.244  33.278  1.00  0.00    -0.248 NA
ATOM     49  C   UNL A   1      37.500  31.563  31.895  1.00  0.00     0.031 C 
ATOM     50  C   UNL A   1      37.652  34.188  36.166  1.00  0.00     0.029 A 
ATOM     51  N   UNL A   1      39.313  32.732  35.808  1.00  0.00    -0.354 N 
ATOM     52  C   UNL A   1      39.476  30.426  32.165  1.00  0.00     0.074 A 
ATOM     53  C   UNL A   1      38.289  30.637  31.359  1.00  0.00     0.031 C 
ATOM     54  C   UNL A   1      38.472  34.247  37.225  1.00  0.00     0.029 A 
ATOM     55  C   UNL A   1      39.572  33.308  37.027  1.00  0.00     0.049 A 
ATOM     56  H   UNL A   1      39.883  32.037  35.406  1.00  0.00     0.167 HD
ATOM     57  C   UNL A   1      40.496  29.594  31.843  1.00  0.00     0.037 A 
ATOM     58  C   UNL A   1      40.590  33.113  37.885  1.00  0.00     0.037 A 
ATOM     59  C   UNL A   1      41.664  29.379  32.661  1.00  0.00     0.049 A 
ATOM     60  C   UNL A   1      41.683  32.150  37.522  1.00  0.00     0.074 A 
ATOM     61  C   UNL A   1      42.770  28.589  32.395  1.00  0.00     0.029 A 
ATOM     62  N   UNL A   1      41.872  29.942  33.914  1.00  0.00    -0.354 N 
ATOM     63  N   UNL A   1      41.830  31.446  36.426  1.00  0.00    -0.248 NA
ATOM     64  C   UNL A   1      42.752  31.958  38.509  1.00  0.00     0.031 C 
ATOM     65  C   UNL A   1      43.620  28.633  33.505  1.00  0.00     0.029 A 
ATOM     66  C   UNL A   1      43.071  29.489  34.444  1.00  0.00     0.049 A 
ATOM     67  H   UNL A   1      41.257  30.570  34.359  1.00  0.00     0.167 HD
ATOM     68  C   UNL A   1      43.015  30.742  36.584  1.00  0.00     0.074 A 
ATOM     69  C   UNL A   1      43.558  31.119  37.873  1.00  0.00     0.031 C 
ATOM     70  C   UNL A   1      43.598  29.863  35.733  1.00  0.00     0.037 A 
BRANCH  57  71
ATOM     71  C   UNL A   1      40.417  28.855  30.539  1.00  0.00     0.064 A 
ATOM     72  C   UNL A   1      39.695  27.657  30.425  1.00  0.00     0.173 A 
ATOM     73  C   UNL A   1      40.978  29.396  29.372  1.00  0.00     0.173 A 
ATOM     74  F   UNL A   1      39.140  27.098  31.511  1.00  0.00    -0.203 F 
ATOM     75  C   UNL A   1      39.545  27.025  29.193  1.00  0.00     0.198 A 
ATOM     76  C   UNL A   1      40.805  28.774  28.138  1.00  0.00     0.198 A 
ATOM     77  F   UNL A   1      41.667  30.546  29.423  1.00  0.00    -0.203 F 
ATOM     78  F   UNL A   1      38.867  25.871  29.112  1.00  0.00    -0.200 F 
ATOM     79  C   UNL A   1      40.092  27.588  28.050  1.00  0.00     0.200 A 
ATOM     80  F   UNL A   1      41.318  29.329  27.031  1.00  0.00    -0.200 F 
ATOM     81  F   UNL A   1      39.928  26.989  26.861  1.00  0.00    -0.200 F 
ENDBRANCH  57  71
BRANCH  58  82
ATOM     82  C   UNL A   1      40.633  33.889  39.148  1.00  0.00     0.064 A 
ATOM     83  C   UNL A   1      41.342  35.096  39.224  1.00  0.00     0.173 A 
ATOM     84  C   UNL A   1      39.937  33.464  40.289  1.00  0.00     0.173 A 
ATOM     85  F   UNL A   1      42.034  35.533  38.162  1.00  0.00    -0.203 F 
ATOM     86  C   UNL A   1      41.357  35.846  40.397  1.00  0.00     0.198 A 
ATOM     87  C   UNL A   1      39.932  34.229  41.453  1.00  0.00     0.198 A 
ATOM     88  F   UNL A   1      39.237  32.320  40.262  1.00  0.00    -0.203 F 
ATOM     89  F   UNL A   1      42.065  36.982  40.452  1.00  0.00    -0.200 F 
ATOM     90  C   UNL A   1      40.646  35.417  41.508  1.00  0.00     0.200 A 
ATOM     91  F   UNL A   1      39.229  33.820  42.518  1.00  0.00    -0.200 F 
ATOM     92  F   UNL A   1      40.649  36.148  42.631  1.00  0.00    -0.200 F 
ENDBRANCH  58  82
BRANCH  70  93
ATOM     93  C   UNL A   1      44.893  29.238  36.165  1.00  0.00     0.064 A 
ATOM     94  C   UNL A   1      46.124  29.859  35.912  1.00  0.00     0.173 A 
ATOM     95  C   UNL A   1      44.899  28.038  36.894  1.00  0.00     0.173 A 
ATOM     96  F   UNL A   1      46.173  30.998  35.205  1.00  0.00    -0.203 F 
ATOM     97  C   UNL A   1      47.316  29.297  36.363  1.00  0.00     0.198 A 
ATOM     98  C   UNL A   1      46.090  27.493  37.367  1.00  0.00     0.198 A 
ATOM     99  F   UNL A   1      43.747  27.406  37.167  1.00  0.00    -0.203 F 
ATOM    100  F   UNL A   1      48.483  29.890  36.080  1.00  0.00    -0.200 F 
ATOM    101  C   UNL A   1      47.297  28.120  37.098  1.00  0.00     0.200 A 
ATOM    102  F   UNL A   1      46.069  26.365  38.089  1.00  0.00    -0.200 F 
ATOM    103  F   UNL A   1      48.443  27.589  37.544  1.00  0.00    -0.200 F 
ENDBRANCH  70  93
ENDBRANCH  44  45
ENDBRANCH  37  39
ENDBRANCH  36  37
ENDBRANCH  35  36
ENDBRANCH  34  35
ENDBRANCH  33  34
ENDBRANCH  32  33
ENDBRANCH  31  32
ENDBRANCH  30  31
ENDBRANCH   1  30
TORSDOF 24
ENDMDL
