MODEL 1
REMARK VINA RESULT:     -10.4      0.000      0.000
REMARK SMILES CC[NH2+][C@@]1(C(=O)OCCOCCOCCOCCOC(=O)c2ccc(-c3c4nc(c(-c5c(F)c(F)c(F)c(F)c5F)c5ccc([nH]5)c(-c5c(F)c(F)c(F)c(F)c5F)c5nc(c(-c6c(F)c(F)c(F)c(F)c6F)c6ccc3[nH]6)C=C5)C=C4)cc2)CC[C@H](Sc2nccc(=O)[nH]2)C1
REMARK SMILES IDX 13 1 12 2 11 3 10 4 9 5 8 6 7 7 5 8 6 9 4 10 85 11 96 12
REMARK SMILES IDX 86 13 87 14 3 15 2 18 1 19 88 20 89 21 90 22 95 23 91 24
REMARK SMILES IDX 93 25 92 27 94 28 14 29 15 30 16 31 17 32 18 33 19 34 20 35
REMARK SMILES IDX 21 36 22 37 23 38 84 39 24 40 83 41 25 42 26 43 27 44 77 45
REMARK SMILES IDX 28 46 82 47 76 48 78 49 29 50 81 51 75 52 74 53 30 55 62 56
REMARK SMILES IDX 42 57 61 58 43 59 46 60 60 61 79 62 44 63 45 64 59 66 80 67
REMARK SMILES IDX 47 68 31 69 32 70 40 71 33 72 34 73 38 74 41 75 35 76 36 77
REMARK SMILES IDX 39 78 37 79 63 80 64 81 72 82 65 83 66 84 70 85 73 86 67 87
REMARK SMILES IDX 68 88 71 89 69 90 48 91 49 92 57 93 50 94 51 95 55 96 58 97
REMARK SMILES IDX 52 98 53 99 56 100 54 101
REMARK H PARENT 3 16 3 17 95 26 78 54 46 65
REMARK Flexibility Score: inf
ROOT
ATOM      1  O   UNL A   1      40.992  21.349  25.805  1.00  0.00    -0.377 OA
ENDROOT
BRANCH   1   2
ATOM      2  C   UNL A   1      39.778  21.650  26.464  1.00  0.00     0.188 C 
BRANCH   2   3
ATOM      3  C   UNL A   1      38.469  21.794  25.676  1.00  0.00     0.188 C 
BRANCH   3   4
ATOM      4  O   UNL A   1      37.820  23.041  25.891  1.00  0.00    -0.376 OA
BRANCH   4   5
ATOM      5  C   UNL A   1      36.423  23.093  26.122  1.00  0.00     0.202 C 
BRANCH   5   6
ATOM      6  C   UNL A   1      35.600  24.268  25.568  1.00  0.00     0.261 C 
BRANCH   6   7
ATOM      7  O   UNL A   1      34.668  23.912  24.539  1.00  0.00    -0.459 OA
BRANCH   7   8
ATOM      8  C   UNL A   1      33.353  23.932  24.821  1.00  0.00     0.368 C 
ATOM      9  O   UNL A   1      32.905  24.467  25.833  1.00  0.00    -0.245 OA
BRANCH   8  10
ATOM     10  C   UNL A   1      32.433  23.243  23.730  1.00  0.00     0.195 C 
ATOM     11  C   UNL A   1      32.988  23.764  22.393  1.00  0.00     0.082 C 
ATOM     12  C   UNL A   1      30.952  23.645  23.476  1.00  0.00     0.096 C 
ATOM     13  C   UNL A   1      32.374  25.186  22.316  1.00  0.00     0.022 C 
ATOM     14  C   UNL A   1      30.954  25.053  22.886  1.00  0.00     0.062 C 
BRANCH  10  15
ATOM     15  N   UNL A   1      32.382  21.777  23.962  1.00  0.00    -0.332 N 
ATOM     16  H   UNL A   1      31.485  21.440  23.610  1.00  0.00     0.347 HD
ATOM     17  H   UNL A   1      33.200  21.403  23.482  1.00  0.00     0.347 HD
BRANCH  15  18
ATOM     18  C   UNL A   1      32.511  21.321  25.342  1.00  0.00     0.257 C 
ATOM     19  C   UNL A   1      32.922  19.853  25.353  1.00  0.00     0.071 C 
ENDBRANCH  15  18
ENDBRANCH  10  15
BRANCH  14  20
ATOM     20  S   UNL A   1      30.465  26.201  24.209  1.00  0.00    -0.084 SA
BRANCH  20  21
ATOM     21  C   UNL A   1      29.918  27.593  23.360  1.00  0.00     0.168 A 
ATOM     22  N   UNL A   1      30.693  28.418  22.744  1.00  0.00    -0.233 NA
ATOM     23  N   UNL A   1      28.568  27.719  23.453  1.00  0.00    -0.301 N 
ATOM     24  C   UNL A   1      30.076  29.498  22.166  1.00  0.00     0.120 A 
ATOM     25  C   UNL A   1      27.918  28.791  22.934  1.00  0.00     0.251 A 
ATOM     26  H   UNL A   1      28.051  27.015  23.907  1.00  0.00     0.172 HD
ATOM     27  C   UNL A   1      28.765  29.752  22.221  1.00  0.00     0.091 A 
ATOM     28  O   UNL A   1      26.717  28.976  23.069  1.00  0.00    -0.269 OA
ENDBRANCH  20  21
ENDBRANCH  14  20
ENDBRANCH   8  10
ENDBRANCH   7   8
ENDBRANCH   6   7
ENDBRANCH   5   6
ENDBRANCH   4   5
ENDBRANCH   3   4
ENDBRANCH   2   3
ENDBRANCH   1   2
BRANCH   1  29
ATOM     29  C   UNL A   1      41.961  20.682  26.592  1.00  0.00     0.188 C 
BRANCH  29  30
ATOM     30  C   UNL A   1      42.694  19.612  25.773  1.00  0.00     0.188 C 
BRANCH  30  31
ATOM     31  O   UNL A   1      44.064  19.801  25.468  1.00  0.00    -0.376 OA
BRANCH  31  32
ATOM     32  C   UNL A   1      44.621  21.086  25.238  1.00  0.00     0.202 C 
BRANCH  32  33
ATOM     33  C   UNL A   1      44.155  22.107  24.168  1.00  0.00     0.261 C 
BRANCH  33  34
ATOM     34  O   UNL A   1      43.523  23.323  24.571  1.00  0.00    -0.460 OA
BRANCH  34  35
ATOM     35  C   UNL A   1      44.319  24.327  24.984  1.00  0.00     0.338 C 
ATOM     36  O   UNL A   1      45.450  24.582  24.605  1.00  0.00    -0.246 OA
BRANCH  35  37
ATOM     37  C   UNL A   1      43.515  25.197  25.872  1.00  0.00     0.060 A 
ATOM     38  C   UNL A   1      43.698  26.585  25.809  1.00  0.00     0.016 A 
ATOM     39  C   UNL A   1      42.583  24.650  26.759  1.00  0.00     0.016 A 
ATOM     40  C   UNL A   1      42.981  27.429  26.653  1.00  0.00     0.010 A 
ATOM     41  C   UNL A   1      41.891  25.495  27.633  1.00  0.00     0.010 A 
ATOM     42  C   UNL A   1      42.119  26.884  27.610  1.00  0.00    -0.014 A 
BRANCH  42  43
ATOM     43  C   UNL A   1      41.667  27.732  28.740  1.00  0.00     0.031 A 
ATOM     44  C   UNL A   1      42.440  27.663  30.026  1.00  0.00     0.074 A 
ATOM     45  C   UNL A   1      40.630  28.578  28.626  1.00  0.00     0.049 A 
ATOM     46  N   UNL A   1      42.207  28.248  31.173  1.00  0.00    -0.248 NA
ATOM     47  C   UNL A   1      43.648  26.821  30.012  1.00  0.00     0.031 C 
ATOM     48  C   UNL A   1      39.849  28.798  27.414  1.00  0.00     0.029 A 
ATOM     49  N   UNL A   1      40.042  29.393  29.563  1.00  0.00    -0.354 N 
ATOM     50  C   UNL A   1      43.236  27.847  32.012  1.00  0.00     0.074 A 
ATOM     51  C   UNL A   1      44.071  26.936  31.261  1.00  0.00     0.031 C 
ATOM     52  C   UNL A   1      38.849  29.654  27.693  1.00  0.00     0.029 A 
ATOM     53  C   UNL A   1      38.902  30.009  29.108  1.00  0.00     0.049 A 
ATOM     54  H   UNL A   1      40.401  29.521  30.471  1.00  0.00     0.167 HD
ATOM     55  C   UNL A   1      43.473  28.219  33.293  1.00  0.00     0.037 A 
ATOM     56  C   UNL A   1      37.985  30.740  29.771  1.00  0.00     0.037 A 
ATOM     57  C   UNL A   1      42.635  29.119  34.039  1.00  0.00     0.049 A 
ATOM     58  C   UNL A   1      38.196  31.041  31.231  1.00  0.00     0.074 A 
ATOM     59  C   UNL A   1      42.796  29.570  35.337  1.00  0.00     0.029 A 
ATOM     60  N   UNL A   1      41.465  29.690  33.558  1.00  0.00    -0.354 N 
ATOM     61  N   UNL A   1      39.179  30.679  32.018  1.00  0.00    -0.248 NA
ATOM     62  C   UNL A   1      37.176  31.871  31.889  1.00  0.00     0.031 C 
ATOM     63  C   UNL A   1      41.689  30.361  35.663  1.00  0.00     0.029 A 
ATOM     64  C   UNL A   1      40.876  30.463  34.545  1.00  0.00     0.049 A 
ATOM     65  H   UNL A   1      41.107  29.564  32.650  1.00  0.00     0.167 HD
ATOM     66  C   UNL A   1      38.922  31.269  33.248  1.00  0.00     0.074 A 
ATOM     67  C   UNL A   1      37.689  32.015  33.103  1.00  0.00     0.031 C 
ATOM     68  C   UNL A   1      39.651  31.208  34.391  1.00  0.00     0.037 A 
BRANCH  55  69
ATOM     69  C   UNL A   1      44.670  27.620  33.972  1.00  0.00     0.064 A 
ATOM     70  C   UNL A   1      45.919  28.261  33.977  1.00  0.00     0.173 A 
ATOM     71  C   UNL A   1      44.562  26.389  34.637  1.00  0.00     0.173 A 
ATOM     72  F   UNL A   1      46.081  29.432  33.343  1.00  0.00    -0.203 F 
ATOM     73  C   UNL A   1      47.021  27.675  34.594  1.00  0.00     0.198 A 
ATOM     74  C   UNL A   1      45.659  25.824  35.282  1.00  0.00     0.198 A 
ATOM     75  F   UNL A   1      43.392  25.734  34.663  1.00  0.00    -0.203 F 
ATOM     76  F   UNL A   1      48.218  28.276  34.535  1.00  0.00    -0.200 F 
ATOM     77  C   UNL A   1      46.888  26.462  35.251  1.00  0.00     0.200 A 
ATOM     78  F   UNL A   1      45.524  24.658  35.929  1.00  0.00    -0.200 F 
ATOM     79  F   UNL A   1      47.950  25.901  35.848  1.00  0.00    -0.200 F 
ENDBRANCH  55  69
BRANCH  56  80
ATOM     80  C   UNL A   1      36.775  31.229  29.061  1.00  0.00     0.064 A 
ATOM     81  C   UNL A   1      36.652  32.572  28.678  1.00  0.00     0.173 A 
ATOM     82  C   UNL A   1      35.708  30.366  28.767  1.00  0.00     0.173 A 
ATOM     83  F   UNL A   1      37.627  33.443  28.973  1.00  0.00    -0.203 F 
ATOM     84  C   UNL A   1      35.505  33.033  28.035  1.00  0.00     0.198 A 
ATOM     85  C   UNL A   1      34.578  30.821  28.092  1.00  0.00     0.198 A 
ATOM     86  F   UNL A   1      35.754  29.083  29.152  1.00  0.00    -0.203 F 
ATOM     87  F   UNL A   1      35.391  34.333  27.726  1.00  0.00    -0.200 F 
ATOM     88  C   UNL A   1      34.474  32.157  27.733  1.00  0.00     0.200 A 
ATOM     89  F   UNL A   1      33.584  29.970  27.799  1.00  0.00    -0.200 F 
ATOM     90  F   UNL A   1      33.375  32.603  27.110  1.00  0.00    -0.200 F 
ENDBRANCH  56  80
BRANCH  68  91
ATOM     91  C   UNL A   1      39.170  32.014  35.564  1.00  0.00     0.064 A 
ATOM     92  C   UNL A   1      38.358  31.459  36.564  1.00  0.00     0.173 A 
ATOM     93  C   UNL A   1      39.567  33.352  35.711  1.00  0.00     0.173 A 
ATOM     94  F   UNL A   1      37.937  30.188  36.466  1.00  0.00    -0.203 F 
ATOM     95  C   UNL A   1      37.938  32.222  37.651  1.00  0.00     0.198 A 
ATOM     96  C   UNL A   1      39.177  34.101  36.817  1.00  0.00     0.198 A 
ATOM     97  F   UNL A   1      40.351  33.931  34.788  1.00  0.00    -0.203 F 
ATOM     98  F   UNL A   1      37.118  31.687  38.565  1.00  0.00    -0.200 F 
ATOM     99  C   UNL A   1      38.355  33.538  37.781  1.00  0.00     0.200 A 
ATOM    100  F   UNL A   1      39.597  35.367  36.949  1.00  0.00    -0.200 F 
ATOM    101  F   UNL A   1      37.959  34.268  38.833  1.00  0.00    -0.200 F 
ENDBRANCH  68  91
ENDBRANCH  42  43
ENDBRANCH  35  37
ENDBRANCH  34  35
ENDBRANCH  33  34
ENDBRANCH  32  33
ENDBRANCH  31  32
ENDBRANCH  30  31
ENDBRANCH  29  30
ENDBRANCH   1  29
TORSDOF 24
ENDMDL
MODEL 2
REMARK VINA RESULT:     -10.4      1.865      3.876
REMARK SMILES CC[NH2+][C@@]1(C(=O)OCCOCCOCCOCCOC(=O)c2ccc(-c3c4nc(c(-c5c(F)c(F)c(F)c(F)c5F)c5ccc([nH]5)c(-c5c(F)c(F)c(F)c(F)c5F)c5nc(c(-c6c(F)c(F)c(F)c(F)c6F)c6ccc3[nH]6)C=C5)C=C4)cc2)CC[C@H](Sc2nccc(=O)[nH]2)C1
REMARK SMILES IDX 13 1 12 2 11 3 10 4 9 5 8 6 7 7 5 8 6 9 4 10 85 11 96 12
REMARK SMILES IDX 86 13 87 14 3 15 2 18 1 19 88 20 89 21 90 22 95 23 91 24
REMARK SMILES IDX 93 25 92 27 94 28 14 29 15 30 16 31 17 32 18 33 19 34 20 35
REMARK SMILES IDX 21 36 22 37 23 38 84 39 24 40 83 41 25 42 26 43 27 44 77 45
REMARK SMILES IDX 28 46 82 47 76 48 78 49 29 50 81 51 75 52 74 53 30 55 62 56
REMARK SMILES IDX 42 57 61 58 43 59 46 60 60 61 79 62 44 63 45 64 59 66 80 67
REMARK SMILES IDX 47 68 31 69 32 70 40 71 33 72 34 73 38 74 41 75 35 76 36 77
REMARK SMILES IDX 39 78 37 79 63 80 64 81 72 82 65 83 66 84 70 85 73 86 67 87
REMARK SMILES IDX 68 88 71 89 69 90 48 91 49 92 57 93 50 94 51 95 55 96 58 97
REMARK SMILES IDX 52 98 53 99 56 100 54 101
REMARK H PARENT 3 16 3 17 95 26 78 54 46 65
REMARK Flexibility Score: inf
ROOT
ATOM      1  O   UNL A   1      41.467  21.361  26.533  1.00  0.00    -0.377 OA
ENDROOT
BRANCH   1   2
ATOM      2  C   UNL A   1      40.121  21.473  26.948  1.00  0.00     0.188 C 
BRANCH   2   3
ATOM      3  C   UNL A   1      39.163  22.453  26.257  1.00  0.00     0.188 C 
BRANCH   3   4
ATOM      4  O   UNL A   1      38.181  21.807  25.458  1.00  0.00    -0.376 OA
BRANCH   4   5
ATOM      5  C   UNL A   1      37.046  22.520  24.999  1.00  0.00     0.202 C 
BRANCH   5   6
ATOM      6  C   UNL A   1      36.681  23.870  25.638  1.00  0.00     0.261 C 
BRANCH   6   7
ATOM      7  O   UNL A   1      35.423  24.410  25.216  1.00  0.00    -0.459 OA
BRANCH   7   8
ATOM      8  C   UNL A   1      34.457  23.566  24.817  1.00  0.00     0.368 C 
ATOM      9  O   UNL A   1      34.594  22.818  23.850  1.00  0.00    -0.245 OA
BRANCH   8  10
ATOM     10  C   UNL A   1      33.147  23.589  25.709  1.00  0.00     0.195 C 
ATOM     11  C   UNL A   1      33.567  22.872  27.004  1.00  0.00     0.082 C 
ATOM     12  C   UNL A   1      31.893  22.716  25.420  1.00  0.00     0.096 C 
ATOM     13  C   UNL A   1      33.507  21.381  26.585  1.00  0.00     0.022 C 
ATOM     14  C   UNL A   1      32.284  21.260  25.664  1.00  0.00     0.062 C 
BRANCH  10  15
ATOM     15  N   UNL A   1      32.618  24.975  25.797  1.00  0.00    -0.332 N 
ATOM     16  H   UNL A   1      31.831  24.963  26.446  1.00  0.00     0.347 HD
ATOM     17  H   UNL A   1      33.410  25.544  26.091  1.00  0.00     0.347 HD
BRANCH  15  18
ATOM     18  C   UNL A   1      32.154  25.585  24.555  1.00  0.00     0.257 C 
ATOM     19  C   UNL A   1      32.648  27.026  24.485  1.00  0.00     0.071 C 
ENDBRANCH  15  18
ENDBRANCH  10  15
BRANCH  14  20
ATOM     20  S   UNL A   1      32.525  20.479  24.039  1.00  0.00    -0.084 SA
BRANCH  20  21
ATOM     21  C   UNL A   1      32.710  18.810  24.412  1.00  0.00     0.168 A 
ATOM     22  N   UNL A   1      32.335  18.269  25.520  1.00  0.00    -0.233 NA
ATOM     23  N   UNL A   1      33.328  18.151  23.397  1.00  0.00    -0.301 N 
ATOM     24  C   UNL A   1      32.613  16.932  25.655  1.00  0.00     0.120 A 
ATOM     25  C   UNL A   1      33.661  16.840  23.500  1.00  0.00     0.251 A 
ATOM     26  H   UNL A   1      33.539  18.638  22.567  1.00  0.00     0.172 HD
ATOM     27  C   UNL A   1      33.248  16.186  24.747  1.00  0.00     0.091 A 
ATOM     28  O   UNL A   1      34.288  16.238  22.641  1.00  0.00    -0.269 OA
ENDBRANCH  20  21
ENDBRANCH  14  20
ENDBRANCH   8  10
ENDBRANCH   7   8
ENDBRANCH   6   7
ENDBRANCH   5   6
ENDBRANCH   4   5
ENDBRANCH   3   4
ENDBRANCH   2   3
ENDBRANCH   1   2
BRANCH   1  29
ATOM     29  C   UNL A   1      42.073  20.103  26.769  1.00  0.00     0.188 C 
BRANCH  29  30
ATOM     30  C   UNL A   1      42.923  19.668  25.568  1.00  0.00     0.188 C 
BRANCH  30  31
ATOM     31  O   UNL A   1      44.287  20.047  25.521  1.00  0.00    -0.376 OA
BRANCH  31  32
ATOM     32  C   UNL A   1      44.701  21.354  25.157  1.00  0.00     0.202 C 
BRANCH  32  33
ATOM     33  C   UNL A   1      44.044  22.254  24.078  1.00  0.00     0.261 C 
BRANCH  33  34
ATOM     34  O   UNL A   1      43.435  23.490  24.454  1.00  0.00    -0.460 OA
BRANCH  34  35
ATOM     35  C   UNL A   1      44.239  24.456  24.933  1.00  0.00     0.338 C 
ATOM     36  O   UNL A   1      45.384  24.707  24.592  1.00  0.00    -0.246 OA
BRANCH  35  37
ATOM     37  C   UNL A   1      43.432  25.298  25.845  1.00  0.00     0.060 A 
ATOM     38  C   UNL A   1      43.518  26.692  25.737  1.00  0.00     0.016 A 
ATOM     39  C   UNL A   1      42.591  24.718  26.799  1.00  0.00     0.016 A 
ATOM     40  C   UNL A   1      42.796  27.512  26.601  1.00  0.00     0.010 A 
ATOM     41  C   UNL A   1      41.895  25.540  27.691  1.00  0.00     0.010 A 
ATOM     42  C   UNL A   1      42.029  26.940  27.620  1.00  0.00    -0.014 A 
BRANCH  42  43
ATOM     43  C   UNL A   1      41.586  27.790  28.753  1.00  0.00     0.031 A 
ATOM     44  C   UNL A   1      42.368  27.718  30.034  1.00  0.00     0.074 A 
ATOM     45  C   UNL A   1      40.551  28.639  28.646  1.00  0.00     0.049 A 
ATOM     46  N   UNL A   1      42.145  28.303  31.183  1.00  0.00    -0.248 NA
ATOM     47  C   UNL A   1      43.573  26.873  30.012  1.00  0.00     0.031 C 
ATOM     48  C   UNL A   1      39.763  28.861  27.440  1.00  0.00     0.029 A 
ATOM     49  N   UNL A   1      39.971  29.455  29.587  1.00  0.00    -0.354 N 
ATOM     50  C   UNL A   1      43.178  27.899  32.015  1.00  0.00     0.074 A 
ATOM     51  C   UNL A   1      44.005  26.986  31.258  1.00  0.00     0.031 C 
ATOM     52  C   UNL A   1      38.768  29.720  27.726  1.00  0.00     0.029 A 
ATOM     53  C   UNL A   1      38.831  30.075  29.140  1.00  0.00     0.049 A 
ATOM     54  H   UNL A   1      40.338  29.581  30.493  1.00  0.00     0.167 HD
ATOM     55  C   UNL A   1      43.425  28.270  33.294  1.00  0.00     0.037 A 
ATOM     56  C   UNL A   1      37.920  30.808  29.809  1.00  0.00     0.037 A 
ATOM     57  C   UNL A   1      42.594  29.172  34.046  1.00  0.00     0.049 A 
ATOM     58  C   UNL A   1      38.142  31.108  31.268  1.00  0.00     0.074 A 
ATOM     59  C   UNL A   1      42.765  29.623  35.343  1.00  0.00     0.029 A 
ATOM     60  N   UNL A   1      41.423  29.747  33.573  1.00  0.00    -0.354 N 
ATOM     61  N   UNL A   1      39.129  30.743  32.049  1.00  0.00    -0.248 NA
ATOM     62  C   UNL A   1      37.129  31.941  31.933  1.00  0.00     0.031 C 
ATOM     63  C   UNL A   1      41.663  30.417  35.677  1.00  0.00     0.029 A 
ATOM     64  C   UNL A   1      40.842  30.522  34.564  1.00  0.00     0.049 A 
ATOM     65  H   UNL A   1      41.058  29.622  32.667  1.00  0.00     0.167 HD
ATOM     66  C   UNL A   1      38.882  31.334  33.280  1.00  0.00     0.074 A 
ATOM     67  C   UNL A   1      37.650  32.083  33.143  1.00  0.00     0.031 C 
ATOM     68  C   UNL A   1      39.619  31.270  34.418  1.00  0.00     0.037 A 
BRANCH  55  69
ATOM     69  C   UNL A   1      44.624  27.668  33.965  1.00  0.00     0.064 A 
ATOM     70  C   UNL A   1      45.881  28.290  33.937  1.00  0.00     0.173 A 
ATOM     71  C   UNL A   1      44.510  26.452  34.656  1.00  0.00     0.173 A 
ATOM     72  F   UNL A   1      46.049  29.446  33.276  1.00  0.00    -0.203 F 
ATOM     73  C   UNL A   1      46.986  27.701  34.546  1.00  0.00     0.198 A 
ATOM     74  C   UNL A   1      45.609  25.884  35.294  1.00  0.00     0.198 A 
ATOM     75  F   UNL A   1      43.331  25.814  34.716  1.00  0.00    -0.203 F 
ATOM     76  F   UNL A   1      48.190  28.283  34.455  1.00  0.00    -0.200 F 
ATOM     77  C   UNL A   1      46.847  26.503  35.230  1.00  0.00     0.200 A 
ATOM     78  F   UNL A   1      45.470  24.733  35.966  1.00  0.00    -0.200 F 
ATOM     79  F   UNL A   1      47.910  25.939  35.820  1.00  0.00    -0.200 F 
ENDBRANCH  55  69
BRANCH  56  80
ATOM     80  C   UNL A   1      36.707  31.301  29.108  1.00  0.00     0.064 A 
ATOM     81  C   UNL A   1      35.625  30.450  28.846  1.00  0.00     0.173 A 
ATOM     82  C   UNL A   1      36.613  32.630  28.669  1.00  0.00     0.173 A 
ATOM     83  F   UNL A   1      35.684  29.161  29.209  1.00  0.00    -0.203 F 
ATOM     84  C   UNL A   1      34.499  30.908  28.164  1.00  0.00     0.198 A 
ATOM     85  C   UNL A   1      35.472  33.096  28.020  1.00  0.00     0.198 A 
ATOM     86  F   UNL A   1      37.638  33.474  28.852  1.00  0.00    -0.203 F 
ATOM     87  F   UNL A   1      33.500  30.060  27.881  1.00  0.00    -0.200 F 
ATOM     88  C   UNL A   1      34.418  32.232  27.762  1.00  0.00     0.200 A 
ATOM     89  F   UNL A   1      35.396  34.379  27.635  1.00  0.00    -0.200 F 
ATOM     90  F   UNL A   1      33.332  32.671  27.112  1.00  0.00    -0.200 F 
ENDBRANCH  56  80
BRANCH  68  91
ATOM     91  C   UNL A   1      39.147  32.077  35.594  1.00  0.00     0.064 A 
ATOM     92  C   UNL A   1      38.343  31.524  36.602  1.00  0.00     0.173 A 
ATOM     93  C   UNL A   1      39.547  33.415  35.737  1.00  0.00     0.173 A 
ATOM     94  F   UNL A   1      37.921  30.253  36.508  1.00  0.00    -0.203 F 
ATOM     95  C   UNL A   1      37.933  32.288  37.691  1.00  0.00     0.198 A 
ATOM     96  C   UNL A   1      39.166  34.165  36.846  1.00  0.00     0.198 A 
ATOM     97  F   UNL A   1      40.324  33.993  34.808  1.00  0.00    -0.203 F 
ATOM     98  F   UNL A   1      37.120  31.754  38.613  1.00  0.00    -0.200 F 
ATOM     99  C   UNL A   1      38.352  33.603  37.817  1.00  0.00     0.200 A 
ATOM    100  F   UNL A   1      39.588  35.430  36.974  1.00  0.00    -0.200 F 
ATOM    101  F   UNL A   1      37.965  34.334  38.872  1.00  0.00    -0.200 F 
ENDBRANCH  68  91
ENDBRANCH  42  43
ENDBRANCH  35  37
ENDBRANCH  34  35
ENDBRANCH  33  34
ENDBRANCH  32  33
ENDBRANCH  31  32
ENDBRANCH  30  31
ENDBRANCH  29  30
ENDBRANCH   1  29
TORSDOF 24
ENDMDL
MODEL 3
REMARK VINA RESULT:     -10.1      4.876     10.403
REMARK SMILES CC[NH2+][C@@]1(C(=O)OCCOCCOCCOCCOC(=O)c2ccc(-c3c4nc(c(-c5c(F)c(F)c(F)c(F)c5F)c5ccc([nH]5)c(-c5c(F)c(F)c(F)c(F)c5F)c5nc(c(-c6c(F)c(F)c(F)c(F)c6F)c6ccc3[nH]6)C=C5)C=C4)cc2)CC[C@H](Sc2nccc(=O)[nH]2)C1
REMARK SMILES IDX 13 1 12 2 11 3 10 4 9 5 8 6 7 7 5 8 6 9 4 10 85 11 96 12
REMARK SMILES IDX 86 13 87 14 3 15 2 18 1 19 88 20 89 21 90 22 95 23 91 24
REMARK SMILES IDX 93 25 92 27 94 28 14 29 15 30 16 31 17 32 18 33 19 34 20 35
REMARK SMILES IDX 21 36 22 37 23 38 84 39 24 40 83 41 25 42 26 43 27 44 77 45
REMARK SMILES IDX 28 46 82 47 76 48 78 49 29 50 81 51 75 52 74 53 30 55 62 56
REMARK SMILES IDX 42 57 61 58 43 59 46 60 60 61 79 62 44 63 45 64 59 66 80 67
REMARK SMILES IDX 47 68 31 69 32 70 40 71 33 72 34 73 38 74 41 75 35 76 36 77
REMARK SMILES IDX 39 78 37 79 63 80 64 81 72 82 65 83 66 84 70 85 73 86 67 87
REMARK SMILES IDX 68 88 71 89 69 90 48 91 49 92 57 93 50 94 51 95 55 96 58 97
REMARK SMILES IDX 52 98 53 99 56 100 54 101
REMARK H PARENT 3 16 3 17 95 26 78 54 46 65
REMARK Flexibility Score: inf
ROOT
ATOM      1  O   UNL A   1      34.076  29.189  26.350  1.00  0.00    -0.377 OA
ENDROOT
BRANCH   1   2
ATOM      2  C   UNL A   1      33.653  28.268  25.365  1.00  0.00     0.188 C 
BRANCH   2   3
ATOM      3  C   UNL A   1      33.302  28.739  23.946  1.00  0.00     0.188 C 
BRANCH   3   4
ATOM      4  O   UNL A   1      33.696  27.818  22.937  1.00  0.00    -0.376 OA
BRANCH   4   5
ATOM      5  C   UNL A   1      32.894  26.686  22.647  1.00  0.00     0.202 C 
BRANCH   5   6
ATOM      6  C   UNL A   1      33.539  25.291  22.572  1.00  0.00     0.261 C 
BRANCH   6   7
ATOM      7  O   UNL A   1      34.060  24.807  23.816  1.00  0.00    -0.459 OA
BRANCH   7   8
ATOM      8  C   UNL A   1      33.976  23.492  24.085  1.00  0.00     0.368 C 
ATOM      9  O   UNL A   1      34.428  22.635  23.329  1.00  0.00    -0.245 OA
BRANCH   8  10
ATOM     10  C   UNL A   1      33.280  23.143  25.467  1.00  0.00     0.195 C 
ATOM     11  C   UNL A   1      34.454  23.028  26.455  1.00  0.00     0.082 C 
ATOM     12  C   UNL A   1      32.644  21.761  25.784  1.00  0.00     0.096 C 
ATOM     13  C   UNL A   1      35.009  21.616  26.139  1.00  0.00     0.022 C 
ATOM     14  C   UNL A   1      33.778  20.741  25.860  1.00  0.00     0.062 C 
BRANCH  10  15
ATOM     15  N   UNL A   1      32.197  24.120  25.750  1.00  0.00    -0.332 N 
ATOM     16  H   UNL A   1      32.067  24.150  26.761  1.00  0.00     0.347 HD
ATOM     17  H   UNL A   1      32.512  24.995  25.331  1.00  0.00     0.347 HD
BRANCH  15  18
ATOM     18  C   UNL A   1      30.895  23.858  25.146  1.00  0.00     0.257 C 
ATOM     19  C   UNL A   1      30.348  25.147  24.544  1.00  0.00     0.071 C 
ENDBRANCH  15  18
ENDBRANCH  10  15
BRANCH  14  20
ATOM     20  S   UNL A   1      33.757  19.782  24.315  1.00  0.00    -0.084 SA
BRANCH  20  21
ATOM     21  C   UNL A   1      33.436  18.175  24.836  1.00  0.00     0.168 A 
ATOM     22  N   UNL A   1      32.285  17.762  25.242  1.00  0.00    -0.233 NA
ATOM     23  N   UNL A   1      34.561  17.416  24.789  1.00  0.00    -0.301 N 
ATOM     24  C   UNL A   1      32.236  16.458  25.666  1.00  0.00     0.120 A 
ATOM     25  C   UNL A   1      34.572  16.135  25.236  1.00  0.00     0.251 A 
ATOM     26  H   UNL A   1      35.388  17.805  24.421  1.00  0.00     0.172 HD
ATOM     27  C   UNL A   1      33.279  15.624  25.704  1.00  0.00     0.091 A 
ATOM     28  O   UNL A   1      35.583  15.450  25.283  1.00  0.00    -0.269 OA
ENDBRANCH  20  21
ENDBRANCH  14  20
ENDBRANCH   8  10
ENDBRANCH   7   8
ENDBRANCH   6   7
ENDBRANCH   5   6
ENDBRANCH   4   5
ENDBRANCH   3   4
ENDBRANCH   2   3
ENDBRANCH   1   2
BRANCH   1  29
ATOM     29  C   UNL A   1      33.118  30.164  26.721  1.00  0.00     0.188 C 
BRANCH  29  30
ATOM     30  C   UNL A   1      33.738  31.220  27.645  1.00  0.00     0.188 C 
BRANCH  30  31
ATOM     31  O   UNL A   1      33.198  32.530  27.648  1.00  0.00    -0.376 OA
BRANCH  31  32
ATOM     32  C   UNL A   1      33.916  33.646  28.151  1.00  0.00     0.202 C 
BRANCH  32  33
ATOM     33  C   UNL A   1      34.156  33.982  29.645  1.00  0.00     0.261 C 
BRANCH  33  34
ATOM     34  O   UNL A   1      35.369  33.576  30.282  1.00  0.00    -0.460 OA
BRANCH  34  35
ATOM     35  C   UNL A   1      35.311  32.508  31.100  1.00  0.00     0.338 C 
ATOM     36  O   UNL A   1      34.460  32.259  31.938  1.00  0.00    -0.246 OA
BRANCH  35  37
ATOM     37  C   UNL A   1      36.383  31.574  30.689  1.00  0.00     0.060 A 
ATOM     38  C   UNL A   1      37.102  30.888  31.678  1.00  0.00     0.016 A 
ATOM     39  C   UNL A   1      36.678  31.370  29.338  1.00  0.00     0.016 A 
ATOM     40  C   UNL A   1      38.138  30.027  31.326  1.00  0.00     0.010 A 
ATOM     41  C   UNL A   1      37.743  30.534  28.986  1.00  0.00     0.010 A 
ATOM     42  C   UNL A   1      38.503  29.893  29.983  1.00  0.00    -0.014 A 
BRANCH  42  43
ATOM     43  C   UNL A   1      39.820  29.299  29.649  1.00  0.00     0.031 A 
ATOM     44  C   UNL A   1      41.035  30.177  29.753  1.00  0.00     0.074 A 
ATOM     45  C   UNL A   1      39.955  28.007  29.306  1.00  0.00     0.049 A 
ATOM     46  N   UNL A   1      42.282  29.918  29.452  1.00  0.00    -0.248 NA
ATOM     47  C   UNL A   1      40.811  31.534  30.278  1.00  0.00     0.031 C 
ATOM     48  C   UNL A   1      38.871  27.033  29.245  1.00  0.00     0.029 A 
ATOM     49  N   UNL A   1      41.068  27.303  28.919  1.00  0.00    -0.354 N 
ATOM     50  C   UNL A   1      42.986  31.074  29.751  1.00  0.00     0.074 A 
ATOM     51  C   UNL A   1      42.028  32.052  30.215  1.00  0.00     0.031 C 
ATOM     52  C   UNL A   1      39.365  25.865  28.795  1.00  0.00     0.029 A 
ATOM     53  C   UNL A   1      40.786  26.025  28.503  1.00  0.00     0.049 A 
ATOM     54  H   UNL A   1      41.979  27.678  28.936  1.00  0.00     0.167 HD
ATOM     55  C   UNL A   1      44.319  31.296  29.661  1.00  0.00     0.037 A 
ATOM     56  C   UNL A   1      41.577  25.107  27.915  1.00  0.00     0.037 A 
ATOM     57  C   UNL A   1      45.268  30.323  29.190  1.00  0.00     0.049 A 
ATOM     58  C   UNL A   1      43.035  25.415  27.704  1.00  0.00     0.074 A 
ATOM     59  C   UNL A   1      46.642  30.444  29.074  1.00  0.00     0.029 A 
ATOM     60  N   UNL A   1      44.939  29.053  28.737  1.00  0.00    -0.354 N 
ATOM     61  N   UNL A   1      43.705  26.501  28.005  1.00  0.00    -0.248 NA
ATOM     62  C   UNL A   1      43.851  24.360  27.087  1.00  0.00     0.031 C 
ATOM     63  C   UNL A   1      47.135  29.273  28.490  1.00  0.00     0.029 A 
ATOM     64  C   UNL A   1      46.079  28.393  28.310  1.00  0.00     0.049 A 
ATOM     65  H   UNL A   1      44.029  28.678  28.722  1.00  0.00     0.167 HD
ATOM     66  C   UNL A   1      45.024  26.245  27.658  1.00  0.00     0.074 A 
ATOM     67  C   UNL A   1      45.061  24.901  27.122  1.00  0.00     0.031 C 
ATOM     68  C   UNL A   1      46.109  27.051  27.784  1.00  0.00     0.037 A 
BRANCH  55  69
ATOM     69  C   UNL A   1      44.817  32.658  30.049  1.00  0.00     0.064 A 
ATOM     70  C   UNL A   1      45.085  32.998  31.384  1.00  0.00     0.173 A 
ATOM     71  C   UNL A   1      45.038  33.635  29.067  1.00  0.00     0.173 A 
ATOM     72  F   UNL A   1      44.875  32.106  32.364  1.00  0.00    -0.203 F 
ATOM     73  C   UNL A   1      45.524  34.275  31.724  1.00  0.00     0.198 A 
ATOM     74  C   UNL A   1      45.510  34.900  29.407  1.00  0.00     0.198 A 
ATOM     75  F   UNL A   1      44.799  33.364  27.775  1.00  0.00    -0.203 F 
ATOM     76  F   UNL A   1      45.715  34.596  33.011  1.00  0.00    -0.200 F 
ATOM     77  C   UNL A   1      45.742  35.222  30.734  1.00  0.00     0.200 A 
ATOM     78  F   UNL A   1      45.734  35.809  28.448  1.00  0.00    -0.200 F 
ATOM     79  F   UNL A   1      46.169  36.449  31.062  1.00  0.00    -0.200 F 
ENDBRANCH  55  69
BRANCH  56  80
ATOM     80  C   UNL A   1      41.002  23.810  27.472  1.00  0.00     0.064 A 
ATOM     81  C   UNL A   1      40.036  23.754  26.459  1.00  0.00     0.173 A 
ATOM     82  C   UNL A   1      41.396  22.602  28.067  1.00  0.00     0.173 A 
ATOM     83  F   UNL A   1      39.598  24.885  25.888  1.00  0.00    -0.203 F 
ATOM     84  C   UNL A   1      39.480  22.539  26.063  1.00  0.00     0.198 A 
ATOM     85  C   UNL A   1      40.866  21.384  27.646  1.00  0.00     0.198 A 
ATOM     86  F   UNL A   1      42.282  22.603  29.073  1.00  0.00    -0.203 F 
ATOM     87  F   UNL A   1      38.519  22.518  25.128  1.00  0.00    -0.200 F 
ATOM     88  C   UNL A   1      39.902  21.354  26.649  1.00  0.00     0.200 A 
ATOM     89  F   UNL A   1      41.279  20.241  28.212  1.00  0.00    -0.200 F 
ATOM     90  F   UNL A   1      39.370  20.187  26.262  1.00  0.00    -0.200 F 
ENDBRANCH  56  80
BRANCH  68  91
ATOM     91  C   UNL A   1      47.443  26.483  27.390  1.00  0.00     0.064 A 
ATOM     92  C   UNL A   1      48.009  26.720  26.128  1.00  0.00     0.173 A 
ATOM     93  C   UNL A   1      48.187  25.728  28.310  1.00  0.00     0.173 A 
ATOM     94  F   UNL A   1      47.334  27.425  25.206  1.00  0.00    -0.203 F 
ATOM     95  C   UNL A   1      49.255  26.197  25.793  1.00  0.00     0.198 A 
ATOM     96  C   UNL A   1      49.448  25.237  27.984  1.00  0.00     0.198 A 
ATOM     97  F   UNL A   1      47.698  25.478  29.534  1.00  0.00    -0.203 F 
ATOM     98  F   UNL A   1      49.751  26.389  24.563  1.00  0.00    -0.200 F 
ATOM     99  C   UNL A   1      49.977  25.464  26.723  1.00  0.00     0.200 A 
ATOM    100  F   UNL A   1      50.151  24.546  28.892  1.00  0.00    -0.200 F 
ATOM    101  F   UNL A   1      51.180  24.970  26.402  1.00  0.00    -0.200 F 
ENDBRANCH  68  91
ENDBRANCH  42  43
ENDBRANCH  35  37
ENDBRANCH  34  35
ENDBRANCH  33  34
ENDBRANCH  32  33
ENDBRANCH  31  32
ENDBRANCH  30  31
ENDBRANCH  29  30
ENDBRANCH   1  29
TORSDOF 24
ENDMDL
