MODEL 1
REMARK VINA RESULT:     -13.0      0.000      0.000
REMARK SMILES COc1ccc(C2=NN(C(=O)CCC(=O)OCCOCCOCCOCCOC(=O)c3ccc(-c4c5nc(c(-c6c(F)c(F)c(F)c(F)c6F)c6ccc([nH]6)c(-c6c(F)c(F)c(F)c(F)c6F)c6nc(c(-c7c(F)c(F)c(F)c(F)c7F)c7ccc4[nH]7)C=C6)C=C5)cc3)[C@H](c3ccc(Cl)cc3Cl)C2)cc1
REMARK SMILES IDX 20 1 19 2 18 3 17 4 16 5 14 6 15 7 13 8 12 9 10 10 11 11
REMARK SMILES IDX 9 12 7 13 8 14 103 15 94 16 6 17 3 18 4 19 105 20 5 21
REMARK SMILES IDX 104 22 2 23 1 24 95 25 96 26 101 27 97 28 100 29 102 30
REMARK SMILES IDX 98 31 99 32 21 33 22 34 23 35 24 36 25 37 26 38 27 39 28 40
REMARK SMILES IDX 29 41 30 42 31 43 32 44 93 45 33 46 92 47 34 48 35 49 36 50
REMARK SMILES IDX 86 51 37 52 91 53 85 54 87 55 38 56 90 57 84 58 83 59 39 61
REMARK SMILES IDX 71 62 51 63 70 64 52 65 55 66 69 67 88 68 53 69 54 70 68 72
REMARK SMILES IDX 89 73 56 74 40 75 41 76 49 77 42 78 43 79 47 80 50 81 44 82
REMARK SMILES IDX 45 83 48 84 46 85 72 86 73 87 81 88 74 89 75 90 79 91 82 92
REMARK SMILES IDX 76 93 77 94 80 95 78 96 57 97 58 98 66 99 59 100 60 101
REMARK SMILES IDX 64 102 67 103 61 104 62 105 65 106 63 107
REMARK H PARENT 87 60 55 71
REMARK Flexibility Score: inf
ROOT
ATOM      1  C   UNL A   1      29.766  26.026  24.488  1.00  0.00     0.188 C 
ENDROOT
BRANCH   1   2
ATOM      2  O   UNL A   1      28.461  26.426  23.614  1.00  0.00    -0.376 OA
BRANCH   2   3
ATOM      3  C   UNL A   1      27.483  27.598  23.827  1.00  0.00     0.202 C 
BRANCH   3   4
ATOM      4  C   UNL A   1      27.255  28.735  22.743  1.00  0.00     0.261 C 
BRANCH   4   5
ATOM      5  O   UNL A   1      27.183  30.047  23.318  1.00  0.00    -0.463 OA
BRANCH   5   6
ATOM      6  C   UNL A   1      28.003  30.911  22.689  1.00  0.00     0.306 C 
ATOM      7  O   UNL A   1      27.694  31.501  21.659  1.00  0.00    -0.252 OA
BRANCH   6   8
ATOM      8  C   UNL A   1      29.324  31.173  23.377  1.00  0.00     0.132 C 
BRANCH   8   9
ATOM      9  C   UNL A   1      30.105  30.192  24.262  1.00  0.00     0.114 C 
BRANCH   9  10
ATOM     10  C   UNL A   1      31.127  29.182  23.719  1.00  0.00     0.243 C 
ATOM     11  O   UNL A   1      30.860  28.845  22.544  1.00  0.00    -0.273 OA
BRANCH  10  12
ATOM     12  N   UNL A   1      32.317  28.699  24.349  1.00  0.00    -0.225 N 
ATOM     13  C   UNL A   1      33.218  26.766  24.222  1.00  0.00     0.071 C 
ATOM     14  N   UNL A   1      32.827  27.761  23.521  1.00  0.00    -0.174 NA
ATOM     15  C   UNL A   1      33.394  26.952  25.722  1.00  0.00     0.091 C 
ATOM     16  C   UNL A   1      33.243  28.552  25.868  1.00  0.00     0.149 C 
BRANCH  13  17
ATOM     17  C   UNL A   1      33.299  25.496  23.525  1.00  0.00    -0.002 A 
ATOM     18  C   UNL A   1      33.262  23.059  22.340  1.00  0.00     0.118 A 
ATOM     19  C   UNL A   1      33.801  23.181  23.624  1.00  0.00     0.047 A 
ATOM     20  C   UNL A   1      33.075  24.178  21.547  1.00  0.00     0.047 A 
ATOM     21  C   UNL A   1      33.714  24.391  24.263  1.00  0.00     0.014 A 
ATOM     22  C   UNL A   1      33.140  25.424  22.146  1.00  0.00     0.014 A 
BRANCH  18  23
ATOM     23  O   UNL A   1      32.457  21.970  22.129  1.00  0.00    -0.497 OA
ATOM     24  C   UNL A   1      32.292  21.054  23.179  1.00  0.00     0.278 C 
ENDBRANCH  18  23
ENDBRANCH  13  17
BRANCH  16  25
ATOM     25  C   UNL A   1      34.250  29.953  26.825  1.00  0.00    -0.004 A 
ATOM     26  C   UNL A   1      33.207  31.143  27.142  1.00  0.00     0.009 A 
ATOM     27  C   UNL A   1      35.818  30.356  27.620  1.00  0.00     0.047 A 
ATOM     28  C   UNL A   1      33.405  32.868  27.996  1.00  0.00     0.021 A 
ATOM     29  C   UNL A   1      36.186  31.900  28.458  1.00  0.00     0.041 A 
ATOM     30  Cl  UNL A   1      37.114  29.298  28.183  1.00  0.00    -0.084 Cl
ATOM     31  C   UNL A   1      35.018  33.195  28.661  1.00  0.00     0.042 A 
ATOM     32  Cl  UNL A   1      35.420  34.586  29.566  1.00  0.00    -0.084 Cl
ENDBRANCH  16  25
ENDBRANCH  10  12
ENDBRANCH   9  10
ENDBRANCH   8   9
ENDBRANCH   6   8
ENDBRANCH   5   6
ENDBRANCH   4   5
ENDBRANCH   3   4
ENDBRANCH   2   3
ENDBRANCH   1   2
BRANCH   1  33
ATOM     33  C   UNL A   1      30.045  25.584  26.380  1.00  0.00     0.188 C 
BRANCH  33  34
ATOM     34  O   UNL A   1      30.713  24.110  27.181  1.00  0.00    -0.377 OA
BRANCH  34  35
ATOM     35  C   UNL A   1      31.924  22.799  27.025  1.00  0.00     0.188 C 
BRANCH  35  36
ATOM     36  C   UNL A   1      33.828  22.540  27.500  1.00  0.00     0.188 C 
BRANCH  36  37
ATOM     37  O   UNL A   1      34.928  21.452  26.517  1.00  0.00    -0.376 OA
BRANCH  37  38
ATOM     38  C   UNL A   1      36.438  22.200  25.703  1.00  0.00     0.202 C 
BRANCH  38  39
ATOM     39  C   UNL A   1      37.969  20.710  25.086  1.00  0.00     0.261 C 
BRANCH  39  40
ATOM     40  O   UNL A   1      39.230  20.135  26.242  1.00  0.00    -0.460 OA
BRANCH  40  41
ATOM     41  C   UNL A   1      40.574  20.398  26.505  1.00  0.00     0.338 C 
ATOM     42  O   UNL A   1      41.498  19.636  26.243  1.00  0.00    -0.246 OA
BRANCH  41  43
ATOM     43  C   UNL A   1      40.954  21.850  26.920  1.00  0.00     0.060 A 
ATOM     44  C   UNL A   1      40.551  22.980  26.145  1.00  0.00     0.016 A 
ATOM     45  C   UNL A   1      41.748  22.151  28.025  1.00  0.00     0.016 A 
ATOM     46  C   UNL A   1      40.772  24.330  26.536  1.00  0.00     0.010 A 
ATOM     47  C   UNL A   1      42.094  23.505  28.341  1.00  0.00     0.010 A 
ATOM     48  C   UNL A   1      41.604  24.615  27.614  1.00  0.00    -0.014 A 
BRANCH  48  49
ATOM     49  C   UNL A   1      42.162  26.004  27.802  1.00  0.00     0.031 A 
ATOM     50  C   UNL A   1      43.440  26.361  27.127  1.00  0.00     0.074 A 
ATOM     51  C   UNL A   1      41.613  26.981  28.551  1.00  0.00     0.049 A 
ATOM     52  N   UNL A   1      44.109  27.481  27.198  1.00  0.00    -0.248 NA
ATOM     53  C   UNL A   1      44.035  25.337  26.264  1.00  0.00     0.031 C 
ATOM     54  C   UNL A   1      40.331  26.840  29.189  1.00  0.00     0.029 A 
ATOM     55  N   UNL A   1      42.037  28.255  28.931  1.00  0.00    -0.354 N 
ATOM     56  C   UNL A   1      45.217  27.298  26.402  1.00  0.00     0.074 A 
ATOM     57  C   UNL A   1      45.145  25.946  25.879  1.00  0.00     0.031 C 
ATOM     58  C   UNL A   1      40.143  27.928  29.938  1.00  0.00     0.029 A 
ATOM     59  C   UNL A   1      41.200  28.878  29.831  1.00  0.00     0.049 A 
ATOM     60  H   UNL A   1      42.861  28.672  28.586  1.00  0.00     0.167 HD
ATOM     61  C   UNL A   1      46.200  28.187  26.137  1.00  0.00     0.037 A 
ATOM     62  C   UNL A   1      41.154  30.046  30.517  1.00  0.00     0.037 A 
ATOM     63  C   UNL A   1      46.289  29.518  26.687  1.00  0.00     0.049 A 
ATOM     64  C   UNL A   1      42.249  31.002  30.227  1.00  0.00     0.074 A 
ATOM     65  C   UNL A   1      47.279  30.461  26.475  1.00  0.00     0.029 A 
ATOM     66  N   UNL A   1      45.381  30.095  27.568  1.00  0.00    -0.354 N 
ATOM     67  N   UNL A   1      43.239  30.830  29.396  1.00  0.00    -0.248 NA
ATOM     68  C   UNL A   1      42.222  32.306  30.898  1.00  0.00     0.031 C 
ATOM     69  C   UNL A   1      47.015  31.574  27.279  1.00  0.00     0.029 A 
ATOM     70  C   UNL A   1      45.818  31.364  27.937  1.00  0.00     0.049 A 
ATOM     71  H   UNL A   1      44.551  29.670  27.883  1.00  0.00     0.167 HD
ATOM     72  C   UNL A   1      43.951  32.001  29.431  1.00  0.00     0.074 A 
ATOM     73  C   UNL A   1      43.229  32.916  30.295  1.00  0.00     0.031 C 
ATOM     74  C   UNL A   1      45.126  32.266  28.821  1.00  0.00     0.037 A 
BRANCH  61  75
ATOM     75  C   UNL A   1      47.297  27.697  25.250  1.00  0.00     0.064 A 
ATOM     76  C   UNL A   1      47.292  27.930  23.867  1.00  0.00     0.173 A 
ATOM     77  C   UNL A   1      48.361  26.966  25.796  1.00  0.00     0.173 A 
ATOM     78  F   UNL A   1      46.273  28.592  23.297  1.00  0.00    -0.203 F 
ATOM     79  C   UNL A   1      48.301  27.423  23.056  1.00  0.00     0.198 A 
ATOM     80  C   UNL A   1      49.390  26.498  24.988  1.00  0.00     0.198 A 
ATOM     81  F   UNL A   1      48.399  26.703  27.110  1.00  0.00    -0.203 F 
ATOM     82  F   UNL A   1      48.241  27.597  21.729  1.00  0.00    -0.200 F 
ATOM     83  C   UNL A   1      49.355  26.718  23.620  1.00  0.00     0.200 A 
ATOM     84  F   UNL A   1      50.412  25.824  25.534  1.00  0.00    -0.200 F 
ATOM     85  F   UNL A   1      50.332  26.240  22.839  1.00  0.00    -0.200 F 
ENDBRANCH  61  75
BRANCH  62  86
ATOM     86  C   UNL A   1      40.026  30.431  31.456  1.00  0.00     0.064 A 
ATOM     87  C   UNL A   1      40.054  30.092  32.822  1.00  0.00     0.173 A 
ATOM     88  C   UNL A   1      38.906  31.171  31.031  1.00  0.00     0.173 A 
ATOM     89  F   UNL A   1      41.098  29.414  33.324  1.00  0.00    -0.203 F 
ATOM     90  C   UNL A   1      39.032  30.460  33.705  1.00  0.00     0.198 A 
ATOM     91  C   UNL A   1      37.911  31.591  31.925  1.00  0.00     0.198 A 
ATOM     92  F   UNL A   1      38.799  31.546  29.748  1.00  0.00    -0.203 F 
ATOM     93  F   UNL A   1      39.111  30.117  34.998  1.00  0.00    -0.200 F 
ATOM     94  C   UNL A   1      37.971  31.227  33.259  1.00  0.00     0.200 A 
ATOM     95  F   UNL A   1      36.911  32.373  31.496  1.00  0.00    -0.200 F 
ATOM     96  F   UNL A   1      37.032  31.644  34.120  1.00  0.00    -0.200 F 
ENDBRANCH  62  86
BRANCH  74  97
ATOM     97  C   UNL A   1      45.696  33.614  29.104  1.00  0.00     0.064 A 
ATOM     98  C   UNL A   1      46.585  33.820  30.173  1.00  0.00     0.173 A 
ATOM     99  C   UNL A   1      45.290  34.721  28.352  1.00  0.00     0.173 A 
ATOM    100  F   UNL A   1      46.965  32.790  30.947  1.00  0.00    -0.203 F 
ATOM    101  C   UNL A   1      47.003  35.100  30.510  1.00  0.00     0.198 A 
ATOM    102  C   UNL A   1      45.751  35.994  28.662  1.00  0.00     0.198 A 
ATOM    103  F   UNL A   1      44.426  34.571  27.337  1.00  0.00    -0.203 F 
ATOM    104  F   UNL A   1      47.764  35.288  31.597  1.00  0.00    -0.200 F 
ATOM    105  C   UNL A   1      46.592  36.184  29.749  1.00  0.00     0.200 A 
ATOM    106  F   UNL A   1      45.357  37.042  27.926  1.00  0.00    -0.200 F 
ATOM    107  F   UNL A   1      46.990  37.420  30.079  1.00  0.00    -0.200 F 
ENDBRANCH  74  97
ENDBRANCH  48  49
ENDBRANCH  41  43
ENDBRANCH  40  41
ENDBRANCH  39  40
ENDBRANCH  38  39
ENDBRANCH  37  38
ENDBRANCH  36  37
ENDBRANCH  35  36
ENDBRANCH  34  35
ENDBRANCH  33  34
ENDBRANCH   1  33
TORSDOF 26
ENDMDL
MODEL 2
REMARK VINA RESULT:     -12.9      1.074      6.891
REMARK SMILES COc1ccc(C2=NN(C(=O)CCC(=O)OCCOCCOCCOCCOC(=O)c3ccc(-c4c5nc(c(-c6c(F)c(F)c(F)c(F)c6F)c6ccc([nH]6)c(-c6c(F)c(F)c(F)c(F)c6F)c6nc(c(-c7c(F)c(F)c(F)c(F)c7F)c7ccc4[nH]7)C=C6)C=C5)cc3)[C@H](c3ccc(Cl)cc3Cl)C2)cc1
REMARK SMILES IDX 20 1 19 2 18 3 17 4 16 5 14 6 15 7 13 8 12 9 10 10 11 11
REMARK SMILES IDX 9 12 7 13 8 14 103 15 94 16 6 17 3 18 4 19 105 20 5 21
REMARK SMILES IDX 104 22 2 23 1 24 95 25 96 26 101 27 97 28 100 29 102 30
REMARK SMILES IDX 98 31 99 32 21 33 22 34 23 35 24 36 25 37 26 38 27 39 28 40
REMARK SMILES IDX 29 41 30 42 31 43 32 44 93 45 33 46 92 47 34 48 35 49 36 50
REMARK SMILES IDX 86 51 37 52 91 53 85 54 87 55 38 56 90 57 84 58 83 59 39 61
REMARK SMILES IDX 71 62 51 63 70 64 52 65 55 66 69 67 88 68 53 69 54 70 68 72
REMARK SMILES IDX 89 73 56 74 40 75 41 76 49 77 42 78 43 79 47 80 50 81 44 82
REMARK SMILES IDX 45 83 48 84 46 85 72 86 73 87 81 88 74 89 75 90 79 91 82 92
REMARK SMILES IDX 76 93 77 94 80 95 78 96 57 97 58 98 66 99 59 100 60 101
REMARK SMILES IDX 64 102 67 103 61 104 62 105 65 106 63 107
REMARK H PARENT 87 60 55 71
REMARK Flexibility Score: inf
ROOT
ATOM      1  C   UNL A   1      29.940  25.946  24.390  1.00  0.00     0.188 C 
ENDROOT
BRANCH   1   2
ATOM      2  O   UNL A   1      28.505  26.338  23.746  1.00  0.00    -0.376 OA
BRANCH   2   3
ATOM      3  C   UNL A   1      27.679  27.623  23.945  1.00  0.00     0.202 C 
BRANCH   3   4
ATOM      4  C   UNL A   1      27.565  28.752  22.834  1.00  0.00     0.261 C 
BRANCH   4   5
ATOM      5  O   UNL A   1      27.234  30.038  23.377  1.00  0.00    -0.463 OA
BRANCH   5   6
ATOM      6  C   UNL A   1      27.882  31.030  22.736  1.00  0.00     0.306 C 
ATOM      7  O   UNL A   1      27.416  31.618  21.766  1.00  0.00    -0.252 OA
BRANCH   6   8
ATOM      8  C   UNL A   1      29.210  31.434  23.333  1.00  0.00     0.132 C 
BRANCH   8   9
ATOM      9  C   UNL A   1      30.016  30.656  24.384  1.00  0.00     0.114 C 
BRANCH   9  10
ATOM     10  C   UNL A   1      31.097  29.622  24.036  1.00  0.00     0.243 C 
ATOM     11  O   UNL A   1      30.871  29.076  22.933  1.00  0.00    -0.273 OA
BRANCH  10  12
ATOM     12  N   UNL A   1      32.295  29.316  24.755  1.00  0.00    -0.225 N 
ATOM     13  C   UNL A   1      33.421  27.501  24.785  1.00  0.00     0.071 C 
ATOM     14  N   UNL A   1      32.959  28.407  24.009  1.00  0.00    -0.174 NA
ATOM     15  C   UNL A   1      33.485  27.781  26.279  1.00  0.00     0.091 C 
ATOM     16  C   UNL A   1      33.140  29.356  26.327  1.00  0.00     0.149 C 
BRANCH  13  17
ATOM     17  C   UNL A   1      33.690  26.217  24.165  1.00  0.00    -0.002 A 
ATOM     18  C   UNL A   1      34.050  23.725  23.163  1.00  0.00     0.118 A 
ATOM     19  C   UNL A   1      34.754  24.103  24.310  1.00  0.00     0.047 A 
ATOM     20  C   UNL A   1      33.463  24.681  22.352  1.00  0.00     0.047 A 
ATOM     21  C   UNL A   1      34.483  25.322  24.878  1.00  0.00     0.014 A 
ATOM     22  C   UNL A   1      33.322  25.965  22.849  1.00  0.00     0.014 A 
BRANCH  18  23
ATOM     23  O   UNL A   1      33.513  22.465  23.177  1.00  0.00    -0.497 OA
ATOM     24  C   UNL A   1      32.149  22.328  23.474  1.00  0.00     0.278 C 
ENDBRANCH  18  23
ENDBRANCH  13  17
BRANCH  16  25
ATOM     25  C   UNL A   1      33.918  30.913  27.256  1.00  0.00    -0.004 A 
ATOM     26  C   UNL A   1      35.510  30.660  27.339  1.00  0.00     0.009 A 
ATOM     27  C   UNL A   1      33.579  32.564  27.899  1.00  0.00     0.047 A 
ATOM     28  C   UNL A   1      36.960  31.673  28.124  1.00  0.00     0.021 A 
ATOM     29  C   UNL A   1      34.791  33.647  28.660  1.00  0.00     0.041 A 
ATOM     30  Cl  UNL A   1      32.243  33.667  27.557  1.00  0.00    -0.084 Cl
ATOM     31  C   UNL A   1      36.493  33.243  28.810  1.00  0.00     0.042 A 
ATOM     32  Cl  UNL A   1      37.597  34.378  29.449  1.00  0.00    -0.084 Cl
ENDBRANCH  16  25
ENDBRANCH  10  12
ENDBRANCH   9  10
ENDBRANCH   8   9
ENDBRANCH   6   8
ENDBRANCH   5   6
ENDBRANCH   4   5
ENDBRANCH   3   4
ENDBRANCH   2   3
ENDBRANCH   1   2
BRANCH   1  33
ATOM     33  C   UNL A   1      30.560  25.638  26.228  1.00  0.00     0.188 C 
BRANCH  33  34
ATOM     34  O   UNL A   1      31.075  24.134  27.083  1.00  0.00    -0.377 OA
BRANCH  34  35
ATOM     35  C   UNL A   1      32.190  22.733  27.007  1.00  0.00     0.188 C 
BRANCH  35  36
ATOM     36  C   UNL A   1      34.106  22.403  27.374  1.00  0.00     0.188 C 
BRANCH  36  37
ATOM     37  O   UNL A   1      35.084  21.202  26.393  1.00  0.00    -0.376 OA
BRANCH  37  38
ATOM     38  C   UNL A   1      36.659  21.788  25.567  1.00  0.00     0.202 C 
BRANCH  38  39
ATOM     39  C   UNL A   1      37.975  20.144  24.855  1.00  0.00     0.261 C 
BRANCH  39  40
ATOM     40  O   UNL A   1      39.261  19.451  25.916  1.00  0.00    -0.460 OA
BRANCH  40  41
ATOM     41  C   UNL A   1      40.623  19.651  26.139  1.00  0.00     0.338 C 
ATOM     42  O   UNL A   1      41.506  18.866  25.811  1.00  0.00    -0.246 OA
BRANCH  41  43
ATOM     43  C   UNL A   1      41.075  21.068  26.599  1.00  0.00     0.060 A 
ATOM     44  C   UNL A   1      40.668  22.247  25.903  1.00  0.00     0.016 A 
ATOM     45  C   UNL A   1      41.940  21.290  27.669  1.00  0.00     0.016 A 
ATOM     46  C   UNL A   1      40.956  23.569  26.343  1.00  0.00     0.010 A 
ATOM     47  C   UNL A   1      42.349  22.616  28.028  1.00  0.00     0.010 A 
ATOM     48  C   UNL A   1      41.857  23.774  27.383  1.00  0.00    -0.014 A 
BRANCH  48  49
ATOM     49  C   UNL A   1      42.473  25.134  27.604  1.00  0.00     0.031 A 
ATOM     50  C   UNL A   1      41.740  26.127  28.436  1.00  0.00     0.074 A 
ATOM     51  C   UNL A   1      43.648  25.560  27.100  1.00  0.00     0.049 A 
ATOM     52  N   UNL A   1      42.072  27.362  28.707  1.00  0.00    -0.248 NA
ATOM     53  C   UNL A   1      40.483  25.677  29.041  1.00  0.00     0.031 C 
ATOM     54  C   UNL A   1      44.531  24.698  26.360  1.00  0.00     0.029 A 
ATOM     55  N   UNL A   1      44.304  26.792  27.097  1.00  0.00    -0.354 N 
ATOM     56  C   UNL A   1      41.060  27.849  29.503  1.00  0.00     0.074 A 
ATOM     57  C   UNL A   1      40.085  26.784  29.648  1.00  0.00     0.031 C 
ATOM     58  C   UNL A   1      45.534  25.455  25.910  1.00  0.00     0.029 A 
ATOM     59  C   UNL A   1      45.451  26.813  26.335  1.00  0.00     0.049 A 
ATOM     60  H   UNL A   1      43.976  27.576  27.595  1.00  0.00     0.167 HD
ATOM     61  C   UNL A   1      40.964  29.076  30.059  1.00  0.00     0.037 A 
ATOM     62  C   UNL A   1      46.402  27.710  25.977  1.00  0.00     0.037 A 
ATOM     63  C   UNL A   1      41.917  30.146  29.883  1.00  0.00     0.049 A 
ATOM     64  C   UNL A   1      46.272  29.056  26.581  1.00  0.00     0.074 A 
ATOM     65  C   UNL A   1      41.862  31.428  30.403  1.00  0.00     0.029 A 
ATOM     66  N   UNL A   1      43.080  30.082  29.123  1.00  0.00    -0.354 N 
ATOM     67  N   UNL A   1      45.345  29.458  27.406  1.00  0.00    -0.248 NA
ATOM     68  C   UNL A   1      47.304  30.053  26.274  1.00  0.00     0.031 C 
ATOM     69  C   UNL A   1      42.942  32.159  29.901  1.00  0.00     0.029 A 
ATOM     70  C   UNL A   1      43.721  31.317  29.129  1.00  0.00     0.049 A 
ATOM     71  H   UNL A   1      43.402  29.281  28.651  1.00  0.00     0.167 HD
ATOM     72  C   UNL A   1      45.679  30.749  27.727  1.00  0.00     0.074 A 
ATOM     73  C   UNL A   1      46.947  31.036  27.084  1.00  0.00     0.031 C 
ATOM     74  C   UNL A   1      44.961  31.622  28.466  1.00  0.00     0.037 A 
BRANCH  61  75
ATOM     75  C   UNL A   1      39.731  29.333  30.861  1.00  0.00     0.064 A 
ATOM     76  C   UNL A   1      38.460  29.385  30.268  1.00  0.00     0.173 A 
ATOM     77  C   UNL A   1      39.829  29.548  32.241  1.00  0.00     0.173 A 
ATOM     78  F   UNL A   1      38.325  29.223  28.943  1.00  0.00    -0.203 F 
ATOM     79  C   UNL A   1      37.333  29.672  31.028  1.00  0.00     0.198 A 
ATOM     80  C   UNL A   1      38.694  29.792  33.005  1.00  0.00     0.198 A 
ATOM     81  F   UNL A   1      41.024  29.525  32.848  1.00  0.00    -0.203 F 
ATOM     82  F   UNL A   1      36.138  29.787  30.433  1.00  0.00    -0.200 F 
ATOM     83  C   UNL A   1      37.450  29.863  32.398  1.00  0.00     0.200 A 
ATOM     84  F   UNL A   1      38.807  29.968  34.329  1.00  0.00    -0.200 F 
ATOM     85  F   UNL A   1      36.361  30.129  33.132  1.00  0.00    -0.200 F 
ENDBRANCH  61  75
BRANCH  62  86
ATOM     86  C   UNL A   1      47.591  27.374  25.095  1.00  0.00     0.064 A 
ATOM     87  C   UNL A   1      47.590  27.658  23.716  1.00  0.00     0.173 A 
ATOM     88  C   UNL A   1      48.770  26.794  25.601  1.00  0.00     0.173 A 
ATOM     89  F   UNL A   1      46.521  28.240  23.150  1.00  0.00    -0.203 F 
ATOM     90  C   UNL A   1      48.687  27.375  22.894  1.00  0.00     0.198 A 
ATOM     91  C   UNL A   1      49.891  26.565  24.791  1.00  0.00     0.198 A 
ATOM     92  F   UNL A   1      48.864  26.498  26.905  1.00  0.00    -0.203 F 
ATOM     93  F   UNL A   1      48.637  27.670  21.587  1.00  0.00    -0.200 F 
ATOM     94  C   UNL A   1      49.845  26.848  23.437  1.00  0.00     0.200 A 
ATOM     95  F   UNL A   1      51.024  26.098  25.332  1.00  0.00    -0.200 F 
ATOM     96  F   UNL A   1      50.922  26.648  22.664  1.00  0.00    -0.200 F 
ENDBRANCH  62  86
BRANCH  74  97
ATOM     97  C   UNL A   1      45.554  32.985  28.585  1.00  0.00     0.064 A 
ATOM     98  C   UNL A   1      45.256  33.994  27.652  1.00  0.00     0.173 A 
ATOM     99  C   UNL A   1      46.485  33.262  29.591  1.00  0.00     0.173 A 
ATOM    100  F   UNL A   1      44.402  33.755  26.645  1.00  0.00    -0.203 F 
ATOM    101  C   UNL A   1      45.916  35.215  27.695  1.00  0.00     0.198 A 
ATOM    102  C   UNL A   1      47.106  34.503  29.659  1.00  0.00     0.198 A 
ATOM    103  F   UNL A   1      46.813  32.320  30.488  1.00  0.00    -0.203 F 
ATOM    104  F   UNL A   1      45.698  36.124  26.734  1.00  0.00    -0.200 F 
ATOM    105  C   UNL A   1      46.833  35.470  28.703  1.00  0.00     0.200 A 
ATOM    106  F   UNL A   1      47.989  34.752  30.634  1.00  0.00    -0.200 F 
ATOM    107  F   UNL A   1      47.474  36.646  28.739  1.00  0.00    -0.200 F 
ENDBRANCH  74  97
ENDBRANCH  48  49
ENDBRANCH  41  43
ENDBRANCH  40  41
ENDBRANCH  39  40
ENDBRANCH  38  39
ENDBRANCH  37  38
ENDBRANCH  36  37
ENDBRANCH  35  36
ENDBRANCH  34  35
ENDBRANCH  33  34
ENDBRANCH   1  33
TORSDOF 26
ENDMDL
MODEL 3
REMARK VINA RESULT:     -12.2      1.832      7.268
REMARK SMILES COc1ccc(C2=NN(C(=O)CCC(=O)OCCOCCOCCOCCOC(=O)c3ccc(-c4c5nc(c(-c6c(F)c(F)c(F)c(F)c6F)c6ccc([nH]6)c(-c6c(F)c(F)c(F)c(F)c6F)c6nc(c(-c7c(F)c(F)c(F)c(F)c7F)c7ccc4[nH]7)C=C6)C=C5)cc3)[C@H](c3ccc(Cl)cc3Cl)C2)cc1
REMARK SMILES IDX 20 1 19 2 18 3 17 4 16 5 14 6 15 7 13 8 12 9 10 10 11 11
REMARK SMILES IDX 9 12 7 13 8 14 103 15 94 16 6 17 3 18 4 19 105 20 5 21
REMARK SMILES IDX 104 22 2 23 1 24 95 25 96 26 101 27 97 28 100 29 102 30
REMARK SMILES IDX 98 31 99 32 21 33 22 34 23 35 24 36 25 37 26 38 27 39 28 40
REMARK SMILES IDX 29 41 30 42 31 43 32 44 93 45 33 46 92 47 34 48 35 49 36 50
REMARK SMILES IDX 86 51 37 52 91 53 85 54 87 55 38 56 90 57 84 58 83 59 39 61
REMARK SMILES IDX 71 62 51 63 70 64 52 65 55 66 69 67 88 68 53 69 54 70 68 72
REMARK SMILES IDX 89 73 56 74 40 75 41 76 49 77 42 78 43 79 47 80 50 81 44 82
REMARK SMILES IDX 45 83 48 84 46 85 72 86 73 87 81 88 74 89 75 90 79 91 82 92
REMARK SMILES IDX 76 93 77 94 80 95 78 96 57 97 58 98 66 99 59 100 60 101
REMARK SMILES IDX 64 102 67 103 61 104 62 105 65 106 63 107
REMARK H PARENT 87 60 55 71
REMARK Flexibility Score: inf
ROOT
ATOM      1  C   UNL A   1      29.651  26.389  24.399  1.00  0.00     0.188 C 
ENDROOT
BRANCH   1   2
ATOM      2  O   UNL A   1      28.156  26.519  23.787  1.00  0.00    -0.376 OA
BRANCH   2   3
ATOM      3  C   UNL A   1      27.193  27.720  23.847  1.00  0.00     0.202 C 
BRANCH   3   4
ATOM      4  C   UNL A   1      27.277  28.942  22.836  1.00  0.00     0.261 C 
BRANCH   4   5
ATOM      5  O   UNL A   1      27.246  30.215  23.495  1.00  0.00    -0.463 OA
BRANCH   5   6
ATOM      6  C   UNL A   1      28.013  31.123  22.860  1.00  0.00     0.306 C 
ATOM      7  O   UNL A   1      27.776  31.524  21.726  1.00  0.00    -0.252 OA
BRANCH   6   8
ATOM      8  C   UNL A   1      29.163  31.682  23.666  1.00  0.00     0.132 C 
BRANCH   8   9
ATOM      9  C   UNL A   1      30.088  30.898  24.607  1.00  0.00     0.114 C 
BRANCH   9  10
ATOM     10  C   UNL A   1      31.052  29.799  24.135  1.00  0.00     0.243 C 
ATOM     11  O   UNL A   1      30.717  29.343  23.020  1.00  0.00    -0.273 OA
BRANCH  10  12
ATOM     12  N   UNL A   1      32.257  29.349  24.760  1.00  0.00    -0.225 N 
ATOM     13  C   UNL A   1      33.254  27.470  24.564  1.00  0.00     0.071 C 
ATOM     14  N   UNL A   1      32.821  28.473  23.900  1.00  0.00    -0.174 NA
ATOM     15  C   UNL A   1      33.404  27.600  26.073  1.00  0.00     0.091 C 
ATOM     16  C   UNL A   1      33.173  29.183  26.283  1.00  0.00     0.149 C 
BRANCH  13  17
ATOM     17  C   UNL A   1      33.405  26.235  23.816  1.00  0.00    -0.002 A 
ATOM     18  C   UNL A   1      33.554  23.830  22.579  1.00  0.00     0.118 A 
ATOM     19  C   UNL A   1      34.381  24.079  23.679  1.00  0.00     0.047 A 
ATOM     20  C   UNL A   1      32.937  24.874  21.913  1.00  0.00     0.047 A 
ATOM     21  C   UNL A   1      34.220  25.252  24.370  1.00  0.00     0.014 A 
ATOM     22  C   UNL A   1      32.902  26.113  22.527  1.00  0.00     0.014 A 
BRANCH  18  23
ATOM     23  O   UNL A   1      32.965  22.593  22.540  1.00  0.00    -0.497 OA
ATOM     24  C   UNL A   1      31.701  22.442  23.132  1.00  0.00     0.278 C 
ENDBRANCH  18  23
ENDBRANCH  13  17
BRANCH  16  25
ATOM     25  C   UNL A   1      34.099  30.591  27.310  1.00  0.00    -0.004 A 
ATOM     26  C   UNL A   1      35.637  30.125  27.459  1.00  0.00     0.009 A 
ATOM     27  C   UNL A   1      33.947  32.249  28.003  1.00  0.00     0.047 A 
ATOM     28  C   UNL A   1      37.164  30.909  28.352  1.00  0.00     0.021 A 
ATOM     29  C   UNL A   1      35.249  33.135  28.863  1.00  0.00     0.041 A 
ATOM     30  Cl  UNL A   1      32.787  33.531  27.642  1.00  0.00    -0.084 Cl
ATOM     31  C   UNL A   1      36.873  32.503  29.077  1.00  0.00     0.042 A 
ATOM     32  Cl  UNL A   1      38.081  33.458  29.814  1.00  0.00    -0.084 Cl
ENDBRANCH  16  25
ENDBRANCH  10  12
ENDBRANCH   9  10
ENDBRANCH   8   9
ENDBRANCH   6   8
ENDBRANCH   5   6
ENDBRANCH   4   5
ENDBRANCH   3   4
ENDBRANCH   2   3
ENDBRANCH   1   2
BRANCH   1  33
ATOM     33  C   UNL A   1      30.354  25.852  26.152  1.00  0.00     0.188 C 
BRANCH  33  34
ATOM     34  O   UNL A   1      30.788  24.235  26.826  1.00  0.00    -0.377 OA
BRANCH  34  35
ATOM     35  C   UNL A   1      32.023  22.936  26.795  1.00  0.00     0.188 C 
BRANCH  35  36
ATOM     36  C   UNL A   1      33.936  22.764  27.269  1.00  0.00     0.188 C 
BRANCH  36  37
ATOM     37  O   UNL A   1      35.064  21.653  26.343  1.00  0.00    -0.376 OA
BRANCH  37  38
ATOM     38  C   UNL A   1      36.706  22.329  25.752  1.00  0.00     0.202 C 
BRANCH  38  39
ATOM     39  C   UNL A   1      38.224  20.767  25.312  1.00  0.00     0.261 C 
BRANCH  39  40
ATOM     40  O   UNL A   1      39.706  20.592  26.328  1.00  0.00    -0.460 OA
BRANCH  40  41
ATOM     41  C   UNL A   1      41.065  20.354  26.126  1.00  0.00     0.338 C 
ATOM     42  O   UNL A   1      41.525  19.350  25.593  1.00  0.00    -0.246 OA
BRANCH  41  43
ATOM     43  C   UNL A   1      42.044  21.542  26.354  1.00  0.00     0.060 A 
ATOM     44  C   UNL A   1      42.733  21.718  27.593  1.00  0.00     0.016 A 
ATOM     45  C   UNL A   1      42.277  22.539  25.409  1.00  0.00     0.016 A 
ATOM     46  C   UNL A   1      43.721  22.716  27.818  1.00  0.00     0.010 A 
ATOM     47  C   UNL A   1      43.165  23.629  25.686  1.00  0.00     0.010 A 
ATOM     48  C   UNL A   1      43.910  23.730  26.884  1.00  0.00    -0.014 A 
BRANCH  48  49
ATOM     49  C   UNL A   1      44.646  24.992  27.264  1.00  0.00     0.031 A 
ATOM     50  C   UNL A   1      44.008  25.933  28.225  1.00  0.00     0.074 A 
ATOM     51  C   UNL A   1      45.853  25.371  26.800  1.00  0.00     0.049 A 
ATOM     52  N   UNL A   1      44.451  27.089  28.643  1.00  0.00    -0.248 NA
ATOM     53  C   UNL A   1      42.718  25.523  28.787  1.00  0.00     0.031 C 
ATOM     54  C   UNL A   1      46.652  24.535  25.945  1.00  0.00     0.029 A 
ATOM     55  N   UNL A   1      46.617  26.531  26.941  1.00  0.00    -0.354 N 
ATOM     56  C   UNL A   1      43.490  27.560  29.509  1.00  0.00     0.074 A 
ATOM     57  C   UNL A   1      42.423  26.575  29.534  1.00  0.00     0.031 C 
ATOM     58  C   UNL A   1      47.717  25.251  25.578  1.00  0.00     0.029 A 
ATOM     59  C   UNL A   1      47.759  26.546  26.171  1.00  0.00     0.049 A 
ATOM     60  H   UNL A   1      46.362  27.273  27.539  1.00  0.00     0.167 HD
ATOM     61  C   UNL A   1      43.507  28.711  30.215  1.00  0.00     0.037 A 
ATOM     62  C   UNL A   1      48.785  27.394  25.913  1.00  0.00     0.037 A 
ATOM     63  C   UNL A   1      44.551  29.705  30.161  1.00  0.00     0.049 A 
ATOM     64  C   UNL A   1      48.779  28.659  26.683  1.00  0.00     0.074 A 
ATOM     65  C   UNL A   1      44.614  30.911  30.838  1.00  0.00     0.029 A 
ATOM     66  N   UNL A   1      45.701  29.635  29.381  1.00  0.00    -0.354 N 
ATOM     67  N   UNL A   1      47.894  29.035  27.566  1.00  0.00    -0.248 NA
ATOM     68  C   UNL A   1      49.894  29.591  26.488  1.00  0.00     0.031 C 
ATOM     69  C   UNL A   1      45.753  31.602  30.415  1.00  0.00     0.029 A 
ATOM     70  C   UNL A   1      46.450  30.798  29.533  1.00  0.00     0.049 A 
ATOM     71  H   UNL A   1      45.948  28.874  28.808  1.00  0.00     0.167 HD
ATOM     72  C   UNL A   1      48.344  30.239  28.042  1.00  0.00     0.074 A 
ATOM     73  C   UNL A   1      49.630  30.492  27.421  1.00  0.00     0.031 C 
ATOM     74  C   UNL A   1      47.710  31.073  28.894  1.00  0.00     0.037 A 
BRANCH  61  75
ATOM     75  C   UNL A   1      42.304  28.972  31.062  1.00  0.00     0.064 A 
ATOM     76  C   UNL A   1      42.224  28.531  32.391  1.00  0.00     0.173 A 
ATOM     77  C   UNL A   1      41.208  29.659  30.523  1.00  0.00     0.173 A 
ATOM     78  F   UNL A   1      43.235  27.835  32.935  1.00  0.00    -0.203 F 
ATOM     79  C   UNL A   1      41.075  28.745  33.143  1.00  0.00     0.198 A 
ATOM     80  C   UNL A   1      40.078  29.909  31.292  1.00  0.00     0.198 A 
ATOM     81  F   UNL A   1      41.233  30.084  29.251  1.00  0.00    -0.203 F 
ATOM     82  F   UNL A   1      40.990  28.256  34.387  1.00  0.00    -0.200 F 
ATOM     83  C   UNL A   1      40.009  29.445  32.596  1.00  0.00     0.200 A 
ATOM     84  F   UNL A   1      39.053  30.592  30.765  1.00  0.00    -0.200 F 
ATOM     85  F   UNL A   1      38.906  29.661  33.326  1.00  0.00    -0.200 F 
ENDBRANCH  61  75
BRANCH  62  86
ATOM     86  C   UNL A   1      49.935  27.068  24.978  1.00  0.00     0.064 A 
ATOM     87  C   UNL A   1      49.850  27.303  23.593  1.00  0.00     0.173 A 
ATOM     88  C   UNL A   1      51.159  26.545  25.438  1.00  0.00     0.173 A 
ATOM     89  F   UNL A   1      48.732  27.829  23.069  1.00  0.00    -0.203 F 
ATOM     90  C   UNL A   1      50.910  27.029  22.722  1.00  0.00     0.198 A 
ATOM     91  C   UNL A   1      52.242  26.326  24.575  1.00  0.00     0.198 A 
ATOM     92  F   UNL A   1      51.334  26.298  26.744  1.00  0.00    -0.203 F 
ATOM     93  F   UNL A   1      50.779  27.277  21.411  1.00  0.00    -0.200 F 
ATOM     94  C   UNL A   1      52.114  26.560  23.217  1.00  0.00     0.200 A 
ATOM     95  F   UNL A   1      53.419  25.917  25.068  1.00  0.00    -0.200 F 
ATOM     96  F   UNL A   1      53.154  26.371  22.392  1.00  0.00    -0.200 F 
ENDBRANCH  62  86
BRANCH  74  97
ATOM     97  C   UNL A   1      48.423  32.352  29.174  1.00  0.00     0.064 A 
ATOM     98  C   UNL A   1      48.257  33.476  28.347  1.00  0.00     0.173 A 
ATOM     99  C   UNL A   1      49.338  32.431  30.229  1.00  0.00     0.173 A 
ATOM    100  F   UNL A   1      47.421  33.427  27.297  1.00  0.00    -0.203 F 
ATOM    101  C   UNL A   1      49.026  34.616  28.537  1.00  0.00     0.198 A 
ATOM    102  C   UNL A   1      50.070  33.592  30.446  1.00  0.00     0.198 A 
ATOM    103  F   UNL A   1      49.543  31.374  31.029  1.00  0.00    -0.203 F 
ATOM    104  F   UNL A   1      48.930  35.636  27.674  1.00  0.00    -0.200 F 
ATOM    105  C   UNL A   1      49.925  34.675  29.591  1.00  0.00     0.200 A 
ATOM    106  F   UNL A   1      50.936  33.651  31.466  1.00  0.00    -0.200 F 
ATOM    107  F   UNL A   1      50.672  35.773  29.770  1.00  0.00    -0.200 F 
ENDBRANCH  74  97
ENDBRANCH  48  49
ENDBRANCH  41  43
ENDBRANCH  40  41
ENDBRANCH  39  40
ENDBRANCH  38  39
ENDBRANCH  37  38
ENDBRANCH  36  37
ENDBRANCH  35  36
ENDBRANCH  34  35
ENDBRANCH  33  34
ENDBRANCH   1  33
TORSDOF 26
ENDMDL
