MODEL 1
REMARK VINA RESULT:      -9.5      0.000      0.000
REMARK SMILES CC[C@@H](Oc1ccc(/C=C2\SC(=S)N(NC(=O)c3ccccc3O)C2=O)cc1)C(=O)OCCOCCOCCOCCOC(=O)c1ccc(-c2c3nc(c(-c4c(F)c(F)c(F)c(F)c4F)c4ccc([nH]4)c(-c4c(F)c(F)c(F)c(F)c4F)c4nc(c(-c5c(F)c(F)c(F)c(F)c5F)c5ccc2[nH]5)C=C4)C=C3)cc1
REMARK SMILES IDX 35 1 34 2 33 3 32 4 31 5 29 6 30 7 3 8 2 9 1 10 4 11 5 12
REMARK SMILES IDX 6 13 28 14 7 15 27 16 8 17 9 18 10 19 11 20 25 21 12 22
REMARK SMILES IDX 14 23 26 24 13 25 15 26 16 27 17 29 18 30 19 31 23 32 20 33
REMARK SMILES IDX 22 34 21 35 24 36 36 38 37 39 38 40 39 41 40 42 41 43 42 44
REMARK SMILES IDX 43 45 44 46 45 47 46 48 47 49 108 50 48 51 107 52 49 53
REMARK SMILES IDX 50 54 51 55 101 56 52 57 106 58 100 59 102 60 53 61 105 62
REMARK SMILES IDX 99 63 98 64 54 66 86 67 66 68 85 69 67 70 70 71 84 72 103 73
REMARK SMILES IDX 68 74 69 75 83 77 104 78 71 79 55 80 56 81 64 82 57 83 58 84
REMARK SMILES IDX 62 85 65 86 59 87 60 88 63 89 61 90 87 91 88 92 96 93 89 94
REMARK SMILES IDX 90 95 94 96 97 97 91 98 92 99 95 100 93 101 72 102 73 103
REMARK SMILES IDX 81 104 74 105 75 106 79 107 82 108 76 109 77 110 80 111
REMARK SMILES IDX 78 112
REMARK H PARENT 15 28 24 37 102 65 70 76
REMARK Flexibility Score: inf
ROOT
ATOM      1  C   UNL A   1      35.162  21.517  25.395  1.00  0.00     0.188 C 
ENDROOT
BRANCH   1   2
ATOM      2  O   UNL A   1      35.047  21.502  26.810  1.00  0.00    -0.376 OA
BRANCH   2   3
ATOM      3  C   UNL A   1      33.802  21.782  27.444  1.00  0.00     0.202 C 
BRANCH   3   4
ATOM      4  C   UNL A   1      32.933  22.971  27.007  1.00  0.00     0.261 C 
BRANCH   4   5
ATOM      5  O   UNL A   1      31.548  22.665  26.767  1.00  0.00    -0.461 OA
BRANCH   5   6
ATOM      6  C   UNL A   1      30.744  23.722  26.487  1.00  0.00     0.347 C 
ATOM      7  O   UNL A   1      29.733  24.008  27.125  1.00  0.00    -0.248 OA
BRANCH   6   8
ATOM      8  C   UNL A   1      31.162  24.516  25.254  1.00  0.00     0.282 C 
BRANCH   8   9
ATOM      9  C   UNL A   1      30.781  23.970  23.865  1.00  0.00     0.054 C 
ATOM     10  C   UNL A   1      31.984  23.320  23.172  1.00  0.00     0.008 C 
ENDBRANCH   8   9
BRANCH   8  11
ATOM     11  O   UNL A   1      30.565  25.808  25.471  1.00  0.00    -0.479 OA
BRANCH  11  12
ATOM     12  C   UNL A   1      31.532  26.724  25.762  1.00  0.00     0.120 A 
ATOM     13  C   UNL A   1      32.591  26.913  24.882  1.00  0.00     0.047 A 
ATOM     14  C   UNL A   1      31.453  27.442  26.946  1.00  0.00     0.047 A 
ATOM     15  C   UNL A   1      33.612  27.795  25.234  1.00  0.00     0.012 A 
ATOM     16  C   UNL A   1      32.407  28.398  27.233  1.00  0.00     0.012 A 
ATOM     17  C   UNL A   1      33.556  28.493  26.450  1.00  0.00    -0.024 A 
BRANCH  17  18
ATOM     18  C   UNL A   1      34.740  29.225  26.910  1.00  0.00     0.029 C 
ATOM     19  C   UNL A   1      34.738  30.414  27.534  1.00  0.00     0.082 C 
ATOM     20  S   UNL A   1      33.441  31.511  27.844  1.00  0.00    -0.052 SA
ATOM     21  C   UNL A   1      35.998  31.026  28.018  1.00  0.00     0.285 C 
ATOM     22  C   UNL A   1      34.530  32.875  27.975  1.00  0.00     0.168 C 
ATOM     23  N   UNL A   1      35.827  32.402  28.024  1.00  0.00    -0.198 N 
ATOM     24  O   UNL A   1      36.963  30.377  28.394  1.00  0.00    -0.266 OA
ATOM     25  S   UNL A   1      34.016  34.459  28.048  1.00  0.00    -0.050 S 
BRANCH  23  26
ATOM     26  N   UNL A   1      36.890  33.281  28.251  1.00  0.00    -0.254 N 
ATOM     27  C   UNL A   1      37.379  33.680  29.475  1.00  0.00     0.274 C 
ATOM     28  H   UNL A   1      37.334  33.653  27.454  1.00  0.00     0.192 HD
ATOM     29  O   UNL A   1      38.384  34.384  29.532  1.00  0.00    -0.267 OA
BRANCH  27  30
ATOM     30  C   UNL A   1      36.696  33.318  30.733  1.00  0.00     0.083 A 
ATOM     31  C   UNL A   1      35.772  34.253  31.223  1.00  0.00     0.018 A 
ATOM     32  C   UNL A   1      36.869  32.099  31.394  1.00  0.00     0.128 A 
ATOM     33  C   UNL A   1      34.994  33.948  32.339  1.00  0.00     0.001 A 
ATOM     34  C   UNL A   1      36.086  31.795  32.509  1.00  0.00     0.047 A 
ATOM     35  C   UNL A   1      35.146  32.717  32.978  1.00  0.00     0.004 A 
BRANCH  32  36
ATOM     36  O   UNL A   1      37.759  31.143  30.992  1.00  0.00    -0.507 OA
ATOM     37  H   UNL A   1      37.460  30.278  30.797  1.00  0.00     0.293 HD
ENDBRANCH  32  36
ENDBRANCH  27  30
ENDBRANCH  23  26
ENDBRANCH  17  18
ENDBRANCH  11  12
ENDBRANCH   8  11
ENDBRANCH   6   8
ENDBRANCH   5   6
ENDBRANCH   4   5
ENDBRANCH   3   4
ENDBRANCH   2   3
ENDBRANCH   1   2
BRANCH   1  38
ATOM     38  C   UNL A   1      36.541  21.646  24.741  1.00  0.00     0.188 C 
BRANCH  38  39
ATOM     39  O   UNL A   1      37.152  22.907  24.935  1.00  0.00    -0.377 OA
BRANCH  39  40
ATOM     40  C   UNL A   1      38.180  23.011  25.913  1.00  0.00     0.188 C 
BRANCH  40  41
ATOM     41  C   UNL A   1      39.075  21.784  26.141  1.00  0.00     0.188 C 
BRANCH  41  42
ATOM     42  O   UNL A   1      40.129  22.020  27.068  1.00  0.00    -0.376 OA
BRANCH  42  43
ATOM     43  C   UNL A   1      40.333  23.355  27.519  1.00  0.00     0.202 C 
BRANCH  43  44
ATOM     44  C   UNL A   1      41.738  23.703  28.038  1.00  0.00     0.261 C 
BRANCH  44  45
ATOM     45  O   UNL A   1      41.872  24.960  28.730  1.00  0.00    -0.460 OA
BRANCH  45  46
ATOM     46  C   UNL A   1      42.730  25.876  28.249  1.00  0.00     0.338 C 
ATOM     47  O   UNL A   1      43.406  25.802  27.231  1.00  0.00    -0.246 OA
BRANCH  46  48
ATOM     48  C   UNL A   1      42.591  27.102  29.056  1.00  0.00     0.060 A 
ATOM     49  C   UNL A   1      41.708  28.099  28.619  1.00  0.00     0.016 A 
ATOM     50  C   UNL A   1      43.350  27.284  30.214  1.00  0.00     0.016 A 
ATOM     51  C   UNL A   1      41.621  29.306  29.312  1.00  0.00     0.010 A 
ATOM     52  C   UNL A   1      43.276  28.502  30.897  1.00  0.00     0.010 A 
ATOM     53  C   UNL A   1      42.442  29.531  30.425  1.00  0.00    -0.014 A 
BRANCH  53  54
ATOM     54  C   UNL A   1      42.587  30.906  30.960  1.00  0.00     0.031 A 
ATOM     55  C   UNL A   1      43.653  31.790  30.372  1.00  0.00     0.074 A 
ATOM     56  C   UNL A   1      41.782  31.372  31.930  1.00  0.00     0.049 A 
ATOM     57  N   UNL A   1      44.004  33.006  30.702  1.00  0.00    -0.248 NA
ATOM     58  C   UNL A   1      44.429  31.220  29.258  1.00  0.00     0.031 C 
ATOM     59  C   UNL A   1      40.688  30.630  32.549  1.00  0.00     0.029 A 
ATOM     60  N   UNL A   1      41.771  32.588  32.568  1.00  0.00    -0.354 N 
ATOM     61  C   UNL A   1      45.040  33.344  29.840  1.00  0.00     0.074 A 
ATOM     62  C   UNL A   1      45.285  32.195  28.996  1.00  0.00     0.031 C 
ATOM     63  C   UNL A   1      40.120  31.401  33.494  1.00  0.00     0.029 A 
ATOM     64  C   UNL A   1      40.832  32.677  33.564  1.00  0.00     0.049 A 
ATOM     65  H   UNL A   1      42.381  33.325  32.333  1.00  0.00     0.167 HD
ATOM     66  C   UNL A   1      45.719  34.512  29.752  1.00  0.00     0.037 A 
ATOM     67  C   UNL A   1      40.594  33.668  34.447  1.00  0.00     0.037 A 
ATOM     68  C   UNL A   1      45.480  35.652  30.597  1.00  0.00     0.049 A 
ATOM     69  C   UNL A   1      41.418  34.930  34.383  1.00  0.00     0.074 A 
ATOM     70  C   UNL A   1      46.111  36.883  30.584  1.00  0.00     0.029 A 
ATOM     71  N   UNL A   1      44.540  35.693  31.616  1.00  0.00    -0.354 N 
ATOM     72  N   UNL A   1      42.381  35.253  33.552  1.00  0.00    -0.248 NA
ATOM     73  C   UNL A   1      41.119  35.969  35.379  1.00  0.00     0.031 C 
ATOM     74  C   UNL A   1      45.589  37.652  31.630  1.00  0.00     0.029 A 
ATOM     75  C   UNL A   1      44.591  36.922  32.256  1.00  0.00     0.049 A 
ATOM     76  H   UNL A   1      43.926  34.960  31.849  1.00  0.00     0.167 HD
ATOM     77  C   UNL A   1      42.779  36.536  33.905  1.00  0.00     0.074 A 
ATOM     78  C   UNL A   1      41.946  36.940  35.018  1.00  0.00     0.031 C 
ATOM     79  C   UNL A   1      43.747  37.312  33.356  1.00  0.00     0.037 A 
BRANCH  66  80
ATOM     80  C   UNL A   1      46.806  34.602  28.722  1.00  0.00     0.064 A 
ATOM     81  C   UNL A   1      46.521  34.825  27.366  1.00  0.00     0.173 A 
ATOM     82  C   UNL A   1      48.152  34.485  29.098  1.00  0.00     0.173 A 
ATOM     83  F   UNL A   1      45.249  34.925  26.951  1.00  0.00    -0.203 F 
ATOM     84  C   UNL A   1      47.542  34.898  26.422  1.00  0.00     0.198 A 
ATOM     85  C   UNL A   1      49.172  34.590  28.156  1.00  0.00     0.198 A 
ATOM     86  F   UNL A   1      48.480  34.273  30.381  1.00  0.00    -0.203 F 
ATOM     87  F   UNL A   1      47.243  35.059  25.125  1.00  0.00    -0.200 F 
ATOM     88  C   UNL A   1      48.866  34.788  26.819  1.00  0.00     0.200 A 
ATOM     89  F   UNL A   1      50.452  34.495  28.542  1.00  0.00    -0.200 F 
ATOM     90  F   UNL A   1      49.848  34.864  25.910  1.00  0.00    -0.200 F 
ENDBRANCH  66  80
BRANCH  67  91
ATOM     91  C   UNL A   1      39.540  33.504  35.481  1.00  0.00     0.064 A 
ATOM     92  C   UNL A   1      38.193  33.763  35.194  1.00  0.00     0.173 A 
ATOM     93  C   UNL A   1      39.862  33.110  36.788  1.00  0.00     0.173 A 
ATOM     94  F   UNL A   1      37.837  34.171  33.967  1.00  0.00    -0.203 F 
ATOM     95  C   UNL A   1      37.212  33.653  36.177  1.00  0.00     0.198 A 
ATOM     96  C   UNL A   1      38.877  32.971  37.764  1.00  0.00     0.198 A 
ATOM     97  F   UNL A   1      41.137  32.855  37.118  1.00  0.00    -0.203 F 
ATOM     98  F   UNL A   1      35.939  33.955  35.888  1.00  0.00    -0.200 F 
ATOM     99  C   UNL A   1      37.554  33.250  37.460  1.00  0.00     0.200 A 
ATOM    100  F   UNL A   1      39.211  32.572  38.999  1.00  0.00    -0.200 F 
ATOM    101  F   UNL A   1      36.609  33.143  38.405  1.00  0.00    -0.200 F 
ENDBRANCH  67  91
BRANCH  79 102
ATOM    102  C   UNL A   1      43.934  38.692  33.922  1.00  0.00     0.064 A 
ATOM    103  C   UNL A   1      44.627  38.912  35.121  1.00  0.00     0.173 A 
ATOM    104  C   UNL A   1      43.454  39.813  33.226  1.00  0.00     0.173 A 
ATOM    105  F   UNL A   1      45.096  37.875  35.831  1.00  0.00    -0.203 F 
ATOM    106  C   UNL A   1      44.811  40.201  35.616  1.00  0.00     0.198 A 
ATOM    107  C   UNL A   1      43.668  41.102  33.707  1.00  0.00     0.198 A 
ATOM    108  F   UNL A   1      42.793  39.658  32.069  1.00  0.00    -0.203 F 
ATOM    109  F   UNL A   1      45.434  40.385  36.787  1.00  0.00    -0.200 F 
ATOM    110  C   UNL A   1      44.338  41.294  34.904  1.00  0.00     0.200 A 
ATOM    111  F   UNL A   1      43.225  42.158  33.009  1.00  0.00    -0.200 F 
ATOM    112  F   UNL A   1      44.524  42.535  35.377  1.00  0.00    -0.200 F 
ENDBRANCH  79 102
ENDBRANCH  53  54
ENDBRANCH  46  48
ENDBRANCH  45  46
ENDBRANCH  44  45
ENDBRANCH  43  44
ENDBRANCH  42  43
ENDBRANCH  41  42
ENDBRANCH  40  41
ENDBRANCH  39  40
ENDBRANCH  38  39
ENDBRANCH   1  38
TORSDOF 27
ENDMDL
MODEL 2
REMARK VINA RESULT:      -9.0      4.592      9.425
REMARK SMILES CC[C@@H](Oc1ccc(/C=C2\SC(=S)N(NC(=O)c3ccccc3O)C2=O)cc1)C(=O)OCCOCCOCCOCCOC(=O)c1ccc(-c2c3nc(c(-c4c(F)c(F)c(F)c(F)c4F)c4ccc([nH]4)c(-c4c(F)c(F)c(F)c(F)c4F)c4nc(c(-c5c(F)c(F)c(F)c(F)c5F)c5ccc2[nH]5)C=C4)C=C3)cc1
REMARK SMILES IDX 35 1 34 2 33 3 32 4 31 5 29 6 30 7 3 8 2 9 1 10 4 11 5 12
REMARK SMILES IDX 6 13 28 14 7 15 27 16 8 17 9 18 10 19 11 20 25 21 12 22
REMARK SMILES IDX 14 23 26 24 13 25 15 26 16 27 17 29 18 30 19 31 23 32 20 33
REMARK SMILES IDX 22 34 21 35 24 36 36 38 37 39 38 40 39 41 40 42 41 43 42 44
REMARK SMILES IDX 43 45 44 46 45 47 46 48 47 49 108 50 48 51 107 52 49 53
REMARK SMILES IDX 50 54 51 55 101 56 52 57 106 58 100 59 102 60 53 61 105 62
REMARK SMILES IDX 99 63 98 64 54 66 86 67 66 68 85 69 67 70 70 71 84 72 103 73
REMARK SMILES IDX 68 74 69 75 83 77 104 78 71 79 55 80 56 81 64 82 57 83 58 84
REMARK SMILES IDX 62 85 65 86 59 87 60 88 63 89 61 90 87 91 88 92 96 93 89 94
REMARK SMILES IDX 90 95 94 96 97 97 91 98 92 99 95 100 93 101 72 102 73 103
REMARK SMILES IDX 81 104 74 105 75 106 79 107 82 108 76 109 77 110 80 111
REMARK SMILES IDX 78 112
REMARK H PARENT 15 28 24 37 102 65 70 76
REMARK Flexibility Score: inf
ROOT
ATOM      1  C   UNL A   1      42.117  28.370  30.835  1.00  0.00     0.188 C 
ENDROOT
BRANCH   1   2
ATOM      2  O   UNL A   1      42.738  29.607  30.519  1.00  0.00    -0.376 OA
BRANCH   2   3
ATOM      3  C   UNL A   1      42.014  30.831  30.605  1.00  0.00     0.202 C 
BRANCH   3   4
ATOM      4  C   UNL A   1      40.670  31.015  29.885  1.00  0.00     0.261 C 
BRANCH   4   5
ATOM      5  O   UNL A   1      39.506  30.648  30.648  1.00  0.00    -0.461 OA
BRANCH   5   6
ATOM      6  C   UNL A   1      38.615  31.641  30.889  1.00  0.00     0.347 C 
ATOM      7  O   UNL A   1      38.836  32.832  30.683  1.00  0.00    -0.248 OA
BRANCH   6   8
ATOM      8  C   UNL A   1      37.305  31.167  31.511  1.00  0.00     0.282 C 
BRANCH   8   9
ATOM      9  C   UNL A   1      37.169  31.188  33.044  1.00  0.00     0.054 C 
ATOM     10  C   UNL A   1      37.966  30.049  33.691  1.00  0.00     0.008 C 
ENDBRANCH   8   9
BRANCH   8  11
ATOM     11  O   UNL A   1      36.318  32.023  30.904  1.00  0.00    -0.479 OA
BRANCH  11  12
ATOM     12  C   UNL A   1      35.782  31.411  29.810  1.00  0.00     0.120 A 
ATOM     13  C   UNL A   1      36.180  30.122  29.476  1.00  0.00     0.047 A 
ATOM     14  C   UNL A   1      34.858  32.095  29.034  1.00  0.00     0.047 A 
ATOM     15  C   UNL A   1      35.682  29.542  28.309  1.00  0.00     0.012 A 
ATOM     16  C   UNL A   1      34.281  31.470  27.946  1.00  0.00     0.012 A 
ATOM     17  C   UNL A   1      34.778  30.247  27.500  1.00  0.00    -0.024 A 
BRANCH  17  18
ATOM     18  C   UNL A   1      34.452  29.726  26.169  1.00  0.00     0.029 C 
ATOM     19  C   UNL A   1      33.329  29.073  25.830  1.00  0.00     0.082 C 
ATOM     20  S   UNL A   1      32.029  28.503  26.814  1.00  0.00    -0.052 SA
ATOM     21  C   UNL A   1      33.079  28.655  24.431  1.00  0.00     0.285 C 
ATOM     22  C   UNL A   1      31.572  27.292  25.635  1.00  0.00     0.168 C 
ATOM     23  N   UNL A   1      32.259  27.537  24.462  1.00  0.00    -0.198 N 
ATOM     24  O   UNL A   1      33.496  29.267  23.459  1.00  0.00    -0.266 OA
ATOM     25  S   UNL A   1      30.466  26.083  25.939  1.00  0.00    -0.050 S 
BRANCH  23  26
ATOM     26  N   UNL A   1      31.987  26.785  23.316  1.00  0.00    -0.254 N 
ATOM     27  C   UNL A   1      31.033  27.058  22.361  1.00  0.00     0.274 C 
ATOM     28  H   UNL A   1      32.533  25.976  23.177  1.00  0.00     0.192 HD
ATOM     29  O   UNL A   1      30.964  26.364  21.349  1.00  0.00    -0.267 OA
BRANCH  27  30
ATOM     30  C   UNL A   1      30.051  28.145  22.542  1.00  0.00     0.083 A 
ATOM     31  C   UNL A   1      28.838  27.786  23.147  1.00  0.00     0.018 A 
ATOM     32  C   UNL A   1      30.296  29.483  22.216  1.00  0.00     0.128 A 
ATOM     33  C   UNL A   1      27.898  28.765  23.465  1.00  0.00     0.001 A 
ATOM     34  C   UNL A   1      29.355  30.461  22.539  1.00  0.00     0.047 A 
ATOM     35  C   UNL A   1      28.159  30.103  23.167  1.00  0.00     0.004 A 
BRANCH  32  36
ATOM     36  O   UNL A   1      31.444  29.912  21.611  1.00  0.00    -0.507 OA
ATOM     37  H   UNL A   1      32.147  30.251  22.128  1.00  0.00     0.293 HD
ENDBRANCH  32  36
ENDBRANCH  27  30
ENDBRANCH  23  26
ENDBRANCH  17  18
ENDBRANCH  11  12
ENDBRANCH   8  11
ENDBRANCH   6   8
ENDBRANCH   5   6
ENDBRANCH   4   5
ENDBRANCH   3   4
ENDBRANCH   2   3
ENDBRANCH   1   2
BRANCH   1  38
ATOM     38  C   UNL A   1      42.066  27.252  29.790  1.00  0.00     0.188 C 
BRANCH  38  39
ATOM     39  O   UNL A   1      41.726  27.695  28.491  1.00  0.00    -0.377 OA
BRANCH  39  40
ATOM     40  C   UNL A   1      40.786  26.932  27.745  1.00  0.00     0.188 C 
BRANCH  40  41
ATOM     41  C   UNL A   1      40.365  25.568  28.312  1.00  0.00     0.188 C 
BRANCH  41  42
ATOM     42  O   UNL A   1      39.261  24.988  27.624  1.00  0.00    -0.376 OA
BRANCH  42  43
ATOM     43  C   UNL A   1      39.476  23.762  26.934  1.00  0.00     0.202 C 
BRANCH  43  44
ATOM     44  C   UNL A   1      40.858  23.107  27.099  1.00  0.00     0.261 C 
BRANCH  44  45
ATOM     45  O   UNL A   1      41.793  23.307  26.022  1.00  0.00    -0.460 OA
BRANCH  45  46
ATOM     46  C   UNL A   1      43.107  23.184  26.274  1.00  0.00     0.338 C 
ATOM     47  O   UNL A   1      43.784  22.165  26.225  1.00  0.00    -0.246 OA
BRANCH  46  48
ATOM     48  C   UNL A   1      43.671  24.536  26.439  1.00  0.00     0.060 A 
ATOM     49  C   UNL A   1      43.642  25.416  25.349  1.00  0.00     0.016 A 
ATOM     50  C   UNL A   1      44.255  24.924  27.648  1.00  0.00     0.016 A 
ATOM     51  C   UNL A   1      44.246  26.669  25.447  1.00  0.00     0.010 A 
ATOM     52  C   UNL A   1      44.876  26.172  27.740  1.00  0.00     0.010 A 
ATOM     53  C   UNL A   1      44.909  27.032  26.627  1.00  0.00    -0.014 A 
BRANCH  53  54
ATOM     54  C   UNL A   1      45.814  28.206  26.625  1.00  0.00     0.031 A 
ATOM     55  C   UNL A   1      47.281  27.974  26.389  1.00  0.00     0.074 A 
ATOM     56  C   UNL A   1      45.348  29.454  26.807  1.00  0.00     0.049 A 
ATOM     57  N   UNL A   1      48.272  28.828  26.388  1.00  0.00    -0.248 NA
ATOM     58  C   UNL A   1      47.684  26.584  26.116  1.00  0.00     0.031 C 
ATOM     59  C   UNL A   1      43.947  29.812  27.003  1.00  0.00     0.029 A 
ATOM     60  N   UNL A   1      46.016  30.652  26.864  1.00  0.00    -0.354 N 
ATOM     61  C   UNL A   1      49.412  28.080  26.118  1.00  0.00     0.074 A 
ATOM     62  C   UNL A   1      48.997  26.700  25.995  1.00  0.00     0.031 C 
ATOM     63  C   UNL A   1      43.859  31.143  27.177  1.00  0.00     0.029 A 
ATOM     64  C   UNL A   1      45.202  31.723  27.135  1.00  0.00     0.049 A 
ATOM     65  H   UNL A   1      46.988  30.735  26.725  1.00  0.00     0.167 HD
ATOM     66  C   UNL A   1      50.688  28.508  25.974  1.00  0.00     0.037 A 
ATOM     67  C   UNL A   1      45.512  33.018  27.348  1.00  0.00     0.037 A 
ATOM     68  C   UNL A   1      51.101  29.880  26.105  1.00  0.00     0.049 A 
ATOM     69  C   UNL A   1      46.952  33.458  27.263  1.00  0.00     0.074 A 
ATOM     70  C   UNL A   1      52.370  30.416  25.973  1.00  0.00     0.029 A 
ATOM     71  N   UNL A   1      50.251  30.932  26.409  1.00  0.00    -0.354 N 
ATOM     72  N   UNL A   1      48.023  32.750  26.986  1.00  0.00    -0.248 NA
ATOM     73  C   UNL A   1      47.228  34.879  27.518  1.00  0.00     0.031 C 
ATOM     74  C   UNL A   1      52.296  31.785  26.249  1.00  0.00     0.029 A 
ATOM     75  C   UNL A   1      50.972  32.113  26.494  1.00  0.00     0.049 A 
ATOM     76  H   UNL A   1      49.279  30.853  26.544  1.00  0.00     0.167 HD
ATOM     77  C   UNL A   1      49.088  33.642  27.003  1.00  0.00     0.074 A 
ATOM     78  C   UNL A   1      48.535  34.946  27.306  1.00  0.00     0.031 C 
ATOM     79  C   UNL A   1      50.405  33.405  26.787  1.00  0.00     0.037 A 
BRANCH  66  80
ATOM     80  C   UNL A   1      51.734  27.471  25.688  1.00  0.00     0.064 A 
ATOM     81  C   UNL A   1      52.044  27.078  24.377  1.00  0.00     0.173 A 
ATOM     82  C   UNL A   1      52.451  26.877  26.737  1.00  0.00     0.173 A 
ATOM     83  F   UNL A   1      51.375  27.602  23.339  1.00  0.00    -0.203 F 
ATOM     84  C   UNL A   1      53.013  26.109  24.130  1.00  0.00     0.198 A 
ATOM     85  C   UNL A   1      53.442  25.931  26.484  1.00  0.00     0.198 A 
ATOM     86  F   UNL A   1      52.196  27.218  28.009  1.00  0.00    -0.203 F 
ATOM     87  F   UNL A   1      53.256  25.712  22.873  1.00  0.00    -0.200 F 
ATOM     88  C   UNL A   1      53.716  25.542  25.183  1.00  0.00     0.200 A 
ATOM     89  F   UNL A   1      54.127  25.392  27.502  1.00  0.00    -0.200 F 
ATOM     90  F   UNL A   1      54.651  24.613  24.943  1.00  0.00    -0.200 F 
ENDBRANCH  66  80
BRANCH  67  91
ATOM     91  C   UNL A   1      44.441  33.992  27.682  1.00  0.00     0.064 A 
ATOM     92  C   UNL A   1      43.950  34.113  28.988  1.00  0.00     0.173 A 
ATOM     93  C   UNL A   1      43.866  34.804  26.693  1.00  0.00     0.173 A 
ATOM     94  F   UNL A   1      44.446  33.338  29.964  1.00  0.00    -0.203 F 
ATOM     95  C   UNL A   1      42.914  34.995  29.291  1.00  0.00     0.198 A 
ATOM     96  C   UNL A   1      42.850  35.707  27.001  1.00  0.00     0.198 A 
ATOM     97  F   UNL A   1      44.294  34.724  25.425  1.00  0.00    -0.203 F 
ATOM     98  F   UNL A   1      42.430  35.054  30.539  1.00  0.00    -0.200 F 
ATOM     99  C   UNL A   1      42.369  35.796  28.297  1.00  0.00     0.200 A 
ATOM    100  F   UNL A   1      42.334  36.485  26.040  1.00  0.00    -0.200 F 
ATOM    101  F   UNL A   1      41.373  36.644  28.589  1.00  0.00    -0.200 F 
ENDBRANCH  67  91
BRANCH  79 102
ATOM    102  C   UNL A   1      51.339  34.581  26.828  1.00  0.00     0.064 A 
ATOM    103  C   UNL A   1      51.558  35.391  25.704  1.00  0.00     0.173 A 
ATOM    104  C   UNL A   1      51.986  34.931  28.025  1.00  0.00     0.173 A 
ATOM    105  F   UNL A   1      50.974  35.094  24.533  1.00  0.00    -0.203 F 
ATOM    106  C   UNL A   1      52.410  36.491  25.769  1.00  0.00     0.198 A 
ATOM    107  C   UNL A   1      52.811  36.050  28.094  1.00  0.00     0.198 A 
ATOM    108  F   UNL A   1      51.803  34.195  29.131  1.00  0.00    -0.203 F 
ATOM    109  F   UNL A   1      52.641  37.223  24.671  1.00  0.00    -0.200 F 
ATOM    110  C   UNL A   1      53.028  36.824  26.966  1.00  0.00     0.200 A 
ATOM    111  F   UNL A   1      53.394  36.379  29.256  1.00  0.00    -0.200 F 
ATOM    112  F   UNL A   1      53.840  37.889  27.029  1.00  0.00    -0.200 F 
ENDBRANCH  79 102
ENDBRANCH  53  54
ENDBRANCH  46  48
ENDBRANCH  45  46
ENDBRANCH  44  45
ENDBRANCH  43  44
ENDBRANCH  42  43
ENDBRANCH  41  42
ENDBRANCH  40  41
ENDBRANCH  39  40
ENDBRANCH  38  39
ENDBRANCH   1  38
TORSDOF 27
ENDMDL
MODEL 3
REMARK VINA RESULT:      -8.9      4.480      9.063
REMARK SMILES CC[C@@H](Oc1ccc(/C=C2\SC(=S)N(NC(=O)c3ccccc3O)C2=O)cc1)C(=O)OCCOCCOCCOCCOC(=O)c1ccc(-c2c3nc(c(-c4c(F)c(F)c(F)c(F)c4F)c4ccc([nH]4)c(-c4c(F)c(F)c(F)c(F)c4F)c4nc(c(-c5c(F)c(F)c(F)c(F)c5F)c5ccc2[nH]5)C=C4)C=C3)cc1
REMARK SMILES IDX 35 1 34 2 33 3 32 4 31 5 29 6 30 7 3 8 2 9 1 10 4 11 5 12
REMARK SMILES IDX 6 13 28 14 7 15 27 16 8 17 9 18 10 19 11 20 25 21 12 22
REMARK SMILES IDX 14 23 26 24 13 25 15 26 16 27 17 29 18 30 19 31 23 32 20 33
REMARK SMILES IDX 22 34 21 35 24 36 36 38 37 39 38 40 39 41 40 42 41 43 42 44
REMARK SMILES IDX 43 45 44 46 45 47 46 48 47 49 108 50 48 51 107 52 49 53
REMARK SMILES IDX 50 54 51 55 101 56 52 57 106 58 100 59 102 60 53 61 105 62
REMARK SMILES IDX 99 63 98 64 54 66 86 67 66 68 85 69 67 70 70 71 84 72 103 73
REMARK SMILES IDX 68 74 69 75 83 77 104 78 71 79 55 80 56 81 64 82 57 83 58 84
REMARK SMILES IDX 62 85 65 86 59 87 60 88 63 89 61 90 87 91 88 92 96 93 89 94
REMARK SMILES IDX 90 95 94 96 97 97 91 98 92 99 95 100 93 101 72 102 73 103
REMARK SMILES IDX 81 104 74 105 75 106 79 107 82 108 76 109 77 110 80 111
REMARK SMILES IDX 78 112
REMARK H PARENT 15 28 24 37 102 65 70 76
REMARK Flexibility Score: inf
ROOT
ATOM      1  C   UNL A   1      33.423  27.232  25.531  1.00  0.00     0.188 C 
ENDROOT
BRANCH   1   2
ATOM      2  O   UNL A   1      32.375  26.392  25.073  1.00  0.00    -0.376 OA
BRANCH   2   3
ATOM      3  C   UNL A   1      32.119  26.238  23.680  1.00  0.00     0.202 C 
BRANCH   3   4
ATOM      4  C   UNL A   1      31.948  24.847  23.049  1.00  0.00     0.261 C 
BRANCH   4   5
ATOM      5  O   UNL A   1      32.631  23.776  23.724  1.00  0.00    -0.461 OA
BRANCH   5   6
ATOM      6  C   UNL A   1      33.963  23.675  23.487  1.00  0.00     0.347 C 
ATOM      7  O   UNL A   1      34.522  24.124  22.488  1.00  0.00    -0.248 OA
BRANCH   6   8
ATOM      8  C   UNL A   1      34.729  22.888  24.545  1.00  0.00     0.282 C 
BRANCH   8   9
ATOM      9  C   UNL A   1      34.119  21.574  25.067  1.00  0.00     0.054 C 
ATOM     10  C   UNL A   1      34.209  21.485  26.596  1.00  0.00     0.008 C 
ENDBRANCH   8   9
BRANCH   8  11
ATOM     11  O   UNL A   1      36.003  22.642  23.922  1.00  0.00    -0.479 OA
BRANCH  11  12
ATOM     12  C   UNL A   1      37.001  22.758  24.843  1.00  0.00     0.120 A 
ATOM     13  C   UNL A   1      37.102  23.912  25.609  1.00  0.00     0.047 A 
ATOM     14  C   UNL A   1      37.914  21.724  24.989  1.00  0.00     0.047 A 
ATOM     15  C   UNL A   1      38.176  24.048  26.489  1.00  0.00     0.012 A 
ATOM     16  C   UNL A   1      38.906  21.816  25.945  1.00  0.00     0.012 A 
ATOM     17  C   UNL A   1      39.124  23.021  26.610  1.00  0.00    -0.024 A 
BRANCH  17  18
ATOM     18  C   UNL A   1      40.363  23.274  27.352  1.00  0.00     0.029 C 
ATOM     19  C   UNL A   1      41.132  24.370  27.251  1.00  0.00     0.082 C 
ATOM     20  S   UNL A   1      41.035  25.707  26.162  1.00  0.00    -0.052 SA
ATOM     21  C   UNL A   1      42.329  24.547  28.107  1.00  0.00     0.285 C 
ATOM     22  C   UNL A   1      42.731  26.088  26.364  1.00  0.00     0.168 C 
ATOM     23  N   UNL A   1      43.227  25.350  27.422  1.00  0.00    -0.198 N 
ATOM     24  O   UNL A   1      42.422  24.094  29.239  1.00  0.00    -0.266 OA
ATOM     25  S   UNL A   1      43.547  27.189  25.415  1.00  0.00    -0.050 S 
BRANCH  23  26
ATOM     26  N   UNL A   1      44.533  25.556  27.874  1.00  0.00    -0.254 N 
ATOM     27  C   UNL A   1      45.678  24.983  27.366  1.00  0.00     0.274 C 
ATOM     28  H   UNL A   1      44.647  26.174  28.634  1.00  0.00     0.192 HD
ATOM     29  O   UNL A   1      46.777  25.327  27.797  1.00  0.00    -0.267 OA
BRANCH  27  30
ATOM     30  C   UNL A   1      45.620  23.923  26.341  1.00  0.00     0.083 A 
ATOM     31  C   UNL A   1      46.257  24.206  25.124  1.00  0.00     0.018 A 
ATOM     32  C   UNL A   1      45.040  22.668  26.547  1.00  0.00     0.128 A 
ATOM     33  C   UNL A   1      46.355  23.223  24.141  1.00  0.00     0.001 A 
ATOM     34  C   UNL A   1      45.143  21.684  25.563  1.00  0.00     0.047 A 
ATOM     35  C   UNL A   1      45.803  21.960  24.363  1.00  0.00     0.004 A 
BRANCH  32  36
ATOM     36  O   UNL A   1      44.386  22.319  27.696  1.00  0.00    -0.507 OA
ATOM     37  H   UNL A   1      43.732  22.886  28.052  1.00  0.00     0.293 HD
ENDBRANCH  32  36
ENDBRANCH  27  30
ENDBRANCH  23  26
ENDBRANCH  17  18
ENDBRANCH  11  12
ENDBRANCH   8  11
ENDBRANCH   6   8
ENDBRANCH   5   6
ENDBRANCH   4   5
ENDBRANCH   3   4
ENDBRANCH   2   3
ENDBRANCH   1   2
BRANCH   1  38
ATOM     38  C   UNL A   1      33.654  28.595  24.873  1.00  0.00     0.188 C 
BRANCH  38  39
ATOM     39  O   UNL A   1      32.886  29.641  25.434  1.00  0.00    -0.377 OA
BRANCH  39  40
ATOM     40  C   UNL A   1      33.043  29.919  26.821  1.00  0.00     0.188 C 
BRANCH  40  41
ATOM     41  C   UNL A   1      34.391  30.488  27.286  1.00  0.00     0.188 C 
BRANCH  41  42
ATOM     42  O   UNL A   1      35.181  29.547  28.005  1.00  0.00    -0.376 OA
BRANCH  42  43
ATOM     43  C   UNL A   1      35.992  30.032  29.071  1.00  0.00     0.202 C 
BRANCH  43  44
ATOM     44  C   UNL A   1      37.515  29.953  28.873  1.00  0.00     0.261 C 
BRANCH  44  45
ATOM     45  O   UNL A   1      38.139  28.700  29.215  1.00  0.00    -0.460 OA
BRANCH  45  46
ATOM     46  C   UNL A   1      38.922  28.643  30.305  1.00  0.00     0.338 C 
ATOM     47  O   UNL A   1      38.656  28.141  31.390  1.00  0.00    -0.246 OA
BRANCH  46  48
ATOM     48  C   UNL A   1      40.265  29.123  29.932  1.00  0.00     0.060 A 
ATOM     49  C   UNL A   1      41.059  29.732  30.913  1.00  0.00     0.016 A 
ATOM     50  C   UNL A   1      40.725  29.006  28.618  1.00  0.00     0.016 A 
ATOM     51  C   UNL A   1      42.297  30.275  30.569  1.00  0.00     0.010 A 
ATOM     52  C   UNL A   1      41.958  29.567  28.271  1.00  0.00     0.010 A 
ATOM     53  C   UNL A   1      42.729  30.239  29.237  1.00  0.00    -0.014 A 
BRANCH  53  54
ATOM     54  C   UNL A   1      43.871  31.084  28.814  1.00  0.00     0.031 A 
ATOM     55  C   UNL A   1      45.165  30.405  28.457  1.00  0.00     0.074 A 
ATOM     56  C   UNL A   1      43.763  32.422  28.726  1.00  0.00     0.049 A 
ATOM     57  N   UNL A   1      46.312  30.928  28.106  1.00  0.00    -0.248 NA
ATOM     58  C   UNL A   1      45.162  28.934  28.502  1.00  0.00     0.031 C 
ATOM     59  C   UNL A   1      42.553  33.191  29.004  1.00  0.00     0.029 A 
ATOM     60  N   UNL A   1      44.696  33.368  28.384  1.00  0.00    -0.354 N 
ATOM     61  C   UNL A   1      47.164  29.851  27.893  1.00  0.00     0.074 A 
ATOM     62  C   UNL A   1      46.415  28.649  28.186  1.00  0.00     0.031 C 
ATOM     63  C   UNL A   1      42.823  34.498  28.837  1.00  0.00     0.029 A 
ATOM     64  C   UNL A   1      44.231  34.655  28.472  1.00  0.00     0.049 A 
ATOM     65  H   UNL A   1      45.613  33.143  28.103  1.00  0.00     0.167 HD
ATOM     66  C   UNL A   1      48.453  29.863  27.478  1.00  0.00     0.037 A 
ATOM     67  C   UNL A   1      44.878  35.826  28.301  1.00  0.00     0.037 A 
ATOM     68  C   UNL A   1      49.200  31.059  27.195  1.00  0.00     0.049 A 
ATOM     69  C   UNL A   1      46.337  35.817  27.919  1.00  0.00     0.074 A 
ATOM     70  C   UNL A   1      50.510  31.178  26.764  1.00  0.00     0.029 A 
ATOM     71  N   UNL A   1      48.703  32.348  27.324  1.00  0.00    -0.354 N 
ATOM     72  N   UNL A   1      47.131  34.796  27.697  1.00  0.00    -0.248 NA
ATOM     73  C   UNL A   1      46.989  37.125  27.759  1.00  0.00     0.031 C 
ATOM     74  C   UNL A   1      50.822  32.539  26.684  1.00  0.00     0.029 A 
ATOM     75  C   UNL A   1      49.688  33.269  27.007  1.00  0.00     0.049 A 
ATOM     76  H   UNL A   1      47.786  32.575  27.601  1.00  0.00     0.167 HD
ATOM     77  C   UNL A   1      48.362  35.336  27.344  1.00  0.00     0.074 A 
ATOM     78  C   UNL A   1      48.207  36.776  27.368  1.00  0.00     0.031 C 
ATOM     79  C   UNL A   1      49.516  34.699  27.027  1.00  0.00     0.037 A 
BRANCH  66  80
ATOM     80  C   UNL A   1      49.144  28.539  27.336  1.00  0.00     0.064 A 
ATOM     81  C   UNL A   1      49.026  27.767  26.170  1.00  0.00     0.173 A 
ATOM     82  C   UNL A   1      49.951  28.044  28.371  1.00  0.00     0.173 A 
ATOM     83  F   UNL A   1      48.252  28.186  25.158  1.00  0.00    -0.203 F 
ATOM     84  C   UNL A   1      49.669  26.536  26.057  1.00  0.00     0.198 A 
ATOM     85  C   UNL A   1      50.618  26.828  28.242  1.00  0.00     0.198 A 
ATOM     86  F   UNL A   1      50.099  28.743  29.506  1.00  0.00    -0.203 F 
ATOM     87  F   UNL A   1      49.500  25.793  24.955  1.00  0.00    -0.200 F 
ATOM     88  C   UNL A   1      50.469  26.072  27.090  1.00  0.00     0.200 A 
ATOM     89  F   UNL A   1      51.399  26.386  29.237  1.00  0.00    -0.200 F 
ATOM     90  F   UNL A   1      51.090  24.890  26.979  1.00  0.00    -0.200 F 
ENDBRANCH  66  80
BRANCH  67  91
ATOM     91  C   UNL A   1      44.157  37.109  28.508  1.00  0.00     0.064 A 
ATOM     92  C   UNL A   1      44.289  37.832  29.701  1.00  0.00     0.173 A 
ATOM     93  C   UNL A   1      43.299  37.625  27.526  1.00  0.00     0.173 A 
ATOM     94  F   UNL A   1      45.075  37.366  30.683  1.00  0.00    -0.203 F 
ATOM     95  C   UNL A   1      43.577  39.012  29.912  1.00  0.00     0.198 A 
ATOM     96  C   UNL A   1      42.610  38.820  27.725  1.00  0.00     0.198 A 
ATOM     97  F   UNL A   1      43.132  36.970  26.368  1.00  0.00    -0.203 F 
ATOM     98  F   UNL A   1      43.684  39.657  31.082  1.00  0.00    -0.200 F 
ATOM     99  C   UNL A   1      42.743  39.508  28.921  1.00  0.00     0.200 A 
ATOM    100  F   UNL A   1      41.814  39.300  26.760  1.00  0.00    -0.200 F 
ATOM    101  F   UNL A   1      42.060  40.644  29.123  1.00  0.00    -0.200 F 
ENDBRANCH  67  91
BRANCH  79 102
ATOM    102  C   UNL A   1      50.695  35.548  26.640  1.00  0.00     0.064 A 
ATOM    103  C   UNL A   1      51.628  35.992  27.588  1.00  0.00     0.173 A 
ATOM    104  C   UNL A   1      50.918  35.879  25.294  1.00  0.00     0.173 A 
ATOM    105  F   UNL A   1      51.455  35.713  28.888  1.00  0.00    -0.203 F 
ATOM    106  C   UNL A   1      52.727  36.758  27.206  1.00  0.00     0.198 A 
ATOM    107  C   UNL A   1      52.034  36.617  24.912  1.00  0.00     0.198 A 
ATOM    108  F   UNL A   1      50.060  35.471  24.347  1.00  0.00    -0.203 F 
ATOM    109  F   UNL A   1      53.580  37.212  28.134  1.00  0.00    -0.200 F 
ATOM    110  C   UNL A   1      52.933  37.062  25.868  1.00  0.00     0.200 A 
ATOM    111  F   UNL A   1      52.240  36.896  23.617  1.00  0.00    -0.200 F 
ATOM    112  F   UNL A   1      53.996  37.792  25.501  1.00  0.00    -0.200 F 
ENDBRANCH  79 102
ENDBRANCH  53  54
ENDBRANCH  46  48
ENDBRANCH  45  46
ENDBRANCH  44  45
ENDBRANCH  43  44
ENDBRANCH  42  43
ENDBRANCH  41  42
ENDBRANCH  40  41
ENDBRANCH  39  40
ENDBRANCH  38  39
ENDBRANCH   1  38
TORSDOF 27
ENDMDL
