MODEL 1
REMARK VINA RESULT:      -9.1      0.000      0.000
REMARK SMILES CSc1ccc(C[C@H]([NH3+])C(=O)OCCOCCOCCOCCOC(=O)c2ccc(-c3c4nc(c(-c5c(F)c(F)c(F)c(F)c5F)c5ccc([nH]5)c(-c5c(F)c(F)c(F)c(F)c5F)c5nc(c(-c6c(F)c(F)c(F)c(F)c6F)c6ccc3[nH]6)C=C5)C=C4)cc2)cc1
REMARK SMILES IDX 17 1 16 2 15 3 14 4 13 5 12 6 10 7 11 8 8 9 7 10 6 11 3 12
REMARK SMILES IDX 4 13 91 14 5 15 90 16 2 17 1 18 9 19 18 23 19 24 20 25 21 26
REMARK SMILES IDX 22 27 23 28 24 29 25 30 26 31 27 32 28 33 89 34 29 35 88 36
REMARK SMILES IDX 30 37 31 38 32 39 82 40 33 41 87 42 81 43 83 44 34 45 86 46
REMARK SMILES IDX 80 47 79 48 35 50 67 51 47 52 66 53 48 54 51 55 65 56 84 57
REMARK SMILES IDX 49 58 50 59 64 61 85 62 52 63 36 64 37 65 45 66 38 67 39 68
REMARK SMILES IDX 43 69 46 70 40 71 41 72 44 73 42 74 68 75 69 76 77 77 70 78
REMARK SMILES IDX 71 79 75 80 78 81 72 82 73 83 76 84 74 85 53 86 54 87 62 88
REMARK SMILES IDX 55 89 56 90 60 91 63 92 57 93 58 94 61 95 59 96
REMARK H PARENT 9 20 9 21 9 22 83 49 51 60
REMARK Flexibility Score: inf
ROOT
ATOM      1  C   UNL A   1      33.155  30.306  27.006  1.00  0.00     0.188 C 
ENDROOT
BRANCH   1   2
ATOM      2  C   UNL A   1      33.461  29.008  26.243  1.00  0.00     0.188 C 
BRANCH   2   3
ATOM      3  O   UNL A   1      32.918  28.735  24.962  1.00  0.00    -0.376 OA
BRANCH   3   4
ATOM      4  C   UNL A   1      31.567  28.413  24.688  1.00  0.00     0.202 C 
BRANCH   4   5
ATOM      5  C   UNL A   1      30.911  28.344  23.300  1.00  0.00     0.261 C 
BRANCH   5   6
ATOM      6  O   UNL A   1      30.447  27.082  22.829  1.00  0.00    -0.459 OA
BRANCH   6   7
ATOM      7  C   UNL A   1      31.445  26.211  22.525  1.00  0.00     0.365 C 
ATOM      8  O   UNL A   1      32.250  26.393  21.621  1.00  0.00    -0.245 OA
BRANCH   7   9
ATOM      9  C   UNL A   1      31.433  24.963  23.423  1.00  0.00     0.296 C 
BRANCH   9  10
ATOM     10  C   UNL A   1      32.738  24.176  23.241  1.00  0.00     0.113 C 
BRANCH  10  11
ATOM     11  C   UNL A   1      32.628  22.734  23.686  1.00  0.00    -0.041 A 
ATOM     12  C   UNL A   1      32.675  20.034  24.458  1.00  0.00     0.007 A 
ATOM     13  C   UNL A   1      32.517  20.372  23.118  1.00  0.00     0.015 A 
ATOM     14  C   UNL A   1      32.797  21.046  25.415  1.00  0.00     0.015 A 
ATOM     15  C   UNL A   1      32.449  21.713  22.743  1.00  0.00     0.005 A 
ATOM     16  C   UNL A   1      32.788  22.389  25.031  1.00  0.00     0.005 A 
BRANCH  12  17
ATOM     17  S   UNL A   1      32.706  18.314  24.917  1.00  0.00    -0.130 SA
ATOM     18  C   UNL A   1      32.906  17.603  23.266  1.00  0.00     0.091 C 
ENDBRANCH  12  17
ENDBRANCH  10  11
ENDBRANCH   9  10
BRANCH   9  19
ATOM     19  N   UNL A   1      30.278  24.063  23.141  1.00  0.00    -0.346 N 
ATOM     20  H   UNL A   1      30.552  23.096  23.310  1.00  0.00     0.345 HD
ATOM     21  H   UNL A   1      29.992  24.172  22.169  1.00  0.00     0.345 HD
ATOM     22  H   UNL A   1      29.500  24.308  23.754  1.00  0.00     0.345 HD
ENDBRANCH   9  19
ENDBRANCH   7   9
ENDBRANCH   6   7
ENDBRANCH   5   6
ENDBRANCH   4   5
ENDBRANCH   3   4
ENDBRANCH   2   3
ENDBRANCH   1   2
BRANCH   1  23
ATOM     23  O   UNL A   1      34.240  30.825  27.748  1.00  0.00    -0.377 OA
BRANCH  23  24
ATOM     24  C   UNL A   1      34.236  32.226  28.008  1.00  0.00     0.188 C 
BRANCH  24  25
ATOM     25  C   UNL A   1      35.487  32.892  28.625  1.00  0.00     0.188 C 
BRANCH  25  26
ATOM     26  O   UNL A   1      35.302  34.254  28.982  1.00  0.00    -0.376 OA
BRANCH  26  27
ATOM     27  C   UNL A   1      34.160  34.941  28.500  1.00  0.00     0.202 C 
BRANCH  27  28
ATOM     28  C   UNL A   1      32.968  35.065  29.459  1.00  0.00     0.261 C 
BRANCH  28  29
ATOM     29  O   UNL A   1      33.107  36.020  30.523  1.00  0.00    -0.460 OA
BRANCH  29  30
ATOM     30  C   UNL A   1      32.727  35.643  31.761  1.00  0.00     0.338 C 
ATOM     31  O   UNL A   1      31.604  35.680  32.234  1.00  0.00    -0.246 OA
BRANCH  30  32
ATOM     32  C   UNL A   1      33.882  34.977  32.398  1.00  0.00     0.060 A 
ATOM     33  C   UNL A   1      35.144  35.582  32.328  1.00  0.00     0.016 A 
ATOM     34  C   UNL A   1      33.716  33.762  33.065  1.00  0.00     0.016 A 
ATOM     35  C   UNL A   1      36.255  34.951  32.890  1.00  0.00     0.010 A 
ATOM     36  C   UNL A   1      34.831  33.119  33.606  1.00  0.00     0.010 A 
ATOM     37  C   UNL A   1      36.110  33.693  33.487  1.00  0.00    -0.014 A 
BRANCH  37  38
ATOM     38  C   UNL A   1      37.307  32.869  33.779  1.00  0.00     0.031 A 
ATOM     39  C   UNL A   1      38.052  33.139  35.057  1.00  0.00     0.074 A 
ATOM     40  C   UNL A   1      37.729  31.910  32.937  1.00  0.00     0.049 A 
ATOM     41  N   UNL A   1      39.181  32.637  35.489  1.00  0.00    -0.248 NA
ATOM     42  C   UNL A   1      37.439  34.118  35.971  1.00  0.00     0.031 C 
ATOM     43  C   UNL A   1      37.064  31.520  31.697  1.00  0.00     0.029 A 
ATOM     44  N   UNL A   1      38.837  31.100  32.997  1.00  0.00    -0.354 N 
ATOM     45  C   UNL A   1      39.417  33.248  36.713  1.00  0.00     0.074 A 
ATOM     46  C   UNL A   1      38.334  34.178  36.945  1.00  0.00     0.031 C 
ATOM     47  C   UNL A   1      37.790  30.558  31.099  1.00  0.00     0.029 A 
ATOM     48  C   UNL A   1      38.989  30.296  31.895  1.00  0.00     0.049 A 
ATOM     49  H   UNL A   1      39.461  31.097  33.758  1.00  0.00     0.167 HD
ATOM     50  C   UNL A   1      40.446  33.048  37.571  1.00  0.00     0.037 A 
ATOM     51  C   UNL A   1      40.001  29.472  31.556  1.00  0.00     0.037 A 
ATOM     52  C   UNL A   1      41.522  32.124  37.333  1.00  0.00     0.049 A 
ATOM     53  C   UNL A   1      41.182  29.331  32.488  1.00  0.00     0.074 A 
ATOM     54  C   UNL A   1      42.605  31.834  38.145  1.00  0.00     0.029 A 
ATOM     55  N   UNL A   1      41.655  31.346  36.193  1.00  0.00    -0.354 N 
ATOM     56  N   UNL A   1      41.393  29.895  33.652  1.00  0.00    -0.248 NA
ATOM     57  C   UNL A   1      42.266  28.437  32.055  1.00  0.00     0.031 C 
ATOM     58  C   UNL A   1      43.427  30.930  37.467  1.00  0.00     0.029 A 
ATOM     59  C   UNL A   1      42.820  30.598  36.266  1.00  0.00     0.049 A 
ATOM     60  H   UNL A   1      41.018  31.326  35.443  1.00  0.00     0.167 HD
ATOM     61  C   UNL A   1      42.609  29.396  34.107  1.00  0.00     0.074 A 
ATOM     62  C   UNL A   1      43.085  28.477  33.096  1.00  0.00     0.031 C 
ATOM     63  C   UNL A   1      43.270  29.672  35.258  1.00  0.00     0.037 A 
BRANCH  50  64
ATOM     64  C   UNL A   1      40.476  33.870  38.825  1.00  0.00     0.064 A 
ATOM     65  C   UNL A   1      41.200  35.071  38.908  1.00  0.00     0.173 A 
ATOM     66  C   UNL A   1      39.742  33.469  39.952  1.00  0.00     0.173 A 
ATOM     67  F   UNL A   1      41.931  35.492  37.866  1.00  0.00    -0.203 F 
ATOM     68  C   UNL A   1      41.207  35.822  40.081  1.00  0.00     0.198 A 
ATOM     69  C   UNL A   1      39.725  34.240  41.111  1.00  0.00     0.198 A 
ATOM     70  F   UNL A   1      39.033  32.329  39.926  1.00  0.00    -0.203 F 
ATOM     71  F   UNL A   1      41.946  36.938  40.155  1.00  0.00    -0.200 F 
ATOM     72  C   UNL A   1      40.464  35.411  41.177  1.00  0.00     0.200 A 
ATOM     73  F   UNL A   1      38.995  33.848  42.164  1.00  0.00    -0.200 F 
ATOM     74  F   UNL A   1      40.464  36.140  42.301  1.00  0.00    -0.200 F 
ENDBRANCH  50  64
BRANCH  51  75
ATOM     75  C   UNL A   1      39.965  28.732  30.266  1.00  0.00     0.064 A 
ATOM     76  C   UNL A   1      39.387  27.458  30.178  1.00  0.00     0.173 A 
ATOM     77  C   UNL A   1      40.537  29.267  29.102  1.00  0.00     0.173 A 
ATOM     78  F   UNL A   1      38.851  26.890  31.268  1.00  0.00    -0.203 F 
ATOM     79  C   UNL A   1      39.407  26.738  28.984  1.00  0.00     0.198 A 
ATOM     80  C   UNL A   1      40.527  28.562  27.901  1.00  0.00     0.198 A 
ATOM     81  F   UNL A   1      41.108  30.481  29.131  1.00  0.00    -0.203 F 
ATOM     82  F   UNL A   1      38.900  25.498  28.944  1.00  0.00    -0.200 F 
ATOM     83  C   UNL A   1      39.972  27.292  27.846  1.00  0.00     0.200 A 
ATOM     84  F   UNL A   1      41.063  29.106  26.800  1.00  0.00    -0.200 F 
ATOM     85  F   UNL A   1      39.989  26.599  26.699  1.00  0.00    -0.200 F 
ENDBRANCH  51  75
BRANCH  63  86
ATOM     86  C   UNL A   1      44.552  28.932  35.523  1.00  0.00     0.064 A 
ATOM     87  C   UNL A   1      45.803  29.473  35.193  1.00  0.00     0.173 A 
ATOM     88  C   UNL A   1      44.526  27.688  36.174  1.00  0.00     0.173 A 
ATOM     89  F   UNL A   1      45.884  30.652  34.559  1.00  0.00    -0.203 F 
ATOM     90  C   UNL A   1      46.978  28.784  35.483  1.00  0.00     0.198 A 
ATOM     91  C   UNL A   1      45.704  27.020  36.495  1.00  0.00     0.198 A 
ATOM     92  F   UNL A   1      43.357  27.130  36.522  1.00  0.00    -0.203 F 
ATOM     93  F   UNL A   1      48.161  29.299  35.116  1.00  0.00    -0.200 F 
ATOM     94  C   UNL A   1      46.929  27.565  36.142  1.00  0.00     0.200 A 
ATOM     95  F   UNL A   1      45.653  25.852  37.149  1.00  0.00    -0.200 F 
ATOM     96  F   UNL A   1      48.063  26.912  36.434  1.00  0.00    -0.200 F 
ENDBRANCH  63  86
ENDBRANCH  37  38
ENDBRANCH  30  32
ENDBRANCH  29  30
ENDBRANCH  28  29
ENDBRANCH  27  28
ENDBRANCH  26  27
ENDBRANCH  25  26
ENDBRANCH  24  25
ENDBRANCH  23  24
ENDBRANCH   1  23
TORSDOF 24
ENDMDL
MODEL 2
REMARK VINA RESULT:      -8.5      5.382      8.500
REMARK SMILES CSc1ccc(C[C@H]([NH3+])C(=O)OCCOCCOCCOCCOC(=O)c2ccc(-c3c4nc(c(-c5c(F)c(F)c(F)c(F)c5F)c5ccc([nH]5)c(-c5c(F)c(F)c(F)c(F)c5F)c5nc(c(-c6c(F)c(F)c(F)c(F)c6F)c6ccc3[nH]6)C=C5)C=C4)cc2)cc1
REMARK SMILES IDX 17 1 16 2 15 3 14 4 13 5 12 6 10 7 11 8 8 9 7 10 6 11 3 12
REMARK SMILES IDX 4 13 91 14 5 15 90 16 2 17 1 18 9 19 18 23 19 24 20 25 21 26
REMARK SMILES IDX 22 27 23 28 24 29 25 30 26 31 27 32 28 33 89 34 29 35 88 36
REMARK SMILES IDX 30 37 31 38 32 39 82 40 33 41 87 42 81 43 83 44 34 45 86 46
REMARK SMILES IDX 80 47 79 48 35 50 67 51 47 52 66 53 48 54 51 55 65 56 84 57
REMARK SMILES IDX 49 58 50 59 64 61 85 62 52 63 36 64 37 65 45 66 38 67 39 68
REMARK SMILES IDX 43 69 46 70 40 71 41 72 44 73 42 74 68 75 69 76 77 77 70 78
REMARK SMILES IDX 71 79 75 80 78 81 72 82 73 83 76 84 74 85 53 86 54 87 62 88
REMARK SMILES IDX 55 89 56 90 60 91 63 92 57 93 58 94 61 95 59 96
REMARK H PARENT 9 20 9 21 9 22 83 49 51 60
REMARK Flexibility Score: inf
ROOT
ATOM      1  C   UNL A   1      33.127  36.622  29.451  1.00  0.00     0.188 C 
ENDROOT
BRANCH   1   2
ATOM      2  C   UNL A   1      33.580  35.167  29.251  1.00  0.00     0.188 C 
BRANCH   2   3
ATOM      3  O   UNL A   1      32.785  34.211  28.573  1.00  0.00    -0.376 OA
BRANCH   3   4
ATOM      4  C   UNL A   1      33.245  33.299  27.592  1.00  0.00     0.202 C 
BRANCH   4   5
ATOM      5  C   UNL A   1      34.178  32.101  27.827  1.00  0.00     0.261 C 
BRANCH   5   6
ATOM      6  O   UNL A   1      34.023  30.947  27.007  1.00  0.00    -0.459 OA
BRANCH   6   7
ATOM      7  C   UNL A   1      34.489  29.805  27.575  1.00  0.00     0.365 C 
ATOM      8  O   UNL A   1      35.437  29.771  28.350  1.00  0.00    -0.245 OA
BRANCH   7   9
ATOM      9  C   UNL A   1      33.714  28.559  27.116  1.00  0.00     0.296 C 
BRANCH   9  10
ATOM     10  C   UNL A   1      33.424  28.648  25.612  1.00  0.00     0.113 C 
BRANCH  10  11
ATOM     11  C   UNL A   1      33.638  27.337  24.887  1.00  0.00    -0.041 A 
ATOM     12  C   UNL A   1      33.811  24.824  23.642  1.00  0.00     0.007 A 
ATOM     13  C   UNL A   1      34.239  24.981  24.956  1.00  0.00     0.015 A 
ATOM     14  C   UNL A   1      33.308  25.927  22.945  1.00  0.00     0.015 A 
ATOM     15  C   UNL A   1      34.194  26.238  25.557  1.00  0.00     0.005 A 
ATOM     16  C   UNL A   1      33.208  27.174  23.568  1.00  0.00     0.005 A 
BRANCH  12  17
ATOM     17  S   UNL A   1      33.928  23.219  22.880  1.00  0.00    -0.130 SA
ATOM     18  C   UNL A   1      33.677  22.207  24.359  1.00  0.00     0.091 C 
ENDBRANCH  12  17
ENDBRANCH  10  11
ENDBRANCH   9  10
BRANCH   9  19
ATOM     19  N   UNL A   1      32.428  28.380  27.849  1.00  0.00    -0.346 N 
ATOM     20  H   UNL A   1      32.582  27.791  28.667  1.00  0.00     0.345 HD
ATOM     21  H   UNL A   1      31.745  27.938  27.234  1.00  0.00     0.345 HD
ATOM     22  H   UNL A   1      32.078  29.290  28.147  1.00  0.00     0.345 HD
ENDBRANCH   9  19
ENDBRANCH   7   9
ENDBRANCH   6   7
ENDBRANCH   5   6
ENDBRANCH   4   5
ENDBRANCH   3   4
ENDBRANCH   2   3
ENDBRANCH   1   2
BRANCH   1  23
ATOM     23  O   UNL A   1      33.020  37.028  30.800  1.00  0.00    -0.377 OA
BRANCH  23  24
ATOM     24  C   UNL A   1      31.900  36.545  31.537  1.00  0.00     0.188 C 
BRANCH  24  25
ATOM     25  C   UNL A   1      32.128  35.799  32.871  1.00  0.00     0.188 C 
BRANCH  25  26
ATOM     26  O   UNL A   1      32.830  34.573  32.737  1.00  0.00    -0.376 OA
BRANCH  26  27
ATOM     27  C   UNL A   1      34.248  34.588  32.745  1.00  0.00     0.202 C 
BRANCH  27  28
ATOM     28  C   UNL A   1      34.959  33.290  32.336  1.00  0.00     0.261 C 
BRANCH  28  29
ATOM     29  O   UNL A   1      36.395  33.329  32.332  1.00  0.00    -0.460 OA
BRANCH  29  30
ATOM     30  C   UNL A   1      37.051  32.444  33.111  1.00  0.00     0.338 C 
ATOM     31  O   UNL A   1      36.629  31.878  34.105  1.00  0.00    -0.246 OA
BRANCH  30  32
ATOM     32  C   UNL A   1      38.321  32.113  32.434  1.00  0.00     0.060 A 
ATOM     33  C   UNL A   1      38.490  32.459  31.087  1.00  0.00     0.016 A 
ATOM     34  C   UNL A   1      39.344  31.466  33.132  1.00  0.00     0.016 A 
ATOM     35  C   UNL A   1      39.668  32.122  30.419  1.00  0.00     0.010 A 
ATOM     36  C   UNL A   1      40.513  31.108  32.457  1.00  0.00     0.010 A 
ATOM     37  C   UNL A   1      40.663  31.400  31.089  1.00  0.00    -0.014 A 
BRANCH  37  38
ATOM     38  C   UNL A   1      41.749  30.748  30.320  1.00  0.00     0.031 A 
ATOM     39  C   UNL A   1      43.001  31.541  30.061  1.00  0.00     0.074 A 
ATOM     40  C   UNL A   1      41.635  29.490  29.860  1.00  0.00     0.049 A 
ATOM     41  N   UNL A   1      44.043  31.242  29.328  1.00  0.00    -0.248 NA
ATOM     42  C   UNL A   1      43.082  32.858  30.715  1.00  0.00     0.031 C 
ATOM     43  C   UNL A   1      40.497  28.605  30.090  1.00  0.00     0.029 A 
ATOM     44  N   UNL A   1      42.490  28.748  29.082  1.00  0.00    -0.354 N 
ATOM     45  C   UNL A   1      44.893  32.335  29.422  1.00  0.00     0.074 A 
ATOM     46  C   UNL A   1      44.237  33.317  30.258  1.00  0.00     0.031 C 
ATOM     47  C   UNL A   1      40.714  27.443  29.449  1.00  0.00     0.029 A 
ATOM     48  C   UNL A   1      41.985  27.521  28.730  1.00  0.00     0.049 A 
ATOM     49  H   UNL A   1      43.379  29.066  28.805  1.00  0.00     0.167 HD
ATOM     50  C   UNL A   1      46.115  32.505  28.865  1.00  0.00     0.037 A 
ATOM     51  C   UNL A   1      42.482  26.587  27.894  1.00  0.00     0.037 A 
ATOM     52  C   UNL A   1      46.761  31.526  28.033  1.00  0.00     0.049 A 
ATOM     53  C   UNL A   1      43.808  26.835  27.214  1.00  0.00     0.074 A 
ATOM     54  C   UNL A   1      48.005  31.591  27.431  1.00  0.00     0.029 A 
ATOM     55  N   UNL A   1      46.207  30.304  27.677  1.00  0.00    -0.354 N 
ATOM     56  N   UNL A   1      44.617  27.861  27.320  1.00  0.00    -0.248 NA
ATOM     57  C   UNL A   1      44.288  25.792  26.295  1.00  0.00     0.031 C 
ATOM     58  C   UNL A   1      48.177  30.439  26.659  1.00  0.00     0.029 A 
ATOM     59  C   UNL A   1      47.073  29.620  26.839  1.00  0.00     0.049 A 
ATOM     60  H   UNL A   1      45.331  29.972  27.976  1.00  0.00     0.167 HD
ATOM     61  C   UNL A   1      45.714  27.571  26.517  1.00  0.00     0.074 A 
ATOM     62  C   UNL A   1      45.471  26.268  25.935  1.00  0.00     0.031 C 
ATOM     63  C   UNL A   1      46.824  28.314  26.283  1.00  0.00     0.037 A 
BRANCH  50  64
ATOM     64  C   UNL A   1      46.815  33.810  29.105  1.00  0.00     0.064 A 
ATOM     65  C   UNL A   1      46.482  34.973  28.392  1.00  0.00     0.173 A 
ATOM     66  C   UNL A   1      47.812  33.907  30.088  1.00  0.00     0.173 A 
ATOM     67  F   UNL A   1      45.547  34.931  27.431  1.00  0.00    -0.203 F 
ATOM     68  C   UNL A   1      47.139  36.175  28.638  1.00  0.00     0.198 A 
ATOM     69  C   UNL A   1      48.444  35.118  30.353  1.00  0.00     0.198 A 
ATOM     70  F   UNL A   1      48.170  32.826  30.798  1.00  0.00    -0.203 F 
ATOM     71  F   UNL A   1      46.841  37.261  27.910  1.00  0.00    -0.200 F 
ATOM     72  C   UNL A   1      48.113  36.249  29.622  1.00  0.00     0.200 A 
ATOM     73  F   UNL A   1      49.374  35.191  31.315  1.00  0.00    -0.200 F 
ATOM     74  F   UNL A   1      48.737  37.410  29.864  1.00  0.00    -0.200 F 
ENDBRANCH  50  64
BRANCH  51  75
ATOM     75  C   UNL A   1      41.718  25.339  27.626  1.00  0.00     0.064 A 
ATOM     76  C   UNL A   1      40.570  25.351  26.821  1.00  0.00     0.173 A 
ATOM     77  C   UNL A   1      42.097  24.115  28.198  1.00  0.00     0.173 A 
ATOM     78  F   UNL A   1      40.149  26.500  26.273  1.00  0.00    -0.203 F 
ATOM     79  C   UNL A   1      39.819  24.193  26.619  1.00  0.00     0.198 A 
ATOM     80  C   UNL A   1      41.365  22.952  27.969  1.00  0.00     0.198 A 
ATOM     81  F   UNL A   1      43.184  24.048  28.982  1.00  0.00    -0.203 F 
ATOM     82  F   UNL A   1      38.694  24.247  25.892  1.00  0.00    -0.200 F 
ATOM     83  C   UNL A   1      40.220  22.995  27.189  1.00  0.00     0.200 A 
ATOM     84  F   UNL A   1      41.763  21.793  28.511  1.00  0.00    -0.200 F 
ATOM     85  F   UNL A   1      39.496  21.883  26.993  1.00  0.00    -0.200 F 
ENDBRANCH  51  75
BRANCH  63  86
ATOM     86  C   UNL A   1      47.893  27.720  25.409  1.00  0.00     0.064 A 
ATOM     87  C   UNL A   1      47.836  27.798  24.010  1.00  0.00     0.173 A 
ATOM     88  C   UNL A   1      49.022  27.117  25.986  1.00  0.00     0.173 A 
ATOM     89  F   UNL A   1      46.774  28.353  23.407  1.00  0.00    -0.203 F 
ATOM     90  C   UNL A   1      48.857  27.273  23.222  1.00  0.00     0.198 A 
ATOM     91  C   UNL A   1      50.058  26.626  25.197  1.00  0.00     0.198 A 
ATOM     92  F   UNL A   1      49.132  27.025  27.320  1.00  0.00    -0.203 F 
ATOM     93  F   UNL A   1      48.759  27.317  21.885  1.00  0.00    -0.200 F 
ATOM     94  C   UNL A   1      49.971  26.697  23.815  1.00  0.00     0.200 A 
ATOM     95  F   UNL A   1      51.141  26.089  25.774  1.00  0.00    -0.200 F 
ATOM     96  F   UNL A   1      50.960  26.207  23.055  1.00  0.00    -0.200 F 
ENDBRANCH  63  86
ENDBRANCH  37  38
ENDBRANCH  30  32
ENDBRANCH  29  30
ENDBRANCH  28  29
ENDBRANCH  27  28
ENDBRANCH  26  27
ENDBRANCH  25  26
ENDBRANCH  24  25
ENDBRANCH  23  24
ENDBRANCH   1  23
TORSDOF 24
ENDMDL
MODEL 3
REMARK VINA RESULT:      -8.4      1.069      7.432
REMARK SMILES CSc1ccc(C[C@H]([NH3+])C(=O)OCCOCCOCCOCCOC(=O)c2ccc(-c3c4nc(c(-c5c(F)c(F)c(F)c(F)c5F)c5ccc([nH]5)c(-c5c(F)c(F)c(F)c(F)c5F)c5nc(c(-c6c(F)c(F)c(F)c(F)c6F)c6ccc3[nH]6)C=C5)C=C4)cc2)cc1
REMARK SMILES IDX 17 1 16 2 15 3 14 4 13 5 12 6 10 7 11 8 8 9 7 10 6 11 3 12
REMARK SMILES IDX 4 13 91 14 5 15 90 16 2 17 1 18 9 19 18 23 19 24 20 25 21 26
REMARK SMILES IDX 22 27 23 28 24 29 25 30 26 31 27 32 28 33 89 34 29 35 88 36
REMARK SMILES IDX 30 37 31 38 32 39 82 40 33 41 87 42 81 43 83 44 34 45 86 46
REMARK SMILES IDX 80 47 79 48 35 50 67 51 47 52 66 53 48 54 51 55 65 56 84 57
REMARK SMILES IDX 49 58 50 59 64 61 85 62 52 63 36 64 37 65 45 66 38 67 39 68
REMARK SMILES IDX 43 69 46 70 40 71 41 72 44 73 42 74 68 75 69 76 77 77 70 78
REMARK SMILES IDX 71 79 75 80 78 81 72 82 73 83 76 84 74 85 53 86 54 87 62 88
REMARK SMILES IDX 55 89 56 90 60 91 63 92 57 93 58 94 61 95 59 96
REMARK H PARENT 9 20 9 21 9 22 83 49 51 60
REMARK Flexibility Score: inf
ROOT
ATOM      1  C   UNL A   1      32.941  29.986  27.072  1.00  0.00     0.188 C 
ENDROOT
BRANCH   1   2
ATOM      2  C   UNL A   1      33.243  28.653  26.370  1.00  0.00     0.188 C 
BRANCH   2   3
ATOM      3  O   UNL A   1      32.613  28.274  25.159  1.00  0.00    -0.376 OA
BRANCH   3   4
ATOM      4  C   UNL A   1      31.309  27.736  25.038  1.00  0.00     0.202 C 
BRANCH   4   5
ATOM      5  C   UNL A   1      30.484  27.627  23.746  1.00  0.00     0.261 C 
BRANCH   5   6
ATOM      6  O   UNL A   1      30.268  26.336  23.184  1.00  0.00    -0.459 OA
BRANCH   6   7
ATOM      7  C   UNL A   1      31.405  25.728  22.755  1.00  0.00     0.365 C 
ATOM      8  O   UNL A   1      32.023  26.074  21.757  1.00  0.00    -0.245 OA
BRANCH   7   9
ATOM      9  C   UNL A   1      31.813  24.544  23.647  1.00  0.00     0.296 C 
BRANCH   9  10
ATOM     10  C   UNL A   1      32.880  23.699  22.937  1.00  0.00     0.113 C 
BRANCH  10  11
ATOM     11  C   UNL A   1      32.778  22.223  23.256  1.00  0.00    -0.041 A 
ATOM     12  C   UNL A   1      32.792  19.449  23.695  1.00  0.00     0.007 A 
ATOM     13  C   UNL A   1      32.153  19.974  22.576  1.00  0.00     0.015 A 
ATOM     14  C   UNL A   1      33.414  20.312  24.602  1.00  0.00     0.015 A 
ATOM     15  C   UNL A   1      32.109  21.353  22.384  1.00  0.00     0.005 A 
ATOM     16  C   UNL A   1      33.420  21.691  24.378  1.00  0.00     0.005 A 
BRANCH  12  17
ATOM     17  S   UNL A   1      32.789  17.686  23.944  1.00  0.00    -0.130 SA
ATOM     18  C   UNL A   1      32.889  17.674  25.751  1.00  0.00     0.091 C 
ENDBRANCH  12  17
ENDBRANCH  10  11
ENDBRANCH   9  10
BRANCH   9  19
ATOM     19  N   UNL A   1      30.660  23.669  24.005  1.00  0.00    -0.346 N 
ATOM     20  H   UNL A   1      29.910  24.239  24.397  1.00  0.00     0.345 HD
ATOM     21  H   UNL A   1      30.958  22.978  24.693  1.00  0.00     0.345 HD
ATOM     22  H   UNL A   1      30.322  23.193  23.168  1.00  0.00     0.345 HD
ENDBRANCH   9  19
ENDBRANCH   7   9
ENDBRANCH   6   7
ENDBRANCH   5   6
ENDBRANCH   4   5
ENDBRANCH   3   4
ENDBRANCH   2   3
ENDBRANCH   1   2
BRANCH   1  23
ATOM     23  O   UNL A   1      34.053  30.587  27.705  1.00  0.00    -0.377 OA
BRANCH  23  24
ATOM     24  C   UNL A   1      34.025  32.003  27.856  1.00  0.00     0.188 C 
BRANCH  24  25
ATOM     25  C   UNL A   1      35.353  32.782  27.998  1.00  0.00     0.188 C 
BRANCH  25  26
ATOM     26  O   UNL A   1      35.188  34.181  28.175  1.00  0.00    -0.376 OA
BRANCH  26  27
ATOM     27  C   UNL A   1      33.927  34.765  27.897  1.00  0.00     0.202 C 
BRANCH  27  28
ATOM     28  C   UNL A   1      32.904  34.789  29.041  1.00  0.00     0.261 C 
BRANCH  28  29
ATOM     29  O   UNL A   1      33.157  35.729  30.097  1.00  0.00    -0.460 OA
BRANCH  29  30
ATOM     30  C   UNL A   1      33.182  35.263  31.363  1.00  0.00     0.338 C 
ATOM     31  O   UNL A   1      32.286  35.313  32.188  1.00  0.00    -0.246 OA
BRANCH  30  32
ATOM     32  C   UNL A   1      34.428  34.486  31.527  1.00  0.00     0.060 A 
ATOM     33  C   UNL A   1      34.359  33.180  32.031  1.00  0.00     0.016 A 
ATOM     34  C   UNL A   1      35.659  35.046  31.178  1.00  0.00     0.016 A 
ATOM     35  C   UNL A   1      35.527  32.443  32.228  1.00  0.00     0.010 A 
ATOM     36  C   UNL A   1      36.830  34.317  31.398  1.00  0.00     0.010 A 
ATOM     37  C   UNL A   1      36.770  33.029  31.959  1.00  0.00    -0.014 A 
BRANCH  37  38
ATOM     38  C   UNL A   1      38.011  32.401  32.474  1.00  0.00     0.031 A 
ATOM     39  C   UNL A   1      38.645  31.316  31.648  1.00  0.00     0.074 A 
ATOM     40  C   UNL A   1      38.563  32.776  33.641  1.00  0.00     0.049 A 
ATOM     41  N   UNL A   1      39.662  30.541  31.925  1.00  0.00    -0.248 NA
ATOM     42  C   UNL A   1      38.039  31.067  30.329  1.00  0.00     0.031 C 
ATOM     43  C   UNL A   1      38.073  33.848  34.503  1.00  0.00     0.029 A 
ATOM     44  N   UNL A   1      39.654  32.276  34.308  1.00  0.00    -0.354 N 
ATOM     45  C   UNL A   1      39.808  29.707  30.824  1.00  0.00     0.074 A 
ATOM     46  C   UNL A   1      38.761  30.049  29.887  1.00  0.00     0.031 C 
ATOM     47  C   UNL A   1      38.850  33.913  35.599  1.00  0.00     0.029 A 
ATOM     48  C   UNL A   1      39.863  32.860  35.533  1.00  0.00     0.049 A 
ATOM     49  H   UNL A   1      40.231  31.567  33.942  1.00  0.00     0.167 HD
ATOM     50  C   UNL A   1      40.737  28.745  30.612  1.00  0.00     0.037 A 
ATOM     51  C   UNL A   1      40.750  32.552  36.500  1.00  0.00     0.037 A 
ATOM     52  C   UNL A   1      41.774  28.409  31.549  1.00  0.00     0.049 A 
ATOM     53  C   UNL A   1      41.720  31.415  36.277  1.00  0.00     0.074 A 
ATOM     54  C   UNL A   1      42.775  27.461  31.425  1.00  0.00     0.029 A 
ATOM     55  N   UNL A   1      41.938  29.005  32.791  1.00  0.00    -0.354 N 
ATOM     56  N   UNL A   1      41.868  30.643  35.229  1.00  0.00    -0.248 NA
ATOM     57  C   UNL A   1      42.648  31.109  37.377  1.00  0.00     0.031 C 
ATOM     58  C   UNL A   1      43.504  27.439  32.617  1.00  0.00     0.029 A 
ATOM     59  C   UNL A   1      43.005  28.424  33.456  1.00  0.00     0.049 A 
ATOM     60  H   UNL A   1      41.380  29.734  33.147  1.00  0.00     0.167 HD
ATOM     61  C   UNL A   1      42.925  29.790  35.525  1.00  0.00     0.074 A 
ATOM     62  C   UNL A   1      43.388  30.145  36.849  1.00  0.00     0.031 C 
ATOM     63  C   UNL A   1      43.466  28.803  34.768  1.00  0.00     0.037 A 
BRANCH  50  64
ATOM     64  C   UNL A   1      40.649  27.963  29.335  1.00  0.00     0.064 A 
ATOM     65  C   UNL A   1      39.775  26.873  29.191  1.00  0.00     0.173 A 
ATOM     66  C   UNL A   1      41.426  28.330  28.226  1.00  0.00     0.173 A 
ATOM     67  F   UNL A   1      39.021  26.471  30.224  1.00  0.00    -0.203 F 
ATOM     68  C   UNL A   1      39.704  26.166  27.993  1.00  0.00     0.198 A 
ATOM     69  C   UNL A   1      41.328  27.641  27.020  1.00  0.00     0.198 A 
ATOM     70  F   UNL A   1      42.279  29.363  28.309  1.00  0.00    -0.203 F 
ATOM     71  F   UNL A   1      38.901  25.098  27.894  1.00  0.00    -0.200 F 
ATOM     72  C   UNL A   1      40.474  26.556  26.907  1.00  0.00     0.200 A 
ATOM     73  F   UNL A   1      42.062  28.028  25.968  1.00  0.00    -0.200 F 
ATOM     74  F   UNL A   1      40.397  25.880  25.753  1.00  0.00    -0.200 F 
ENDBRANCH  50  64
BRANCH  51  75
ATOM     75  C   UNL A   1      40.752  33.306  37.783  1.00  0.00     0.064 A 
ATOM     76  C   UNL A   1      39.768  33.084  38.756  1.00  0.00     0.173 A 
ATOM     77  C   UNL A   1      41.717  34.290  38.048  1.00  0.00     0.173 A 
ATOM     78  F   UNL A   1      38.807  32.174  38.540  1.00  0.00    -0.203 F 
ATOM     79  C   UNL A   1      39.734  33.832  39.931  1.00  0.00     0.198 A 
ATOM     80  C   UNL A   1      41.702  35.015  39.237  1.00  0.00     0.198 A 
ATOM     81  F   UNL A   1      42.679  34.547  37.149  1.00  0.00    -0.203 F 
ATOM     82  F   UNL A   1      38.747  33.639  40.818  1.00  0.00    -0.200 F 
ATOM     83  C   UNL A   1      40.703  34.794  40.173  1.00  0.00     0.200 A 
ATOM     84  F   UNL A   1      42.648  35.934  39.473  1.00  0.00    -0.200 F 
ATOM     85  F   UNL A   1      40.669  35.513  41.304  1.00  0.00    -0.200 F 
ENDBRANCH  51  75
BRANCH  63  86
ATOM     86  C   UNL A   1      44.657  28.071  35.320  1.00  0.00     0.064 A 
ATOM     87  C   UNL A   1      44.524  26.886  36.059  1.00  0.00     0.173 A 
ATOM     88  C   UNL A   1      45.956  28.532  35.051  1.00  0.00     0.173 A 
ATOM     89  F   UNL A   1      43.305  26.408  36.355  1.00  0.00    -0.203 F 
ATOM     90  C   UNL A   1      45.644  26.206  36.528  1.00  0.00     0.198 A 
ATOM     91  C   UNL A   1      47.074  27.830  35.490  1.00  0.00     0.198 A 
ATOM     92  F   UNL A   1      46.141  29.654  34.340  1.00  0.00    -0.203 F 
ATOM     93  F   UNL A   1      45.491  25.101  37.273  1.00  0.00    -0.200 F 
ATOM     94  C   UNL A   1      46.917  26.671  36.236  1.00  0.00     0.200 A 
ATOM     95  F   UNL A   1      48.302  28.272  35.188  1.00  0.00    -0.200 F 
ATOM     96  F   UNL A   1      47.995  26.006  36.675  1.00  0.00    -0.200 F 
ENDBRANCH  63  86
ENDBRANCH  37  38
ENDBRANCH  30  32
ENDBRANCH  29  30
ENDBRANCH  28  29
ENDBRANCH  27  28
ENDBRANCH  26  27
ENDBRANCH  25  26
ENDBRANCH  24  25
ENDBRANCH  23  24
ENDBRANCH   1  23
TORSDOF 24
ENDMDL
