MODEL 1
REMARK VINA RESULT:     -10.4      0.000      0.000
REMARK SMILES O=C(C[C@@H]1C[N@@H+]([C@@H]2CCOc3ccccc32)CCO1)OCCOCCOCCOCCOC(=O)c1ccc(-c2c3nc(c(-c4c(F)c(F)c(F)c(F)c4F)c4ccc([nH]4)c(-c4c(F)c(F)c(F)c(F)c4F)c4nc(c(-c5c(F)c(F)c(F)c(F)c5F)c5ccc2[nH]5)C=C4)C=C3)cc1
REMARK SMILES IDX 26 1 25 2 24 3 23 4 22 5 21 6 20 7 2 8 1 9 3 10 4 11 5 12
REMARK SMILES IDX 19 13 6 14 18 15 17 16 7 18 8 19 16 20 9 21 11 22 15 23
REMARK SMILES IDX 10 24 12 25 14 26 13 27 27 28 28 29 29 30 30 31 31 32 32 33
REMARK SMILES IDX 33 34 34 35 35 36 36 37 97 38 37 39 96 40 38 41 39 42 40 43
REMARK SMILES IDX 90 44 41 45 95 46 89 47 91 48 42 49 94 50 88 51 87 52 43 54
REMARK SMILES IDX 75 55 55 56 74 57 56 58 59 59 73 60 92 61 57 62 58 63 72 65
REMARK SMILES IDX 93 66 60 67 44 68 45 69 53 70 46 71 47 72 51 73 54 74 48 75
REMARK SMILES IDX 49 76 52 77 50 78 76 79 77 80 85 81 78 82 79 83 83 84 86 85
REMARK SMILES IDX 80 86 81 87 84 88 82 89 61 90 62 91 70 92 63 93 64 94 68 95
REMARK SMILES IDX 71 96 65 97 66 98 69 99 67 100
REMARK H PARENT 6 17 91 53 59 64
REMARK Flexibility Score: inf
ROOT
ATOM      1  O   UNL A   1      30.647  29.966  24.510  1.00  0.00    -0.377 OA
ENDROOT
BRANCH   1   2
ATOM      2  C   UNL A   1      30.028  28.873  23.844  1.00  0.00     0.188 C 
BRANCH   2   3
ATOM      3  C   UNL A   1      30.379  28.700  22.361  1.00  0.00     0.188 C 
BRANCH   3   4
ATOM      4  O   UNL A   1      30.860  27.421  22.004  1.00  0.00    -0.376 OA
BRANCH   4   5
ATOM      5  C   UNL A   1      32.098  26.912  22.447  1.00  0.00     0.202 C 
BRANCH   5   6
ATOM      6  C   UNL A   1      32.156  25.804  23.486  1.00  0.00     0.261 C 
BRANCH   6   7
ATOM      7  O   UNL A   1      31.929  26.140  24.867  1.00  0.00    -0.463 OA
BRANCH   7   8
ATOM      8  C   UNL A   1      31.223  25.538  25.834  1.00  0.00     0.308 C 
ATOM      9  O   UNL A   1      30.090  25.955  26.078  1.00  0.00    -0.252 OA
BRANCH   8  10
ATOM     10  C   UNL A   1      31.844  24.501  26.722  1.00  0.00     0.160 C 
BRANCH  10  11
ATOM     11  C   UNL A   1      32.876  23.537  26.170  1.00  0.00     0.184 C 
ATOM     12  C   UNL A   1      32.805  22.082  26.641  1.00  0.00     0.295 C 
ATOM     13  O   UNL A   1      34.168  24.078  26.511  1.00  0.00    -0.366 OA
ATOM     14  N   UNL A   1      33.783  21.215  25.957  1.00  0.00    -0.324 N 
ATOM     15  C   UNL A   1      35.233  23.323  25.923  1.00  0.00     0.222 C 
ATOM     16  C   UNL A   1      35.119  21.807  26.205  1.00  0.00     0.291 C 
ATOM     17  H   UNL A   1      33.678  20.289  26.371  1.00  0.00     0.348 HD
BRANCH  14  18
ATOM     18  C   UNL A   1      33.547  20.792  24.542  1.00  0.00     0.222 C 
ATOM     19  C   UNL A   1      32.315  21.379  23.824  1.00  0.00     0.112 C 
ATOM     20  C   UNL A   1      33.688  19.302  24.218  1.00  0.00     0.051 A 
ATOM     21  C   UNL A   1      32.154  20.764  22.449  1.00  0.00     0.236 C 
ATOM     22  C   UNL A   1      32.871  18.702  23.242  1.00  0.00     0.128 A 
ATOM     23  C   UNL A   1      34.704  18.510  24.779  1.00  0.00     0.014 A 
ATOM     24  O   UNL A   1      31.888  19.370  22.562  1.00  0.00    -0.493 OA
ATOM     25  C   UNL A   1      32.997  17.351  22.904  1.00  0.00     0.047 A 
ATOM     26  C   UNL A   1      34.841  17.157  24.433  1.00  0.00     0.001 A 
ATOM     27  C   UNL A   1      33.983  16.575  23.501  1.00  0.00     0.004 A 
ENDBRANCH  14  18
ENDBRANCH  10  11
ENDBRANCH   8  10
ENDBRANCH   7   8
ENDBRANCH   6   7
ENDBRANCH   5   6
ENDBRANCH   4   5
ENDBRANCH   3   4
ENDBRANCH   2   3
ENDBRANCH   1   2
BRANCH   1  28
ATOM     28  C   UNL A   1      31.764  29.644  25.320  1.00  0.00     0.188 C 
BRANCH  28  29
ATOM     29  C   UNL A   1      31.800  30.318  26.707  1.00  0.00     0.188 C 
BRANCH  29  30
ATOM     30  O   UNL A   1      32.880  30.133  27.603  1.00  0.00    -0.376 OA
BRANCH  30  31
ATOM     31  C   UNL A   1      33.998  31.000  27.600  1.00  0.00     0.202 C 
BRANCH  31  32
ATOM     32  C   UNL A   1      33.889  32.525  27.403  1.00  0.00     0.261 C 
BRANCH  32  33
ATOM     33  O   UNL A   1      32.918  33.230  28.182  1.00  0.00    -0.460 OA
BRANCH  33  34
ATOM     34  C   UNL A   1      33.357  34.346  28.798  1.00  0.00     0.338 C 
ATOM     35  O   UNL A   1      32.887  35.471  28.714  1.00  0.00    -0.246 OA
BRANCH  34  36
ATOM     36  C   UNL A   1      34.389  33.972  29.788  1.00  0.00     0.060 A 
ATOM     37  C   UNL A   1      35.721  34.293  29.491  1.00  0.00     0.016 A 
ATOM     38  C   UNL A   1      34.070  33.330  30.988  1.00  0.00     0.016 A 
ATOM     39  C   UNL A   1      36.741  33.931  30.362  1.00  0.00     0.010 A 
ATOM     40  C   UNL A   1      35.100  32.927  31.845  1.00  0.00     0.010 A 
ATOM     41  C   UNL A   1      36.441  33.186  31.507  1.00  0.00    -0.014 A 
BRANCH  41  42
ATOM     42  C   UNL A   1      37.558  32.471  32.168  1.00  0.00     0.031 A 
ATOM     43  C   UNL A   1      38.220  31.351  31.411  1.00  0.00     0.074 A 
ATOM     44  C   UNL A   1      38.049  32.882  33.349  1.00  0.00     0.049 A 
ATOM     45  N   UNL A   1      39.258  30.623  31.737  1.00  0.00    -0.248 NA
ATOM     46  C   UNL A   1      37.637  31.013  30.102  1.00  0.00     0.031 C 
ATOM     47  C   UNL A   1      37.522  33.986  34.147  1.00  0.00     0.029 A 
ATOM     48  N   UNL A   1      39.117  32.417  34.075  1.00  0.00    -0.354 N 
ATOM     49  C   UNL A   1      39.455  29.754  30.671  1.00  0.00     0.074 A 
ATOM     50  C   UNL A   1      38.405  30.010  29.711  1.00  0.00     0.031 C 
ATOM     51  C   UNL A   1      38.263  34.107  35.262  1.00  0.00     0.029 A 
ATOM     52  C   UNL A   1      39.301  33.077  35.264  1.00  0.00     0.049 A 
ATOM     53  H   UNL A   1      39.695  31.680  33.772  1.00  0.00     0.167 HD
ATOM     54  C   UNL A   1      40.437  28.839  30.498  1.00  0.00     0.037 A 
ATOM     55  C   UNL A   1      40.198  32.858  36.246  1.00  0.00     0.037 A 
ATOM     56  C   UNL A   1      41.471  28.577  31.464  1.00  0.00     0.049 A 
ATOM     57  C   UNL A   1      41.233  31.774  36.065  1.00  0.00     0.074 A 
ATOM     58  C   UNL A   1      42.504  27.659  31.396  1.00  0.00     0.029 A 
ATOM     59  N   UNL A   1      41.599  29.233  32.679  1.00  0.00    -0.354 N 
ATOM     60  N   UNL A   1      41.424  30.967  35.048  1.00  0.00    -0.248 NA
ATOM     61  C   UNL A   1      42.187  31.582  37.165  1.00  0.00     0.031 C 
ATOM     62  C   UNL A   1      43.222  27.720  32.593  1.00  0.00     0.029 A 
ATOM     63  C   UNL A   1      42.680  28.724  33.381  1.00  0.00     0.049 A 
ATOM     64  H   UNL A   1      41.008  29.953  32.997  1.00  0.00     0.167 HD
ATOM     65  C   UNL A   1      42.530  30.192  35.375  1.00  0.00     0.074 A 
ATOM     66  C   UNL A   1      42.987  30.650  36.672  1.00  0.00     0.031 C 
ATOM     67  C   UNL A   1      43.116  29.188  34.673  1.00  0.00     0.037 A 
BRANCH  54  68
ATOM     68  C   UNL A   1      40.422  28.040  29.227  1.00  0.00     0.064 A 
ATOM     69  C   UNL A   1      41.196  28.407  28.115  1.00  0.00     0.173 A 
ATOM     70  C   UNL A   1      39.646  26.876  29.128  1.00  0.00     0.173 A 
ATOM     71  F   UNL A   1      41.941  29.523  28.149  1.00  0.00    -0.203 F 
ATOM     72  C   UNL A   1      41.176  27.652  26.945  1.00  0.00     0.198 A 
ATOM     73  C   UNL A   1      39.654  26.104  27.970  1.00  0.00     0.198 A 
ATOM     74  F   UNL A   1      38.887  26.478  30.161  1.00  0.00    -0.203 F 
ATOM     75  F   UNL A   1      41.886  28.048  25.880  1.00  0.00    -0.200 F 
ATOM     76  C   UNL A   1      40.413  26.496  26.877  1.00  0.00     0.200 A 
ATOM     77  F   UNL A   1      38.926  24.980  27.910  1.00  0.00    -0.200 F 
ATOM     78  F   UNL A   1      40.403  25.762  25.755  1.00  0.00    -0.200 F 
ENDBRANCH  54  68
BRANCH  55  79
ATOM     79  C   UNL A   1      40.147  33.658  37.498  1.00  0.00     0.064 A 
ATOM     80  C   UNL A   1      39.247  33.352  38.528  1.00  0.00     0.173 A 
ATOM     81  C   UNL A   1      40.977  34.777  37.672  1.00  0.00     0.173 A 
ATOM     82  F   UNL A   1      38.415  32.308  38.404  1.00  0.00    -0.203 F 
ATOM     83  C   UNL A   1      39.157  34.151  39.668  1.00  0.00     0.198 A 
ATOM     84  C   UNL A   1      40.911  35.553  38.826  1.00  0.00     0.198 A 
ATOM     85  F   UNL A   1      41.856  35.115  36.717  1.00  0.00    -0.203 F 
ATOM     86  F   UNL A   1      38.244  33.872  40.608  1.00  0.00    -0.200 F 
ATOM     87  C   UNL A   1      39.993  35.247  39.818  1.00  0.00     0.200 A 
ATOM     88  F   UNL A   1      41.733  36.601  38.974  1.00  0.00    -0.200 F 
ATOM     89  F   UNL A   1      39.907  36.013  40.914  1.00  0.00    -0.200 F 
ENDBRANCH  55  79
BRANCH  67  90
ATOM     90  C   UNL A   1      44.331  28.544  35.282  1.00  0.00     0.064 A 
ATOM     91  C   UNL A   1      45.624  29.037  35.053  1.00  0.00     0.173 A 
ATOM     92  C   UNL A   1      44.199  27.417  36.110  1.00  0.00     0.173 A 
ATOM     93  F   UNL A   1      45.809  30.106  34.261  1.00  0.00    -0.203 F 
ATOM     94  C   UNL A   1      46.741  28.398  35.585  1.00  0.00     0.198 A 
ATOM     95  C   UNL A   1      45.315  26.805  36.675  1.00  0.00     0.198 A 
ATOM     96  F   UNL A   1      42.985  26.909  36.376  1.00  0.00    -0.203 F 
ATOM     97  F   UNL A   1      47.969  28.844  35.289  1.00  0.00    -0.200 F 
ATOM     98  C   UNL A   1      46.585  27.287  36.398  1.00  0.00     0.200 A 
ATOM     99  F   UNL A   1      45.160  25.743  37.476  1.00  0.00    -0.200 F 
ATOM    100  F   UNL A   1      47.662  26.670  36.907  1.00  0.00    -0.200 F 
ENDBRANCH  67  90
ENDBRANCH  41  42
ENDBRANCH  34  36
ENDBRANCH  33  34
ENDBRANCH  32  33
ENDBRANCH  31  32
ENDBRANCH  30  31
ENDBRANCH  29  30
ENDBRANCH  28  29
ENDBRANCH   1  28
TORSDOF 22
ENDMDL
MODEL 2
REMARK VINA RESULT:     -10.1      1.255      7.386
REMARK SMILES O=C(C[C@@H]1C[N@@H+]([C@@H]2CCOc3ccccc32)CCO1)OCCOCCOCCOCCOC(=O)c1ccc(-c2c3nc(c(-c4c(F)c(F)c(F)c(F)c4F)c4ccc([nH]4)c(-c4c(F)c(F)c(F)c(F)c4F)c4nc(c(-c5c(F)c(F)c(F)c(F)c5F)c5ccc2[nH]5)C=C4)C=C3)cc1
REMARK SMILES IDX 26 1 25 2 24 3 23 4 22 5 21 6 20 7 2 8 1 9 3 10 4 11 5 12
REMARK SMILES IDX 19 13 6 14 18 15 17 16 7 18 8 19 16 20 9 21 11 22 15 23
REMARK SMILES IDX 10 24 12 25 14 26 13 27 27 28 28 29 29 30 30 31 31 32 32 33
REMARK SMILES IDX 33 34 34 35 35 36 36 37 97 38 37 39 96 40 38 41 39 42 40 43
REMARK SMILES IDX 90 44 41 45 95 46 89 47 91 48 42 49 94 50 88 51 87 52 43 54
REMARK SMILES IDX 75 55 55 56 74 57 56 58 59 59 73 60 92 61 57 62 58 63 72 65
REMARK SMILES IDX 93 66 60 67 44 68 45 69 53 70 46 71 47 72 51 73 54 74 48 75
REMARK SMILES IDX 49 76 52 77 50 78 76 79 77 80 85 81 78 82 79 83 83 84 86 85
REMARK SMILES IDX 80 86 81 87 84 88 82 89 61 90 62 91 70 92 63 93 64 94 68 95
REMARK SMILES IDX 71 96 65 97 66 98 69 99 67 100
REMARK H PARENT 6 17 91 53 59 64
REMARK Flexibility Score: inf
ROOT
ATOM      1  O   UNL A   1      30.305  29.366  24.073  1.00  0.00    -0.377 OA
ENDROOT
BRANCH   1   2
ATOM      2  C   UNL A   1      29.783  28.348  23.229  1.00  0.00     0.188 C 
BRANCH   2   3
ATOM      3  C   UNL A   1      30.543  27.017  23.226  1.00  0.00     0.188 C 
BRANCH   3   4
ATOM      4  O   UNL A   1      29.916  25.965  23.929  1.00  0.00    -0.376 OA
BRANCH   4   5
ATOM      5  C   UNL A   1      29.808  25.934  25.334  1.00  0.00     0.202 C 
BRANCH   5   6
ATOM      6  C   UNL A   1      31.004  25.562  26.196  1.00  0.00     0.261 C 
BRANCH   6   7
ATOM      7  O   UNL A   1      30.934  24.366  26.994  1.00  0.00    -0.463 OA
BRANCH   7   8
ATOM      8  C   UNL A   1      30.247  23.225  26.844  1.00  0.00     0.308 C 
ATOM      9  O   UNL A   1      29.559  22.828  27.786  1.00  0.00    -0.252 OA
BRANCH   8  10
ATOM     10  C   UNL A   1      30.436  22.353  25.639  1.00  0.00     0.160 C 
BRANCH  10  11
ATOM     11  C   UNL A   1      31.788  21.736  25.343  1.00  0.00     0.184 C 
ATOM     12  C   UNL A   1      32.270  21.753  23.890  1.00  0.00     0.295 C 
ATOM     13  O   UNL A   1      31.728  20.370  25.801  1.00  0.00    -0.366 OA
ATOM     14  N   UNL A   1      33.640  21.230  23.739  1.00  0.00    -0.324 N 
ATOM     15  C   UNL A   1      32.998  19.717  25.700  1.00  0.00     0.222 C 
ATOM     16  C   UNL A   1      33.632  19.857  24.297  1.00  0.00     0.291 C 
ATOM     17  H   UNL A   1      33.841  21.248  22.738  1.00  0.00     0.348 HD
BRANCH  14  18
ATOM     18  C   UNL A   1      34.810  22.062  24.158  1.00  0.00     0.222 C 
ATOM     19  C   UNL A   1      35.710  21.503  25.278  1.00  0.00     0.112 C 
ATOM     20  C   UNL A   1      34.572  23.559  24.369  1.00  0.00     0.051 A 
ATOM     21  C   UNL A   1      36.772  22.510  25.664  1.00  0.00     0.236 C 
ATOM     22  C   UNL A   1      35.277  24.263  25.363  1.00  0.00     0.128 A 
ATOM     23  C   UNL A   1      33.747  24.311  23.515  1.00  0.00     0.014 A 
ATOM     24  O   UNL A   1      36.168  23.673  26.219  1.00  0.00    -0.493 OA
ATOM     25  C   UNL A   1      35.103  25.637  25.558  1.00  0.00     0.047 A 
ATOM     26  C   UNL A   1      33.580  25.691  23.701  1.00  0.00     0.001 A 
ATOM     27  C   UNL A   1      34.251  26.353  24.727  1.00  0.00     0.004 A 
ENDBRANCH  14  18
ENDBRANCH  10  11
ENDBRANCH   8  10
ENDBRANCH   7   8
ENDBRANCH   6   7
ENDBRANCH   5   6
ENDBRANCH   4   5
ENDBRANCH   3   4
ENDBRANCH   2   3
ENDBRANCH   1   2
BRANCH   1  28
ATOM     28  C   UNL A   1      31.515  29.055  24.740  1.00  0.00     0.188 C 
BRANCH  28  29
ATOM     29  C   UNL A   1      32.145  30.205  25.553  1.00  0.00     0.188 C 
BRANCH  29  30
ATOM     30  O   UNL A   1      32.892  29.969  26.731  1.00  0.00    -0.376 OA
BRANCH  30  31
ATOM     31  C   UNL A   1      33.224  31.022  27.617  1.00  0.00     0.202 C 
BRANCH  31  32
ATOM     32  C   UNL A   1      33.144  32.513  27.231  1.00  0.00     0.261 C 
BRANCH  32  33
ATOM     33  O   UNL A   1      32.419  33.388  28.100  1.00  0.00    -0.460 OA
BRANCH  33  34
ATOM     34  C   UNL A   1      33.081  34.486  28.514  1.00  0.00     0.338 C 
ATOM     35  O   UNL A   1      32.726  35.651  28.404  1.00  0.00    -0.246 OA
BRANCH  34  36
ATOM     36  C   UNL A   1      34.236  34.067  29.338  1.00  0.00     0.060 A 
ATOM     37  C   UNL A   1      35.516  34.416  28.886  1.00  0.00     0.016 A 
ATOM     38  C   UNL A   1      34.078  33.357  30.531  1.00  0.00     0.016 A 
ATOM     39  C   UNL A   1      36.642  34.016  29.595  1.00  0.00     0.010 A 
ATOM     40  C   UNL A   1      35.213  32.916  31.222  1.00  0.00     0.010 A 
ATOM     41  C   UNL A   1      36.497  33.205  30.725  1.00  0.00    -0.014 A 
BRANCH  41  42
ATOM     42  C   UNL A   1      37.692  32.465  31.193  1.00  0.00     0.031 A 
ATOM     43  C   UNL A   1      38.213  32.773  32.571  1.00  0.00     0.074 A 
ATOM     44  C   UNL A   1      38.223  31.465  30.470  1.00  0.00     0.049 A 
ATOM     45  N   UNL A   1      39.194  32.217  33.236  1.00  0.00    -0.248 NA
ATOM     46  C   UNL A   1      37.529  33.852  33.302  1.00  0.00     0.031 C 
ATOM     47  C   UNL A   1      37.768  31.044  29.147  1.00  0.00     0.029 A 
ATOM     48  N   UNL A   1      39.258  30.614  30.761  1.00  0.00    -0.354 N 
ATOM     49  C   UNL A   1      39.232  32.869  34.462  1.00  0.00     0.074 A 
ATOM     50  C   UNL A   1      38.212  33.893  34.434  1.00  0.00     0.031 C 
ATOM     51  C   UNL A   1      38.531  30.018  28.732  1.00  0.00     0.029 A 
ATOM     52  C   UNL A   1      39.538  29.725  29.752  1.00  0.00     0.049 A 
ATOM     53  H   UNL A   1      39.755  30.638  31.610  1.00  0.00     0.167 HD
ATOM     54  C   UNL A   1      40.032  32.622  35.525  1.00  0.00     0.037 A 
ATOM     55  C   UNL A   1      40.510  28.796  29.662  1.00  0.00     0.037 A 
ATOM     56  C   UNL A   1      41.056  31.611  35.544  1.00  0.00     0.049 A 
ATOM     57  C   UNL A   1      41.444  28.596  30.831  1.00  0.00     0.074 A 
ATOM     58  C   UNL A   1      41.935  31.290  36.563  1.00  0.00     0.029 A 
ATOM     59  N   UNL A   1      41.343  30.761  34.486  1.00  0.00    -0.354 N 
ATOM     60  N   UNL A   1      41.465  29.205  31.993  1.00  0.00    -0.248 NA
ATOM     61  C   UNL A   1      42.481  27.567  30.679  1.00  0.00     0.031 C 
ATOM     62  C   UNL A   1      42.789  30.284  36.102  1.00  0.00     0.029 A 
ATOM     63  C   UNL A   1      42.401  29.930  34.819  1.00  0.00     0.049 A 
ATOM     64  H   UNL A   1      40.866  30.750  33.625  1.00  0.00     0.167 HD
ATOM     65  C   UNL A   1      42.497  28.617  32.716  1.00  0.00     0.074 A 
ATOM     66  C   UNL A   1      43.055  27.582  31.872  1.00  0.00     0.031 C 
ATOM     67  C   UNL A   1      42.947  28.908  33.963  1.00  0.00     0.037 A 
BRANCH  54  68
ATOM     68  C   UNL A   1      39.844  33.475  36.746  1.00  0.00     0.064 A 
ATOM     69  C   UNL A   1      40.588  34.647  36.951  1.00  0.00     0.173 A 
ATOM     70  C   UNL A   1      38.886  33.132  37.712  1.00  0.00     0.173 A 
ATOM     71  F   UNL A   1      41.532  35.010  36.068  1.00  0.00    -0.203 F 
ATOM     72  C   UNL A   1      40.397  35.431  38.086  1.00  0.00     0.198 A 
ATOM     73  C   UNL A   1      38.673  33.935  38.829  1.00  0.00     0.198 A 
ATOM     74  F   UNL A   1      38.146  32.021  37.568  1.00  0.00    -0.203 F 
ATOM     75  F   UNL A   1      41.153  36.520  38.283  1.00  0.00    -0.200 F 
ATOM     76  C   UNL A   1      39.433  35.080  39.019  1.00  0.00     0.200 A 
ATOM     77  F   UNL A   1      37.732  33.601  39.724  1.00  0.00    -0.200 F 
ATOM     78  F   UNL A   1      39.240  35.841  40.105  1.00  0.00    -0.200 F 
ENDBRANCH  54  68
BRANCH  55  79
ATOM     79  C   UNL A   1      40.671  28.000  28.416  1.00  0.00     0.064 A 
ATOM     80  C   UNL A   1      40.066  26.746  28.264  1.00  0.00     0.173 A 
ATOM     81  C   UNL A   1      41.472  28.467  27.363  1.00  0.00     0.173 A 
ATOM     82  F   UNL A   1      39.309  26.242  29.250  1.00  0.00    -0.203 F 
ATOM     83  C   UNL A   1      40.280  25.975  27.121  1.00  0.00     0.198 A 
ATOM     84  C   UNL A   1      41.658  27.712  26.207  1.00  0.00     0.198 A 
ATOM     85  F   UNL A   1      42.076  29.661  27.456  1.00  0.00    -0.203 F 
ATOM     86  F   UNL A   1      39.740  24.753  27.029  1.00  0.00    -0.200 F 
ATOM     87  C   UNL A   1      41.071  26.462  26.091  1.00  0.00     0.200 A 
ATOM     88  F   UNL A   1      42.409  28.195  25.207  1.00  0.00    -0.200 F 
ATOM     89  F   UNL A   1      41.276  25.722  24.993  1.00  0.00    -0.200 F 
ENDBRANCH  55  79
BRANCH  67  90
ATOM     90  C   UNL A   1      44.079  28.073  34.495  1.00  0.00     0.064 A 
ATOM     91  C   UNL A   1      45.420  28.458  34.341  1.00  0.00     0.173 A 
ATOM     92  C   UNL A   1      43.819  26.870  35.172  1.00  0.00     0.173 A 
ATOM     93  F   UNL A   1      45.726  29.594  33.694  1.00  0.00    -0.203 F 
ATOM     94  C   UNL A   1      46.457  27.648  34.797  1.00  0.00     0.198 A 
ATOM     95  C   UNL A   1      44.857  26.082  35.663  1.00  0.00     0.198 A 
ATOM     96  F   UNL A   1      42.556  26.458  35.360  1.00  0.00    -0.203 F 
ATOM     97  F   UNL A   1      47.729  28.001  34.570  1.00  0.00    -0.200 F 
ATOM     98  C   UNL A   1      46.174  26.464  35.460  1.00  0.00     0.200 A 
ATOM     99  F   UNL A   1      44.581  24.948  36.320  1.00  0.00    -0.200 F 
ATOM    100  F   UNL A   1      47.173  25.682  35.895  1.00  0.00    -0.200 F 
ENDBRANCH  67  90
ENDBRANCH  41  42
ENDBRANCH  34  36
ENDBRANCH  33  34
ENDBRANCH  32  33
ENDBRANCH  31  32
ENDBRANCH  30  31
ENDBRANCH  29  30
ENDBRANCH  28  29
ENDBRANCH   1  28
TORSDOF 22
ENDMDL
MODEL 3
REMARK VINA RESULT:      -9.9      1.705      3.323
REMARK SMILES O=C(C[C@@H]1C[N@@H+]([C@@H]2CCOc3ccccc32)CCO1)OCCOCCOCCOCCOC(=O)c1ccc(-c2c3nc(c(-c4c(F)c(F)c(F)c(F)c4F)c4ccc([nH]4)c(-c4c(F)c(F)c(F)c(F)c4F)c4nc(c(-c5c(F)c(F)c(F)c(F)c5F)c5ccc2[nH]5)C=C4)C=C3)cc1
REMARK SMILES IDX 26 1 25 2 24 3 23 4 22 5 21 6 20 7 2 8 1 9 3 10 4 11 5 12
REMARK SMILES IDX 19 13 6 14 18 15 17 16 7 18 8 19 16 20 9 21 11 22 15 23
REMARK SMILES IDX 10 24 12 25 14 26 13 27 27 28 28 29 29 30 30 31 31 32 32 33
REMARK SMILES IDX 33 34 34 35 35 36 36 37 97 38 37 39 96 40 38 41 39 42 40 43
REMARK SMILES IDX 90 44 41 45 95 46 89 47 91 48 42 49 94 50 88 51 87 52 43 54
REMARK SMILES IDX 75 55 55 56 74 57 56 58 59 59 73 60 92 61 57 62 58 63 72 65
REMARK SMILES IDX 93 66 60 67 44 68 45 69 53 70 46 71 47 72 51 73 54 74 48 75
REMARK SMILES IDX 49 76 52 77 50 78 76 79 77 80 85 81 78 82 79 83 83 84 86 85
REMARK SMILES IDX 80 86 81 87 84 88 82 89 61 90 62 91 70 92 63 93 64 94 68 95
REMARK SMILES IDX 71 96 65 97 66 98 69 99 67 100
REMARK H PARENT 6 17 91 53 59 64
REMARK Flexibility Score: inf
ROOT
ATOM      1  O   UNL A   1      36.395  30.844  28.148  1.00  0.00    -0.377 OA
ENDROOT
BRANCH   1   2
ATOM      2  C   UNL A   1      35.328  29.936  27.908  1.00  0.00     0.188 C 
BRANCH   2   3
ATOM      3  C   UNL A   1      34.200  30.445  27.002  1.00  0.00     0.188 C 
BRANCH   3   4
ATOM      4  O   UNL A   1      32.904  30.375  27.560  1.00  0.00    -0.376 OA
BRANCH   4   5
ATOM      5  C   UNL A   1      31.803  29.812  26.883  1.00  0.00     0.202 C 
BRANCH   5   6
ATOM      6  C   UNL A   1      31.613  30.034  25.391  1.00  0.00     0.261 C 
BRANCH   6   7
ATOM      7  O   UNL A   1      31.345  28.895  24.553  1.00  0.00    -0.463 OA
BRANCH   7   8
ATOM      8  C   UNL A   1      31.319  28.746  23.221  1.00  0.00     0.308 C 
ATOM      9  O   UNL A   1      30.559  29.460  22.567  1.00  0.00    -0.252 OA
BRANCH   8  10
ATOM     10  C   UNL A   1      32.057  27.628  22.547  1.00  0.00     0.160 C 
BRANCH  10  11
ATOM     11  C   UNL A   1      31.925  26.206  23.056  1.00  0.00     0.184 C 
ATOM     12  C   UNL A   1      32.512  25.088  22.189  1.00  0.00     0.295 C 
ATOM     13  O   UNL A   1      30.516  25.963  23.242  1.00  0.00    -0.366 OA
ATOM     14  N   UNL A   1      32.426  23.765  22.833  1.00  0.00    -0.324 N 
ATOM     15  C   UNL A   1      30.270  24.692  23.853  1.00  0.00     0.222 C 
ATOM     16  C   UNL A   1      30.993  23.532  23.130  1.00  0.00     0.291 C 
ATOM     17  H   UNL A   1      32.804  23.098  22.159  1.00  0.00     0.348 HD
BRANCH  14  18
ATOM     18  C   UNL A   1      33.355  23.414  23.951  1.00  0.00     0.222 C 
ATOM     19  C   UNL A   1      34.668  24.216  24.057  1.00  0.00     0.112 C 
ATOM     20  C   UNL A   1      33.621  21.929  24.209  1.00  0.00     0.051 A 
ATOM     21  C   UNL A   1      35.544  23.664  25.162  1.00  0.00     0.236 C 
ATOM     22  C   UNL A   1      34.881  21.495  24.660  1.00  0.00     0.128 A 
ATOM     23  C   UNL A   1      32.602  20.964  24.129  1.00  0.00     0.014 A 
ATOM     24  O   UNL A   1      35.946  22.334  24.853  1.00  0.00    -0.493 OA
ATOM     25  C   UNL A   1      35.144  20.148  24.932  1.00  0.00     0.047 A 
ATOM     26  C   UNL A   1      32.859  19.614  24.414  1.00  0.00     0.001 A 
ATOM     27  C   UNL A   1      34.132  19.205  24.808  1.00  0.00     0.004 A 
ENDBRANCH  14  18
ENDBRANCH  10  11
ENDBRANCH   8  10
ENDBRANCH   7   8
ENDBRANCH   6   7
ENDBRANCH   5   6
ENDBRANCH   4   5
ENDBRANCH   3   4
ENDBRANCH   2   3
ENDBRANCH   1   2
BRANCH   1  28
ATOM     28  C   UNL A   1      36.110  31.914  29.031  1.00  0.00     0.188 C 
BRANCH  28  29
ATOM     29  C   UNL A   1      36.181  33.327  28.415  1.00  0.00     0.188 C 
BRANCH  29  30
ATOM     30  O   UNL A   1      35.176  33.820  27.550  1.00  0.00    -0.376 OA
BRANCH  30  31
ATOM     31  C   UNL A   1      33.863  34.070  28.013  1.00  0.00     0.202 C 
BRANCH  31  32
ATOM     32  C   UNL A   1      33.538  35.058  29.151  1.00  0.00     0.261 C 
BRANCH  32  33
ATOM     33  O   UNL A   1      33.183  34.512  30.425  1.00  0.00    -0.460 OA
BRANCH  33  34
ATOM     34  C   UNL A   1      33.316  35.342  31.479  1.00  0.00     0.338 C 
ATOM     35  O   UNL A   1      32.577  36.263  31.794  1.00  0.00    -0.246 OA
BRANCH  34  36
ATOM     36  C   UNL A   1      34.398  34.839  32.352  1.00  0.00     0.060 A 
ATOM     37  C   UNL A   1      35.691  35.337  32.138  1.00  0.00     0.016 A 
ATOM     38  C   UNL A   1      34.161  33.907  33.366  1.00  0.00     0.016 A 
ATOM     39  C   UNL A   1      36.756  34.872  32.898  1.00  0.00     0.010 A 
ATOM     40  C   UNL A   1      35.240  33.405  34.103  1.00  0.00     0.010 A 
ATOM     41  C   UNL A   1      36.546  33.854  33.835  1.00  0.00    -0.014 A 
BRANCH  41  42
ATOM     42  C   UNL A   1      37.734  33.105  34.308  1.00  0.00     0.031 A 
ATOM     43  C   UNL A   1      38.290  32.033  33.410  1.00  0.00     0.074 A 
ATOM     44  C   UNL A   1      38.373  33.449  35.439  1.00  0.00     0.049 A 
ATOM     45  N   UNL A   1      39.358  31.290  33.559  1.00  0.00    -0.248 NA
ATOM     46  C   UNL A   1      37.545  31.770  32.168  1.00  0.00     0.031 C 
ATOM     47  C   UNL A   1      37.955  34.504  36.359  1.00  0.00     0.029 A 
ATOM     48  N   UNL A   1      39.521  32.946  35.996  1.00  0.00    -0.354 N 
ATOM     49  C   UNL A   1      39.415  30.485  32.429  1.00  0.00     0.074 A 
ATOM     50  C   UNL A   1      38.253  30.792  31.625  1.00  0.00     0.031 C 
ATOM     51  C   UNL A   1      38.831  34.562  37.377  1.00  0.00     0.029 A 
ATOM     52  C   UNL A   1      39.856  33.537  37.189  1.00  0.00     0.049 A 
ATOM     53  H   UNL A   1      40.053  32.229  35.581  1.00  0.00     0.167 HD
ATOM     54  C   UNL A   1      40.363  29.584  32.082  1.00  0.00     0.037 A 
ATOM     55  C   UNL A   1      40.869  33.263  38.035  1.00  0.00     0.037 A 
ATOM     56  C   UNL A   1      41.510  29.269  32.892  1.00  0.00     0.049 A 
ATOM     57  C   UNL A   1      41.868  32.195  37.663  1.00  0.00     0.074 A 
ATOM     58  C   UNL A   1      42.521  28.359  32.642  1.00  0.00     0.029 A 
ATOM     59  N   UNL A   1      41.792  29.854  34.117  1.00  0.00    -0.354 N 
ATOM     60  N   UNL A   1      41.925  31.448  36.586  1.00  0.00    -0.248 NA
ATOM     61  C   UNL A   1      42.952  31.942  38.622  1.00  0.00     0.031 C 
ATOM     62  C   UNL A   1      43.385  28.353  33.741  1.00  0.00     0.029 A 
ATOM     63  C   UNL A   1      42.951  29.308  34.647  1.00  0.00     0.049 A 
ATOM     64  H   UNL A   1      41.249  30.553  34.549  1.00  0.00     0.167 HD
ATOM     65  C   UNL A   1      43.061  30.658  36.726  1.00  0.00     0.074 A 
ATOM     66  C   UNL A   1      43.679  31.041  37.978  1.00  0.00     0.031 C 
ATOM     67  C   UNL A   1      43.548  29.699  35.899  1.00  0.00     0.037 A 
BRANCH  54  68
ATOM     68  C   UNL A   1      40.185  28.859  30.779  1.00  0.00     0.064 A 
ATOM     69  C   UNL A   1      39.462  27.659  30.693  1.00  0.00     0.173 A 
ATOM     70  C   UNL A   1      40.720  29.386  29.594  1.00  0.00     0.173 A 
ATOM     71  F   UNL A   1      38.947  27.101  31.800  1.00  0.00    -0.203 F 
ATOM     72  C   UNL A   1      39.300  27.003  29.475  1.00  0.00     0.198 A 
ATOM     73  C   UNL A   1      40.528  28.746  28.373  1.00  0.00     0.198 A 
ATOM     74  F   UNL A   1      41.420  30.531  29.617  1.00  0.00    -0.203 F 
ATOM     75  F   UNL A   1      38.647  25.834  29.426  1.00  0.00    -0.200 F 
ATOM     76  C   UNL A   1      39.825  27.552  28.315  1.00  0.00     0.200 A 
ATOM     77  F   UNL A   1      41.025  29.284  27.250  1.00  0.00    -0.200 F 
ATOM     78  F   UNL A   1      39.659  26.927  27.141  1.00  0.00    -0.200 F 
ENDBRANCH  54  68
BRANCH  55  79
ATOM     79  C   UNL A   1      40.980  33.990  39.328  1.00  0.00     0.064 A 
ATOM     80  C   UNL A   1      40.358  33.517  40.491  1.00  0.00     0.173 A 
ATOM     81  C   UNL A   1      41.683  35.201  39.415  1.00  0.00     0.173 A 
ATOM     82  F   UNL A   1      39.653  32.376  40.459  1.00  0.00    -0.203 F 
ATOM     83  C   UNL A   1      40.408  34.242  41.682  1.00  0.00     0.198 A 
ATOM     84  C   UNL A   1      41.762  35.907  40.613  1.00  0.00     0.198 A 
ATOM     85  F   UNL A   1      42.296  35.701  38.332  1.00  0.00    -0.203 F 
ATOM     86  F   UNL A   1      39.751  33.797  42.762  1.00  0.00    -0.200 F 
ATOM     87  C   UNL A   1      41.115  35.433  41.743  1.00  0.00     0.200 A 
ATOM     88  F   UNL A   1      42.460  37.049  40.671  1.00  0.00    -0.200 F 
ATOM     89  F   UNL A   1      41.163  36.128  42.887  1.00  0.00    -0.200 F 
ENDBRANCH  55  79
BRANCH  67  90
ATOM     90  C   UNL A   1      44.827  29.023  36.312  1.00  0.00     0.064 A 
ATOM     91  C   UNL A   1      46.084  29.558  35.990  1.00  0.00     0.173 A 
ATOM     92  C   UNL A   1      44.795  27.824  37.042  1.00  0.00     0.173 A 
ATOM     93  F   UNL A   1      46.173  30.697  35.285  1.00  0.00    -0.203 F 
ATOM     94  C   UNL A   1      47.257  28.893  36.338  1.00  0.00     0.198 A 
ATOM     95  C   UNL A   1      45.970  27.183  37.425  1.00  0.00     0.198 A 
ATOM     96  F   UNL A   1      43.622  27.273  37.389  1.00  0.00    -0.203 F 
ATOM     97  F   UNL A   1      48.443  29.386  35.954  1.00  0.00    -0.200 F 
ATOM     98  C   UNL A   1      47.200  27.710  37.058  1.00  0.00     0.200 A 
ATOM     99  F   UNL A   1      45.912  26.050  38.137  1.00  0.00    -0.200 F 
ATOM    100  F   UNL A   1      48.330  27.069  37.389  1.00  0.00    -0.200 F 
ENDBRANCH  67  90
ENDBRANCH  41  42
ENDBRANCH  34  36
ENDBRANCH  33  34
ENDBRANCH  32  33
ENDBRANCH  31  32
ENDBRANCH  30  31
ENDBRANCH  29  30
ENDBRANCH  28  29
ENDBRANCH   1  28
TORSDOF 22
ENDMDL
