MODEL 1
REMARK VINA RESULT:      -9.9      0.000      0.000
REMARK SMILES O=C(OCCOCCOCCOCCOC(=O)[C@H](Cc1cccc(Br)c1)CC1CCC1)c1ccc(-c2c3nc(c(-c4c(F)c(F)c(F)c(F)c4F)c4ccc([nH]4)c(-c4c(F)c(F)c(F)c(F)c4F)c4nc(c(-c5c(F)c(F)c(F)c(F)c5F)c5ccc2[nH]5)C=C4)C=C3)cc1
REMARK SMILES IDX 9 1 8 2 7 3 6 4 5 5 4 6 3 7 2 8 1 9 32 10 33 11 94 12 34 13
REMARK SMILES IDX 93 14 35 15 36 16 37 17 87 18 38 19 92 20 86 21 88 22 39 23
REMARK SMILES IDX 91 24 85 25 84 26 40 28 72 29 52 30 71 31 53 32 56 33 70 34
REMARK SMILES IDX 89 35 54 36 55 37 69 39 90 40 57 41 41 42 42 43 50 44 43 45
REMARK SMILES IDX 44 46 48 47 51 48 45 49 46 50 49 51 47 52 73 53 74 54 82 55
REMARK SMILES IDX 75 56 76 57 80 58 83 59 77 60 78 61 81 62 79 63 58 64 59 65
REMARK SMILES IDX 67 66 60 67 61 68 65 69 68 70 62 71 63 72 66 73 64 74 10 75
REMARK SMILES IDX 11 76 12 77 13 78 14 79 15 80 16 81 17 82 18 83 27 84 28 85
REMARK SMILES IDX 29 86 31 87 30 88 19 89 20 90 21 91 26 92 22 93 24 94 23 95
REMARK SMILES IDX 25 96
REMARK H PARENT 88 27 56 38
REMARK Flexibility Score: inf
ROOT
ATOM      1  O   UNL A   1      37.887  22.242  25.971  1.00  0.00    -0.377 OA
ENDROOT
BRANCH   1   2
ATOM      2  C   UNL A   1      39.287  22.040  25.943  1.00  0.00     0.188 C 
BRANCH   2   3
ATOM      3  C   UNL A   1      39.750  20.621  26.257  1.00  0.00     0.188 C 
BRANCH   3   4
ATOM      4  O   UNL A   1      40.630  20.549  27.379  1.00  0.00    -0.376 OA
BRANCH   4   5
ATOM      5  C   UNL A   1      42.004  20.282  27.078  1.00  0.00     0.202 C 
BRANCH   5   6
ATOM      6  C   UNL A   1      42.890  21.526  27.047  1.00  0.00     0.261 C 
BRANCH   6   7
ATOM      7  O   UNL A   1      42.908  22.169  25.766  1.00  0.00    -0.460 OA
BRANCH   7   8
ATOM      8  C   UNL A   1      42.952  23.493  25.485  1.00  0.00     0.338 C 
ATOM      9  O   UNL A   1      43.406  23.826  24.389  1.00  0.00    -0.246 OA
BRANCH   8  10
ATOM     10  C   UNL A   1      42.528  24.594  26.417  1.00  0.00     0.060 A 
ATOM     11  C   UNL A   1      43.074  25.878  26.485  1.00  0.00     0.016 A 
ATOM     12  C   UNL A   1      41.424  24.319  27.246  1.00  0.00     0.016 A 
ATOM     13  C   UNL A   1      42.544  26.862  27.302  1.00  0.00     0.010 A 
ATOM     14  C   UNL A   1      40.903  25.288  28.108  1.00  0.00     0.010 A 
ATOM     15  C   UNL A   1      41.476  26.562  28.135  1.00  0.00    -0.014 A 
BRANCH  15  16
ATOM     16  C   UNL A   1      41.158  27.549  29.173  1.00  0.00     0.031 A 
ATOM     17  C   UNL A   1      42.087  27.622  30.345  1.00  0.00     0.074 A 
ATOM     18  C   UNL A   1      40.190  28.455  28.964  1.00  0.00     0.049 A 
ATOM     19  N   UNL A   1      42.016  28.363  31.414  1.00  0.00    -0.248 NA
ATOM     20  C   UNL A   1      43.280  26.756  30.289  1.00  0.00     0.031 C 
ATOM     21  C   UNL A   1      39.374  28.554  27.751  1.00  0.00     0.029 A 
ATOM     22  N   UNL A   1      39.749  29.484  29.750  1.00  0.00    -0.354 N 
ATOM     23  C   UNL A   1      43.131  28.028  32.169  1.00  0.00     0.074 A 
ATOM     24  C   UNL A   1      43.877  27.034  31.437  1.00  0.00     0.031 C 
ATOM     25  C   UNL A   1      38.520  29.583  27.882  1.00  0.00     0.029 A 
ATOM     26  C   UNL A   1      38.685  30.163  29.210  1.00  0.00     0.049 A 
ATOM     27  H   UNL A   1      40.154  29.713  30.616  1.00  0.00     0.167 HD
ATOM     28  C   UNL A   1      43.477  28.509  33.384  1.00  0.00     0.037 A 
ATOM     29  C   UNL A   1      37.905  31.107  29.772  1.00  0.00     0.037 A 
ATOM     30  C   UNL A   1      42.703  29.502  34.073  1.00  0.00     0.049 A 
ATOM     31  C   UNL A   1      38.238  31.527  31.183  1.00  0.00     0.074 A 
ATOM     32  C   UNL A   1      42.898  30.033  35.332  1.00  0.00     0.029 A 
ATOM     33  N   UNL A   1      41.570  30.109  33.545  1.00  0.00    -0.354 N 
ATOM     34  N   UNL A   1      39.249  31.162  31.939  1.00  0.00    -0.248 NA
ATOM     35  C   UNL A   1      37.319  32.470  31.827  1.00  0.00     0.031 C 
ATOM     36  C   UNL A   1      41.847  30.918  35.589  1.00  0.00     0.029 A 
ATOM     37  C   UNL A   1      41.034  30.987  34.466  1.00  0.00     0.049 A 
ATOM     38  H   UNL A   1      41.204  29.938  32.646  1.00  0.00     0.167 HD
ATOM     39  C   UNL A   1      39.098  31.843  33.138  1.00  0.00     0.074 A 
ATOM     40  C   UNL A   1      37.913  32.666  32.996  1.00  0.00     0.031 C 
ATOM     41  C   UNL A   1      39.856  31.792  34.262  1.00  0.00     0.037 A 
BRANCH  28  42
ATOM     42  C   UNL A   1      44.664  27.894  34.060  1.00  0.00     0.064 A 
ATOM     43  C   UNL A   1      44.565  26.742  34.852  1.00  0.00     0.173 A 
ATOM     44  C   UNL A   1      45.928  28.485  33.915  1.00  0.00     0.173 A 
ATOM     45  F   UNL A   1      43.373  26.159  35.054  1.00  0.00    -0.203 F 
ATOM     46  C   UNL A   1      45.689  26.211  35.484  1.00  0.00     0.198 A 
ATOM     47  C   UNL A   1      47.052  27.939  34.527  1.00  0.00     0.198 A 
ATOM     48  F   UNL A   1      46.072  29.600  33.183  1.00  0.00    -0.203 F 
ATOM     49  F   UNL A   1      45.566  25.136  36.276  1.00  0.00    -0.200 F 
ATOM     50  C   UNL A   1      46.931  26.805  35.314  1.00  0.00     0.200 A 
ATOM     51  F   UNL A   1      48.250  28.515  34.361  1.00  0.00    -0.200 F 
ATOM     52  F   UNL A   1      48.010  26.290  35.920  1.00  0.00    -0.200 F 
ENDBRANCH  28  42
BRANCH  29  53
ATOM     53  C   UNL A   1      36.705  31.634  29.066  1.00  0.00     0.064 A 
ATOM     54  C   UNL A   1      36.616  32.976  28.669  1.00  0.00     0.173 A 
ATOM     55  C   UNL A   1      35.585  30.818  28.832  1.00  0.00     0.173 A 
ATOM     56  F   UNL A   1      37.646  33.807  28.887  1.00  0.00    -0.203 F 
ATOM     57  C   UNL A   1      35.447  33.488  28.106  1.00  0.00     0.198 A 
ATOM     58  C   UNL A   1      34.432  31.322  28.234  1.00  0.00     0.198 A 
ATOM     59  F   UNL A   1      35.604  29.526  29.193  1.00  0.00    -0.203 F 
ATOM     60  F   UNL A   1      35.367  34.792  27.806  1.00  0.00    -0.200 F 
ATOM     61  C   UNL A   1      34.357  32.660  27.886  1.00  0.00     0.200 A 
ATOM     62  F   UNL A   1      33.386  30.513  28.011  1.00  0.00    -0.200 F 
ATOM     63  F   UNL A   1      33.230  33.155  27.357  1.00  0.00    -0.200 F 
ENDBRANCH  29  53
BRANCH  41  64
ATOM     64  C   UNL A   1      39.439  32.677  35.397  1.00  0.00     0.064 A 
ATOM     65  C   UNL A   1      38.606  32.210  36.423  1.00  0.00     0.173 A 
ATOM     66  C   UNL A   1      39.932  33.987  35.486  1.00  0.00     0.173 A 
ATOM     67  F   UNL A   1      38.101  30.969  36.371  1.00  0.00    -0.203 F 
ATOM     68  C   UNL A   1      38.259  33.035  37.487  1.00  0.00     0.198 A 
ATOM     69  C   UNL A   1      39.613  34.796  36.570  1.00  0.00     0.198 A 
ATOM     70  F   UNL A   1      40.741  34.474  34.532  1.00  0.00    -0.203 F 
ATOM     71  F   UNL A   1      37.421  32.589  38.432  1.00  0.00    -0.200 F 
ATOM     72  C   UNL A   1      38.772  34.322  37.566  1.00  0.00     0.200 A 
ATOM     73  F   UNL A   1      40.126  36.032  36.655  1.00  0.00    -0.200 F 
ATOM     74  F   UNL A   1      38.449  35.110  38.600  1.00  0.00    -0.200 F 
ENDBRANCH  41  64
ENDBRANCH  15  16
ENDBRANCH   8  10
ENDBRANCH   7   8
ENDBRANCH   6   7
ENDBRANCH   5   6
ENDBRANCH   4   5
ENDBRANCH   3   4
ENDBRANCH   2   3
ENDBRANCH   1   2
BRANCH   1  75
ATOM     75  C   UNL A   1      37.363  23.183  25.051  1.00  0.00     0.188 C 
BRANCH  75  76
ATOM     76  C   UNL A   1      35.847  23.307  24.804  1.00  0.00     0.188 C 
BRANCH  76  77
ATOM     77  O   UNL A   1      35.210  24.269  25.625  1.00  0.00    -0.376 OA
BRANCH  77  78
ATOM     78  C   UNL A   1      34.596  25.330  24.905  1.00  0.00     0.202 C 
BRANCH  78  79
ATOM     79  C   UNL A   1      33.735  26.295  25.739  1.00  0.00     0.261 C 
BRANCH  79  80
ATOM     80  O   UNL A   1      32.623  26.950  25.084  1.00  0.00    -0.463 OA
BRANCH  80  81
ATOM     81  C   UNL A   1      31.535  27.371  25.781  1.00  0.00     0.309 C 
ATOM     82  O   UNL A   1      31.587  27.916  26.878  1.00  0.00    -0.252 OA
BRANCH  81  83
ATOM     83  C   UNL A   1      30.235  27.139  24.967  1.00  0.00     0.104 C 
BRANCH  83  84
ATOM     84  C   UNL A   1      30.604  27.317  23.492  1.00  0.00     0.019 C 
BRANCH  84  85
ATOM     85  C   UNL A   1      29.860  28.446  22.787  1.00  0.00    -0.010 C 
ATOM     86  C   UNL A   1      28.328  28.338  23.021  1.00  0.00     0.003 C 
ATOM     87  C   UNL A   1      29.739  29.879  23.376  1.00  0.00     0.003 C 
ATOM     88  C   UNL A   1      28.262  29.872  22.969  1.00  0.00     0.001 C 
ENDBRANCH  84  85
ENDBRANCH  83  84
BRANCH  83  89
ATOM     89  C   UNL A   1      29.651  25.724  25.282  1.00  0.00     0.050 C 
BRANCH  89  90
ATOM     90  C   UNL A   1      30.592  24.525  25.420  1.00  0.00    -0.046 A 
ATOM     91  C   UNL A   1      31.056  24.017  26.645  1.00  0.00     0.004 A 
ATOM     92  C   UNL A   1      31.062  23.907  24.243  1.00  0.00     0.019 A 
ATOM     93  C   UNL A   1      31.926  22.918  26.693  1.00  0.00     0.001 A 
ATOM     94  C   UNL A   1      31.893  22.783  24.298  1.00  0.00     0.018 A 
ATOM     95  C   UNL A   1      32.332  22.287  25.520  1.00  0.00     0.016 A 
ATOM     96  Br  UNL A   1      32.394  21.906  22.699  1.00  0.00    -0.051 Br
ENDBRANCH  89  90
ENDBRANCH  83  89
ENDBRANCH  81  83
ENDBRANCH  80  81
ENDBRANCH  79  80
ENDBRANCH  78  79
ENDBRANCH  77  78
ENDBRANCH  76  77
ENDBRANCH  75  76
ENDBRANCH   1  75
TORSDOF 24
ENDMDL
MODEL 2
REMARK VINA RESULT:      -9.1      1.971      3.787
REMARK SMILES O=C(OCCOCCOCCOCCOC(=O)[C@H](Cc1cccc(Br)c1)CC1CCC1)c1ccc(-c2c3nc(c(-c4c(F)c(F)c(F)c(F)c4F)c4ccc([nH]4)c(-c4c(F)c(F)c(F)c(F)c4F)c4nc(c(-c5c(F)c(F)c(F)c(F)c5F)c5ccc2[nH]5)C=C4)C=C3)cc1
REMARK SMILES IDX 9 1 8 2 7 3 6 4 5 5 4 6 3 7 2 8 1 9 32 10 33 11 94 12 34 13
REMARK SMILES IDX 93 14 35 15 36 16 37 17 87 18 38 19 92 20 86 21 88 22 39 23
REMARK SMILES IDX 91 24 85 25 84 26 40 28 72 29 52 30 71 31 53 32 56 33 70 34
REMARK SMILES IDX 89 35 54 36 55 37 69 39 90 40 57 41 41 42 42 43 50 44 43 45
REMARK SMILES IDX 44 46 48 47 51 48 45 49 46 50 49 51 47 52 73 53 74 54 82 55
REMARK SMILES IDX 75 56 76 57 80 58 83 59 77 60 78 61 81 62 79 63 58 64 59 65
REMARK SMILES IDX 67 66 60 67 61 68 65 69 68 70 62 71 63 72 66 73 64 74 10 75
REMARK SMILES IDX 11 76 12 77 13 78 14 79 15 80 16 81 17 82 18 83 27 84 28 85
REMARK SMILES IDX 29 86 31 87 30 88 19 89 20 90 21 91 26 92 22 93 24 94 23 95
REMARK SMILES IDX 25 96
REMARK H PARENT 88 27 56 38
REMARK Flexibility Score: inf
ROOT
ATOM      1  O   UNL A   1      41.644  21.327  26.849  1.00  0.00    -0.377 OA
ENDROOT
BRANCH   1   2
ATOM      2  C   UNL A   1      42.774  20.925  26.098  1.00  0.00     0.188 C 
BRANCH   2   3
ATOM      3  C   UNL A   1      43.651  22.059  25.577  1.00  0.00     0.188 C 
BRANCH   3   4
ATOM      4  O   UNL A   1      44.960  21.634  25.198  1.00  0.00    -0.376 OA
BRANCH   4   5
ATOM      5  C   UNL A   1      45.898  22.678  24.922  1.00  0.00     0.202 C 
BRANCH   5   6
ATOM      6  C   UNL A   1      46.494  23.330  26.168  1.00  0.00     0.261 C 
BRANCH   6   7
ATOM      7  O   UNL A   1      46.886  24.691  25.955  1.00  0.00    -0.460 OA
BRANCH   7   8
ATOM      8  C   UNL A   1      46.110  25.757  25.644  1.00  0.00     0.338 C 
ATOM      9  O   UNL A   1      46.096  26.126  24.469  1.00  0.00    -0.246 OA
BRANCH   8  10
ATOM     10  C   UNL A   1      45.292  26.551  26.624  1.00  0.00     0.060 A 
ATOM     11  C   UNL A   1      45.285  27.941  26.762  1.00  0.00     0.016 A 
ATOM     12  C   UNL A   1      44.395  25.819  27.426  1.00  0.00     0.016 A 
ATOM     13  C   UNL A   1      44.415  28.592  27.620  1.00  0.00     0.010 A 
ATOM     14  C   UNL A   1      43.539  26.459  28.328  1.00  0.00     0.010 A 
ATOM     15  C   UNL A   1      43.560  27.852  28.425  1.00  0.00    -0.014 A 
BRANCH  15  16
ATOM     16  C   UNL A   1      42.887  28.579  29.507  1.00  0.00     0.031 A 
ATOM     17  C   UNL A   1      43.679  28.827  30.752  1.00  0.00     0.074 A 
ATOM     18  C   UNL A   1      41.689  29.146  29.290  1.00  0.00     0.049 A 
ATOM     19  N   UNL A   1      43.317  29.398  31.866  1.00  0.00    -0.248 NA
ATOM     20  C   UNL A   1      45.090  28.396  30.726  1.00  0.00     0.031 C 
ATOM     21  C   UNL A   1      40.949  29.098  28.026  1.00  0.00     0.029 A 
ATOM     22  N   UNL A   1      40.898  29.897  30.114  1.00  0.00    -0.354 N 
ATOM     23  C   UNL A   1      44.439  29.362  32.681  1.00  0.00     0.074 A 
ATOM     24  C   UNL A   1      45.504  28.734  31.937  1.00  0.00     0.031 C 
ATOM     25  C   UNL A   1      39.802  29.785  28.166  1.00  0.00     0.029 A 
ATOM     26  C   UNL A   1      39.700  30.252  29.544  1.00  0.00     0.049 A 
ATOM     27  H   UNL A   1      41.161  30.157  31.026  1.00  0.00     0.167 HD
ATOM     28  C   UNL A   1      44.546  29.805  33.953  1.00  0.00     0.037 A 
ATOM     29  C   UNL A   1      38.629  30.838  30.112  1.00  0.00     0.037 A 
ATOM     30  C   UNL A   1      43.458  30.427  34.652  1.00  0.00     0.049 A 
ATOM     31  C   UNL A   1      38.734  31.201  31.573  1.00  0.00     0.074 A 
ATOM     32  C   UNL A   1      43.405  30.865  35.959  1.00  0.00     0.029 A 
ATOM     33  N   UNL A   1      42.218  30.691  34.081  1.00  0.00    -0.354 N 
ATOM     34  N   UNL A   1      39.767  31.104  32.379  1.00  0.00    -0.248 NA
ATOM     35  C   UNL A   1      37.526  31.734  32.212  1.00  0.00     0.031 C 
ATOM     36  C   UNL A   1      42.112  31.339  36.197  1.00  0.00     0.029 A 
ATOM     37  C   UNL A   1      41.379  31.257  35.021  1.00  0.00     0.049 A 
ATOM     38  H   UNL A   1      41.975  30.503  33.146  1.00  0.00     0.167 HD
ATOM     39  C   UNL A   1      39.342  31.579  33.610  1.00  0.00     0.074 A 
ATOM     40  C   UNL A   1      37.963  31.992  33.436  1.00  0.00     0.031 C 
ATOM     41  C   UNL A   1      40.016  31.662  34.784  1.00  0.00     0.037 A 
BRANCH  28  42
ATOM     42  C   UNL A   1      45.832  29.536  34.673  1.00  0.00     0.064 A 
ATOM     43  C   UNL A   1      46.036  28.383  35.444  1.00  0.00     0.173 A 
ATOM     44  C   UNL A   1      46.879  30.467  34.594  1.00  0.00     0.173 A 
ATOM     45  F   UNL A   1      45.053  27.480  35.583  1.00  0.00    -0.203 F 
ATOM     46  C   UNL A   1      47.238  28.178  36.119  1.00  0.00     0.198 A 
ATOM     47  C   UNL A   1      48.087  30.247  35.250  1.00  0.00     0.198 A 
ATOM     48  F   UNL A   1      46.728  31.596  33.885  1.00  0.00    -0.203 F 
ATOM     49  F   UNL A   1      47.396  27.092  36.889  1.00  0.00    -0.200 F 
ATOM     50  C   UNL A   1      48.264  29.105  36.014  1.00  0.00     0.200 A 
ATOM     51  F   UNL A   1      49.076  31.145  35.146  1.00  0.00    -0.200 F 
ATOM     52  F   UNL A   1      49.420  28.904  36.661  1.00  0.00    -0.200 F 
ENDBRANCH  28  42
BRANCH  29  53
ATOM     53  C   UNL A   1      37.361  31.023  29.354  1.00  0.00     0.064 A 
ATOM     54  C   UNL A   1      36.492  29.950  29.104  1.00  0.00     0.173 A 
ATOM     55  C   UNL A   1      37.022  32.269  28.800  1.00  0.00     0.173 A 
ATOM     56  F   UNL A   1      36.776  28.733  29.589  1.00  0.00    -0.203 F 
ATOM     57  C   UNL A   1      35.362  30.108  28.301  1.00  0.00     0.198 A 
ATOM     58  C   UNL A   1      35.871  32.433  28.031  1.00  0.00     0.198 A 
ATOM     59  F   UNL A   1      37.814  33.333  28.997  1.00  0.00    -0.203 F 
ATOM     60  F   UNL A   1      34.591  29.048  28.019  1.00  0.00    -0.200 F 
ATOM     61  C   UNL A   1      35.050  31.349  27.768  1.00  0.00     0.200 A 
ATOM     62  F   UNL A   1      35.569  33.639  27.529  1.00  0.00    -0.200 F 
ATOM     63  F   UNL A   1      33.972  31.496  26.987  1.00  0.00    -0.200 F 
ENDBRANCH  29  53
BRANCH  41  64
ATOM     64  C   UNL A   1      39.277  32.251  35.946  1.00  0.00     0.064 A 
ATOM     65  C   UNL A   1      38.446  31.468  36.761  1.00  0.00     0.173 A 
ATOM     66  C   UNL A   1      39.453  33.601  36.282  1.00  0.00     0.173 A 
ATOM     67  F   UNL A   1      38.237  30.175  36.468  1.00  0.00    -0.203 F 
ATOM     68  C   UNL A   1      37.796  32.025  37.856  1.00  0.00     0.198 A 
ATOM     69  C   UNL A   1      38.831  34.145  37.400  1.00  0.00     0.198 A 
ATOM     70  F   UNL A   1      40.247  34.387  35.537  1.00  0.00    -0.203 F 
ATOM     71  F   UNL A   1      36.966  31.274  38.593  1.00  0.00    -0.200 F 
ATOM     72  C   UNL A   1      37.998  33.359  38.181  1.00  0.00     0.200 A 
ATOM     73  F   UNL A   1      39.045  35.428  37.724  1.00  0.00    -0.200 F 
ATOM     74  F   UNL A   1      37.383  33.889  39.247  1.00  0.00    -0.200 F 
ENDBRANCH  41  64
ENDBRANCH  15  16
ENDBRANCH   8  10
ENDBRANCH   7   8
ENDBRANCH   6   7
ENDBRANCH   5   6
ENDBRANCH   4   5
ENDBRANCH   3   4
ENDBRANCH   2   3
ENDBRANCH   1   2
BRANCH   1  75
ATOM     75  C   UNL A   1      40.378  21.126  26.244  1.00  0.00     0.188 C 
BRANCH  75  76
ATOM     76  C   UNL A   1      39.369  22.282  26.092  1.00  0.00     0.188 C 
BRANCH  76  77
ATOM     77  O   UNL A   1      38.018  21.862  26.063  1.00  0.00    -0.376 OA
BRANCH  77  78
ATOM     78  C   UNL A   1      37.461  21.788  24.757  1.00  0.00     0.202 C 
BRANCH  78  79
ATOM     79  C   UNL A   1      36.681  23.029  24.290  1.00  0.00     0.261 C 
BRANCH  79  80
ATOM     80  O   UNL A   1      35.247  23.045  24.493  1.00  0.00    -0.463 OA
BRANCH  80  81
ATOM     81  C   UNL A   1      34.384  23.187  23.454  1.00  0.00     0.309 C 
ATOM     82  O   UNL A   1      34.414  24.117  22.654  1.00  0.00    -0.252 OA
BRANCH  81  83
ATOM     83  C   UNL A   1      33.414  21.980  23.374  1.00  0.00     0.104 C 
BRANCH  83  84
ATOM     84  C   UNL A   1      33.536  21.231  24.704  1.00  0.00     0.019 C 
BRANCH  84  85
ATOM     85  C   UNL A   1      33.633  19.716  24.569  1.00  0.00    -0.010 C 
ATOM     86  C   UNL A   1      32.763  19.002  25.639  1.00  0.00     0.003 C 
ATOM     87  C   UNL A   1      32.818  18.904  23.523  1.00  0.00     0.003 C 
ATOM     88  C   UNL A   1      32.519  17.878  24.621  1.00  0.00     0.001 C 
ENDBRANCH  84  85
ENDBRANCH  83  84
BRANCH  83  89
ATOM     89  C   UNL A   1      31.961  22.478  23.088  1.00  0.00     0.050 C 
BRANCH  89  90
ATOM     90  C   UNL A   1      31.319  23.522  24.004  1.00  0.00    -0.046 A 
ATOM     91  C   UNL A   1      31.098  23.342  25.380  1.00  0.00     0.004 A 
ATOM     92  C   UNL A   1      30.881  24.734  23.431  1.00  0.00     0.019 A 
ATOM     93  C   UNL A   1      30.496  24.344  26.157  1.00  0.00     0.001 A 
ATOM     94  C   UNL A   1      30.323  25.746  24.219  1.00  0.00     0.018 A 
ATOM     95  C   UNL A   1      30.124  25.555  25.580  1.00  0.00     0.016 A 
ATOM     96  Br  UNL A   1      29.870  27.406  23.431  1.00  0.00    -0.051 Br
ENDBRANCH  89  90
ENDBRANCH  83  89
ENDBRANCH  81  83
ENDBRANCH  80  81
ENDBRANCH  79  80
ENDBRANCH  78  79
ENDBRANCH  77  78
ENDBRANCH  76  77
ENDBRANCH  75  76
ENDBRANCH   1  75
TORSDOF 24
ENDMDL
MODEL 3
REMARK VINA RESULT:      -9.1      4.083      5.358
REMARK SMILES O=C(OCCOCCOCCOCCOC(=O)[C@H](Cc1cccc(Br)c1)CC1CCC1)c1ccc(-c2c3nc(c(-c4c(F)c(F)c(F)c(F)c4F)c4ccc([nH]4)c(-c4c(F)c(F)c(F)c(F)c4F)c4nc(c(-c5c(F)c(F)c(F)c(F)c5F)c5ccc2[nH]5)C=C4)C=C3)cc1
REMARK SMILES IDX 9 1 8 2 7 3 6 4 5 5 4 6 3 7 2 8 1 9 32 10 33 11 94 12 34 13
REMARK SMILES IDX 93 14 35 15 36 16 37 17 87 18 38 19 92 20 86 21 88 22 39 23
REMARK SMILES IDX 91 24 85 25 84 26 40 28 72 29 52 30 71 31 53 32 56 33 70 34
REMARK SMILES IDX 89 35 54 36 55 37 69 39 90 40 57 41 41 42 42 43 50 44 43 45
REMARK SMILES IDX 44 46 48 47 51 48 45 49 46 50 49 51 47 52 73 53 74 54 82 55
REMARK SMILES IDX 75 56 76 57 80 58 83 59 77 60 78 61 81 62 79 63 58 64 59 65
REMARK SMILES IDX 67 66 60 67 61 68 65 69 68 70 62 71 63 72 66 73 64 74 10 75
REMARK SMILES IDX 11 76 12 77 13 78 14 79 15 80 16 81 17 82 18 83 27 84 28 85
REMARK SMILES IDX 29 86 31 87 30 88 19 89 20 90 21 91 26 92 22 93 24 94 23 95
REMARK SMILES IDX 25 96
REMARK H PARENT 88 27 56 38
REMARK Flexibility Score: inf
ROOT
ATOM      1  O   UNL A   1      37.184  23.833  25.915  1.00  0.00    -0.377 OA
ENDROOT
BRANCH   1   2
ATOM      2  C   UNL A   1      38.463  23.811  26.519  1.00  0.00     0.188 C 
BRANCH   2   3
ATOM      3  C   UNL A   1      39.220  22.492  26.403  1.00  0.00     0.188 C 
BRANCH   3   4
ATOM      4  O   UNL A   1      40.267  22.354  27.362  1.00  0.00    -0.376 OA
BRANCH   4   5
ATOM      5  C   UNL A   1      41.060  21.167  27.254  1.00  0.00     0.202 C 
BRANCH   5   6
ATOM      6  C   UNL A   1      42.389  21.367  26.527  1.00  0.00     0.261 C 
BRANCH   6   7
ATOM      7  O   UNL A   1      42.283  22.243  25.398  1.00  0.00    -0.460 OA
BRANCH   7   8
ATOM      8  C   UNL A   1      43.041  23.322  25.091  1.00  0.00     0.338 C 
ATOM      9  O   UNL A   1      43.866  23.198  24.184  1.00  0.00    -0.246 OA
BRANCH   8  10
ATOM     10  C   UNL A   1      42.987  24.651  25.792  1.00  0.00     0.060 A 
ATOM     11  C   UNL A   1      42.753  25.893  25.197  1.00  0.00     0.016 A 
ATOM     12  C   UNL A   1      43.110  24.622  27.195  1.00  0.00     0.016 A 
ATOM     13  C   UNL A   1      42.611  27.052  25.941  1.00  0.00     0.010 A 
ATOM     14  C   UNL A   1      43.011  25.790  27.957  1.00  0.00     0.010 A 
ATOM     15  C   UNL A   1      42.767  27.007  27.319  1.00  0.00    -0.014 A 
BRANCH  15  16
ATOM     16  C   UNL A   1      42.897  28.298  28.005  1.00  0.00     0.031 A 
ATOM     17  C   UNL A   1      44.264  28.903  28.058  1.00  0.00     0.074 A 
ATOM     18  C   UNL A   1      41.797  28.969  28.385  1.00  0.00     0.049 A 
ATOM     19  N   UNL A   1      44.665  30.000  28.636  1.00  0.00    -0.248 NA
ATOM     20  C   UNL A   1      45.327  28.181  27.332  1.00  0.00     0.031 C 
ATOM     21  C   UNL A   1      40.419  28.513  28.186  1.00  0.00     0.029 A 
ATOM     22  N   UNL A   1      41.663  30.187  28.991  1.00  0.00    -0.354 N 
ATOM     23  C   UNL A   1      46.024  30.080  28.374  1.00  0.00     0.074 A 
ATOM     24  C   UNL A   1      46.387  28.938  27.571  1.00  0.00     0.031 C 
ATOM     25  C   UNL A   1      39.578  29.441  28.674  1.00  0.00     0.029 A 
ATOM     26  C   UNL A   1      40.361  30.512  29.280  1.00  0.00     0.049 A 
ATOM     27  H   UNL A   1      42.426  30.773  29.200  1.00  0.00     0.167 HD
ATOM     28  C   UNL A   1      46.889  31.029  28.795  1.00  0.00     0.037 A 
ATOM     29  C   UNL A   1      39.882  31.538  30.009  1.00  0.00     0.037 A 
ATOM     30  C   UNL A   1      46.481  32.152  29.591  1.00  0.00     0.049 A 
ATOM     31  C   UNL A   1      40.887  32.508  30.579  1.00  0.00     0.074 A 
ATOM     32  C   UNL A   1      47.256  33.153  30.141  1.00  0.00     0.029 A 
ATOM     33  N   UNL A   1      45.163  32.409  29.953  1.00  0.00    -0.354 N 
ATOM     34  N   UNL A   1      42.188  32.554  30.401  1.00  0.00    -0.248 NA
ATOM     35  C   UNL A   1      40.368  33.556  31.464  1.00  0.00     0.031 C 
ATOM     36  C   UNL A   1      46.413  33.983  30.886  1.00  0.00     0.029 A 
ATOM     37  C   UNL A   1      45.106  33.537  30.748  1.00  0.00     0.049 A 
ATOM     38  H   UNL A   1      44.387  31.868  29.682  1.00  0.00     0.167 HD
ATOM     39  C   UNL A   1      42.639  33.641  31.134  1.00  0.00     0.074 A 
ATOM     40  C   UNL A   1      41.467  34.245  31.735  1.00  0.00     0.031 C 
ATOM     41  C   UNL A   1      43.903  34.101  31.309  1.00  0.00     0.037 A 
BRANCH  28  42
ATOM     42  C   UNL A   1      48.342  30.828  28.490  1.00  0.00     0.064 A 
ATOM     43  C   UNL A   1      49.178  30.044  29.296  1.00  0.00     0.173 A 
ATOM     44  C   UNL A   1      48.907  31.448  27.364  1.00  0.00     0.173 A 
ATOM     45  F   UNL A   1      48.697  29.461  30.405  1.00  0.00    -0.203 F 
ATOM     46  C   UNL A   1      50.531  29.898  28.993  1.00  0.00     0.198 A 
ATOM     47  C   UNL A   1      50.252  31.280  27.050  1.00  0.00     0.198 A 
ATOM     48  F   UNL A   1      48.153  32.224  26.571  1.00  0.00    -0.203 F 
ATOM     49  F   UNL A   1      51.325  29.182  29.802  1.00  0.00    -0.200 F 
ATOM     50  C   UNL A   1      51.063  30.508  27.867  1.00  0.00     0.200 A 
ATOM     51  F   UNL A   1      50.762  31.871  25.962  1.00  0.00    -0.200 F 
ATOM     52  F   UNL A   1      52.363  30.363  27.575  1.00  0.00    -0.200 F 
ENDBRANCH  28  42
BRANCH  29  53
ATOM     53  C   UNL A   1      38.430  31.646  30.324  1.00  0.00     0.064 A 
ATOM     54  C   UNL A   1      37.577  32.475  29.582  1.00  0.00     0.173 A 
ATOM     55  C   UNL A   1      37.875  30.970  31.424  1.00  0.00     0.173 A 
ATOM     56  F   UNL A   1      38.057  33.162  28.534  1.00  0.00    -0.203 F 
ATOM     57  C   UNL A   1      36.243  32.655  29.949  1.00  0.00     0.198 A 
ATOM     58  C   UNL A   1      36.532  31.121  31.766  1.00  0.00     0.198 A 
ATOM     59  F   UNL A   1      38.639  30.167  32.178  1.00  0.00    -0.203 F 
ATOM     60  F   UNL A   1      35.473  33.512  29.264  1.00  0.00    -0.200 F 
ATOM     61  C   UNL A   1      35.721  31.975  31.039  1.00  0.00     0.200 A 
ATOM     62  F   UNL A   1      36.031  30.450  32.813  1.00  0.00    -0.200 F 
ATOM     63  F   UNL A   1      34.444  32.158  31.398  1.00  0.00    -0.200 F 
ENDBRANCH  29  53
BRANCH  41  64
ATOM     64  C   UNL A   1      44.064  35.329  32.151  1.00  0.00     0.064 A 
ATOM     65  C   UNL A   1      43.986  36.614  31.596  1.00  0.00     0.173 A 
ATOM     66  C   UNL A   1      44.236  35.214  33.538  1.00  0.00     0.173 A 
ATOM     67  F   UNL A   1      43.837  36.771  30.272  1.00  0.00    -0.203 F 
ATOM     68  C   UNL A   1      44.102  37.743  32.400  1.00  0.00     0.198 A 
ATOM     69  C   UNL A   1      44.313  36.344  34.343  1.00  0.00     0.198 A 
ATOM     70  F   UNL A   1      44.305  34.004  34.115  1.00  0.00    -0.203 F 
ATOM     71  F   UNL A   1      44.076  38.963  31.846  1.00  0.00    -0.200 F 
ATOM     72  C   UNL A   1      44.253  37.607  33.773  1.00  0.00     0.200 A 
ATOM     73  F   UNL A   1      44.438  36.211  35.671  1.00  0.00    -0.200 F 
ATOM     74  F   UNL A   1      44.349  38.696  34.547  1.00  0.00    -0.200 F 
ENDBRANCH  41  64
ENDBRANCH  15  16
ENDBRANCH   8  10
ENDBRANCH   7   8
ENDBRANCH   6   7
ENDBRANCH   5   6
ENDBRANCH   4   5
ENDBRANCH   3   4
ENDBRANCH   2   3
ENDBRANCH   1   2
BRANCH   1  75
ATOM     75  C   UNL A   1      36.323  22.748  26.215  1.00  0.00     0.188 C 
BRANCH  75  76
ATOM     76  C   UNL A   1      35.939  21.708  25.144  1.00  0.00     0.188 C 
BRANCH  76  77
ATOM     77  O   UNL A   1      35.598  22.276  23.892  1.00  0.00    -0.376 OA
BRANCH  77  78
ATOM     78  C   UNL A   1      34.421  23.072  23.918  1.00  0.00     0.202 C 
BRANCH  78  79
ATOM     79  C   UNL A   1      33.948  23.614  22.558  1.00  0.00     0.261 C 
BRANCH  79  80
ATOM     80  O   UNL A   1      33.902  25.050  22.378  1.00  0.00    -0.463 OA
BRANCH  80  81
ATOM     81  C   UNL A   1      32.753  25.686  22.028  1.00  0.00     0.309 C 
ATOM     82  O   UNL A   1      32.237  25.616  20.918  1.00  0.00    -0.252 OA
BRANCH  81  83
ATOM     83  C   UNL A   1      32.149  26.441  23.241  1.00  0.00     0.104 C 
BRANCH  83  84
ATOM     84  C   UNL A   1      30.970  25.600  23.736  1.00  0.00     0.019 C 
BRANCH  84  85
ATOM     85  C   UNL A   1      31.284  24.715  24.937  1.00  0.00    -0.010 C 
ATOM     86  C   UNL A   1      30.244  24.921  26.072  1.00  0.00     0.003 C 
ATOM     87  C   UNL A   1      30.899  23.211  25.006  1.00  0.00     0.003 C 
ATOM     88  C   UNL A   1      30.433  23.443  26.446  1.00  0.00     0.001 C 
ENDBRANCH  84  85
ENDBRANCH  83  84
BRANCH  83  89
ATOM     89  C   UNL A   1      33.243  26.659  24.335  1.00  0.00     0.050 C 
BRANCH  89  90
ATOM     90  C   UNL A   1      33.109  27.818  25.325  1.00  0.00    -0.046 A 
ATOM     91  C   UNL A   1      31.924  28.537  25.549  1.00  0.00     0.004 A 
ATOM     92  C   UNL A   1      34.257  28.223  26.036  1.00  0.00     0.019 A 
ATOM     93  C   UNL A   1      31.879  29.595  26.469  1.00  0.00     0.001 A 
ATOM     94  C   UNL A   1      34.195  29.249  26.986  1.00  0.00     0.018 A 
ATOM     95  C   UNL A   1      33.010  29.942  27.203  1.00  0.00     0.016 A 
ATOM     96  Br  UNL A   1      35.727  29.673  28.011  1.00  0.00    -0.051 Br
ENDBRANCH  89  90
ENDBRANCH  83  89
ENDBRANCH  81  83
ENDBRANCH  80  81
ENDBRANCH  79  80
ENDBRANCH  78  79
ENDBRANCH  77  78
ENDBRANCH  76  77
ENDBRANCH  75  76
ENDBRANCH   1  75
TORSDOF 24
ENDMDL
