MODEL 1
REMARK VINA RESULT:     -10.2      0.000      0.000
REMARK SMILES CC(C)[C@H](C)CNC(=O)N[C@H]1C=C[C@@H](C(=O)OCCOCCOCCOCCOC(=O)c2ccc(-c3c4nc(c(-c5c(F)c(F)c(F)c(F)c5F)c5ccc([nH]5)c(-c5c(F)c(F)c(F)c(F)c5F)c5nc(c(-c6c(F)c(F)c(F)c(F)c6F)c6ccc3[nH]6)C=C5)C=C4)cc2)C1
REMARK SMILES IDX 22 1 21 2 20 3 19 4 18 5 17 6 15 7 16 8 14 9 11 10 12 11
REMARK SMILES IDX 95 12 13 13 10 14 7 15 8 16 9 18 6 20 4 21 5 22 2 23 1 24
REMARK SMILES IDX 3 25 23 26 24 27 25 28 26 29 27 30 28 31 29 32 30 33 31 34
REMARK SMILES IDX 32 35 33 36 94 37 34 38 93 39 35 40 36 41 37 42 87 43 38 44
REMARK SMILES IDX 92 45 86 46 88 47 39 48 91 49 85 50 84 51 40 53 72 54 52 55
REMARK SMILES IDX 71 56 53 57 56 58 70 59 89 60 54 61 55 62 69 64 90 65 57 66
REMARK SMILES IDX 41 67 42 68 50 69 43 70 44 71 48 72 51 73 45 74 46 75 49 76
REMARK SMILES IDX 47 77 73 78 74 79 82 80 75 81 76 82 80 83 83 84 77 85 78 86
REMARK SMILES IDX 81 87 79 88 58 89 59 90 67 91 60 92 61 93 65 94 68 95 62 96
REMARK SMILES IDX 63 97 66 98 64 99
REMARK H PARENT 7 17 10 19 88 52 56 63
REMARK Flexibility Score: inf
ROOT
ATOM      1  C   UNL A   1      43.065  20.254  25.987  1.00  0.00     0.188 C 
ENDROOT
BRANCH   1   2
ATOM      2  C   UNL A   1      41.818  19.365  26.089  1.00  0.00     0.188 C 
BRANCH   2   3
ATOM      3  O   UNL A   1      40.903  19.847  27.050  1.00  0.00    -0.376 OA
BRANCH   3   4
ATOM      4  C   UNL A   1      40.720  21.245  27.153  1.00  0.00     0.202 C 
BRANCH   4   5
ATOM      5  C   UNL A   1      39.668  22.038  26.332  1.00  0.00     0.261 C 
BRANCH   5   6
ATOM      6  O   UNL A   1      38.331  21.548  26.065  1.00  0.00    -0.463 OA
BRANCH   6   7
ATOM      7  C   UNL A   1      37.430  22.465  25.605  1.00  0.00     0.312 C 
ATOM      8  O   UNL A   1      37.809  23.474  25.011  1.00  0.00    -0.252 OA
BRANCH   7   9
ATOM      9  C   UNL A   1      35.887  22.163  25.832  1.00  0.00     0.124 C 
ATOM     10  C   UNL A   1      33.887  22.878  24.546  1.00  0.00     0.107 C 
ATOM     11  C   UNL A   1      34.129  21.434  24.362  1.00  0.00    -0.006 C 
ATOM     12  C   UNL A   1      34.905  23.321  25.608  1.00  0.00     0.048 C 
ATOM     13  C   UNL A   1      35.183  21.030  25.085  1.00  0.00    -0.014 C 
BRANCH  10  14
ATOM     14  N   UNL A   1      33.865  23.654  23.320  1.00  0.00    -0.332 N 
ATOM     15  N   UNL A   1      31.796  24.788  23.018  1.00  0.00    -0.338 N 
ATOM     16  C   UNL A   1      32.953  24.274  22.558  1.00  0.00     0.315 C 
ATOM     17  H   UNL A   1      31.169  25.097  22.324  1.00  0.00     0.165 HD
ATOM     18  O   UNL A   1      33.213  24.395  21.358  1.00  0.00    -0.249 OA
ATOM     19  H   UNL A   1      34.770  23.753  22.944  1.00  0.00     0.165 HD
BRANCH  15  20
ATOM     20  C   UNL A   1      31.338  24.956  24.386  1.00  0.00     0.121 C 
BRANCH  20  21
ATOM     21  C   UNL A   1      30.813  26.308  24.887  1.00  0.00     0.008 C 
ATOM     22  C   UNL A   1      31.428  26.695  26.249  1.00  0.00     0.010 C 
BRANCH  21  23
ATOM     23  C   UNL A   1      30.796  27.573  23.892  1.00  0.00    -0.013 C 
ATOM     24  C   UNL A   1      29.606  28.469  23.510  1.00  0.00     0.008 C 
ATOM     25  C   UNL A   1      31.789  28.608  24.426  1.00  0.00     0.008 C 
ENDBRANCH  21  23
ENDBRANCH  20  21
ENDBRANCH  15  20
ENDBRANCH  10  14
ENDBRANCH   7   9
ENDBRANCH   6   7
ENDBRANCH   5   6
ENDBRANCH   4   5
ENDBRANCH   3   4
ENDBRANCH   2   3
ENDBRANCH   1   2
BRANCH   1  26
ATOM     26  O   UNL A   1      44.134  19.801  25.157  1.00  0.00    -0.377 OA
BRANCH  26  27
ATOM     27  C   UNL A   1      45.255  20.665  24.950  1.00  0.00     0.188 C 
BRANCH  27  28
ATOM     28  C   UNL A   1      45.443  21.787  25.976  1.00  0.00     0.188 C 
BRANCH  28  29
ATOM     29  O   UNL A   1      46.387  22.810  25.674  1.00  0.00    -0.376 OA
BRANCH  29  30
ATOM     30  C   UNL A   1      46.121  24.129  26.130  1.00  0.00     0.202 C 
BRANCH  30  31
ATOM     31  C   UNL A   1      46.265  25.234  25.087  1.00  0.00     0.261 C 
BRANCH  31  32
ATOM     32  O   UNL A   1      45.113  26.085  24.974  1.00  0.00    -0.460 OA
BRANCH  32  33
ATOM     33  C   UNL A   1      43.924  25.478  25.152  1.00  0.00     0.338 C 
ATOM     34  O   UNL A   1      43.574  24.374  24.728  1.00  0.00    -0.246 OA
BRANCH  33  35
ATOM     35  C   UNL A   1      43.069  26.286  26.032  1.00  0.00     0.060 A 
ATOM     36  C   UNL A   1      43.470  27.583  26.384  1.00  0.00     0.016 A 
ATOM     37  C   UNL A   1      41.949  25.699  26.625  1.00  0.00     0.016 A 
ATOM     38  C   UNL A   1      42.795  28.271  27.390  1.00  0.00     0.010 A 
ATOM     39  C   UNL A   1      41.285  26.381  27.642  1.00  0.00     0.010 A 
ATOM     40  C   UNL A   1      41.744  27.642  28.066  1.00  0.00    -0.014 A 
BRANCH  40  41
ATOM     41  C   UNL A   1      41.273  28.176  29.362  1.00  0.00     0.031 A 
ATOM     42  C   UNL A   1      40.045  29.043  29.366  1.00  0.00     0.074 A 
ATOM     43  C   UNL A   1      41.931  27.912  30.502  1.00  0.00     0.049 A 
ATOM     44  N   UNL A   1      39.513  29.733  30.341  1.00  0.00    -0.248 NA
ATOM     45  C   UNL A   1      39.325  29.159  28.086  1.00  0.00     0.031 C 
ATOM     46  C   UNL A   1      43.106  27.051  30.616  1.00  0.00     0.029 A 
ATOM     47  N   UNL A   1      41.716  28.369  31.776  1.00  0.00    -0.354 N 
ATOM     48  C   UNL A   1      38.413  30.379  29.788  1.00  0.00     0.074 A 
ATOM     49  C   UNL A   1      38.368  30.022  28.388  1.00  0.00     0.031 C 
ATOM     50  C   UNL A   1      43.527  27.062  31.893  1.00  0.00     0.029 A 
ATOM     51  C   UNL A   1      42.676  27.963  32.668  1.00  0.00     0.049 A 
ATOM     52  H   UNL A   1      40.948  28.931  32.026  1.00  0.00     0.167 HD
ATOM     53  C   UNL A   1      37.522  31.195  30.399  1.00  0.00     0.037 A 
ATOM     54  C   UNL A   1      42.863  28.317  33.954  1.00  0.00     0.037 A 
ATOM     55  C   UNL A   1      37.582  31.541  31.794  1.00  0.00     0.049 A 
ATOM     56  C   UNL A   1      41.897  29.281  34.595  1.00  0.00     0.074 A 
ATOM     57  C   UNL A   1      36.718  32.336  32.525  1.00  0.00     0.029 A 
ATOM     58  N   UNL A   1      38.574  31.118  32.668  1.00  0.00    -0.354 N 
ATOM     59  N   UNL A   1      40.844  29.869  34.080  1.00  0.00    -0.248 NA
ATOM     60  C   UNL A   1      42.146  29.629  36.001  1.00  0.00     0.031 C 
ATOM     61  C   UNL A   1      37.222  32.446  33.824  1.00  0.00     0.029 A 
ATOM     62  C   UNL A   1      38.361  31.661  33.924  1.00  0.00     0.049 A 
ATOM     63  H   UNL A   1      39.319  30.520  32.430  1.00  0.00     0.167 HD
ATOM     64  C   UNL A   1      40.288  30.627  35.102  1.00  0.00     0.074 A 
ATOM     65  C   UNL A   1      41.113  30.413  36.273  1.00  0.00     0.031 C 
ATOM     66  C   UNL A   1      39.191  31.426  35.079  1.00  0.00     0.037 A 
BRANCH  53  67
ATOM     67  C   UNL A   1      36.434  31.795  29.555  1.00  0.00     0.064 A 
ATOM     68  C   UNL A   1      35.439  31.008  28.955  1.00  0.00     0.173 A 
ATOM     69  C   UNL A   1      36.371  33.185  29.367  1.00  0.00     0.173 A 
ATOM     70  F   UNL A   1      35.458  29.673  29.091  1.00  0.00    -0.203 F 
ATOM     71  C   UNL A   1      34.440  31.587  28.175  1.00  0.00     0.198 A 
ATOM     72  C   UNL A   1      35.351  33.762  28.613  1.00  0.00     0.198 A 
ATOM     73  F   UNL A   1      37.295  33.985  29.919  1.00  0.00    -0.203 F 
ATOM     74  F   UNL A   1      33.532  30.810  27.568  1.00  0.00    -0.200 F 
ATOM     75  C   UNL A   1      34.393  32.963  28.011  1.00  0.00     0.200 A 
ATOM     76  F   UNL A   1      35.300  35.093  28.470  1.00  0.00    -0.200 F 
ATOM     77  F   UNL A   1      33.427  33.518  27.267  1.00  0.00    -0.200 F 
ENDBRANCH  53  67
BRANCH  54  78
ATOM     78  C   UNL A   1      44.016  27.769  34.714  1.00  0.00     0.064 A 
ATOM     79  C   UNL A   1      45.297  28.322  34.580  1.00  0.00     0.173 A 
ATOM     80  C   UNL A   1      43.867  26.675  35.580  1.00  0.00     0.173 A 
ATOM     81  F   UNL A   1      45.496  29.354  33.747  1.00  0.00    -0.203 F 
ATOM     82  C   UNL A   1      46.386  27.791  35.267  1.00  0.00     0.198 A 
ATOM     83  C   UNL A   1      44.951  26.165  36.291  1.00  0.00     0.198 A 
ATOM     84  F   UNL A   1      42.663  26.106  35.743  1.00  0.00    -0.203 F 
ATOM     85  F   UNL A   1      47.608  28.308  35.080  1.00  0.00    -0.200 F 
ATOM     86  C   UNL A   1      46.211  26.718  36.127  1.00  0.00     0.200 A 
ATOM     87  F   UNL A   1      44.775  25.137  37.132  1.00  0.00    -0.200 F 
ATOM     88  F   UNL A   1      47.260  26.211  36.790  1.00  0.00    -0.200 F 
ENDBRANCH  54  78
BRANCH  66  89
ATOM     89  C   UNL A   1      38.792  32.091  36.366  1.00  0.00     0.064 A 
ATOM     90  C   UNL A   1      39.175  33.405  36.674  1.00  0.00     0.173 A 
ATOM     91  C   UNL A   1      37.974  31.415  37.286  1.00  0.00     0.173 A 
ATOM     92  F   UNL A   1      39.966  34.091  35.835  1.00  0.00    -0.203 F 
ATOM     93  C   UNL A   1      38.781  34.005  37.867  1.00  0.00     0.198 A 
ATOM     94  C   UNL A   1      37.552  32.031  38.460  1.00  0.00     0.198 A 
ATOM     95  F   UNL A   1      37.571  30.159  37.037  1.00  0.00    -0.203 F 
ATOM     96  F   UNL A   1      39.204  35.241  38.165  1.00  0.00    -0.200 F 
ATOM     97  C   UNL A   1      37.963  33.321  38.754  1.00  0.00     0.200 A 
ATOM     98  F   UNL A   1      36.746  31.375  39.306  1.00  0.00    -0.200 F 
ATOM     99  F   UNL A   1      37.576  33.904  39.896  1.00  0.00    -0.200 F 
ENDBRANCH  66  89
ENDBRANCH  40  41
ENDBRANCH  33  35
ENDBRANCH  32  33
ENDBRANCH  31  32
ENDBRANCH  30  31
ENDBRANCH  29  30
ENDBRANCH  28  29
ENDBRANCH  27  28
ENDBRANCH  26  27
ENDBRANCH   1  26
TORSDOF 24
ENDMDL
MODEL 2
REMARK VINA RESULT:     -10.2      5.889     11.715
REMARK SMILES CC(C)[C@H](C)CNC(=O)N[C@H]1C=C[C@@H](C(=O)OCCOCCOCCOCCOC(=O)c2ccc(-c3c4nc(c(-c5c(F)c(F)c(F)c(F)c5F)c5ccc([nH]5)c(-c5c(F)c(F)c(F)c(F)c5F)c5nc(c(-c6c(F)c(F)c(F)c(F)c6F)c6ccc3[nH]6)C=C5)C=C4)cc2)C1
REMARK SMILES IDX 22 1 21 2 20 3 19 4 18 5 17 6 15 7 16 8 14 9 11 10 12 11
REMARK SMILES IDX 95 12 13 13 10 14 7 15 8 16 9 18 6 20 4 21 5 22 2 23 1 24
REMARK SMILES IDX 3 25 23 26 24 27 25 28 26 29 27 30 28 31 29 32 30 33 31 34
REMARK SMILES IDX 32 35 33 36 94 37 34 38 93 39 35 40 36 41 37 42 87 43 38 44
REMARK SMILES IDX 92 45 86 46 88 47 39 48 91 49 85 50 84 51 40 53 72 54 52 55
REMARK SMILES IDX 71 56 53 57 56 58 70 59 89 60 54 61 55 62 69 64 90 65 57 66
REMARK SMILES IDX 41 67 42 68 50 69 43 70 44 71 48 72 51 73 45 74 46 75 49 76
REMARK SMILES IDX 47 77 73 78 74 79 82 80 75 81 76 82 80 83 83 84 77 85 78 86
REMARK SMILES IDX 81 87 79 88 58 89 59 90 67 91 60 92 61 93 65 94 68 95 62 96
REMARK SMILES IDX 63 97 66 98 64 99
REMARK H PARENT 7 17 10 19 88 52 56 63
REMARK Flexibility Score: inf
ROOT
ATOM      1  C   UNL A   1      33.543  35.321  30.580  1.00  0.00     0.188 C 
ENDROOT
BRANCH   1   2
ATOM      2  C   UNL A   1      33.877  34.819  29.169  1.00  0.00     0.188 C 
BRANCH   2   3
ATOM      3  O   UNL A   1      34.009  33.414  29.126  1.00  0.00    -0.376 OA
BRANCH   3   4
ATOM      4  C   UNL A   1      33.834  32.766  27.882  1.00  0.00     0.202 C 
BRANCH   4   5
ATOM      5  C   UNL A   1      34.007  31.237  27.676  1.00  0.00     0.261 C 
BRANCH   5   6
ATOM      6  O   UNL A   1      33.210  30.463  26.746  1.00  0.00    -0.463 OA
BRANCH   6   7
ATOM      7  C   UNL A   1      33.540  29.145  26.617  1.00  0.00     0.312 C 
ATOM      8  O   UNL A   1      34.189  28.572  27.490  1.00  0.00    -0.252 OA
BRANCH   7   9
ATOM      9  C   UNL A   1      33.023  28.378  25.325  1.00  0.00     0.124 C 
ATOM     10  C   UNL A   1      31.783  26.238  25.095  1.00  0.00     0.107 C 
ATOM     11  C   UNL A   1      30.913  27.379  24.749  1.00  0.00    -0.006 C 
ATOM     12  C   UNL A   1      33.176  26.850  25.308  1.00  0.00     0.048 C 
ATOM     13  C   UNL A   1      31.585  28.536  24.830  1.00  0.00    -0.014 C 
BRANCH  10  14
ATOM     14  N   UNL A   1      31.286  25.395  26.166  1.00  0.00    -0.332 N 
ATOM     15  N   UNL A   1      31.043  23.131  25.478  1.00  0.00    -0.338 N 
ATOM     16  C   UNL A   1      30.770  24.165  26.296  1.00  0.00     0.315 C 
ATOM     17  H   UNL A   1      30.492  22.327  25.619  1.00  0.00     0.165 HD
ATOM     18  O   UNL A   1      30.010  23.973  27.250  1.00  0.00    -0.249 OA
ATOM     19  H   UNL A   1      31.345  25.851  27.037  1.00  0.00     0.165 HD
BRANCH  15  20
ATOM     20  C   UNL A   1      32.030  23.026  24.418  1.00  0.00     0.121 C 
BRANCH  20  21
ATOM     21  C   UNL A   1      33.495  22.688  24.729  1.00  0.00     0.008 C 
ATOM     22  C   UNL A   1      34.423  23.000  23.536  1.00  0.00     0.010 C 
BRANCH  21  23
ATOM     23  C   UNL A   1      34.153  23.194  26.108  1.00  0.00    -0.013 C 
ATOM     24  C   UNL A   1      34.026  22.573  27.509  1.00  0.00     0.008 C 
ATOM     25  C   UNL A   1      35.672  23.213  25.927  1.00  0.00     0.008 C 
ENDBRANCH  21  23
ENDBRANCH  20  21
ENDBRANCH  15  20
ENDBRANCH  10  14
ENDBRANCH   7   9
ENDBRANCH   6   7
ENDBRANCH   5   6
ENDBRANCH   4   5
ENDBRANCH   3   4
ENDBRANCH   2   3
ENDBRANCH   1   2
BRANCH   1  26
ATOM     26  O   UNL A   1      32.914  36.596  30.695  1.00  0.00    -0.377 OA
BRANCH  26  27
ATOM     27  C   UNL A   1      33.327  37.471  31.749  1.00  0.00     0.188 C 
BRANCH  27  28
ATOM     28  C   UNL A   1      33.519  36.829  33.127  1.00  0.00     0.188 C 
BRANCH  28  29
ATOM     29  O   UNL A   1      34.773  36.212  33.401  1.00  0.00    -0.376 OA
BRANCH  29  30
ATOM     30  C   UNL A   1      34.777  34.965  34.082  1.00  0.00     0.202 C 
BRANCH  30  31
ATOM     31  C   UNL A   1      35.866  33.981  33.662  1.00  0.00     0.261 C 
BRANCH  31  32
ATOM     32  O   UNL A   1      35.736  33.506  32.312  1.00  0.00    -0.460 OA
BRANCH  32  33
ATOM     33  C   UNL A   1      36.115  32.230  32.107  1.00  0.00     0.338 C 
ATOM     34  O   UNL A   1      35.439  31.211  32.266  1.00  0.00    -0.246 OA
BRANCH  33  35
ATOM     35  C   UNL A   1      37.476  32.189  31.558  1.00  0.00     0.060 A 
ATOM     36  C   UNL A   1      37.673  32.381  30.182  1.00  0.00     0.016 A 
ATOM     37  C   UNL A   1      38.537  31.811  32.384  1.00  0.00     0.016 A 
ATOM     38  C   UNL A   1      38.917  32.119  29.614  1.00  0.00     0.010 A 
ATOM     39  C   UNL A   1      39.776  31.534  31.813  1.00  0.00     0.010 A 
ATOM     40  C   UNL A   1      39.951  31.631  30.420  1.00  0.00    -0.014 A 
BRANCH  40  41
ATOM     41  C   UNL A   1      41.133  30.992  29.802  1.00  0.00     0.031 A 
ATOM     42  C   UNL A   1      42.339  31.847  29.529  1.00  0.00     0.074 A 
ATOM     43  C   UNL A   1      41.125  29.690  29.474  1.00  0.00     0.049 A 
ATOM     44  N   UNL A   1      43.438  31.559  28.881  1.00  0.00    -0.248 NA
ATOM     45  C   UNL A   1      42.291  33.225  30.047  1.00  0.00     0.031 C 
ATOM     46  C   UNL A   1      40.026  28.763  29.732  1.00  0.00     0.029 A 
ATOM     47  N   UNL A   1      42.067  28.933  28.827  1.00  0.00    -0.354 N 
ATOM     48  C   UNL A   1      44.198  32.722  28.896  1.00  0.00     0.074 A 
ATOM     49  C   UNL A   1      43.428  33.728  29.592  1.00  0.00     0.031 C 
ATOM     50  C   UNL A   1      40.347  27.561  29.222  1.00  0.00     0.029 A 
ATOM     51  C   UNL A   1      41.651  27.652  28.568  1.00  0.00     0.049 A 
ATOM     52  H   UNL A   1      42.955  29.276  28.574  1.00  0.00     0.167 HD
ATOM     53  C   UNL A   1      45.432  32.927  28.376  1.00  0.00     0.037 A 
ATOM     54  C   UNL A   1      42.245  26.681  27.848  1.00  0.00     0.037 A 
ATOM     55  C   UNL A   1      46.185  31.915  27.685  1.00  0.00     0.049 A 
ATOM     56  C   UNL A   1      43.588  26.954  27.220  1.00  0.00     0.074 A 
ATOM     57  C   UNL A   1      47.453  32.003  27.140  1.00  0.00     0.029 A 
ATOM     58  N   UNL A   1      45.729  30.628  27.433  1.00  0.00    -0.354 N 
ATOM     59  N   UNL A   1      44.318  28.043  27.257  1.00  0.00    -0.248 NA
ATOM     60  C   UNL A   1      44.192  25.858  26.449  1.00  0.00     0.031 C 
ATOM     61  C   UNL A   1      47.739  30.791  26.504  1.00  0.00     0.029 A 
ATOM     62  C   UNL A   1      46.679  29.922  26.714  1.00  0.00     0.049 A 
ATOM     63  H   UNL A   1      44.859  30.271  27.723  1.00  0.00     0.167 HD
ATOM     64  C   UNL A   1      45.476  27.755  26.547  1.00  0.00     0.074 A 
ATOM     65  C   UNL A   1      45.358  26.383  26.101  1.00  0.00     0.031 C 
ATOM     66  C   UNL A   1      46.544  28.552  26.288  1.00  0.00     0.037 A 
BRANCH  53  67
ATOM     67  C   UNL A   1      46.021  34.303  28.502  1.00  0.00     0.064 A 
ATOM     68  C   UNL A   1      46.834  34.667  29.587  1.00  0.00     0.173 A 
ATOM     69  C   UNL A   1      45.792  35.264  27.505  1.00  0.00     0.173 A 
ATOM     70  F   UNL A   1      47.075  33.791  30.575  1.00  0.00    -0.203 F 
ATOM     71  C   UNL A   1      47.369  35.949  29.684  1.00  0.00     0.198 A 
ATOM     72  C   UNL A   1      46.357  36.535  27.590  1.00  0.00     0.198 A 
ATOM     73  F   UNL A   1      45.026  34.970  26.444  1.00  0.00    -0.203 F 
ATOM     74  F   UNL A   1      48.097  36.290  30.757  1.00  0.00    -0.200 F 
ATOM     75  C   UNL A   1      47.136  36.879  28.682  1.00  0.00     0.200 A 
ATOM     76  F   UNL A   1      46.143  37.426  26.612  1.00  0.00    -0.200 F 
ATOM     77  F   UNL A   1      47.659  38.109  28.773  1.00  0.00    -0.200 F 
ENDBRANCH  53  67
BRANCH  54  78
ATOM     78  C   UNL A   1      41.569  25.369  27.672  1.00  0.00     0.064 A 
ATOM     79  C   UNL A   1      42.004  24.234  28.368  1.00  0.00     0.173 A 
ATOM     80  C   UNL A   1      40.484  25.220  26.796  1.00  0.00     0.173 A 
ATOM     81  F   UNL A   1      43.053  24.319  29.200  1.00  0.00    -0.203 F 
ATOM     82  C   UNL A   1      41.392  22.996  28.181  1.00  0.00     0.198 A 
ATOM     83  C   UNL A   1      39.852  23.989  26.634  1.00  0.00     0.198 A 
ATOM     84  F   UNL A   1      40.029  26.275  26.103  1.00  0.00    -0.203 F 
ATOM     85  F   UNL A   1      41.861  21.917  28.822  1.00  0.00    -0.200 F 
ATOM     86  C   UNL A   1      40.312  22.876  27.320  1.00  0.00     0.200 A 
ATOM     87  F   UNL A   1      38.799  23.881  25.811  1.00  0.00    -0.200 F 
ATOM     88  F   UNL A   1      39.722  21.686  27.144  1.00  0.00    -0.200 F 
ENDBRANCH  54  78
BRANCH  66  89
ATOM     89  C   UNL A   1      47.690  27.946  25.529  1.00  0.00     0.064 A 
ATOM     90  C   UNL A   1      48.826  27.439  26.177  1.00  0.00     0.173 A 
ATOM     91  C   UNL A   1      47.630  27.832  24.130  1.00  0.00     0.173 A 
ATOM     92  F   UNL A   1      48.940  27.533  27.511  1.00  0.00    -0.203 F 
ATOM     93  C   UNL A   1      49.870  26.869  25.453  1.00  0.00     0.198 A 
ATOM     94  C   UNL A   1      48.658  27.228  23.414  1.00  0.00     0.198 A 
ATOM     95  F   UNL A   1      46.562  28.292  23.460  1.00  0.00    -0.203 F 
ATOM     96  F   UNL A   1      50.969  26.440  26.089  1.00  0.00    -0.200 F 
ATOM     97  C   UNL A   1      49.781  26.756  24.073  1.00  0.00     0.200 A 
ATOM     98  F   UNL A   1      48.560  27.103  22.082  1.00  0.00    -0.200 F 
ATOM     99  F   UNL A   1      50.781  26.198  23.380  1.00  0.00    -0.200 F 
ENDBRANCH  66  89
ENDBRANCH  40  41
ENDBRANCH  33  35
ENDBRANCH  32  33
ENDBRANCH  31  32
ENDBRANCH  30  31
ENDBRANCH  29  30
ENDBRANCH  28  29
ENDBRANCH  27  28
ENDBRANCH  26  27
ENDBRANCH   1  26
TORSDOF 24
ENDMDL
MODEL 3
REMARK VINA RESULT:      -9.6      1.441      2.710
REMARK SMILES CC(C)[C@H](C)CNC(=O)N[C@H]1C=C[C@@H](C(=O)OCCOCCOCCOCCOC(=O)c2ccc(-c3c4nc(c(-c5c(F)c(F)c(F)c(F)c5F)c5ccc([nH]5)c(-c5c(F)c(F)c(F)c(F)c5F)c5nc(c(-c6c(F)c(F)c(F)c(F)c6F)c6ccc3[nH]6)C=C5)C=C4)cc2)C1
REMARK SMILES IDX 22 1 21 2 20 3 19 4 18 5 17 6 15 7 16 8 14 9 11 10 12 11
REMARK SMILES IDX 95 12 13 13 10 14 7 15 8 16 9 18 6 20 4 21 5 22 2 23 1 24
REMARK SMILES IDX 3 25 23 26 24 27 25 28 26 29 27 30 28 31 29 32 30 33 31 34
REMARK SMILES IDX 32 35 33 36 94 37 34 38 93 39 35 40 36 41 37 42 87 43 38 44
REMARK SMILES IDX 92 45 86 46 88 47 39 48 91 49 85 50 84 51 40 53 72 54 52 55
REMARK SMILES IDX 71 56 53 57 56 58 70 59 89 60 54 61 55 62 69 64 90 65 57 66
REMARK SMILES IDX 41 67 42 68 50 69 43 70 44 71 48 72 51 73 45 74 46 75 49 76
REMARK SMILES IDX 47 77 73 78 74 79 82 80 75 81 76 82 80 83 83 84 77 85 78 86
REMARK SMILES IDX 81 87 79 88 58 89 59 90 67 91 60 92 61 93 65 94 68 95 62 96
REMARK SMILES IDX 63 97 66 98 64 99
REMARK H PARENT 7 17 10 19 88 52 56 63
REMARK Flexibility Score: inf
ROOT
ATOM      1  C   UNL A   1      41.559  21.685  26.625  1.00  0.00     0.188 C 
ENDROOT
BRANCH   1   2
ATOM      2  C   UNL A   1      40.140  22.260  26.722  1.00  0.00     0.188 C 
BRANCH   2   3
ATOM      3  O   UNL A   1      39.158  21.304  26.383  1.00  0.00    -0.376 OA
BRANCH   3   4
ATOM      4  C   UNL A   1      38.213  21.642  25.388  1.00  0.00     0.202 C 
BRANCH   4   5
ATOM      5  C   UNL A   1      36.794  22.190  25.699  1.00  0.00     0.261 C 
BRANCH   5   6
ATOM      6  O   UNL A   1      35.707  22.177  24.742  1.00  0.00    -0.463 OA
BRANCH   6   7
ATOM      7  C   UNL A   1      34.893  21.081  24.766  1.00  0.00     0.312 C 
ATOM      8  O   UNL A   1      35.352  19.962  24.994  1.00  0.00    -0.252 OA
BRANCH   7   9
ATOM      9  C   UNL A   1      33.339  21.311  24.527  1.00  0.00     0.124 C 
ATOM     10  C   UNL A   1      32.142  22.941  23.086  1.00  0.00     0.107 C 
ATOM     11  C   UNL A   1      32.010  21.576  22.542  1.00  0.00    -0.006 C 
ATOM     12  C   UNL A   1      32.851  22.763  24.438  1.00  0.00     0.048 C 
ATOM     13  C   UNL A   1      32.618  20.682  23.335  1.00  0.00    -0.014 C 
BRANCH  10  14
ATOM     14  N   UNL A   1      32.733  23.906  22.178  1.00  0.00    -0.332 N 
ATOM     15  N   UNL A   1      32.164  26.142  22.759  1.00  0.00    -0.338 N 
ATOM     16  C   UNL A   1      32.589  25.206  21.887  1.00  0.00     0.315 C 
ATOM     17  H   UNL A   1      31.985  27.028  22.369  1.00  0.00     0.165 HD
ATOM     18  O   UNL A   1      32.891  25.563  20.745  1.00  0.00    -0.249 OA
ATOM     19  H   UNL A   1      33.433  23.492  21.622  1.00  0.00     0.165 HD
BRANCH  15  20
ATOM     20  C   UNL A   1      31.933  26.036  24.188  1.00  0.00     0.121 C 
BRANCH  20  21
ATOM     21  C   UNL A   1      32.638  26.974  25.178  1.00  0.00     0.008 C 
ATOM     22  C   UNL A   1      34.033  27.399  24.675  1.00  0.00     0.010 C 
BRANCH  21  23
ATOM     23  C   UNL A   1      31.843  28.238  25.780  1.00  0.00    -0.013 C 
ATOM     24  C   UNL A   1      31.514  28.544  27.250  1.00  0.00     0.008 C 
ATOM     25  C   UNL A   1      32.595  29.506  25.372  1.00  0.00     0.008 C 
ENDBRANCH  21  23
ENDBRANCH  20  21
ENDBRANCH  15  20
ENDBRANCH  10  14
ENDBRANCH   7   9
ENDBRANCH   6   7
ENDBRANCH   5   6
ENDBRANCH   4   5
ENDBRANCH   3   4
ENDBRANCH   2   3
ENDBRANCH   1   2
BRANCH   1  26
ATOM     26  O   UNL A   1      42.293  21.530  27.839  1.00  0.00    -0.377 OA
BRANCH  26  27
ATOM     27  C   UNL A   1      42.746  22.703  28.520  1.00  0.00     0.188 C 
BRANCH  27  28
ATOM     28  C   UNL A   1      44.023  23.352  27.976  1.00  0.00     0.188 C 
BRANCH  28  29
ATOM     29  O   UNL A   1      44.090  23.610  26.577  1.00  0.00    -0.376 OA
BRANCH  29  30
ATOM     30  C   UNL A   1      45.176  24.384  26.086  1.00  0.00     0.202 C 
BRANCH  30  31
ATOM     31  C   UNL A   1      44.822  25.434  25.036  1.00  0.00     0.261 C 
BRANCH  31  32
ATOM     32  O   UNL A   1      43.412  25.665  24.891  1.00  0.00    -0.460 OA
BRANCH  32  33
ATOM     33  C   UNL A   1      43.004  26.928  25.118  1.00  0.00     0.338 C 
ATOM     34  O   UNL A   1      42.648  27.764  24.284  1.00  0.00    -0.246 OA
BRANCH  33  35
ATOM     35  C   UNL A   1      42.942  27.188  26.562  1.00  0.00     0.060 A 
ATOM     36  C   UNL A   1      42.090  26.418  27.368  1.00  0.00     0.016 A 
ATOM     37  C   UNL A   1      43.616  28.292  27.088  1.00  0.00     0.016 A 
ATOM     38  C   UNL A   1      41.848  26.797  28.686  1.00  0.00     0.010 A 
ATOM     39  C   UNL A   1      43.361  28.680  28.401  1.00  0.00     0.010 A 
ATOM     40  C   UNL A   1      42.432  27.968  29.182  1.00  0.00    -0.014 A 
BRANCH  40  41
ATOM     41  C   UNL A   1      41.905  28.593  30.414  1.00  0.00     0.031 A 
ATOM     42  C   UNL A   1      40.639  29.399  30.313  1.00  0.00     0.074 A 
ATOM     43  C   UNL A   1      42.545  28.463  31.587  1.00  0.00     0.049 A 
ATOM     44  N   UNL A   1      40.052  30.148  31.210  1.00  0.00    -0.248 NA
ATOM     45  C   UNL A   1      39.948  29.365  29.013  1.00  0.00     0.031 C 
ATOM     46  C   UNL A   1      43.754  27.672  31.804  1.00  0.00     0.029 A 
ATOM     47  N   UNL A   1      42.277  29.022  32.809  1.00  0.00    -0.354 N 
ATOM     48  C   UNL A   1      38.940  30.689  30.578  1.00  0.00     0.074 A 
ATOM     49  C   UNL A   1      38.945  30.206  29.215  1.00  0.00     0.031 C 
ATOM     50  C   UNL A   1      44.141  27.818  33.083  1.00  0.00     0.029 A 
ATOM     51  C   UNL A   1      43.231  28.744  33.754  1.00  0.00     0.049 A 
ATOM     52  H   UNL A   1      41.478  29.569  32.991  1.00  0.00     0.167 HD
ATOM     53  C   UNL A   1      37.997  31.514  31.092  1.00  0.00     0.037 A 
ATOM     54  C   UNL A   1      43.369  29.220  35.008  1.00  0.00     0.037 A 
ATOM     55  C   UNL A   1      38.006  31.986  32.451  1.00  0.00     0.049 A 
ATOM     56  C   UNL A   1      42.345  30.191  35.538  1.00  0.00     0.074 A 
ATOM     57  C   UNL A   1      37.089  32.802  33.088  1.00  0.00     0.029 A 
ATOM     58  N   UNL A   1      38.993  31.690  33.381  1.00  0.00    -0.354 N 
ATOM     59  N   UNL A   1      41.280  30.681  34.949  1.00  0.00    -0.248 NA
ATOM     60  C   UNL A   1      42.543  30.675  36.911  1.00  0.00     0.031 C 
ATOM     61  C   UNL A   1      37.554  33.052  34.383  1.00  0.00     0.029 A 
ATOM     62  C   UNL A   1      38.724  32.333  34.578  1.00  0.00     0.049 A 
ATOM     63  H   UNL A   1      39.770  31.109  33.214  1.00  0.00     0.167 HD
ATOM     64  C   UNL A   1      40.665  31.500  35.886  1.00  0.00     0.074 A 
ATOM     65  C   UNL A   1      41.469  31.431  37.088  1.00  0.00     0.031 C 
ATOM     66  C   UNL A   1      39.535  32.242  35.766  1.00  0.00     0.037 A 
BRANCH  53  67
ATOM     67  C   UNL A   1      36.905  31.985  30.175  1.00  0.00     0.064 A 
ATOM     68  C   UNL A   1      36.842  33.309  29.714  1.00  0.00     0.173 A 
ATOM     69  C   UNL A   1      35.922  31.089  29.727  1.00  0.00     0.173 A 
ATOM     70  F   UNL A   1      37.748  34.211  30.121  1.00  0.00    -0.203 F 
ATOM     71  C   UNL A   1      35.818  33.725  28.865  1.00  0.00     0.198 A 
ATOM     72  C   UNL A   1      34.920  31.500  28.851  1.00  0.00     0.198 A 
ATOM     73  F   UNL A   1      35.936  29.810  30.133  1.00  0.00    -0.203 F 
ATOM     74  F   UNL A   1      35.748  35.007  28.482  1.00  0.00    -0.200 F 
ATOM     75  C   UNL A   1      34.864  32.819  28.428  1.00  0.00     0.200 A 
ATOM     76  F   UNL A   1      34.009  30.618  28.418  1.00  0.00    -0.200 F 
ATOM     77  F   UNL A   1      33.886  33.218  27.604  1.00  0.00    -0.200 F 
ENDBRANCH  53  67
BRANCH  54  78
ATOM     78  C   UNL A   1      44.526  28.797  35.838  1.00  0.00     0.064 A 
ATOM     79  C   UNL A   1      44.436  27.688  36.690  1.00  0.00     0.173 A 
ATOM     80  C   UNL A   1      45.741  29.498  35.808  1.00  0.00     0.173 A 
ATOM     81  F   UNL A   1      43.289  26.999  36.773  1.00  0.00    -0.203 F 
ATOM     82  C   UNL A   1      45.509  27.308  37.494  1.00  0.00     0.198 A 
ATOM     83  C   UNL A   1      46.824  29.097  36.588  1.00  0.00     0.198 A 
ATOM     84  F   UNL A   1      45.880  30.568  35.012  1.00  0.00    -0.203 F 
ATOM     85  F   UNL A   1      45.377  26.274  38.336  1.00  0.00    -0.200 F 
ATOM     86  C   UNL A   1      46.704  28.008  37.436  1.00  0.00     0.200 A 
ATOM     87  F   UNL A   1      47.982  29.768  36.519  1.00  0.00    -0.200 F 
ATOM     88  F   UNL A   1      47.737  27.638  38.207  1.00  0.00    -0.200 F 
ENDBRANCH  54  78
BRANCH  66  89
ATOM     89  C   UNL A   1      39.074  33.000  36.979  1.00  0.00     0.064 A 
ATOM     90  C   UNL A   1      38.159  32.455  37.892  1.00  0.00     0.173 A 
ATOM     91  C   UNL A   1      39.592  34.276  37.254  1.00  0.00     0.173 A 
ATOM     92  F   UNL A   1      37.623  31.244  37.671  1.00  0.00    -0.203 F 
ATOM     93  C   UNL A   1      37.756  33.170  39.017  1.00  0.00     0.198 A 
ATOM     94  C   UNL A   1      39.216  34.972  38.399  1.00  0.00     0.198 A 
ATOM     95  F   UNL A   1      40.478  34.841  36.419  1.00  0.00    -0.203 F 
ATOM     96  F   UNL A   1      36.840  32.653  39.846  1.00  0.00    -0.200 F 
ATOM     97  C   UNL A   1      38.292  34.424  39.273  1.00  0.00     0.200 A 
ATOM     98  F   UNL A   1      39.750  36.175  38.654  1.00  0.00    -0.200 F 
ATOM     99  F   UNL A   1      37.912  35.107  40.362  1.00  0.00    -0.200 F 
ENDBRANCH  66  89
ENDBRANCH  40  41
ENDBRANCH  33  35
ENDBRANCH  32  33
ENDBRANCH  31  32
ENDBRANCH  30  31
ENDBRANCH  29  30
ENDBRANCH  28  29
ENDBRANCH  27  28
ENDBRANCH  26  27
ENDBRANCH   1  26
TORSDOF 24
ENDMDL
