MODEL 1
REMARK VINA RESULT:      -8.4      0.000      0.000
REMARK SMILES COC[C@@H](C)CNc1cc(C)c(N)c(C(=O)OCCOCCOCCOCCOC(=O)c2ccc(-c3c4nc(c(-c5c(F)c(F)c(F)c(F)c5F)c5ccc([nH]5)c(-c5c(F)c(F)c(F)c(F)c5F)c5nc(c(-c6c(F)c(F)c(F)c(F)c6F)c6ccc3[nH]6)C=C5)C=C4)cc2)c1
REMARK SMILES IDX 21 1 20 2 19 3 18 4 17 5 15 6 16 7 14 8 8 9 9 10 95 11 10 12
REMARK SMILES IDX 11 13 12 14 7 15 6 17 4 18 5 19 3 20 2 21 1 22 13 23 22 26
REMARK SMILES IDX 23 27 24 28 25 29 26 30 27 31 28 32 29 33 30 34 31 35 32 36
REMARK SMILES IDX 33 37 94 38 34 39 93 40 35 41 36 42 37 43 87 44 38 45 92 46
REMARK SMILES IDX 86 47 88 48 39 49 91 50 85 51 84 52 40 54 72 55 52 56 71 57
REMARK SMILES IDX 53 58 56 59 70 60 89 61 54 62 55 63 69 65 90 66 57 67 41 68
REMARK SMILES IDX 42 69 50 70 43 71 44 72 48 73 51 74 45 75 46 76 49 77 47 78
REMARK SMILES IDX 73 79 74 80 82 81 75 82 76 83 80 84 83 85 77 86 78 87 81 88
REMARK SMILES IDX 79 89 58 90 59 91 67 92 60 93 61 94 65 95 68 96 62 97 63 98
REMARK SMILES IDX 66 99 64 100
REMARK H PARENT 7 16 13 24 13 25 88 53 56 64
REMARK Flexibility Score: inf
ROOT
ATOM      1  C   UNL A   1      38.956  21.581  25.808  1.00  0.00     0.188 C 
ENDROOT
BRANCH   1   2
ATOM      2  O   UNL A   1      37.601  21.262  25.541  1.00  0.00    -0.376 OA
BRANCH   2   3
ATOM      3  C   UNL A   1      37.068  21.595  24.275  1.00  0.00     0.202 C 
BRANCH   3   4
ATOM      4  C   UNL A   1      35.635  22.142  24.260  1.00  0.00     0.261 C 
BRANCH   4   5
ATOM      5  O   UNL A   1      35.426  23.342  25.018  1.00  0.00    -0.460 OA
BRANCH   5   6
ATOM      6  C   UNL A   1      34.661  23.241  26.130  1.00  0.00     0.340 C 
ATOM      7  O   UNL A   1      35.050  22.907  27.238  1.00  0.00    -0.246 OA
BRANCH   6   8
ATOM      8  C   UNL A   1      33.312  23.792  25.830  1.00  0.00     0.085 A 
ATOM      9  C   UNL A   1      31.976  25.514  24.718  1.00  0.00     0.035 A 
ATOM     10  C   UNL A   1      30.848  24.959  25.326  1.00  0.00     0.031 A 
ATOM     11  C   UNL A   1      33.205  24.898  24.967  1.00  0.00     0.043 A 
ATOM     12  C   UNL A   1      30.926  23.855  26.201  1.00  0.00    -0.025 A 
ATOM     13  C   UNL A   1      29.659  23.369  26.854  1.00  0.00     0.047 C 
ATOM     14  C   UNL A   1      32.173  23.264  26.476  1.00  0.00     0.049 A 
BRANCH   9  15
ATOM     15  N   UNL A   1      31.955  26.668  23.958  1.00  0.00    -0.385 N 
ATOM     16  H   UNL A   1      32.755  27.240  23.988  1.00  0.00     0.160 HD
BRANCH  15  17
ATOM     17  C   UNL A   1      30.852  27.112  23.120  1.00  0.00     0.118 C 
BRANCH  17  18
ATOM     18  C   UNL A   1      29.979  28.160  23.843  1.00  0.00     0.031 C 
ATOM     19  C   UNL A   1      28.856  28.602  22.893  1.00  0.00     0.012 C 
BRANCH  18  20
ATOM     20  C   UNL A   1      30.815  29.358  24.325  1.00  0.00     0.164 C 
BRANCH  20  21
ATOM     21  O   UNL A   1      31.670  29.041  25.423  1.00  0.00    -0.384 OA
ATOM     22  C   UNL A   1      32.555  30.080  25.815  1.00  0.00     0.194 C 
ENDBRANCH  20  21
ENDBRANCH  18  20
ENDBRANCH  17  18
ENDBRANCH  15  17
ENDBRANCH   9  15
BRANCH  14  23
ATOM     23  N   UNL A   1      32.290  22.323  27.501  1.00  0.00    -0.398 N 
ATOM     24  H   UNL A   1      33.181  22.026  27.796  1.00  0.00     0.156 HD
ATOM     25  H   UNL A   1      31.483  21.955  27.927  1.00  0.00     0.156 HD
ENDBRANCH  14  23
ENDBRANCH   6   8
ENDBRANCH   5   6
ENDBRANCH   4   5
ENDBRANCH   3   4
ENDBRANCH   2   3
ENDBRANCH   1   2
BRANCH   1  26
ATOM     26  C   UNL A   1      39.853  20.376  26.186  1.00  0.00     0.188 C 
BRANCH  26  27
ATOM     27  O   UNL A   1      40.575  20.324  27.413  1.00  0.00    -0.377 OA
BRANCH  27  28
ATOM     28  C   UNL A   1      41.930  20.745  27.460  1.00  0.00     0.188 C 
BRANCH  28  29
ATOM     29  C   UNL A   1      42.260  22.209  27.098  1.00  0.00     0.188 C 
BRANCH  29  30
ATOM     30  O   UNL A   1      43.560  22.381  26.561  1.00  0.00    -0.376 OA
BRANCH  30  31
ATOM     31  C   UNL A   1      43.681  22.696  25.188  1.00  0.00     0.202 C 
BRANCH  31  32
ATOM     32  C   UNL A   1      43.571  24.161  24.736  1.00  0.00     0.261 C 
BRANCH  32  33
ATOM     33  O   UNL A   1      43.775  25.173  25.734  1.00  0.00    -0.460 OA
BRANCH  33  34
ATOM     34  C   UNL A   1      43.309  26.418  25.483  1.00  0.00     0.338 C 
ATOM     35  O   UNL A   1      43.024  26.900  24.410  1.00  0.00    -0.246 OA
BRANCH  34  36
ATOM     36  C   UNL A   1      43.025  27.035  26.801  1.00  0.00     0.060 A 
ATOM     37  C   UNL A   1      42.363  26.287  27.784  1.00  0.00     0.016 A 
ATOM     38  C   UNL A   1      43.456  28.334  27.073  1.00  0.00     0.016 A 
ATOM     39  C   UNL A   1      42.123  26.841  29.042  1.00  0.00     0.010 A 
ATOM     40  C   UNL A   1      43.188  28.899  28.323  1.00  0.00     0.010 A 
ATOM     41  C   UNL A   1      42.501  28.164  29.305  1.00  0.00    -0.014 A 
BRANCH  41  42
ATOM     42  C   UNL A   1      42.020  28.847  30.530  1.00  0.00     0.031 A 
ATOM     43  C   UNL A   1      40.758  29.658  30.440  1.00  0.00     0.074 A 
ATOM     44  C   UNL A   1      42.686  28.757  31.694  1.00  0.00     0.049 A 
ATOM     45  N   UNL A   1      40.189  30.419  31.339  1.00  0.00    -0.248 NA
ATOM     46  C   UNL A   1      40.044  29.607  29.153  1.00  0.00     0.031 C 
ATOM     47  C   UNL A   1      43.896  27.969  31.918  1.00  0.00     0.029 A 
ATOM     48  N   UNL A   1      42.443  29.356  32.907  1.00  0.00    -0.354 N 
ATOM     49  C   UNL A   1      39.061  30.946  30.724  1.00  0.00     0.074 A 
ATOM     50  C   UNL A   1      39.037  30.439  29.371  1.00  0.00     0.031 C 
ATOM     51  C   UNL A   1      44.304  28.151  33.187  1.00  0.00     0.029 A 
ATOM     52  C   UNL A   1      43.409  29.100  33.849  1.00  0.00     0.049 A 
ATOM     53  H   UNL A   1      41.652  29.915  33.083  1.00  0.00     0.167 HD
ATOM     54  C   UNL A   1      38.129  31.777  31.246  1.00  0.00     0.037 A 
ATOM     55  C   UNL A   1      43.566  29.602  35.090  1.00  0.00     0.037 A 
ATOM     56  C   UNL A   1      38.159  32.281  32.593  1.00  0.00     0.049 A 
ATOM     57  C   UNL A   1      42.554  30.589  35.622  1.00  0.00     0.074 A 
ATOM     58  C   UNL A   1      37.246  33.106  33.226  1.00  0.00     0.029 A 
ATOM     59  N   UNL A   1      39.165  32.017  33.512  1.00  0.00    -0.354 N 
ATOM     60  N   UNL A   1      41.471  31.058  35.050  1.00  0.00    -0.248 NA
ATOM     61  C   UNL A   1      42.787  31.115  36.975  1.00  0.00     0.031 C 
ATOM     62  C   UNL A   1      37.733  33.397  34.503  1.00  0.00     0.029 A 
ATOM     63  C   UNL A   1      38.912  32.693  34.695  1.00  0.00     0.049 A 
ATOM     64  H   UNL A   1      39.942  31.435  33.349  1.00  0.00     0.167 HD
ATOM     65  C   UNL A   1      40.881  31.906  35.979  1.00  0.00     0.074 A 
ATOM     66  C   UNL A   1      41.716  31.873  37.161  1.00  0.00     0.031 C 
ATOM     67  C   UNL A   1      39.749  32.645  35.867  1.00  0.00     0.037 A 
BRANCH  54  68
ATOM     68  C   UNL A   1      37.016  32.228  30.345  1.00  0.00     0.064 A 
ATOM     69  C   UNL A   1      35.972  31.370  29.969  1.00  0.00     0.173 A 
ATOM     70  C   UNL A   1      36.974  33.553  29.885  1.00  0.00     0.173 A 
ATOM     71  F   UNL A   1      35.972  30.088  30.369  1.00  0.00    -0.203 F 
ATOM     72  C   UNL A   1      34.939  31.816  29.147  1.00  0.00     0.198 A 
ATOM     73  C   UNL A   1      35.922  34.004  29.092  1.00  0.00     0.198 A 
ATOM     74  F   UNL A   1      37.946  34.415  30.216  1.00  0.00    -0.203 F 
ATOM     75  F   UNL A   1      33.976  30.966  28.763  1.00  0.00    -0.200 F 
ATOM     76  C   UNL A   1      34.910  33.133  28.718  1.00  0.00     0.200 A 
ATOM     77  F   UNL A   1      35.890  35.282  28.691  1.00  0.00    -0.200 F 
ATOM     78  F   UNL A   1      33.909  33.565  27.939  1.00  0.00    -0.200 F 
ENDBRANCH  54  68
BRANCH  55  79
ATOM     79  C   UNL A   1      44.744  29.213  35.912  1.00  0.00     0.064 A 
ATOM     80  C   UNL A   1      45.934  29.954  35.874  1.00  0.00     0.173 A 
ATOM     81  C   UNL A   1      44.719  28.066  36.720  1.00  0.00     0.173 A 
ATOM     82  F   UNL A   1      46.020  31.041  35.093  1.00  0.00    -0.203 F 
ATOM     83  C   UNL A   1      47.058  29.550  36.591  1.00  0.00     0.198 A 
ATOM     84  C   UNL A   1      45.833  27.683  37.465  1.00  0.00     0.198 A 
ATOM     85  F   UNL A   1      43.610  27.316  36.789  1.00  0.00    -0.203 F 
ATOM     86  F   UNL A   1      48.201  30.243  36.487  1.00  0.00    -0.200 F 
ATOM     87  C   UNL A   1      47.005  28.419  37.391  1.00  0.00     0.200 A 
ATOM     88  F   UNL A   1      45.773  26.595  38.245  1.00  0.00    -0.200 F 
ATOM     89  F   UNL A   1      48.087  28.030  38.079  1.00  0.00    -0.200 F 
ENDBRANCH  55  79
BRANCH  67  90
ATOM     90  C   UNL A   1      39.319  33.446  37.065  1.00  0.00     0.064 A 
ATOM     91  C   UNL A   1      38.479  32.910  38.053  1.00  0.00     0.173 A 
ATOM     92  C   UNL A   1      39.792  34.755  37.249  1.00  0.00     0.173 A 
ATOM     93  F   UNL A   1      37.989  31.668  37.921  1.00  0.00    -0.203 F 
ATOM     94  C   UNL A   1      38.105  33.665  39.162  1.00  0.00     0.198 A 
ATOM     95  C   UNL A   1      39.446  35.493  38.377  1.00  0.00     0.198 A 
ATOM     96  F   UNL A   1      40.606  35.315  36.341  1.00  0.00    -0.203 F 
ATOM     97  F   UNL A   1      37.259  33.150  40.066  1.00  0.00    -0.200 F 
ATOM     98  C   UNL A   1      38.595  34.951  39.328  1.00  0.00     0.200 A 
ATOM     99  F   UNL A   1      39.937  36.729  38.544  1.00  0.00    -0.200 F 
ATOM    100  F   UNL A   1      38.243  35.672  40.401  1.00  0.00    -0.200 F 
ENDBRANCH  67  90
ENDBRANCH  41  42
ENDBRANCH  34  36
ENDBRANCH  33  34
ENDBRANCH  32  33
ENDBRANCH  31  32
ENDBRANCH  30  31
ENDBRANCH  29  30
ENDBRANCH  28  29
ENDBRANCH  27  28
ENDBRANCH  26  27
ENDBRANCH   1  26
TORSDOF 26
ENDMDL
MODEL 2
REMARK VINA RESULT:      -8.2      1.226      2.118
REMARK SMILES COC[C@@H](C)CNc1cc(C)c(N)c(C(=O)OCCOCCOCCOCCOC(=O)c2ccc(-c3c4nc(c(-c5c(F)c(F)c(F)c(F)c5F)c5ccc([nH]5)c(-c5c(F)c(F)c(F)c(F)c5F)c5nc(c(-c6c(F)c(F)c(F)c(F)c6F)c6ccc3[nH]6)C=C5)C=C4)cc2)c1
REMARK SMILES IDX 21 1 20 2 19 3 18 4 17 5 15 6 16 7 14 8 8 9 9 10 95 11 10 12
REMARK SMILES IDX 11 13 12 14 7 15 6 17 4 18 5 19 3 20 2 21 1 22 13 23 22 26
REMARK SMILES IDX 23 27 24 28 25 29 26 30 27 31 28 32 29 33 30 34 31 35 32 36
REMARK SMILES IDX 33 37 94 38 34 39 93 40 35 41 36 42 37 43 87 44 38 45 92 46
REMARK SMILES IDX 86 47 88 48 39 49 91 50 85 51 84 52 40 54 72 55 52 56 71 57
REMARK SMILES IDX 53 58 56 59 70 60 89 61 54 62 55 63 69 65 90 66 57 67 41 68
REMARK SMILES IDX 42 69 50 70 43 71 44 72 48 73 51 74 45 75 46 76 49 77 47 78
REMARK SMILES IDX 73 79 74 80 82 81 75 82 76 83 80 84 83 85 77 86 78 87 81 88
REMARK SMILES IDX 79 89 58 90 59 91 67 92 60 93 61 94 65 95 68 96 62 97 63 98
REMARK SMILES IDX 66 99 64 100
REMARK H PARENT 7 16 13 24 13 25 88 53 56 64
REMARK Flexibility Score: inf
ROOT
ATOM      1  C   UNL A   1      38.936  21.556  25.515  1.00  0.00     0.188 C 
ENDROOT
BRANCH   1   2
ATOM      2  O   UNL A   1      37.544  21.459  25.259  1.00  0.00    -0.376 OA
BRANCH   2   3
ATOM      3  C   UNL A   1      37.052  21.939  24.024  1.00  0.00     0.202 C 
BRANCH   3   4
ATOM      4  C   UNL A   1      35.676  22.615  24.053  1.00  0.00     0.261 C 
BRANCH   4   5
ATOM      5  O   UNL A   1      35.482  23.571  25.105  1.00  0.00    -0.460 OA
BRANCH   5   6
ATOM      6  C   UNL A   1      34.755  23.169  26.174  1.00  0.00     0.340 C 
ATOM      7  O   UNL A   1      35.162  22.484  27.100  1.00  0.00    -0.246 OA
BRANCH   6   8
ATOM      8  C   UNL A   1      33.437  23.859  26.139  1.00  0.00     0.085 A 
ATOM      9  C   UNL A   1      32.197  25.947  25.839  1.00  0.00     0.035 A 
ATOM     10  C   UNL A   1      31.039  25.248  26.180  1.00  0.00     0.031 A 
ATOM     11  C   UNL A   1      33.393  25.224  25.802  1.00  0.00     0.043 A 
ATOM     12  C   UNL A   1      31.054  23.881  26.530  1.00  0.00    -0.025 A 
ATOM     13  C   UNL A   1      29.758  23.233  26.942  1.00  0.00     0.047 C 
ATOM     14  C   UNL A   1      32.268  23.170  26.527  1.00  0.00     0.049 A 
BRANCH   9  15
ATOM     15  N   UNL A   1      32.240  27.310  25.615  1.00  0.00    -0.385 N 
ATOM     16  H   UNL A   1      33.029  27.795  25.948  1.00  0.00     0.160 HD
BRANCH  15  17
ATOM     17  C   UNL A   1      31.219  28.090  24.932  1.00  0.00     0.118 C 
BRANCH  17  18
ATOM     18  C   UNL A   1      31.649  28.447  23.493  1.00  0.00     0.031 C 
ATOM     19  C   UNL A   1      30.391  28.738  22.663  1.00  0.00     0.012 C 
BRANCH  18  20
ATOM     20  C   UNL A   1      32.496  27.329  22.862  1.00  0.00     0.164 C 
BRANCH  20  21
ATOM     21  O   UNL A   1      31.812  26.619  21.830  1.00  0.00    -0.384 OA
ATOM     22  C   UNL A   1      32.590  25.644  21.153  1.00  0.00     0.194 C 
ENDBRANCH  20  21
ENDBRANCH  18  20
ENDBRANCH  17  18
ENDBRANCH  15  17
ENDBRANCH   9  15
BRANCH  14  23
ATOM     23  N   UNL A   1      32.329  21.888  27.078  1.00  0.00    -0.398 N 
ATOM     24  H   UNL A   1      32.198  21.762  28.046  1.00  0.00     0.156 HD
ATOM     25  H   UNL A   1      32.502  21.111  26.500  1.00  0.00     0.156 HD
ENDBRANCH  14  23
ENDBRANCH   6   8
ENDBRANCH   5   6
ENDBRANCH   4   5
ENDBRANCH   3   4
ENDBRANCH   2   3
ENDBRANCH   1   2
BRANCH   1  26
ATOM     26  C   UNL A   1      39.579  20.290  26.133  1.00  0.00     0.188 C 
BRANCH  26  27
ATOM     27  O   UNL A   1      40.467  20.357  27.245  1.00  0.00    -0.377 OA
BRANCH  27  28
ATOM     28  C   UNL A   1      41.871  20.374  27.035  1.00  0.00     0.188 C 
BRANCH  28  29
ATOM     29  C   UNL A   1      42.587  21.739  26.950  1.00  0.00     0.188 C 
BRANCH  29  30
ATOM     30  O   UNL A   1      43.882  21.666  26.379  1.00  0.00    -0.376 OA
BRANCH  30  31
ATOM     31  C   UNL A   1      44.051  22.101  25.044  1.00  0.00     0.202 C 
BRANCH  31  32
ATOM     32  C   UNL A   1      44.421  23.568  24.768  1.00  0.00     0.261 C 
BRANCH  32  33
ATOM     33  O   UNL A   1      44.896  24.344  25.877  1.00  0.00    -0.460 OA
BRANCH  33  34
ATOM     34  C   UNL A   1      44.991  25.684  25.723  1.00  0.00     0.338 C 
ATOM     35  O   UNL A   1      45.238  26.297  24.709  1.00  0.00    -0.246 OA
BRANCH  34  36
ATOM     36  C   UNL A   1      44.543  26.289  27.000  1.00  0.00     0.060 A 
ATOM     37  C   UNL A   1      43.672  25.574  27.833  1.00  0.00     0.016 A 
ATOM     38  C   UNL A   1      45.023  27.541  27.389  1.00  0.00     0.016 A 
ATOM     39  C   UNL A   1      43.272  26.114  29.057  1.00  0.00     0.010 A 
ATOM     40  C   UNL A   1      44.599  28.094  28.600  1.00  0.00     0.010 A 
ATOM     41  C   UNL A   1      43.704  27.393  29.429  1.00  0.00    -0.014 A 
BRANCH  41  42
ATOM     42  C   UNL A   1      43.082  28.082  30.585  1.00  0.00     0.031 A 
ATOM     43  C   UNL A   1      41.752  28.750  30.381  1.00  0.00     0.074 A 
ATOM     44  C   UNL A   1      43.683  28.122  31.787  1.00  0.00     0.049 A 
ATOM     45  N   UNL A   1      41.055  29.491  31.203  1.00  0.00    -0.248 NA
ATOM     46  C   UNL A   1      41.126  28.560  29.062  1.00  0.00     0.031 C 
ATOM     47  C   UNL A   1      44.951  27.478  32.121  1.00  0.00     0.029 A 
ATOM     48  N   UNL A   1      43.307  28.752  32.949  1.00  0.00    -0.354 N 
ATOM     49  C   UNL A   1      39.918  29.866  30.499  1.00  0.00     0.074 A 
ATOM     50  C   UNL A   1      40.028  29.291  29.177  1.00  0.00     0.031 C 
ATOM     51  C   UNL A   1      45.262  27.766  33.398  1.00  0.00     0.029 A 
ATOM     52  C   UNL A   1      44.236  28.647  33.956  1.00  0.00     0.049 A 
ATOM     53  H   UNL A   1      42.455  29.233  33.050  1.00  0.00     0.167 HD
ATOM     54  C   UNL A   1      38.876  30.619  30.921  1.00  0.00     0.037 A 
ATOM     55  C   UNL A   1      44.265  29.225  35.173  1.00  0.00     0.037 A 
ATOM     56  C   UNL A   1      38.774  31.190  32.238  1.00  0.00     0.049 A 
ATOM     57  C   UNL A   1      43.128  30.125  35.592  1.00  0.00     0.074 A 
ATOM     58  C   UNL A   1      37.745  31.945  32.772  1.00  0.00     0.029 A 
ATOM     59  N   UNL A   1      39.744  31.080  33.224  1.00  0.00    -0.354 N 
ATOM     60  N   UNL A   1      42.039  30.448  34.937  1.00  0.00    -0.248 NA
ATOM     61  C   UNL A   1      43.224  30.740  36.925  1.00  0.00     0.031 C 
ATOM     62  C   UNL A   1      38.122  32.349  34.056  1.00  0.00     0.029 A 
ATOM     63  C   UNL A   1      39.353  31.785  34.351  1.00  0.00     0.049 A 
ATOM     64  H   UNL A   1      40.585  30.575  33.136  1.00  0.00     0.167 HD
ATOM     65  C   UNL A   1      41.311  31.275  35.783  1.00  0.00     0.074 A 
ATOM     66  C   UNL A   1      42.072  31.389  37.009  1.00  0.00     0.031 C 
ATOM     67  C   UNL A   1      40.118  31.883  35.568  1.00  0.00     0.037 A 
BRANCH  54  68
ATOM     68  C   UNL A   1      37.779  30.904  29.937  1.00  0.00     0.064 A 
ATOM     69  C   UNL A   1      37.692  32.127  29.255  1.00  0.00     0.173 A 
ATOM     70  C   UNL A   1      36.823  29.919  29.643  1.00  0.00     0.173 A 
ATOM     71  F   UNL A   1      38.572  33.107  29.511  1.00  0.00    -0.203 F 
ATOM     72  C   UNL A   1      36.676  32.361  28.331  1.00  0.00     0.198 A 
ATOM     73  C   UNL A   1      35.829  30.145  28.695  1.00  0.00     0.198 A 
ATOM     74  F   UNL A   1      36.860  28.732  30.267  1.00  0.00    -0.203 F 
ATOM     75  F   UNL A   1      36.586  33.553  27.726  1.00  0.00    -0.200 F 
ATOM     76  C   UNL A   1      35.752  31.368  28.046  1.00  0.00     0.200 A 
ATOM     77  F   UNL A   1      34.946  29.179  28.411  1.00  0.00    -0.200 F 
ATOM     78  F   UNL A   1      34.783  31.589  27.147  1.00  0.00    -0.200 F 
ENDBRANCH  54  68
BRANCH  55  79
ATOM     79  C   UNL A   1      45.426  29.004  36.079  1.00  0.00     0.064 A 
ATOM     80  C   UNL A   1      45.404  28.000  37.057  1.00  0.00     0.173 A 
ATOM     81  C   UNL A   1      46.566  29.821  36.012  1.00  0.00     0.173 A 
ATOM     82  F   UNL A   1      44.326  27.212  37.183  1.00  0.00    -0.203 F 
ATOM     83  C   UNL A   1      46.463  27.839  37.949  1.00  0.00     0.198 A 
ATOM     84  C   UNL A   1      47.639  29.635  36.881  1.00  0.00     0.198 A 
ATOM     85  F   UNL A   1      46.638  30.801  35.100  1.00  0.00    -0.203 F 
ATOM     86  F   UNL A   1      46.387  26.912  38.915  1.00  0.00    -0.200 F 
ATOM     87  C   UNL A   1      47.582  28.652  37.856  1.00  0.00     0.200 A 
ATOM     88  F   UNL A   1      48.723  30.417  36.780  1.00  0.00    -0.200 F 
ATOM     89  F   UNL A   1      48.599  28.497  38.715  1.00  0.00    -0.200 F 
ENDBRANCH  55  79
BRANCH  67  90
ATOM     90  C   UNL A   1      39.536  32.694  36.693  1.00  0.00     0.064 A 
ATOM     91  C   UNL A   1      38.512  32.197  37.512  1.00  0.00     0.173 A 
ATOM     92  C   UNL A   1      40.046  33.970  36.984  1.00  0.00     0.173 A 
ATOM     93  F   UNL A   1      37.980  30.989  37.272  1.00  0.00    -0.203 F 
ATOM     94  C   UNL A   1      37.998  32.959  38.559  1.00  0.00     0.198 A 
ATOM     95  C   UNL A   1      39.555  34.713  38.054  1.00  0.00     0.198 A 
ATOM     96  F   UNL A   1      41.033  34.490  36.240  1.00  0.00    -0.203 F 
ATOM     97  F   UNL A   1      36.982  32.486  39.294  1.00  0.00    -0.200 F 
ATOM     98  C   UNL A   1      38.526  34.212  38.835  1.00  0.00     0.200 A 
ATOM     99  F   UNL A   1      40.081  35.915  38.330  1.00  0.00    -0.200 F 
ATOM    100  F   UNL A   1      38.037  34.939  39.849  1.00  0.00    -0.200 F 
ENDBRANCH  67  90
ENDBRANCH  41  42
ENDBRANCH  34  36
ENDBRANCH  33  34
ENDBRANCH  32  33
ENDBRANCH  31  32
ENDBRANCH  30  31
ENDBRANCH  29  30
ENDBRANCH  28  29
ENDBRANCH  27  28
ENDBRANCH  26  27
ENDBRANCH   1  26
TORSDOF 26
ENDMDL
MODEL 3
REMARK VINA RESULT:      -8.0      4.790      8.040
REMARK SMILES COC[C@@H](C)CNc1cc(C)c(N)c(C(=O)OCCOCCOCCOCCOC(=O)c2ccc(-c3c4nc(c(-c5c(F)c(F)c(F)c(F)c5F)c5ccc([nH]5)c(-c5c(F)c(F)c(F)c(F)c5F)c5nc(c(-c6c(F)c(F)c(F)c(F)c6F)c6ccc3[nH]6)C=C5)C=C4)cc2)c1
REMARK SMILES IDX 21 1 20 2 19 3 18 4 17 5 15 6 16 7 14 8 8 9 9 10 95 11 10 12
REMARK SMILES IDX 11 13 12 14 7 15 6 17 4 18 5 19 3 20 2 21 1 22 13 23 22 26
REMARK SMILES IDX 23 27 24 28 25 29 26 30 27 31 28 32 29 33 30 34 31 35 32 36
REMARK SMILES IDX 33 37 94 38 34 39 93 40 35 41 36 42 37 43 87 44 38 45 92 46
REMARK SMILES IDX 86 47 88 48 39 49 91 50 85 51 84 52 40 54 72 55 52 56 71 57
REMARK SMILES IDX 53 58 56 59 70 60 89 61 54 62 55 63 69 65 90 66 57 67 41 68
REMARK SMILES IDX 42 69 50 70 43 71 44 72 48 73 51 74 45 75 46 76 49 77 47 78
REMARK SMILES IDX 73 79 74 80 82 81 75 82 76 83 80 84 83 85 77 86 78 87 81 88
REMARK SMILES IDX 79 89 58 90 59 91 67 92 60 93 61 94 65 95 68 96 62 97 63 98
REMARK SMILES IDX 66 99 64 100
REMARK H PARENT 7 16 13 24 13 25 88 53 56 64
REMARK Flexibility Score: inf
ROOT
ATOM      1  C   UNL A   1      38.158  21.878  25.507  1.00  0.00     0.188 C 
ENDROOT
BRANCH   1   2
ATOM      2  O   UNL A   1      36.842  22.405  25.493  1.00  0.00    -0.376 OA
BRANCH   2   3
ATOM      3  C   UNL A   1      36.524  23.396  24.537  1.00  0.00     0.202 C 
BRANCH   3   4
ATOM      4  C   UNL A   1      35.830  22.913  23.258  1.00  0.00     0.261 C 
BRANCH   4   5
ATOM      5  O   UNL A   1      34.910  23.842  22.668  1.00  0.00    -0.460 OA
BRANCH   5   6
ATOM      6  C   UNL A   1      33.607  23.477  22.631  1.00  0.00     0.340 C 
ATOM      7  O   UNL A   1      33.098  22.721  21.818  1.00  0.00    -0.246 OA
BRANCH   6   8
ATOM      8  C   UNL A   1      32.936  23.988  23.857  1.00  0.00     0.085 A 
ATOM      9  C   UNL A   1      32.326  25.913  25.238  1.00  0.00     0.035 A 
ATOM     10  C   UNL A   1      31.821  25.014  26.178  1.00  0.00     0.031 A 
ATOM     11  C   UNL A   1      32.864  25.377  24.065  1.00  0.00     0.043 A 
ATOM     12  C   UNL A   1      31.886  23.615  26.000  1.00  0.00    -0.025 A 
ATOM     13  C   UNL A   1      31.366  22.729  27.101  1.00  0.00     0.047 C 
ATOM     14  C   UNL A   1      32.463  23.083  24.833  1.00  0.00     0.049 A 
BRANCH   9  15
ATOM     15  N   UNL A   1      32.395  27.279  25.435  1.00  0.00    -0.385 N 
ATOM     16  H   UNL A   1      31.654  27.822  25.081  1.00  0.00     0.160 HD
BRANCH  15  17
ATOM     17  C   UNL A   1      33.468  27.985  26.118  1.00  0.00     0.118 C 
BRANCH  17  18
ATOM     18  C   UNL A   1      32.917  28.946  27.194  1.00  0.00     0.031 C 
ATOM     19  C   UNL A   1      31.562  28.413  27.680  1.00  0.00     0.012 C 
BRANCH  18  20
ATOM     20  C   UNL A   1      32.801  30.384  26.662  1.00  0.00     0.164 C 
BRANCH  20  21
ATOM     21  O   UNL A   1      33.493  31.339  27.465  1.00  0.00    -0.384 OA
ATOM     22  C   UNL A   1      34.788  30.942  27.889  1.00  0.00     0.194 C 
ENDBRANCH  20  21
ENDBRANCH  18  20
ENDBRANCH  17  18
ENDBRANCH  15  17
ENDBRANCH   9  15
BRANCH  14  23
ATOM     23  N   UNL A   1      32.729  21.715  24.745  1.00  0.00    -0.398 N 
ATOM     24  H   UNL A   1      33.240  21.267  25.458  1.00  0.00     0.156 HD
ATOM     25  H   UNL A   1      32.407  21.199  23.972  1.00  0.00     0.156 HD
ENDBRANCH  14  23
ENDBRANCH   6   8
ENDBRANCH   5   6
ENDBRANCH   4   5
ENDBRANCH   3   4
ENDBRANCH   2   3
ENDBRANCH   1   2
BRANCH   1  26
ATOM     26  C   UNL A   1      38.287  20.417  25.011  1.00  0.00     0.188 C 
BRANCH  26  27
ATOM     27  O   UNL A   1      38.906  19.401  25.796  1.00  0.00    -0.377 OA
BRANCH  27  28
ATOM     28  C   UNL A   1      40.301  19.163  25.679  1.00  0.00     0.188 C 
BRANCH  28  29
ATOM     29  C   UNL A   1      41.271  20.059  26.477  1.00  0.00     0.188 C 
BRANCH  29  30
ATOM     30  O   UNL A   1      40.675  20.678  27.604  1.00  0.00    -0.376 OA
BRANCH  30  31
ATOM     31  C   UNL A   1      41.040  22.009  27.909  1.00  0.00     0.202 C 
BRANCH  31  32
ATOM     32  C   UNL A   1      41.573  22.922  26.792  1.00  0.00     0.261 C 
BRANCH  32  33
ATOM     33  O   UNL A   1      42.996  23.065  26.686  1.00  0.00    -0.460 OA
BRANCH  33  34
ATOM     34  C   UNL A   1      43.488  23.797  25.660  1.00  0.00     0.338 C 
ATOM     35  O   UNL A   1      43.625  23.456  24.507  1.00  0.00    -0.246 OA
BRANCH  34  36
ATOM     36  C   UNL A   1      43.655  25.180  26.168  1.00  0.00     0.060 A 
ATOM     37  C   UNL A   1      44.239  25.386  27.425  1.00  0.00     0.016 A 
ATOM     38  C   UNL A   1      43.275  26.266  25.379  1.00  0.00     0.016 A 
ATOM     39  C   UNL A   1      44.438  26.684  27.899  1.00  0.00     0.010 A 
ATOM     40  C   UNL A   1      43.446  27.564  25.867  1.00  0.00     0.010 A 
ATOM     41  C   UNL A   1      44.008  27.778  27.138  1.00  0.00    -0.014 A 
BRANCH  41  42
ATOM     42  C   UNL A   1      43.968  29.133  27.739  1.00  0.00     0.031 A 
ATOM     43  C   UNL A   1      45.192  29.997  27.622  1.00  0.00     0.074 A 
ATOM     44  C   UNL A   1      42.877  29.588  28.379  1.00  0.00     0.049 A 
ATOM     45  N   UNL A   1      45.437  31.172  28.141  1.00  0.00    -0.248 NA
ATOM     46  C   UNL A   1      46.295  29.453  26.812  1.00  0.00     0.031 C 
ATOM     47  C   UNL A   1      41.617  28.864  28.522  1.00  0.00     0.029 A 
ATOM     48  N   UNL A   1      42.665  30.771  29.047  1.00  0.00    -0.354 N 
ATOM     49  C   UNL A   1      46.723  31.502  27.732  1.00  0.00     0.074 A 
ATOM     50  C   UNL A   1      47.216  30.395  26.943  1.00  0.00     0.031 C 
ATOM     51  C   UNL A   1      40.769  29.607  29.255  1.00  0.00     0.029 A 
ATOM     52  C   UNL A   1      41.441  30.840  29.666  1.00  0.00     0.049 A 
ATOM     53  H   UNL A   1      43.328  31.497  29.079  1.00  0.00     0.167 HD
ATOM     54  C   UNL A   1      47.426  32.629  27.991  1.00  0.00     0.037 A 
ATOM     55  C   UNL A   1      40.940  31.777  30.495  1.00  0.00     0.037 A 
ATOM     56  C   UNL A   1      46.931  33.726  28.780  1.00  0.00     0.049 A 
ATOM     57  C   UNL A   1      41.774  32.989  30.832  1.00  0.00     0.074 A 
ATOM     58  C   UNL A   1      47.555  34.924  29.077  1.00  0.00     0.029 A 
ATOM     59  N   UNL A   1      45.694  33.752  29.408  1.00  0.00    -0.354 N 
ATOM     60  N   UNL A   1      42.975  33.313  30.416  1.00  0.00    -0.248 NA
ATOM     61  C   UNL A   1      41.180  33.968  31.754  1.00  0.00     0.031 C 
ATOM     62  C   UNL A   1      46.726  35.646  29.940  1.00  0.00     0.029 A 
ATOM     63  C   UNL A   1      45.553  34.930  30.122  1.00  0.00     0.049 A 
ATOM     64  H   UNL A   1      45.017  33.038  29.355  1.00  0.00     0.167 HD
ATOM     65  C   UNL A   1      43.267  34.540  30.999  1.00  0.00     0.074 A 
ATOM     66  C   UNL A   1      42.109  34.914  31.783  1.00  0.00     0.031 C 
ATOM     67  C   UNL A   1      44.390  35.292  30.893  1.00  0.00     0.037 A 
BRANCH  54  68
ATOM     68  C   UNL A   1      48.823  32.718  27.451  1.00  0.00     0.064 A 
ATOM     69  C   UNL A   1      49.897  32.048  28.055  1.00  0.00     0.173 A 
ATOM     70  C   UNL A   1      49.082  33.454  26.284  1.00  0.00     0.173 A 
ATOM     71  F   UNL A   1      49.707  31.342  29.181  1.00  0.00    -0.203 F 
ATOM     72  C   UNL A   1      51.183  32.129  27.523  1.00  0.00     0.198 A 
ATOM     73  C   UNL A   1      50.362  33.506  25.738  1.00  0.00     0.198 A 
ATOM     74  F   UNL A   1      48.091  34.114  25.667  1.00  0.00    -0.203 F 
ATOM     75  F   UNL A   1      52.202  31.518  28.143  1.00  0.00    -0.200 F 
ATOM     76  C   UNL A   1      51.411  32.850  26.362  1.00  0.00     0.200 A 
ATOM     77  F   UNL A   1      50.577  34.191  24.607  1.00  0.00    -0.200 F 
ATOM     78  F   UNL A   1      52.646  32.916  25.844  1.00  0.00    -0.200 F 
ENDBRANCH  54  68
BRANCH  55  79
ATOM     79  C   UNL A   1      39.590  31.598  31.098  1.00  0.00     0.064 A 
ATOM     80  C   UNL A   1      39.412  30.856  32.274  1.00  0.00     0.173 A 
ATOM     81  C   UNL A   1      38.445  32.131  30.486  1.00  0.00     0.173 A 
ATOM     82  F   UNL A   1      40.471  30.299  32.881  1.00  0.00    -0.203 F 
ATOM     83  C   UNL A   1      38.141  30.632  32.800  1.00  0.00     0.198 A 
ATOM     84  C   UNL A   1      37.178  31.936  31.033  1.00  0.00     0.198 A 
ATOM     85  F   UNL A   1      38.556  32.843  29.356  1.00  0.00    -0.203 F 
ATOM     86  F   UNL A   1      37.994  29.866  33.890  1.00  0.00    -0.200 F 
ATOM     87  C   UNL A   1      37.025  31.178  32.183  1.00  0.00     0.200 A 
ATOM     88  F   UNL A   1      36.105  32.475  30.439  1.00  0.00    -0.200 F 
ATOM     89  F   UNL A   1      35.804  30.961  32.688  1.00  0.00    -0.200 F 
ENDBRANCH  55  79
BRANCH  67  90
ATOM     90  C   UNL A   1      44.411  36.617  31.607  1.00  0.00     0.064 A 
ATOM     91  C   UNL A   1      44.796  36.728  32.951  1.00  0.00     0.173 A 
ATOM     92  C   UNL A   1      44.086  37.797  30.920  1.00  0.00     0.173 A 
ATOM     93  F   UNL A   1      45.106  35.630  33.659  1.00  0.00    -0.203 F 
ATOM     94  C   UNL A   1      44.823  37.966  33.589  1.00  0.00     0.198 A 
ATOM     95  C   UNL A   1      44.150  39.036  31.550  1.00  0.00     0.198 A 
ATOM     96  F   UNL A   1      43.721  37.751  29.630  1.00  0.00    -0.203 F 
ATOM     97  F   UNL A   1      45.141  38.041  34.889  1.00  0.00    -0.200 F 
ATOM     98  C   UNL A   1      44.510  39.119  32.886  1.00  0.00     0.200 A 
ATOM     99  F   UNL A   1      43.866  40.151  30.863  1.00  0.00    -0.200 F 
ATOM    100  F   UNL A   1      44.547  40.311  33.499  1.00  0.00    -0.200 F 
ENDBRANCH  67  90
ENDBRANCH  41  42
ENDBRANCH  34  36
ENDBRANCH  33  34
ENDBRANCH  32  33
ENDBRANCH  31  32
ENDBRANCH  30  31
ENDBRANCH  29  30
ENDBRANCH  28  29
ENDBRANCH  27  28
ENDBRANCH  26  27
ENDBRANCH   1  26
TORSDOF 26
ENDMDL
