MODEL 1
REMARK VINA RESULT:     -10.8      0.000      0.000
REMARK SMILES CCc1ccc2c(c1)C=C(C(=O)OCCOCCOCCOCCOC(=O)c1ccc(-c3c4nc(c(-c5c(F)c(F)c(F)c(F)c5F)c5ccc([nH]5)c(-c5c(F)c(F)c(F)c(F)c5F)c5nc(c(-c6c(F)c(F)c(F)c(F)c6F)c6ccc3[nH]6)C=C5)C=C4)cc1)[C@H](C(F)(F)F)O2
REMARK SMILES IDX 20 1 19 2 18 3 17 4 16 5 15 6 14 7 13 8 11 9 12 10 10 11
REMARK SMILES IDX 3 12 4 13 8 14 5 15 7 16 6 17 9 18 96 19 91 20 2 21 1 22
REMARK SMILES IDX 92 23 93 24 94 25 95 26 21 27 22 28 23 29 24 30 25 31 26 32
REMARK SMILES IDX 27 33 28 34 29 35 90 36 30 37 89 38 31 39 32 40 33 41 83 42
REMARK SMILES IDX 34 43 88 44 82 45 84 46 35 47 87 48 81 49 80 50 36 52 68 53
REMARK SMILES IDX 48 54 67 55 49 56 52 57 66 58 85 59 50 60 51 61 65 63 86 64
REMARK SMILES IDX 53 65 37 66 38 67 46 68 39 69 40 70 44 71 47 72 41 73 42 74
REMARK SMILES IDX 45 75 43 76 69 77 70 78 78 79 71 80 72 81 76 82 79 83 73 84
REMARK SMILES IDX 74 85 77 86 75 87 54 88 55 89 63 90 56 91 57 92 61 93 64 94
REMARK SMILES IDX 58 95 59 96 62 97 60 98
REMARK H PARENT 84 51 52 62
REMARK Flexibility Score: inf
ROOT
ATOM      1  C   UNL A   1      31.425  27.661  22.109  1.00  0.00     0.188 C 
ENDROOT
BRANCH   1   2
ATOM      2  O   UNL A   1      31.957  26.361  22.352  1.00  0.00    -0.377 OA
BRANCH   2   3
ATOM      3  C   UNL A   1      31.104  25.343  22.851  1.00  0.00     0.188 C 
BRANCH   3   4
ATOM      4  C   UNL A   1      30.079  25.705  23.947  1.00  0.00     0.188 C 
BRANCH   4   5
ATOM      5  O   UNL A   1      30.378  25.166  25.225  1.00  0.00    -0.376 OA
BRANCH   5   6
ATOM      6  C   UNL A   1      31.603  25.539  25.832  1.00  0.00     0.202 C 
BRANCH   6   7
ATOM      7  C   UNL A   1      32.402  24.421  26.515  1.00  0.00     0.261 C 
BRANCH   7   8
ATOM      8  O   UNL A   1      33.808  24.411  26.223  1.00  0.00    -0.460 OA
BRANCH   8   9
ATOM      9  C   UNL A   1      34.177  23.952  25.005  1.00  0.00     0.338 C 
ATOM     10  O   UNL A   1      34.273  24.617  23.990  1.00  0.00    -0.246 OA
BRANCH   9  11
ATOM     11  C   UNL A   1      34.605  22.543  25.119  1.00  0.00     0.087 C 
ATOM     12  C   UNL A   1      33.871  17.789  24.574  1.00  0.00    -0.047 A 
ATOM     13  C   UNL A   1      35.261  17.612  24.550  1.00  0.00     0.007 A 
ATOM     14  C   UNL A   1      33.358  19.090  24.747  1.00  0.00     0.015 A 
ATOM     15  C   UNL A   1      36.122  18.696  24.722  1.00  0.00     0.047 A 
ATOM     16  C   UNL A   1      34.218  20.186  24.885  1.00  0.00     0.018 A 
ATOM     17  C   UNL A   1      35.600  19.973  24.894  1.00  0.00     0.128 A 
ATOM     18  C   UNL A   1      33.722  21.561  24.865  1.00  0.00     0.027 C 
ATOM     19  O   UNL A   1      36.507  20.994  24.973  1.00  0.00    -0.475 OA
ATOM     20  C   UNL A   1      36.005  22.207  25.594  1.00  0.00     0.316 C 
BRANCH  12  21
ATOM     21  C   UNL A   1      32.912  16.652  24.292  1.00  0.00     0.032 C 
ATOM     22  C   UNL A   1      32.990  15.462  25.242  1.00  0.00     0.009 C 
ENDBRANCH  12  21
BRANCH  20  23
ATOM     23  C   UNL A   1      37.108  23.274  25.501  1.00  0.00     0.430 C 
ATOM     24  F   UNL A   1      38.323  22.771  25.817  1.00  0.00    -0.167 F 
ATOM     25  F   UNL A   1      37.221  23.713  24.217  1.00  0.00    -0.167 F 
ATOM     26  F   UNL A   1      36.872  24.353  26.271  1.00  0.00    -0.167 F 
ENDBRANCH  20  23
ENDBRANCH   9  11
ENDBRANCH   8   9
ENDBRANCH   7   8
ENDBRANCH   6   7
ENDBRANCH   5   6
ENDBRANCH   4   5
ENDBRANCH   3   4
ENDBRANCH   2   3
ENDBRANCH   1   2
BRANCH   1  27
ATOM     27  C   UNL A   1      31.953  28.911  22.858  1.00  0.00     0.188 C 
BRANCH  27  28
ATOM     28  O   UNL A   1      31.230  29.249  24.030  1.00  0.00    -0.376 OA
BRANCH  28  29
ATOM     29  C   UNL A   1      31.934  29.288  25.257  1.00  0.00     0.202 C 
BRANCH  29  30
ATOM     30  C   UNL A   1      31.814  30.579  26.075  1.00  0.00     0.261 C 
BRANCH  30  31
ATOM     31  O   UNL A   1      32.633  30.660  27.249  1.00  0.00    -0.460 OA
BRANCH  31  32
ATOM     32  C   UNL A   1      33.338  31.793  27.444  1.00  0.00     0.338 C 
ATOM     33  O   UNL A   1      32.934  32.942  27.382  1.00  0.00    -0.246 OA
BRANCH  32  34
ATOM     34  C   UNL A   1      34.674  31.391  27.924  1.00  0.00     0.060 A 
ATOM     35  C   UNL A   1      34.921  30.053  28.268  1.00  0.00     0.016 A 
ATOM     36  C   UNL A   1      35.689  32.346  28.003  1.00  0.00     0.016 A 
ATOM     37  C   UNL A   1      36.185  29.673  28.722  1.00  0.00     0.010 A 
ATOM     38  C   UNL A   1      36.941  31.971  28.484  1.00  0.00     0.010 A 
ATOM     39  C   UNL A   1      37.182  30.642  28.880  1.00  0.00    -0.014 A 
BRANCH  39  40
ATOM     40  C   UNL A   1      38.388  30.365  29.694  1.00  0.00     0.031 A 
ATOM     41  C   UNL A   1      39.373  29.373  29.142  1.00  0.00     0.074 A 
ATOM     42  C   UNL A   1      38.575  30.918  30.903  1.00  0.00     0.049 A 
ATOM     43  N   UNL A   1      40.390  28.796  29.724  1.00  0.00    -0.248 NA
ATOM     44  C   UNL A   1      39.164  28.964  27.743  1.00  0.00     0.031 C 
ATOM     45  C   UNL A   1      37.721  31.932  31.514  1.00  0.00     0.029 A 
ATOM     46  N   UNL A   1      39.542  30.674  31.846  1.00  0.00    -0.354 N 
ATOM     47  C   UNL A   1      40.926  27.940  28.770  1.00  0.00     0.074 A 
ATOM     48  C   UNL A   1      40.111  28.055  27.582  1.00  0.00     0.031 C 
ATOM     49  C   UNL A   1      38.185  32.203  32.747  1.00  0.00     0.029 A 
ATOM     50  C   UNL A   1      39.336  31.343  33.027  1.00  0.00     0.049 A 
ATOM     51  H   UNL A   1      40.309  30.076  31.692  1.00  0.00     0.167 HD
ATOM     52  C   UNL A   1      42.002  27.128  28.880  1.00  0.00     0.037 A 
ATOM     53  C   UNL A   1      39.980  31.235  34.207  1.00  0.00     0.037 A 
ATOM     54  C   UNL A   1      42.801  27.017  30.070  1.00  0.00     0.049 A 
ATOM     55  C   UNL A   1      41.125  30.260  34.336  1.00  0.00     0.074 A 
ATOM     56  C   UNL A   1      43.918  26.232  30.289  1.00  0.00     0.029 A 
ATOM     57  N   UNL A   1      42.558  27.710  31.247  1.00  0.00    -0.354 N 
ATOM     58  N   UNL A   1      41.635  29.456  33.434  1.00  0.00    -0.248 NA
ATOM     59  C   UNL A   1      41.782  30.172  35.649  1.00  0.00     0.031 C 
ATOM     60  C   UNL A   1      44.314  26.404  31.617  1.00  0.00     0.029 A 
ATOM     61  C   UNL A   1      43.492  27.353  32.203  1.00  0.00     0.049 A 
ATOM     62  H   UNL A   1      41.829  28.360  31.381  1.00  0.00     0.167 HD
ATOM     63  C   UNL A   1      42.698  28.807  34.052  1.00  0.00     0.074 A 
ATOM     64  C   UNL A   1      42.756  29.304  35.411  1.00  0.00     0.031 C 
ATOM     65  C   UNL A   1      43.554  27.890  33.540  1.00  0.00     0.037 A 
BRANCH  52  66
ATOM     66  C   UNL A   1      42.347  26.269  27.701  1.00  0.00     0.064 A 
ATOM     67  C   UNL A   1      41.685  25.059  27.445  1.00  0.00     0.173 A 
ATOM     68  C   UNL A   1      43.343  26.674  26.798  1.00  0.00     0.173 A 
ATOM     69  F   UNL A   1      40.739  24.616  28.287  1.00  0.00    -0.203 F 
ATOM     70  C   UNL A   1      42.026  24.274  26.347  1.00  0.00     0.198 A 
ATOM     71  C   UNL A   1      43.655  25.906  25.681  1.00  0.00     0.198 A 
ATOM     72  F   UNL A   1      44.007  27.824  26.995  1.00  0.00    -0.203 F 
ATOM     73  F   UNL A   1      41.418  23.095  26.152  1.00  0.00    -0.200 F 
ATOM     74  C   UNL A   1      43.004  24.702  25.461  1.00  0.00     0.200 A 
ATOM     75  F   UNL A   1      44.592  26.328  24.820  1.00  0.00    -0.200 F 
ATOM     76  F   UNL A   1      43.324  23.951  24.399  1.00  0.00    -0.200 F 
ENDBRANCH  52  66
BRANCH  53  77
ATOM     77  C   UNL A   1      39.546  32.054  35.372  1.00  0.00     0.064 A 
ATOM     78  C   UNL A   1      38.600  31.567  36.284  1.00  0.00     0.173 A 
ATOM     79  C   UNL A   1      40.047  33.347  35.585  1.00  0.00     0.173 A 
ATOM     80  F   UNL A   1      38.070  30.346  36.110  1.00  0.00    -0.203 F 
ATOM     81  C   UNL A   1      38.155  32.347  37.349  1.00  0.00     0.198 A 
ATOM     82  C   UNL A   1      39.626  34.115  36.669  1.00  0.00     0.198 A 
ATOM     83  F   UNL A   1      40.952  33.866  34.742  1.00  0.00    -0.203 F 
ATOM     84  F   UNL A   1      37.210  31.875  38.173  1.00  0.00    -0.200 F 
ATOM     85  C   UNL A   1      38.673  33.618  37.544  1.00  0.00     0.200 A 
ATOM     86  F   UNL A   1      40.138  35.338  36.861  1.00  0.00    -0.200 F 
ATOM     87  F   UNL A   1      38.247  34.368  38.570  1.00  0.00    -0.200 F 
ENDBRANCH  53  77
BRANCH  65  88
ATOM     88  C   UNL A   1      44.684  27.414  34.407  1.00  0.00     0.064 A 
ATOM     89  C   UNL A   1      44.592  26.247  35.176  1.00  0.00     0.173 A 
ATOM     90  C   UNL A   1      45.914  28.091  34.381  1.00  0.00     0.173 A 
ATOM     91  F   UNL A   1      43.436  25.570  35.243  1.00  0.00    -0.203 F 
ATOM     92  C   UNL A   1      45.690  25.776  35.894  1.00  0.00     0.198 A 
ATOM     93  C   UNL A   1      47.017  27.601  35.074  1.00  0.00     0.198 A 
ATOM     94  F   UNL A   1      46.056  29.208  33.653  1.00  0.00    -0.203 F 
ATOM     95  F   UNL A   1      45.574  24.673  36.646  1.00  0.00    -0.200 F 
ATOM     96  C   UNL A   1      46.903  26.447  35.832  1.00  0.00     0.200 A 
ATOM     97  F   UNL A   1      48.193  28.239  34.995  1.00  0.00    -0.200 F 
ATOM     98  F   UNL A   1      47.965  25.977  36.502  1.00  0.00    -0.200 F 
ENDBRANCH  65  88
ENDBRANCH  39  40
ENDBRANCH  32  34
ENDBRANCH  31  32
ENDBRANCH  30  31
ENDBRANCH  29  30
ENDBRANCH  28  29
ENDBRANCH  27  28
ENDBRANCH   1  27
TORSDOF 22
ENDMDL
MODEL 2
REMARK VINA RESULT:     -10.8      5.066      9.820
REMARK SMILES CCc1ccc2c(c1)C=C(C(=O)OCCOCCOCCOCCOC(=O)c1ccc(-c3c4nc(c(-c5c(F)c(F)c(F)c(F)c5F)c5ccc([nH]5)c(-c5c(F)c(F)c(F)c(F)c5F)c5nc(c(-c6c(F)c(F)c(F)c(F)c6F)c6ccc3[nH]6)C=C5)C=C4)cc1)[C@H](C(F)(F)F)O2
REMARK SMILES IDX 20 1 19 2 18 3 17 4 16 5 15 6 14 7 13 8 11 9 12 10 10 11
REMARK SMILES IDX 3 12 4 13 8 14 5 15 7 16 6 17 9 18 96 19 91 20 2 21 1 22
REMARK SMILES IDX 92 23 93 24 94 25 95 26 21 27 22 28 23 29 24 30 25 31 26 32
REMARK SMILES IDX 27 33 28 34 29 35 90 36 30 37 89 38 31 39 32 40 33 41 83 42
REMARK SMILES IDX 34 43 88 44 82 45 84 46 35 47 87 48 81 49 80 50 36 52 68 53
REMARK SMILES IDX 48 54 67 55 49 56 52 57 66 58 85 59 50 60 51 61 65 63 86 64
REMARK SMILES IDX 53 65 37 66 38 67 46 68 39 69 40 70 44 71 47 72 41 73 42 74
REMARK SMILES IDX 45 75 43 76 69 77 70 78 78 79 71 80 72 81 76 82 79 83 73 84
REMARK SMILES IDX 74 85 77 86 75 87 54 88 55 89 63 90 56 91 57 92 61 93 64 94
REMARK SMILES IDX 58 95 59 96 62 97 60 98
REMARK H PARENT 84 51 52 62
REMARK Flexibility Score: inf
ROOT
ATOM      1  C   UNL A   1      40.113  21.213  26.277  1.00  0.00     0.188 C 
ENDROOT
BRANCH   1   2
ATOM      2  O   UNL A   1      39.778  22.504  25.776  1.00  0.00    -0.377 OA
BRANCH   2   3
ATOM      3  C   UNL A   1      38.916  23.341  26.530  1.00  0.00     0.188 C 
BRANCH   3   4
ATOM      4  C   UNL A   1      37.437  23.459  26.106  1.00  0.00     0.188 C 
BRANCH   4   5
ATOM      5  O   UNL A   1      36.724  22.232  26.131  1.00  0.00    -0.376 OA
BRANCH   5   6
ATOM      6  C   UNL A   1      36.443  21.603  24.892  1.00  0.00     0.202 C 
BRANCH   6   7
ATOM      7  C   UNL A   1      35.258  22.158  24.091  1.00  0.00     0.261 C 
BRANCH   7   8
ATOM      8  O   UNL A   1      34.175  22.672  24.881  1.00  0.00    -0.460 OA
BRANCH   8   9
ATOM      9  C   UNL A   1      33.349  23.562  24.284  1.00  0.00     0.338 C 
ATOM     10  O   UNL A   1      32.838  23.438  23.188  1.00  0.00    -0.246 OA
BRANCH   9  11
ATOM     11  C   UNL A   1      33.028  24.648  25.233  1.00  0.00     0.087 C 
ATOM     12  C   UNL A   1      33.570  29.150  26.930  1.00  0.00    -0.047 A 
ATOM     13  C   UNL A   1      32.289  29.055  27.491  1.00  0.00     0.007 A 
ATOM     14  C   UNL A   1      34.085  28.039  26.233  1.00  0.00     0.015 A 
ATOM     15  C   UNL A   1      31.549  27.877  27.388  1.00  0.00     0.047 A 
ATOM     16  C   UNL A   1      33.332  26.867  26.095  1.00  0.00     0.018 A 
ATOM     17  C   UNL A   1      32.073  26.790  26.698  1.00  0.00     0.128 A 
ATOM     18  C   UNL A   1      33.754  25.780  25.214  1.00  0.00     0.027 C 
ATOM     19  O   UNL A   1      31.255  25.701  26.568  1.00  0.00    -0.475 OA
ATOM     20  C   UNL A   1      31.941  24.456  26.272  1.00  0.00     0.316 C 
BRANCH  12  21
ATOM     21  C   UNL A   1      34.357  30.443  26.940  1.00  0.00     0.032 C 
ATOM     22  C   UNL A   1      34.200  31.310  28.183  1.00  0.00     0.009 C 
ENDBRANCH  12  21
BRANCH  20  23
ATOM     23  C   UNL A   1      30.872  23.372  26.053  1.00  0.00     0.430 C 
ATOM     24  F   UNL A   1      29.867  23.465  26.953  1.00  0.00    -0.167 F 
ATOM     25  F   UNL A   1      30.285  23.539  24.836  1.00  0.00    -0.167 F 
ATOM     26  F   UNL A   1      31.369  22.121  26.086  1.00  0.00    -0.167 F 
ENDBRANCH  20  23
ENDBRANCH   9  11
ENDBRANCH   8   9
ENDBRANCH   7   8
ENDBRANCH   6   7
ENDBRANCH   5   6
ENDBRANCH   4   5
ENDBRANCH   3   4
ENDBRANCH   2   3
ENDBRANCH   1   2
BRANCH   1  27
ATOM     27  C   UNL A   1      41.573  20.694  26.283  1.00  0.00     0.188 C 
BRANCH  27  28
ATOM     28  O   UNL A   1      41.732  19.367  25.809  1.00  0.00    -0.376 OA
BRANCH  28  29
ATOM     29  C   UNL A   1      42.606  18.508  26.518  1.00  0.00     0.202 C 
BRANCH  29  30
ATOM     30  C   UNL A   1      43.917  18.134  25.817  1.00  0.00     0.261 C 
BRANCH  30  31
ATOM     31  O   UNL A   1      44.085  18.637  24.485  1.00  0.00    -0.460 OA
BRANCH  31  32
ATOM     32  C   UNL A   1      45.216  19.320  24.211  1.00  0.00     0.338 C 
ATOM     33  O   UNL A   1      46.199  18.921  23.609  1.00  0.00    -0.246 OA
BRANCH  32  34
ATOM     34  C   UNL A   1      44.986  20.717  24.626  1.00  0.00     0.060 A 
ATOM     35  C   UNL A   1      44.475  21.645  23.705  1.00  0.00     0.016 A 
ATOM     36  C   UNL A   1      45.253  21.093  25.943  1.00  0.00     0.016 A 
ATOM     37  C   UNL A   1      44.257  22.967  24.097  1.00  0.00     0.010 A 
ATOM     38  C   UNL A   1      45.062  22.418  26.325  1.00  0.00     0.010 A 
ATOM     39  C   UNL A   1      44.599  23.367  25.394  1.00  0.00    -0.014 A 
BRANCH  39  40
ATOM     40  C   UNL A   1      44.739  24.802  25.733  1.00  0.00     0.031 A 
ATOM     41  C   UNL A   1      46.112  25.401  25.621  1.00  0.00     0.074 A 
ATOM     42  C   UNL A   1      43.706  25.533  26.183  1.00  0.00     0.049 A 
ATOM     43  N   UNL A   1      46.557  26.554  26.044  1.00  0.00    -0.248 NA
ATOM     44  C   UNL A   1      47.128  24.569  24.954  1.00  0.00     0.031 C 
ATOM     45  C   UNL A   1      42.323  25.078  26.279  1.00  0.00     0.029 A 
ATOM     46  N   UNL A   1      43.678  26.815  26.674  1.00  0.00    -0.354 N 
ATOM     47  C   UNL A   1      47.907  26.574  25.716  1.00  0.00     0.074 A 
ATOM     48  C   UNL A   1      48.214  25.313  25.080  1.00  0.00     0.031 C 
ATOM     49  C   UNL A   1      41.582  26.058  26.827  1.00  0.00     0.029 A 
ATOM     50  C   UNL A   1      42.451  27.185  27.166  1.00  0.00     0.049 A 
ATOM     51  H   UNL A   1      44.463  27.410  26.673  1.00  0.00     0.167 HD
ATOM     52  C   UNL A   1      48.808  27.560  25.931  1.00  0.00     0.037 A 
ATOM     53  C   UNL A   1      42.091  28.290  27.849  1.00  0.00     0.037 A 
ATOM     54  C   UNL A   1      48.491  28.807  26.570  1.00  0.00     0.049 A 
ATOM     55  C   UNL A   1      43.132  29.341  28.155  1.00  0.00     0.074 A 
ATOM     56  C   UNL A   1      49.325  29.879  26.830  1.00  0.00     0.029 A 
ATOM     57  N   UNL A   1      47.237  29.144  27.057  1.00  0.00    -0.354 N 
ATOM     58  N   UNL A   1      44.405  29.363  27.840  1.00  0.00    -0.248 NA
ATOM     59  C   UNL A   1      42.688  30.519  28.916  1.00  0.00     0.031 C 
ATOM     60  C   UNL A   1      48.590  30.839  27.531  1.00  0.00     0.029 A 
ATOM     61  C   UNL A   1      47.281  30.399  27.638  1.00  0.00     0.049 A 
ATOM     62  H   UNL A   1      46.435  28.574  26.998  1.00  0.00     0.167 HD
ATOM     63  C   UNL A   1      44.900  30.572  28.318  1.00  0.00     0.074 A 
ATOM     64  C   UNL A   1      43.791  31.254  28.953  1.00  0.00     0.031 C 
ATOM     65  C   UNL A   1      46.155  31.076  28.232  1.00  0.00     0.037 A 
BRANCH  52  66
ATOM     66  C   UNL A   1      50.225  27.308  25.509  1.00  0.00     0.064 A 
ATOM     67  C   UNL A   1      51.198  26.855  26.412  1.00  0.00     0.173 A 
ATOM     68  C   UNL A   1      50.611  27.502  24.173  1.00  0.00     0.173 A 
ATOM     69  F   UNL A   1      50.887  26.671  27.704  1.00  0.00    -0.203 F 
ATOM     70  C   UNL A   1      52.510  26.633  26.000  1.00  0.00     0.198 A 
ATOM     71  C   UNL A   1      51.913  27.244  23.757  1.00  0.00     0.198 A 
ATOM     72  F   UNL A   1      49.719  27.934  23.268  1.00  0.00    -0.203 F 
ATOM     73  F   UNL A   1      53.435  26.253  26.892  1.00  0.00    -0.200 F 
ATOM     74  C   UNL A   1      52.864  26.819  24.672  1.00  0.00     0.200 A 
ATOM     75  F   UNL A   1      52.249  27.413  22.471  1.00  0.00    -0.200 F 
ATOM     76  F   UNL A   1      54.124  26.595  24.275  1.00  0.00    -0.200 F 
ENDBRANCH  52  66
BRANCH  53  77
ATOM     77  C   UNL A   1      40.687  28.456  28.315  1.00  0.00     0.064 A 
ATOM     78  C   UNL A   1      39.712  29.020  27.481  1.00  0.00     0.173 A 
ATOM     79  C   UNL A   1      40.297  28.081  29.610  1.00  0.00     0.173 A 
ATOM     80  F   UNL A   1      40.041  29.420  26.243  1.00  0.00    -0.203 F 
ATOM     81  C   UNL A   1      38.408  29.222  27.928  1.00  0.00     0.198 A 
ATOM     82  C   UNL A   1      38.984  28.253  30.045  1.00  0.00     0.198 A 
ATOM     83  F   UNL A   1      41.189  27.540  30.452  1.00  0.00    -0.203 F 
ATOM     84  F   UNL A   1      37.511  29.812  27.127  1.00  0.00    -0.200 F 
ATOM     85  C   UNL A   1      38.044  28.832  29.208  1.00  0.00     0.200 A 
ATOM     86  F   UNL A   1      38.634  27.864  31.278  1.00  0.00    -0.200 F 
ATOM     87  F   UNL A   1      36.789  29.025  29.638  1.00  0.00    -0.200 F 
ENDBRANCH  53  77
BRANCH  65  88
ATOM     88  C   UNL A   1      46.399  32.462  28.756  1.00  0.00     0.064 A 
ATOM     89  C   UNL A   1      46.208  33.602  27.965  1.00  0.00     0.173 A 
ATOM     90  C   UNL A   1      46.730  32.646  30.109  1.00  0.00     0.173 A 
ATOM     91  F   UNL A   1      45.901  33.479  26.665  1.00  0.00    -0.203 F 
ATOM     92  C   UNL A   1      46.346  34.878  28.507  1.00  0.00     0.198 A 
ATOM     93  C   UNL A   1      46.837  33.922  30.654  1.00  0.00     0.198 A 
ATOM     94  F   UNL A   1      46.914  31.586  30.910  1.00  0.00    -0.203 F 
ATOM     95  F   UNL A   1      46.187  35.956  27.727  1.00  0.00    -0.200 F 
ATOM     96  C   UNL A   1      46.648  35.036  29.852  1.00  0.00     0.200 A 
ATOM     97  F   UNL A   1      47.107  34.071  31.958  1.00  0.00    -0.200 F 
ATOM     98  F   UNL A   1      46.753  36.265  30.377  1.00  0.00    -0.200 F 
ENDBRANCH  65  88
ENDBRANCH  39  40
ENDBRANCH  32  34
ENDBRANCH  31  32
ENDBRANCH  30  31
ENDBRANCH  29  30
ENDBRANCH  28  29
ENDBRANCH  27  28
ENDBRANCH   1  27
TORSDOF 22
ENDMDL
MODEL 3
REMARK VINA RESULT:     -10.6      5.139      9.863
REMARK SMILES CCc1ccc2c(c1)C=C(C(=O)OCCOCCOCCOCCOC(=O)c1ccc(-c3c4nc(c(-c5c(F)c(F)c(F)c(F)c5F)c5ccc([nH]5)c(-c5c(F)c(F)c(F)c(F)c5F)c5nc(c(-c6c(F)c(F)c(F)c(F)c6F)c6ccc3[nH]6)C=C5)C=C4)cc1)[C@H](C(F)(F)F)O2
REMARK SMILES IDX 20 1 19 2 18 3 17 4 16 5 15 6 14 7 13 8 11 9 12 10 10 11
REMARK SMILES IDX 3 12 4 13 8 14 5 15 7 16 6 17 9 18 96 19 91 20 2 21 1 22
REMARK SMILES IDX 92 23 93 24 94 25 95 26 21 27 22 28 23 29 24 30 25 31 26 32
REMARK SMILES IDX 27 33 28 34 29 35 90 36 30 37 89 38 31 39 32 40 33 41 83 42
REMARK SMILES IDX 34 43 88 44 82 45 84 46 35 47 87 48 81 49 80 50 36 52 68 53
REMARK SMILES IDX 48 54 67 55 49 56 52 57 66 58 85 59 50 60 51 61 65 63 86 64
REMARK SMILES IDX 53 65 37 66 38 67 46 68 39 69 40 70 44 71 47 72 41 73 42 74
REMARK SMILES IDX 45 75 43 76 69 77 70 78 78 79 71 80 72 81 76 82 79 83 73 84
REMARK SMILES IDX 74 85 77 86 75 87 54 88 55 89 63 90 56 91 57 92 61 93 64 94
REMARK SMILES IDX 58 95 59 96 62 97 60 98
REMARK H PARENT 84 51 52 62
REMARK Flexibility Score: inf
ROOT
ATOM      1  C   UNL A   1      40.063  21.730  26.619  1.00  0.00     0.188 C 
ENDROOT
BRANCH   1   2
ATOM      2  O   UNL A   1      39.825  23.131  26.514  1.00  0.00    -0.377 OA
BRANCH   2   3
ATOM      3  C   UNL A   1      38.520  23.635  26.747  1.00  0.00     0.188 C 
BRANCH   3   4
ATOM      4  C   UNL A   1      37.433  23.404  25.676  1.00  0.00     0.188 C 
BRANCH   4   5
ATOM      5  O   UNL A   1      36.139  23.848  26.054  1.00  0.00    -0.376 OA
BRANCH   5   6
ATOM      6  C   UNL A   1      35.052  22.959  25.866  1.00  0.00     0.202 C 
BRANCH   6   7
ATOM      7  C   UNL A   1      34.431  22.917  24.463  1.00  0.00     0.261 C 
BRANCH   7   8
ATOM      8  O   UNL A   1      33.293  23.773  24.275  1.00  0.00    -0.460 OA
BRANCH   8   9
ATOM      9  C   UNL A   1      33.489  24.905  23.560  1.00  0.00     0.338 C 
ATOM     10  O   UNL A   1      33.849  24.963  22.399  1.00  0.00    -0.246 OA
BRANCH   9  11
ATOM     11  C   UNL A   1      33.044  26.069  24.352  1.00  0.00     0.087 C 
ATOM     12  C   UNL A   1      33.909  30.069  26.939  1.00  0.00    -0.047 A 
ATOM     13  C   UNL A   1      32.614  30.508  26.629  1.00  0.00     0.007 A 
ATOM     14  C   UNL A   1      34.333  28.817  26.452  1.00  0.00     0.015 A 
ATOM     15  C   UNL A   1      31.751  29.709  25.879  1.00  0.00     0.047 A 
ATOM     16  C   UNL A   1      33.482  28.028  25.668  1.00  0.00     0.018 A 
ATOM     17  C   UNL A   1      32.183  28.476  25.408  1.00  0.00     0.128 A 
ATOM     18  C   UNL A   1      33.957  26.825  24.988  1.00  0.00     0.027 C 
ATOM     19  O   UNL A   1      31.308  27.789  24.611  1.00  0.00    -0.475 OA
ATOM     20  C   UNL A   1      31.566  26.363  24.512  1.00  0.00     0.316 C 
BRANCH  12  21
ATOM     21  C   UNL A   1      34.903  30.950  27.665  1.00  0.00     0.032 C 
ATOM     22  C   UNL A   1      34.341  31.787  28.809  1.00  0.00     0.009 C 
ENDBRANCH  12  21
BRANCH  20  23
ATOM     23  C   UNL A   1      30.567  25.775  23.501  1.00  0.00     0.430 C 
ATOM     24  F   UNL A   1      30.320  24.467  23.739  1.00  0.00    -0.167 F 
ATOM     25  F   UNL A   1      29.363  26.399  23.623  1.00  0.00    -0.167 F 
ATOM     26  F   UNL A   1      30.961  25.916  22.221  1.00  0.00    -0.167 F 
ENDBRANCH  20  23
ENDBRANCH   9  11
ENDBRANCH   8   9
ENDBRANCH   7   8
ENDBRANCH   6   7
ENDBRANCH   5   6
ENDBRANCH   4   5
ENDBRANCH   3   4
ENDBRANCH   2   3
ENDBRANCH   1   2
BRANCH   1  27
ATOM     27  C   UNL A   1      41.495  21.154  26.755  1.00  0.00     0.188 C 
BRANCH  27  28
ATOM     28  O   UNL A   1      41.865  20.239  25.737  1.00  0.00    -0.376 OA
BRANCH  28  29
ATOM     29  C   UNL A   1      42.220  18.924  26.122  1.00  0.00     0.202 C 
BRANCH  29  30
ATOM     30  C   UNL A   1      43.587  18.417  25.650  1.00  0.00     0.261 C 
BRANCH  30  31
ATOM     31  O   UNL A   1      44.014  18.866  24.358  1.00  0.00    -0.460 OA
BRANCH  31  32
ATOM     32  C   UNL A   1      45.206  19.493  24.275  1.00  0.00     0.338 C 
ATOM     33  O   UNL A   1      46.243  19.061  23.800  1.00  0.00    -0.246 OA
BRANCH  32  34
ATOM     34  C   UNL A   1      44.991  20.885  24.712  1.00  0.00     0.060 A 
ATOM     35  C   UNL A   1      44.393  21.808  23.840  1.00  0.00     0.016 A 
ATOM     36  C   UNL A   1      45.359  21.262  26.004  1.00  0.00     0.016 A 
ATOM     37  C   UNL A   1      44.189  23.125  24.254  1.00  0.00     0.010 A 
ATOM     38  C   UNL A   1      45.181  22.583  26.406  1.00  0.00     0.010 A 
ATOM     39  C   UNL A   1      44.630  23.527  25.520  1.00  0.00    -0.014 A 
BRANCH  39  40
ATOM     40  C   UNL A   1      44.776  24.963  25.851  1.00  0.00     0.031 A 
ATOM     41  C   UNL A   1      46.152  25.556  25.733  1.00  0.00     0.074 A 
ATOM     42  C   UNL A   1      43.747  25.700  26.300  1.00  0.00     0.049 A 
ATOM     43  N   UNL A   1      46.602  26.710  26.150  1.00  0.00    -0.248 NA
ATOM     44  C   UNL A   1      47.162  24.717  25.068  1.00  0.00     0.031 C 
ATOM     45  C   UNL A   1      42.362  25.252  26.402  1.00  0.00     0.029 A 
ATOM     46  N   UNL A   1      43.726  26.985  26.786  1.00  0.00    -0.354 N 
ATOM     47  C   UNL A   1      47.951  26.723  25.819  1.00  0.00     0.074 A 
ATOM     48  C   UNL A   1      48.252  25.457  25.188  1.00  0.00     0.031 C 
ATOM     49  C   UNL A   1      41.627  26.237  26.947  1.00  0.00     0.029 A 
ATOM     50  C   UNL A   1      42.502  27.363  27.279  1.00  0.00     0.049 A 
ATOM     51  H   UNL A   1      44.512  27.577  26.780  1.00  0.00     0.167 HD
ATOM     52  C   UNL A   1      48.857  27.705  26.027  1.00  0.00     0.037 A 
ATOM     53  C   UNL A   1      42.148  28.472  27.958  1.00  0.00     0.037 A 
ATOM     54  C   UNL A   1      48.546  28.957  26.661  1.00  0.00     0.049 A 
ATOM     55  C   UNL A   1      43.193  29.520  28.256  1.00  0.00     0.074 A 
ATOM     56  C   UNL A   1      49.386  30.027  26.914  1.00  0.00     0.029 A 
ATOM     57  N   UNL A   1      47.294  29.302  27.150  1.00  0.00    -0.354 N 
ATOM     58  N   UNL A   1      44.465  29.536  27.938  1.00  0.00    -0.248 NA
ATOM     59  C   UNL A   1      42.755  30.703  29.012  1.00  0.00     0.031 C 
ATOM     60  C   UNL A   1      48.656  30.993  27.612  1.00  0.00     0.029 A 
ATOM     61  C   UNL A   1      47.345  30.559  27.724  1.00  0.00     0.049 A 
ATOM     62  H   UNL A   1      46.490  28.734  27.095  1.00  0.00     0.167 HD
ATOM     63  C   UNL A   1      44.966  30.744  28.409  1.00  0.00     0.074 A 
ATOM     64  C   UNL A   1      43.862  31.434  29.044  1.00  0.00     0.031 C 
ATOM     65  C   UNL A   1      46.223  31.243  28.318  1.00  0.00     0.037 A 
BRANCH  52  66
ATOM     66  C   UNL A   1      50.272  27.446  25.603  1.00  0.00     0.064 A 
ATOM     67  C   UNL A   1      50.695  27.631  24.279  1.00  0.00     0.173 A 
ATOM     68  C   UNL A   1      51.226  27.028  26.543  1.00  0.00     0.173 A 
ATOM     69  F   UNL A   1      49.818  28.011  23.336  1.00  0.00    -0.203 F 
ATOM     70  C   UNL A   1      52.012  27.379  23.905  1.00  0.00     0.198 A 
ATOM     71  C   UNL A   1      52.551  26.813  26.175  1.00  0.00     0.198 A 
ATOM     72  F   UNL A   1      50.875  26.837  27.825  1.00  0.00    -0.203 F 
ATOM     73  F   UNL A   1      52.381  27.510  22.623  1.00  0.00    -0.200 F 
ATOM     74  C   UNL A   1      52.941  26.979  24.855  1.00  0.00     0.200 A 
ATOM     75  F   UNL A   1      53.449  26.438  27.097  1.00  0.00    -0.200 F 
ATOM     76  F   UNL A   1      54.211  26.747  24.497  1.00  0.00    -0.200 F 
ENDBRANCH  52  66
BRANCH  53  77
ATOM     77  C   UNL A   1      40.745  28.646  28.427  1.00  0.00     0.064 A 
ATOM     78  C   UNL A   1      40.380  28.327  29.742  1.00  0.00     0.173 A 
ATOM     79  C   UNL A   1      39.738  29.107  27.566  1.00  0.00     0.173 A 
ATOM     80  F   UNL A   1      41.301  27.855  30.597  1.00  0.00    -0.203 F 
ATOM     81  C   UNL A   1      39.060  28.441  30.172  1.00  0.00     0.198 A 
ATOM     82  C   UNL A   1      38.424  29.253  28.007  1.00  0.00     0.198 A 
ATOM     83  F   UNL A   1      40.030  29.424  26.296  1.00  0.00    -0.203 F 
ATOM     84  F   UNL A   1      38.730  28.078  31.419  1.00  0.00    -0.200 F 
ATOM     85  C   UNL A   1      38.084  28.910  29.306  1.00  0.00     0.200 A 
ATOM     86  F   UNL A   1      37.487  29.718  27.170  1.00  0.00    -0.200 F 
ATOM     87  F   UNL A   1      36.814  29.023  29.720  1.00  0.00    -0.200 F 
ENDBRANCH  53  77
BRANCH  65  88
ATOM     88  C   UNL A   1      46.474  32.630  28.835  1.00  0.00     0.064 A 
ATOM     89  C   UNL A   1      46.906  32.869  30.146  1.00  0.00     0.173 A 
ATOM     90  C   UNL A   1      46.375  33.727  27.963  1.00  0.00     0.173 A 
ATOM     91  F   UNL A   1      47.006  31.857  31.020  1.00  0.00    -0.203 F 
ATOM     92  C   UNL A   1      47.225  34.159  30.568  1.00  0.00     0.198 A 
ATOM     93  C   UNL A   1      46.725  35.008  28.379  1.00  0.00     0.198 A 
ATOM     94  F   UNL A   1      45.975  33.549  26.695  1.00  0.00    -0.203 F 
ATOM     95  F   UNL A   1      47.611  34.370  31.834  1.00  0.00    -0.200 F 
ATOM     96  C   UNL A   1      47.147  35.223  29.682  1.00  0.00     0.200 A 
ATOM     97  F   UNL A   1      46.667  36.031  27.515  1.00  0.00    -0.200 F 
ATOM     98  F   UNL A   1      47.481  36.458  30.083  1.00  0.00    -0.200 F 
ENDBRANCH  65  88
ENDBRANCH  39  40
ENDBRANCH  32  34
ENDBRANCH  31  32
ENDBRANCH  30  31
ENDBRANCH  29  30
ENDBRANCH  28  29
ENDBRANCH  27  28
ENDBRANCH   1  27
TORSDOF 22
ENDMDL
