MODEL 1
REMARK VINA RESULT:     -10.0      0.000      0.000
REMARK SMILES O=C(OCCOCCOCCOCCOC(=O)c1cc(-n2cccc2)ccc1O)c1ccc(-c2c3nc(c(-c4c(F)c(F)c(F)c(F)c4F)c4ccc([nH]4)c(-c4c(F)c(F)c(F)c(F)c4F)c4nc(c(-c5c(F)c(F)c(F)c(F)c5F)c5ccc2[nH]5)C=C4)C=C3)cc1
REMARK SMILES IDX 8 1 7 2 6 3 5 4 4 5 3 6 2 7 1 8 30 9 31 10 92 11 32 12 91 13
REMARK SMILES IDX 33 14 34 15 35 16 85 17 36 18 90 19 84 20 86 21 37 22 89 23
REMARK SMILES IDX 83 24 82 25 38 27 70 28 50 29 69 30 51 31 54 32 68 33 87 34
REMARK SMILES IDX 52 35 53 36 67 38 88 39 55 40 39 41 40 42 48 43 41 44 42 45
REMARK SMILES IDX 46 46 49 47 43 48 44 49 47 50 45 51 71 52 72 53 80 54 73 55
REMARK SMILES IDX 74 56 78 57 81 58 75 59 76 60 79 61 77 62 56 63 57 64 65 65
REMARK SMILES IDX 58 66 59 67 63 68 66 69 60 70 61 71 64 72 62 73 9 74 10 75
REMARK SMILES IDX 11 76 12 77 13 78 14 79 15 80 16 81 17 82 18 83 19 84 28 85
REMARK SMILES IDX 20 86 27 87 26 88 29 89 21 91 22 92 25 93 23 94 24 95
REMARK H PARENT 86 26 54 37 29 90
REMARK Flexibility Score: inf
ROOT
ATOM      1  C   UNL A   1      30.725  27.214  22.939  1.00  0.00     0.188 C 
ENDROOT
BRANCH   1   2
ATOM      2  C   UNL A   1      31.040  28.549  23.623  1.00  0.00     0.188 C 
BRANCH   2   3
ATOM      3  O   UNL A   1      32.012  28.701  24.658  1.00  0.00    -0.376 OA
BRANCH   3   4
ATOM      4  C   UNL A   1      31.828  29.374  25.890  1.00  0.00     0.202 C 
BRANCH   4   5
ATOM      5  C   UNL A   1      32.338  28.751  27.202  1.00  0.00     0.261 C 
BRANCH   5   6
ATOM      6  O   UNL A   1      33.744  28.902  27.437  1.00  0.00    -0.460 OA
BRANCH   6   7
ATOM      7  C   UNL A   1      34.432  29.999  27.826  1.00  0.00     0.338 C 
ATOM      8  O   UNL A   1      33.851  31.080  27.882  1.00  0.00    -0.246 OA
BRANCH   7   9
ATOM      9  C   UNL A   1      35.858  29.949  28.234  1.00  0.00     0.060 A 
ATOM     10  C   UNL A   1      36.931  30.260  27.401  1.00  0.00     0.016 A 
ATOM     11  C   UNL A   1      36.121  29.565  29.560  1.00  0.00     0.016 A 
ATOM     12  C   UNL A   1      38.224  30.019  27.790  1.00  0.00     0.010 A 
ATOM     13  C   UNL A   1      37.427  29.367  29.987  1.00  0.00     0.010 A 
ATOM     14  C   UNL A   1      38.461  29.534  29.067  1.00  0.00    -0.014 A 
BRANCH  14  15
ATOM     15  C   UNL A   1      39.860  29.204  29.341  1.00  0.00     0.031 A 
ATOM     16  C   UNL A   1      40.639  30.390  29.880  1.00  0.00     0.074 A 
ATOM     17  C   UNL A   1      40.241  27.970  28.910  1.00  0.00     0.049 A 
ATOM     18  N   UNL A   1      41.896  30.680  29.750  1.00  0.00    -0.248 NA
ATOM     19  C   UNL A   1      39.890  31.466  30.582  1.00  0.00     0.031 C 
ATOM     20  C   UNL A   1      39.312  26.990  28.318  1.00  0.00     0.029 A 
ATOM     21  N   UNL A   1      41.441  27.299  28.840  1.00  0.00    -0.354 N 
ATOM     22  C   UNL A   1      42.127  31.815  30.546  1.00  0.00     0.074 A 
ATOM     23  C   UNL A   1      40.842  32.350  30.882  1.00  0.00     0.031 C 
ATOM     24  C   UNL A   1      39.971  25.893  27.911  1.00  0.00     0.029 A 
ATOM     25  C   UNL A   1      41.381  26.032  28.206  1.00  0.00     0.049 A 
ATOM     26  H   UNL A   1      42.278  27.670  29.202  1.00  0.00     0.167 HD
ATOM     27  C   UNL A   1      43.356  32.132  31.042  1.00  0.00     0.037 A 
ATOM     28  C   UNL A   1      42.393  25.160  27.915  1.00  0.00     0.037 A 
ATOM     29  C   UNL A   1      44.350  31.231  30.555  1.00  0.00     0.049 A 
ATOM     30  C   UNL A   1      43.597  25.729  28.555  1.00  0.00     0.074 A 
ATOM     31  C   UNL A   1      44.977  31.085  29.346  1.00  0.00     0.029 A 
ATOM     32  N   UNL A   1      44.612  30.120  31.319  1.00  0.00    -0.354 N 
ATOM     33  N   UNL A   1      43.783  25.790  29.841  1.00  0.00    -0.248 NA
ATOM     34  C   UNL A   1      44.627  26.362  27.726  1.00  0.00     0.031 C 
ATOM     35  C   UNL A   1      45.309  29.713  29.278  1.00  0.00     0.029 A 
ATOM     36  C   UNL A   1      44.929  29.086  30.469  1.00  0.00     0.049 A 
ATOM     37  H   UNL A   1      44.579  30.072  32.302  1.00  0.00     0.167 HD
ATOM     38  C   UNL A   1      44.762  26.751  29.965  1.00  0.00     0.074 A 
ATOM     39  C   UNL A   1      45.423  26.829  28.684  1.00  0.00     0.031 C 
ATOM     40  C   UNL A   1      44.618  27.734  30.893  1.00  0.00     0.037 A 
BRANCH  27  41
ATOM     41  C   UNL A   1      43.734  33.047  32.174  1.00  0.00     0.064 A 
ATOM     42  C   UNL A   1      44.631  34.108  31.906  1.00  0.00     0.173 A 
ATOM     43  C   UNL A   1      43.529  32.741  33.528  1.00  0.00     0.173 A 
ATOM     44  F   UNL A   1      44.873  34.500  30.645  1.00  0.00    -0.203 F 
ATOM     45  C   UNL A   1      45.360  34.734  32.916  1.00  0.00     0.198 A 
ATOM     46  C   UNL A   1      44.222  33.409  34.542  1.00  0.00     0.198 A 
ATOM     47  F   UNL A   1      42.740  31.727  33.906  1.00  0.00    -0.203 F 
ATOM     48  F   UNL A   1      46.298  35.639  32.599  1.00  0.00    -0.200 F 
ATOM     49  C   UNL A   1      45.165  34.373  34.234  1.00  0.00     0.200 A 
ATOM     50  F   UNL A   1      44.026  33.055  35.819  1.00  0.00    -0.200 F 
ATOM     51  F   UNL A   1      45.908  34.924  35.202  1.00  0.00    -0.200 F 
ENDBRANCH  27  41
BRANCH  28  52
ATOM     52  C   UNL A   1      42.554  23.882  27.118  1.00  0.00     0.064 A 
ATOM     53  C   UNL A   1      43.081  23.769  25.823  1.00  0.00     0.173 A 
ATOM     54  C   UNL A   1      42.228  22.631  27.712  1.00  0.00     0.173 A 
ATOM     55  F   UNL A   1      43.350  24.838  25.072  1.00  0.00    -0.203 F 
ATOM     56  C   UNL A   1      43.350  22.529  25.219  1.00  0.00     0.198 A 
ATOM     57  C   UNL A   1      42.527  21.397  27.129  1.00  0.00     0.198 A 
ATOM     58  F   UNL A   1      41.607  22.557  28.897  1.00  0.00    -0.203 F 
ATOM     59  F   UNL A   1      43.870  22.495  23.983  1.00  0.00    -0.200 F 
ATOM     60  C   UNL A   1      43.105  21.345  25.884  1.00  0.00     0.200 A 
ATOM     61  F   UNL A   1      42.266  20.266  27.799  1.00  0.00    -0.200 F 
ATOM     62  F   UNL A   1      43.414  20.167  25.326  1.00  0.00    -0.200 F 
ENDBRANCH  28  52
BRANCH  40  63
ATOM     63  C   UNL A   1      43.707  27.335  32.045  1.00  0.00     0.064 A 
ATOM     64  C   UNL A   1      42.483  27.993  32.250  1.00  0.00     0.173 A 
ATOM     65  C   UNL A   1      44.078  26.422  33.044  1.00  0.00     0.173 A 
ATOM     66  F   UNL A   1      42.026  28.856  31.331  1.00  0.00    -0.203 F 
ATOM     67  C   UNL A   1      41.719  27.781  33.403  1.00  0.00     0.198 A 
ATOM     68  C   UNL A   1      43.323  26.206  34.196  1.00  0.00     0.198 A 
ATOM     69  F   UNL A   1      45.181  25.695  32.915  1.00  0.00    -0.203 F 
ATOM     70  F   UNL A   1      40.562  28.439  33.568  1.00  0.00    -0.200 F 
ATOM     71  C   UNL A   1      42.145  26.898  34.381  1.00  0.00     0.200 A 
ATOM     72  F   UNL A   1      43.742  25.324  35.115  1.00  0.00    -0.200 F 
ATOM     73  F   UNL A   1      41.415  26.697  35.487  1.00  0.00    -0.200 F 
ENDBRANCH  40  63
ENDBRANCH  14  15
ENDBRANCH   7   9
ENDBRANCH   6   7
ENDBRANCH   5   6
ENDBRANCH   4   5
ENDBRANCH   3   4
ENDBRANCH   2   3
ENDBRANCH   1   2
BRANCH   1  74
ATOM     74  O   UNL A   1      31.371  26.089  23.500  1.00  0.00    -0.377 OA
BRANCH  74  75
ATOM     75  C   UNL A   1      30.688  25.487  24.575  1.00  0.00     0.188 C 
BRANCH  75  76
ATOM     76  C   UNL A   1      31.588  25.175  25.787  1.00  0.00     0.188 C 
BRANCH  76  77
ATOM     77  O   UNL A   1      31.135  24.335  26.843  1.00  0.00    -0.376 OA
BRANCH  77  78
ATOM     78  C   UNL A   1      31.484  22.960  26.864  1.00  0.00     0.202 C 
BRANCH  78  79
ATOM     79  C   UNL A   1      31.095  22.112  25.649  1.00  0.00     0.261 C 
BRANCH  79  80
ATOM     80  O   UNL A   1      31.936  20.976  25.392  1.00  0.00    -0.460 OA
BRANCH  80  81
ATOM     81  C   UNL A   1      32.459  20.876  24.143  1.00  0.00     0.342 C 
ATOM     82  O   UNL A   1      32.059  20.175  23.232  1.00  0.00    -0.246 OA
BRANCH  81  83
ATOM     83  C   UNL A   1      33.498  21.915  23.952  1.00  0.00     0.103 A 
ATOM     84  C   UNL A   1      34.721  21.769  24.628  1.00  0.00     0.046 A 
ATOM     85  C   UNL A   1      33.285  23.028  23.136  1.00  0.00     0.130 A 
ATOM     86  C   UNL A   1      35.704  22.755  24.501  1.00  0.00     0.046 A 
ATOM     87  C   UNL A   1      34.260  24.026  23.042  1.00  0.00     0.049 A 
ATOM     88  C   UNL A   1      35.463  23.904  23.744  1.00  0.00     0.030 A 
BRANCH  85  89
ATOM     89  O   UNL A   1      32.117  23.155  22.442  1.00  0.00    -0.507 OA
ATOM     90  H   UNL A   1      31.885  23.979  22.060  1.00  0.00     0.293 HD
ENDBRANCH  85  89
BRANCH  86  91
ATOM     91  N   UNL A   1      36.970  22.570  25.098  1.00  0.00    -0.324 N 
ATOM     92  C   UNL A   1      37.706  21.409  25.096  1.00  0.00     0.091 A 
ATOM     93  C   UNL A   1      37.638  23.506  25.859  1.00  0.00     0.091 A 
ATOM     94  C   UNL A   1      38.846  21.608  25.845  1.00  0.00     0.020 A 
ATOM     95  C   UNL A   1      38.782  22.923  26.364  1.00  0.00     0.020 A 
ENDBRANCH  86  91
ENDBRANCH  81  83
ENDBRANCH  80  81
ENDBRANCH  79  80
ENDBRANCH  78  79
ENDBRANCH  77  78
ENDBRANCH  76  77
ENDBRANCH  75  76
ENDBRANCH  74  75
ENDBRANCH   1  74
TORSDOF 22
ENDMDL
MODEL 2
REMARK VINA RESULT:     -10.0      4.173      8.499
REMARK SMILES O=C(OCCOCCOCCOCCOC(=O)c1cc(-n2cccc2)ccc1O)c1ccc(-c2c3nc(c(-c4c(F)c(F)c(F)c(F)c4F)c4ccc([nH]4)c(-c4c(F)c(F)c(F)c(F)c4F)c4nc(c(-c5c(F)c(F)c(F)c(F)c5F)c5ccc2[nH]5)C=C4)C=C3)cc1
REMARK SMILES IDX 8 1 7 2 6 3 5 4 4 5 3 6 2 7 1 8 30 9 31 10 92 11 32 12 91 13
REMARK SMILES IDX 33 14 34 15 35 16 85 17 36 18 90 19 84 20 86 21 37 22 89 23
REMARK SMILES IDX 83 24 82 25 38 27 70 28 50 29 69 30 51 31 54 32 68 33 87 34
REMARK SMILES IDX 52 35 53 36 67 38 88 39 55 40 39 41 40 42 48 43 41 44 42 45
REMARK SMILES IDX 46 46 49 47 43 48 44 49 47 50 45 51 71 52 72 53 80 54 73 55
REMARK SMILES IDX 74 56 78 57 81 58 75 59 76 60 79 61 77 62 56 63 57 64 65 65
REMARK SMILES IDX 58 66 59 67 63 68 66 69 60 70 61 71 64 72 62 73 9 74 10 75
REMARK SMILES IDX 11 76 12 77 13 78 14 79 15 80 16 81 17 82 18 83 19 84 28 85
REMARK SMILES IDX 20 86 27 87 26 88 29 89 21 91 22 92 25 93 23 94 24 95
REMARK H PARENT 86 26 54 37 29 90
REMARK Flexibility Score: inf
ROOT
ATOM      1  C   UNL A   1      42.852  18.586  25.759  1.00  0.00     0.188 C 
ENDROOT
BRANCH   1   2
ATOM      2  C   UNL A   1      43.925  19.343  24.969  1.00  0.00     0.188 C 
BRANCH   2   3
ATOM      3  O   UNL A   1      45.025  20.025  25.574  1.00  0.00    -0.376 OA
BRANCH   3   4
ATOM      4  C   UNL A   1      45.985  20.824  24.908  1.00  0.00     0.202 C 
BRANCH   4   5
ATOM      5  C   UNL A   1      45.905  22.359  24.979  1.00  0.00     0.261 C 
BRANCH   5   6
ATOM      6  O   UNL A   1      44.917  22.873  25.879  1.00  0.00    -0.460 OA
BRANCH   6   7
ATOM      7  C   UNL A   1      43.702  23.401  25.605  1.00  0.00     0.338 C 
ATOM      8  O   UNL A   1      43.030  22.913  24.698  1.00  0.00    -0.246 OA
BRANCH   7   9
ATOM      9  C   UNL A   1      43.119  24.522  26.383  1.00  0.00     0.060 A 
ATOM     10  C   UNL A   1      43.466  25.862  26.222  1.00  0.00     0.016 A 
ATOM     11  C   UNL A   1      42.147  24.186  27.340  1.00  0.00     0.016 A 
ATOM     12  C   UNL A   1      43.021  26.820  27.095  1.00  0.00     0.010 A 
ATOM     13  C   UNL A   1      41.645  25.154  28.199  1.00  0.00     0.010 A 
ATOM     14  C   UNL A   1      42.145  26.452  28.105  1.00  0.00    -0.014 A 
BRANCH  14  15
ATOM     15  C   UNL A   1      41.822  27.523  29.048  1.00  0.00     0.031 A 
ATOM     16  C   UNL A   1      42.643  27.438  30.322  1.00  0.00     0.074 A 
ATOM     17  C   UNL A   1      40.749  28.282  28.693  1.00  0.00     0.049 A 
ATOM     18  N   UNL A   1      42.336  27.802  31.528  1.00  0.00    -0.248 NA
ATOM     19  C   UNL A   1      43.961  26.752  30.268  1.00  0.00     0.031 C 
ATOM     20  C   UNL A   1      40.028  28.127  27.416  1.00  0.00     0.029 A 
ATOM     21  N   UNL A   1      40.029  29.283  29.303  1.00  0.00    -0.354 N 
ATOM     22  C   UNL A   1      43.492  27.621  32.306  1.00  0.00     0.074 A 
ATOM     23  C   UNL A   1      44.387  26.816  31.530  1.00  0.00     0.031 C 
ATOM     24  C   UNL A   1      38.967  28.948  27.364  1.00  0.00     0.029 A 
ATOM     25  C   UNL A   1      38.893  29.728  28.580  1.00  0.00     0.049 A 
ATOM     26  H   UNL A   1      40.282  29.662  30.176  1.00  0.00     0.167 HD
ATOM     27  C   UNL A   1      43.722  28.307  33.461  1.00  0.00     0.037 A 
ATOM     28  C   UNL A   1      37.942  30.643  28.939  1.00  0.00     0.037 A 
ATOM     29  C   UNL A   1      42.600  29.121  33.800  1.00  0.00     0.049 A 
ATOM     30  C   UNL A   1      38.422  31.232  30.205  1.00  0.00     0.074 A 
ATOM     31  C   UNL A   1      41.361  28.849  34.316  1.00  0.00     0.029 A 
ATOM     32  N   UNL A   1      42.604  30.413  33.334  1.00  0.00    -0.354 N 
ATOM     33  N   UNL A   1      39.460  32.010  30.305  1.00  0.00    -0.248 NA
ATOM     34  C   UNL A   1      37.772  30.863  31.468  1.00  0.00     0.031 C 
ATOM     35  C   UNL A   1      40.530  29.878  33.817  1.00  0.00     0.029 A 
ATOM     36  C   UNL A   1      41.303  30.772  33.068  1.00  0.00     0.049 A 
ATOM     37  H   UNL A   1      43.398  30.983  33.213  1.00  0.00     0.167 HD
ATOM     38  C   UNL A   1      39.771  31.938  31.644  1.00  0.00     0.074 A 
ATOM     39  C   UNL A   1      38.575  31.495  32.320  1.00  0.00     0.031 C 
ATOM     40  C   UNL A   1      41.064  31.744  32.019  1.00  0.00     0.037 A 
BRANCH  27  41
ATOM     41  C   UNL A   1      45.005  28.533  34.211  1.00  0.00     0.064 A 
ATOM     42  C   UNL A   1      45.234  27.782  35.388  1.00  0.00     0.173 A 
ATOM     43  C   UNL A   1      45.835  29.649  34.022  1.00  0.00     0.173 A 
ATOM     44  F   UNL A   1      44.515  26.678  35.648  1.00  0.00    -0.203 F 
ATOM     45  C   UNL A   1      46.144  28.190  36.362  1.00  0.00     0.198 A 
ATOM     46  C   UNL A   1      46.785  30.024  34.976  1.00  0.00     0.198 A 
ATOM     47  F   UNL A   1      45.684  30.464  32.970  1.00  0.00    -0.203 F 
ATOM     48  F   UNL A   1      46.226  27.520  37.521  1.00  0.00    -0.200 F 
ATOM     49  C   UNL A   1      46.910  29.320  36.161  1.00  0.00     0.200 A 
ATOM     50  F   UNL A   1      47.527  31.120  34.773  1.00  0.00    -0.200 F 
ATOM     51  F   UNL A   1      47.739  29.753  37.118  1.00  0.00    -0.200 F 
ENDBRANCH  27  41
BRANCH  28  52
ATOM     52  C   UNL A   1      36.606  31.114  28.403  1.00  0.00     0.064 A 
ATOM     53  C   UNL A   1      35.517  30.302  28.050  1.00  0.00     0.173 A 
ATOM     54  C   UNL A   1      36.337  32.507  28.293  1.00  0.00     0.173 A 
ATOM     55  F   UNL A   1      35.613  28.974  27.994  1.00  0.00    -0.203 F 
ATOM     56  C   UNL A   1      34.256  30.827  27.718  1.00  0.00     0.198 A 
ATOM     57  C   UNL A   1      35.076  33.030  27.999  1.00  0.00     0.198 A 
ATOM     58  F   UNL A   1      37.297  33.423  28.477  1.00  0.00    -0.203 F 
ATOM     59  F   UNL A   1      33.254  29.991  27.407  1.00  0.00    -0.200 F 
ATOM     60  C   UNL A   1      34.027  32.187  27.725  1.00  0.00     0.200 A 
ATOM     61  F   UNL A   1      34.890  34.358  28.004  1.00  0.00    -0.200 F 
ATOM     62  F   UNL A   1      32.809  32.680  27.462  1.00  0.00    -0.200 F 
ENDBRANCH  28  52
BRANCH  40  63
ATOM     63  C   UNL A   1      42.063  32.200  30.965  1.00  0.00     0.064 A 
ATOM     64  C   UNL A   1      42.191  33.561  30.642  1.00  0.00     0.173 A 
ATOM     65  C   UNL A   1      42.793  31.314  30.157  1.00  0.00     0.173 A 
ATOM     66  F   UNL A   1      41.561  34.485  31.382  1.00  0.00    -0.203 F 
ATOM     67  C   UNL A   1      42.957  33.989  29.552  1.00  0.00     0.198 A 
ATOM     68  C   UNL A   1      43.557  31.733  29.068  1.00  0.00     0.198 A 
ATOM     69  F   UNL A   1      42.799  30.013  30.419  1.00  0.00    -0.203 F 
ATOM     70  F   UNL A   1      43.043  35.296  29.268  1.00  0.00    -0.200 F 
ATOM     71  C   UNL A   1      43.629  33.073  28.758  1.00  0.00     0.200 A 
ATOM     72  F   UNL A   1      44.223  30.830  28.332  1.00  0.00    -0.200 F 
ATOM     73  F   UNL A   1      44.361  33.483  27.711  1.00  0.00    -0.200 F 
ENDBRANCH  40  63
ENDBRANCH  14  15
ENDBRANCH   7   9
ENDBRANCH   6   7
ENDBRANCH   5   6
ENDBRANCH   4   5
ENDBRANCH   3   4
ENDBRANCH   2   3
ENDBRANCH   1   2
BRANCH   1  74
ATOM     74  O   UNL A   1      42.658  19.036  27.084  1.00  0.00    -0.377 OA
BRANCH  74  75
ATOM     75  C   UNL A   1      42.048  20.301  27.199  1.00  0.00     0.188 C 
BRANCH  75  76
ATOM     76  C   UNL A   1      40.671  20.392  26.513  1.00  0.00     0.188 C 
BRANCH  76  77
ATOM     77  O   UNL A   1      40.223  21.606  25.921  1.00  0.00    -0.376 OA
BRANCH  77  78
ATOM     78  C   UNL A   1      38.922  22.100  26.198  1.00  0.00     0.202 C 
BRANCH  78  79
ATOM     79  C   UNL A   1      37.803  21.740  25.215  1.00  0.00     0.261 C 
BRANCH  79  80
ATOM     80  O   UNL A   1      36.473  21.753  25.759  1.00  0.00    -0.460 OA
BRANCH  80  81
ATOM     81  C   UNL A   1      35.561  22.523  25.112  1.00  0.00     0.342 C 
ATOM     82  O   UNL A   1      35.668  23.698  24.813  1.00  0.00    -0.246 OA
BRANCH  81  83
ATOM     83  C   UNL A   1      34.452  21.673  24.616  1.00  0.00     0.103 A 
ATOM     84  C   UNL A   1      34.473  20.301  24.923  1.00  0.00     0.046 A 
ATOM     85  C   UNL A   1      33.409  22.196  23.849  1.00  0.00     0.130 A 
ATOM     86  C   UNL A   1      33.465  19.467  24.433  1.00  0.00     0.046 A 
ATOM     87  C   UNL A   1      32.423  21.348  23.334  1.00  0.00     0.049 A 
ATOM     88  C   UNL A   1      32.462  19.977  23.604  1.00  0.00     0.030 A 
BRANCH  85  89
ATOM     89  O   UNL A   1      33.359  23.534  23.584  1.00  0.00    -0.507 OA
ATOM     90  H   UNL A   1      32.684  23.877  23.032  1.00  0.00     0.293 HD
ENDBRANCH  85  89
BRANCH  86  91
ATOM     91  N   UNL A   1      33.424  18.109  24.815  1.00  0.00    -0.324 N 
ATOM     92  C   UNL A   1      34.182  17.093  24.280  1.00  0.00     0.091 A 
ATOM     93  C   UNL A   1      32.551  17.563  25.732  1.00  0.00     0.091 A 
ATOM     94  C   UNL A   1      33.799  15.904  24.863  1.00  0.00     0.020 A 
ATOM     95  C   UNL A   1      32.737  16.196  25.751  1.00  0.00     0.020 A 
ENDBRANCH  86  91
ENDBRANCH  81  83
ENDBRANCH  80  81
ENDBRANCH  79  80
ENDBRANCH  78  79
ENDBRANCH  77  78
ENDBRANCH  76  77
ENDBRANCH  75  76
ENDBRANCH  74  75
ENDBRANCH   1  74
TORSDOF 22
ENDMDL
MODEL 3
REMARK VINA RESULT:     -10.0      3.749      8.161
REMARK SMILES O=C(OCCOCCOCCOCCOC(=O)c1cc(-n2cccc2)ccc1O)c1ccc(-c2c3nc(c(-c4c(F)c(F)c(F)c(F)c4F)c4ccc([nH]4)c(-c4c(F)c(F)c(F)c(F)c4F)c4nc(c(-c5c(F)c(F)c(F)c(F)c5F)c5ccc2[nH]5)C=C4)C=C3)cc1
REMARK SMILES IDX 8 1 7 2 6 3 5 4 4 5 3 6 2 7 1 8 30 9 31 10 92 11 32 12 91 13
REMARK SMILES IDX 33 14 34 15 35 16 85 17 36 18 90 19 84 20 86 21 37 22 89 23
REMARK SMILES IDX 83 24 82 25 38 27 70 28 50 29 69 30 51 31 54 32 68 33 87 34
REMARK SMILES IDX 52 35 53 36 67 38 88 39 55 40 39 41 40 42 48 43 41 44 42 45
REMARK SMILES IDX 46 46 49 47 43 48 44 49 47 50 45 51 71 52 72 53 80 54 73 55
REMARK SMILES IDX 74 56 78 57 81 58 75 59 76 60 79 61 77 62 56 63 57 64 65 65
REMARK SMILES IDX 58 66 59 67 63 68 66 69 60 70 61 71 64 72 62 73 9 74 10 75
REMARK SMILES IDX 11 76 12 77 13 78 14 79 15 80 16 81 17 82 18 83 19 84 28 85
REMARK SMILES IDX 20 86 27 87 26 88 29 89 21 91 22 92 25 93 23 94 24 95
REMARK H PARENT 86 26 54 37 29 90
REMARK Flexibility Score: inf
ROOT
ATOM      1  C   UNL A   1      38.752  22.890  26.158  1.00  0.00     0.188 C 
ENDROOT
BRANCH   1   2
ATOM      2  C   UNL A   1      39.495  21.551  26.114  1.00  0.00     0.188 C 
BRANCH   2   3
ATOM      3  O   UNL A   1      40.142  20.963  27.244  1.00  0.00    -0.376 OA
BRANCH   3   4
ATOM      4  C   UNL A   1      41.502  20.577  27.326  1.00  0.00     0.202 C 
BRANCH   4   5
ATOM      5  C   UNL A   1      42.496  20.990  26.226  1.00  0.00     0.261 C 
BRANCH   5   6
ATOM      6  O   UNL A   1      43.198  22.214  26.475  1.00  0.00    -0.460 OA
BRANCH   6   7
ATOM      7  C   UNL A   1      43.027  23.429  25.905  1.00  0.00     0.338 C 
ATOM      8  O   UNL A   1      43.260  23.565  24.706  1.00  0.00    -0.246 OA
BRANCH   7   9
ATOM      9  C   UNL A   1      42.524  24.605  26.658  1.00  0.00     0.060 A 
ATOM     10  C   UNL A   1      42.910  25.923  26.419  1.00  0.00     0.016 A 
ATOM     11  C   UNL A   1      41.590  24.349  27.676  1.00  0.00     0.016 A 
ATOM     12  C   UNL A   1      42.544  26.935  27.268  1.00  0.00     0.010 A 
ATOM     13  C   UNL A   1      41.166  25.373  28.513  1.00  0.00     0.010 A 
ATOM     14  C   UNL A   1      41.707  26.645  28.335  1.00  0.00    -0.014 A 
BRANCH  14  15
ATOM     15  C   UNL A   1      41.471  27.768  29.242  1.00  0.00     0.031 A 
ATOM     16  C   UNL A   1      42.316  27.682  30.500  1.00  0.00     0.074 A 
ATOM     17  C   UNL A   1      40.436  28.576  28.881  1.00  0.00     0.049 A 
ATOM     18  N   UNL A   1      42.060  28.110  31.698  1.00  0.00    -0.248 NA
ATOM     19  C   UNL A   1      43.590  26.918  30.444  1.00  0.00     0.031 C 
ATOM     20  C   UNL A   1      39.676  28.416  27.627  1.00  0.00     0.029 A 
ATOM     21  N   UNL A   1      39.790  29.640  29.468  1.00  0.00    -0.354 N 
ATOM     22  C   UNL A   1      43.222  27.889  32.456  1.00  0.00     0.074 A 
ATOM     23  C   UNL A   1      44.049  27.004  31.693  1.00  0.00     0.031 C 
ATOM     24  C   UNL A   1      38.664  29.296  27.566  1.00  0.00     0.029 A 
ATOM     25  C   UNL A   1      38.665  30.124  28.753  1.00  0.00     0.049 A 
ATOM     26  H   UNL A   1      40.086  30.036  30.319  1.00  0.00     0.167 HD
ATOM     27  C   UNL A   1      43.520  28.604  33.578  1.00  0.00     0.037 A 
ATOM     28  C   UNL A   1      37.778  31.107  29.096  1.00  0.00     0.037 A 
ATOM     29  C   UNL A   1      42.456  29.495  33.910  1.00  0.00     0.049 A 
ATOM     30  C   UNL A   1      38.323  31.714  30.328  1.00  0.00     0.074 A 
ATOM     31  C   UNL A   1      41.216  29.317  34.463  1.00  0.00     0.029 A 
ATOM     32  N   UNL A   1      42.524  30.767  33.394  1.00  0.00    -0.354 N 
ATOM     33  N   UNL A   1      39.406  32.432  30.374  1.00  0.00    -0.248 NA
ATOM     34  C   UNL A   1      37.684  31.432  31.618  1.00  0.00     0.031 C 
ATOM     35  C   UNL A   1      40.435  30.374  33.943  1.00  0.00     0.029 A 
ATOM     36  C   UNL A   1      41.241  31.191  33.142  1.00  0.00     0.049 A 
ATOM     37  H   UNL A   1      43.347  31.283  33.232  1.00  0.00     0.167 HD
ATOM     38  C   UNL A   1      39.746  32.392  31.708  1.00  0.00     0.074 A 
ATOM     39  C   UNL A   1      38.543  32.047  32.427  1.00  0.00     0.031 C 
ATOM     40  C   UNL A   1      41.033  32.136  32.061  1.00  0.00     0.037 A 
BRANCH  27  41
ATOM     41  C   UNL A   1      44.832  28.782  34.291  1.00  0.00     0.064 A 
ATOM     42  C   UNL A   1      45.874  29.459  33.614  1.00  0.00     0.173 A 
ATOM     43  C   UNL A   1      45.208  28.053  35.429  1.00  0.00     0.173 A 
ATOM     44  F   UNL A   1      45.615  30.210  32.532  1.00  0.00    -0.203 F 
ATOM     45  C   UNL A   1      47.211  29.316  33.983  1.00  0.00     0.198 A 
ATOM     46  C   UNL A   1      46.544  27.957  35.828  1.00  0.00     0.198 A 
ATOM     47  F   UNL A   1      44.319  27.332  36.125  1.00  0.00    -0.203 F 
ATOM     48  F   UNL A   1      48.173  29.868  33.229  1.00  0.00    -0.200 F 
ATOM     49  C   UNL A   1      47.546  28.553  35.082  1.00  0.00     0.200 A 
ATOM     50  F   UNL A   1      46.862  27.216  36.897  1.00  0.00    -0.200 F 
ATOM     51  F   UNL A   1      48.832  28.359  35.404  1.00  0.00    -0.200 F 
ENDBRANCH  27  41
BRANCH  28  52
ATOM     52  C   UNL A   1      36.460  31.636  28.572  1.00  0.00     0.064 A 
ATOM     53  C   UNL A   1      35.317  30.878  28.273  1.00  0.00     0.173 A 
ATOM     54  C   UNL A   1      36.270  33.037  28.415  1.00  0.00     0.173 A 
ATOM     55  F   UNL A   1      35.335  29.545  28.266  1.00  0.00    -0.203 F 
ATOM     56  C   UNL A   1      34.082  31.463  27.949  1.00  0.00     0.198 A 
ATOM     57  C   UNL A   1      35.035  33.624  28.128  1.00  0.00     0.198 A 
ATOM     58  F   UNL A   1      37.286  33.902  28.543  1.00  0.00    -0.203 F 
ATOM     59  F   UNL A   1      33.026  30.678  27.692  1.00  0.00    -0.200 F 
ATOM     60  C   UNL A   1      33.932  32.834  27.910  1.00  0.00     0.200 A 
ATOM     61  F   UNL A   1      34.927  34.959  28.087  1.00  0.00    -0.200 F 
ATOM     62  F   UNL A   1      32.739  33.388  27.654  1.00  0.00    -0.200 F 
ENDBRANCH  28  52
BRANCH  40  63
ATOM     63  C   UNL A   1      42.032  32.492  30.969  1.00  0.00     0.064 A 
ATOM     64  C   UNL A   1      42.245  33.831  30.603  1.00  0.00     0.173 A 
ATOM     65  C   UNL A   1      42.674  31.535  30.168  1.00  0.00     0.173 A 
ATOM     66  F   UNL A   1      41.702  34.817  31.332  1.00  0.00    -0.203 F 
ATOM     67  C   UNL A   1      43.008  34.174  29.481  1.00  0.00     0.198 A 
ATOM     68  C   UNL A   1      43.435  31.869  29.048  1.00  0.00     0.198 A 
ATOM     69  F   UNL A   1      42.597  30.245  30.467  1.00  0.00    -0.203 F 
ATOM     70  F   UNL A   1      43.177  35.463  29.157  1.00  0.00    -0.200 F 
ATOM     71  C   UNL A   1      43.592  33.192  28.697  1.00  0.00     0.200 A 
ATOM     72  F   UNL A   1      44.015  30.902  28.321  1.00  0.00    -0.200 F 
ATOM     73  F   UNL A   1      44.320  33.520  27.620  1.00  0.00    -0.200 F 
ENDBRANCH  40  63
ENDBRANCH  14  15
ENDBRANCH   7   9
ENDBRANCH   6   7
ENDBRANCH   5   6
ENDBRANCH   4   5
ENDBRANCH   3   4
ENDBRANCH   2   3
ENDBRANCH   1   2
BRANCH   1  74
ATOM     74  O   UNL A   1      37.392  22.831  25.781  1.00  0.00    -0.377 OA
BRANCH  74  75
ATOM     75  C   UNL A   1      36.928  21.548  25.430  1.00  0.00     0.188 C 
BRANCH  75  76
ATOM     76  C   UNL A   1      35.414  21.352  25.644  1.00  0.00     0.188 C 
BRANCH  76  77
ATOM     77  O   UNL A   1      34.469  22.254  25.079  1.00  0.00    -0.376 OA
BRANCH  77  78
ATOM     78  C   UNL A   1      33.596  21.823  24.047  1.00  0.00     0.202 C 
BRANCH  78  79
ATOM     79  C   UNL A   1      32.855  22.902  23.250  1.00  0.00     0.261 C 
BRANCH  79  80
ATOM     80  O   UNL A   1      31.440  22.982  23.485  1.00  0.00    -0.460 OA
BRANCH  80  81
ATOM     81  C   UNL A   1      31.050  23.300  24.746  1.00  0.00     0.342 C 
ATOM     82  O   UNL A   1      30.666  22.536  25.613  1.00  0.00    -0.246 OA
BRANCH  81  83
ATOM     83  C   UNL A   1      31.350  24.726  25.017  1.00  0.00     0.103 A 
ATOM     84  C   UNL A   1      30.640  25.706  24.301  1.00  0.00     0.046 A 
ATOM     85  C   UNL A   1      32.319  25.112  25.945  1.00  0.00     0.130 A 
ATOM     86  C   UNL A   1      30.931  27.057  24.504  1.00  0.00     0.046 A 
ATOM     87  C   UNL A   1      32.628  26.465  26.116  1.00  0.00     0.049 A 
ATOM     88  C   UNL A   1      31.951  27.440  25.378  1.00  0.00     0.030 A 
BRANCH  85  89
ATOM     89  O   UNL A   1      32.981  24.168  26.676  1.00  0.00    -0.507 OA
ATOM     90  H   UNL A   1      32.517  23.652  27.306  1.00  0.00     0.293 HD
ENDBRANCH  85  89
BRANCH  86  91
ATOM     91  N   UNL A   1      30.158  28.049  23.863  1.00  0.00    -0.324 N 
ATOM     92  C   UNL A   1      30.473  29.384  23.763  1.00  0.00     0.091 A 
ATOM     93  C   UNL A   1      28.912  27.855  23.303  1.00  0.00     0.091 A 
ATOM     94  C   UNL A   1      29.435  30.036  23.133  1.00  0.00     0.020 A 
ATOM     95  C   UNL A   1      28.428  29.075  22.880  1.00  0.00     0.020 A 
ENDBRANCH  86  91
ENDBRANCH  81  83
ENDBRANCH  80  81
ENDBRANCH  79  80
ENDBRANCH  78  79
ENDBRANCH  77  78
ENDBRANCH  76  77
ENDBRANCH  75  76
ENDBRANCH  74  75
ENDBRANCH   1  74
TORSDOF 22
ENDMDL
