MODEL 1
REMARK VINA RESULT:     -12.0      0.000      0.000
REMARK SMILES Cc1ccc(C(=O)NC2CC2)cc1NC(=O)[C@@H]1[C@@H](C(=O)OCCOCCOCCOCCOC(=O)c2ccc(-c3c4nc(c(-c5c(F)c(F)c(F)c(F)c5F)c5ccc([nH]5)c(-c5c(F)c(F)c(F)c(F)c5F)c5nc(c(-c6c(F)c(F)c(F)c(F)c6F)c6ccc3[nH]6)C=C5)C=C4)cc2)[C@H]2C=C[C@@H]1C2
REMARK SMILES IDX 26 1 25 2 24 3 23 4 22 5 21 6 19 7 20 8 18 9 17 10 102 11
REMARK SMILES IDX 99 12 101 13 103 14 100 15 15 16 14 17 16 19 13 20 1 21 2 22
REMARK SMILES IDX 3 23 4 24 12 25 5 26 6 27 7 28 8 29 9 31 10 32 11 33 27 34
REMARK SMILES IDX 28 35 29 36 30 37 31 38 32 39 33 40 34 41 35 42 36 43 37 44
REMARK SMILES IDX 98 45 38 46 97 47 39 48 40 49 41 50 91 51 42 52 96 53 90 54
REMARK SMILES IDX 92 55 43 56 95 57 89 58 88 59 44 61 76 62 56 63 75 64 57 65
REMARK SMILES IDX 60 66 74 67 93 68 58 69 59 70 73 72 94 73 61 74 45 75 46 76
REMARK SMILES IDX 54 77 47 78 48 79 52 80 55 81 49 82 50 83 53 84 51 85 77 86
REMARK SMILES IDX 78 87 86 88 79 89 80 90 84 91 87 92 81 93 82 94 85 95 83 96
REMARK SMILES IDX 62 97 63 98 71 99 64 100 65 101 69 102 72 103 66 104 67 105
REMARK SMILES IDX 70 106 68 107
REMARK H PARENT 14 18 8 30 92 60 60 71
REMARK Flexibility Score: inf
ROOT
ATOM      1  C   UNL A   1      40.286  22.663  27.537  1.00  0.00     0.188 C 
ENDROOT
BRANCH   1   2
ATOM      2  C   UNL A   1      39.621  23.113  26.223  1.00  0.00     0.188 C 
BRANCH   2   3
ATOM      3  O   UNL A   1      38.258  22.766  26.053  1.00  0.00    -0.376 OA
BRANCH   3   4
ATOM      4  C   UNL A   1      37.372  23.873  26.125  1.00  0.00     0.202 C 
BRANCH   4   5
ATOM      5  C   UNL A   1      36.049  23.620  25.421  1.00  0.00     0.261 C 
BRANCH   5   6
ATOM      6  O   UNL A   1      35.137  24.748  25.284  1.00  0.00    -0.463 OA
BRANCH   6   7
ATOM      7  C   UNL A   1      34.505  24.878  24.118  1.00  0.00     0.310 C 
ATOM      8  O   UNL A   1      34.693  24.114  23.173  1.00  0.00    -0.252 OA
BRANCH   7   9
ATOM      9  C   UNL A   1      33.576  26.060  23.954  1.00  0.00     0.119 C 
ATOM     10  C   UNL A   1      32.186  25.342  23.924  1.00  0.00     0.100 C 
ATOM     11  C   UNL A   1      31.349  26.214  22.981  1.00  0.00     0.025 C 
ATOM     12  C   UNL A   1      33.423  27.089  22.805  1.00  0.00     0.027 C 
ATOM     13  C   UNL A   1      31.854  25.949  21.568  1.00  0.00    -0.027 C 
ATOM     14  C   UNL A   1      31.990  27.592  23.137  1.00  0.00     0.017 C 
ATOM     15  C   UNL A   1      33.086  26.476  21.471  1.00  0.00    -0.027 C 
BRANCH  10  16
ATOM     16  C   UNL A   1      31.729  25.092  25.347  1.00  0.00     0.228 C 
ATOM     17  N   UNL A   1      31.948  23.922  26.028  1.00  0.00    -0.326 N 
ATOM     18  H   UNL A   1      31.687  23.998  26.974  1.00  0.00     0.169 HD
ATOM     19  O   UNL A   1      31.141  25.991  25.963  1.00  0.00    -0.274 OA
BRANCH  17  20
ATOM     20  C   UNL A   1      32.455  22.630  25.723  1.00  0.00     0.044 A 
ATOM     21  C   UNL A   1      33.637  22.496  27.984  1.00  0.00     0.046 C 
ATOM     22  C   UNL A   1      33.156  21.910  26.689  1.00  0.00    -0.027 A 
ATOM     23  C   UNL A   1      33.430  20.542  26.463  1.00  0.00     0.006 A 
ATOM     24  C   UNL A   1      33.097  19.905  25.264  1.00  0.00     0.014 A 
ATOM     25  C   UNL A   1      32.304  22.000  24.488  1.00  0.00     0.040 A 
ATOM     26  C   UNL A   1      32.556  20.636  24.220  1.00  0.00     0.041 A 
BRANCH  26  27
ATOM     27  C   UNL A   1      32.303  19.870  22.925  1.00  0.00     0.251 C 
ATOM     28  O   UNL A   1      31.718  20.416  21.989  1.00  0.00    -0.269 OA
ATOM     29  N   UNL A   1      32.742  18.573  22.740  1.00  0.00    -0.349 N 
ATOM     30  H   UNL A   1      32.678  18.179  21.840  1.00  0.00     0.164 HD
BRANCH  29  31
ATOM     31  C   UNL A   1      33.269  17.795  23.770  1.00  0.00     0.082 C 
ATOM     32  C   UNL A   1      33.903  16.575  23.157  1.00  0.00     0.027 C 
ATOM     33  C   UNL A   1      34.623  17.379  24.172  1.00  0.00     0.027 C 
ENDBRANCH  29  31
ENDBRANCH  26  27
ENDBRANCH  17  20
ENDBRANCH  10  16
ENDBRANCH   7   9
ENDBRANCH   6   7
ENDBRANCH   5   6
ENDBRANCH   4   5
ENDBRANCH   3   4
ENDBRANCH   2   3
ENDBRANCH   1   2
BRANCH   1  34
ATOM     34  O   UNL A   1      41.412  21.781  27.408  1.00  0.00    -0.377 OA
BRANCH  34  35
ATOM     35  C   UNL A   1      41.150  20.376  27.452  1.00  0.00     0.188 C 
BRANCH  35  36
ATOM     36  C   UNL A   1      40.937  19.636  26.124  1.00  0.00     0.188 C 
BRANCH  36  37
ATOM     37  O   UNL A   1      42.159  19.609  25.393  1.00  0.00    -0.376 OA
BRANCH  37  38
ATOM     38  C   UNL A   1      43.089  18.587  25.735  1.00  0.00     0.202 C 
BRANCH  38  39
ATOM     39  C   UNL A   1      44.329  18.605  24.842  1.00  0.00     0.261 C 
BRANCH  39  40
ATOM     40  O   UNL A   1      45.418  19.224  25.560  1.00  0.00    -0.460 OA
BRANCH  40  41
ATOM     41  C   UNL A   1      46.071  20.208  24.893  1.00  0.00     0.338 C 
ATOM     42  O   UNL A   1      47.182  20.092  24.383  1.00  0.00    -0.246 OA
BRANCH  41  43
ATOM     43  C   UNL A   1      45.354  21.500  25.040  1.00  0.00     0.060 A 
ATOM     44  C   UNL A   1      45.498  22.509  24.072  1.00  0.00     0.016 A 
ATOM     45  C   UNL A   1      44.753  21.797  26.258  1.00  0.00     0.016 A 
ATOM     46  C   UNL A   1      45.183  23.837  24.385  1.00  0.00     0.010 A 
ATOM     47  C   UNL A   1      44.555  23.117  26.595  1.00  0.00     0.010 A 
ATOM     48  C   UNL A   1      44.795  24.156  25.681  1.00  0.00    -0.014 A 
BRANCH  48  49
ATOM     49  C   UNL A   1      44.788  25.515  26.245  1.00  0.00     0.031 A 
ATOM     50  C   UNL A   1      43.472  26.248  26.370  1.00  0.00     0.074 A 
ATOM     51  C   UNL A   1      45.883  25.864  26.960  1.00  0.00     0.049 A 
ATOM     52  N   UNL A   1      43.264  27.372  26.974  1.00  0.00    -0.248 NA
ATOM     53  C   UNL A   1      42.238  25.734  25.775  1.00  0.00     0.031 C 
ATOM     54  C   UNL A   1      45.854  26.529  28.235  1.00  0.00     0.029 A 
ATOM     55  N   UNL A   1      47.223  25.525  26.892  1.00  0.00    -0.354 N 
ATOM     56  C   UNL A   1      41.891  27.613  27.050  1.00  0.00     0.074 A 
ATOM     57  C   UNL A   1      41.311  26.574  26.245  1.00  0.00     0.031 C 
ATOM     58  C   UNL A   1      47.046  26.915  28.683  1.00  0.00     0.029 A 
ATOM     59  C   UNL A   1      47.950  26.455  27.682  1.00  0.00     0.049 A 
ATOM     60  H   UNL A   1      47.605  24.772  26.386  1.00  0.00     0.167 HD
ATOM     61  C   UNL A   1      41.406  28.624  27.847  1.00  0.00     0.037 A 
ATOM     62  C   UNL A   1      48.909  27.231  27.134  1.00  0.00     0.037 A 
ATOM     63  C   UNL A   1      42.495  29.577  28.204  1.00  0.00     0.049 A 
ATOM     64  C   UNL A   1      48.359  28.653  27.042  1.00  0.00     0.074 A 
ATOM     65  C   UNL A   1      42.794  30.388  29.277  1.00  0.00     0.029 A 
ATOM     66  N   UNL A   1      43.589  29.784  27.321  1.00  0.00    -0.354 N 
ATOM     67  N   UNL A   1      47.084  28.979  26.893  1.00  0.00    -0.248 NA
ATOM     68  C   UNL A   1      49.190  29.798  27.405  1.00  0.00     0.031 C 
ATOM     69  C   UNL A   1      44.128  30.852  29.149  1.00  0.00     0.029 A 
ATOM     70  C   UNL A   1      44.617  30.478  27.915  1.00  0.00     0.049 A 
ATOM     71  H   UNL A   1      43.608  29.466  26.389  1.00  0.00     0.167 HD
ATOM     72  C   UNL A   1      46.930  30.327  27.154  1.00  0.00     0.074 A 
ATOM     73  C   UNL A   1      48.276  30.778  27.484  1.00  0.00     0.031 C 
ATOM     74  C   UNL A   1      45.759  31.047  27.213  1.00  0.00     0.037 A 
BRANCH  61  75
ATOM     75  C   UNL A   1      39.956  28.652  28.483  1.00  0.00     0.064 A 
ATOM     76  C   UNL A   1      38.854  29.292  27.852  1.00  0.00     0.173 A 
ATOM     77  C   UNL A   1      39.607  28.182  29.775  1.00  0.00     0.173 A 
ATOM     78  F   UNL A   1      38.888  29.635  26.562  1.00  0.00    -0.203 F 
ATOM     79  C   UNL A   1      37.623  29.569  28.488  1.00  0.00     0.198 A 
ATOM     80  C   UNL A   1      38.349  28.385  30.384  1.00  0.00     0.198 A 
ATOM     81  F   UNL A   1      40.456  27.502  30.542  1.00  0.00    -0.203 F 
ATOM     82  F   UNL A   1      36.681  30.271  27.843  1.00  0.00    -0.200 F 
ATOM     83  C   UNL A   1      37.370  29.117  29.760  1.00  0.00     0.200 A 
ATOM     84  F   UNL A   1      38.111  27.863  31.598  1.00  0.00    -0.200 F 
ATOM     85  F   UNL A   1      36.198  29.354  30.363  1.00  0.00    -0.200 F 
ENDBRANCH  61  75
BRANCH  62  86
ATOM     86  C   UNL A   1      49.792  26.310  26.332  1.00  0.00     0.064 A 
ATOM     87  C   UNL A   1      49.939  26.753  24.979  1.00  0.00     0.173 A 
ATOM     88  C   UNL A   1      50.935  25.745  26.924  1.00  0.00     0.173 A 
ATOM     89  F   UNL A   1      48.890  27.314  24.351  1.00  0.00    -0.203 F 
ATOM     90  C   UNL A   1      51.200  26.923  24.398  1.00  0.00     0.198 A 
ATOM     91  C   UNL A   1      52.194  25.876  26.308  1.00  0.00     0.198 A 
ATOM     92  F   UNL A   1      50.889  25.317  28.192  1.00  0.00    -0.203 F 
ATOM     93  F   UNL A   1      51.327  27.628  23.262  1.00  0.00    -0.200 F 
ATOM     94  C   UNL A   1      52.330  26.531  25.089  1.00  0.00     0.200 A 
ATOM     95  F   UNL A   1      53.303  25.526  26.978  1.00  0.00    -0.200 F 
ATOM     96  F   UNL A   1      53.545  26.880  24.637  1.00  0.00    -0.200 F 
ENDBRANCH  62  86
BRANCH  74  97
ATOM     97  C   UNL A   1      45.661  32.556  26.960  1.00  0.00     0.064 A 
ATOM     98  C   UNL A   1      44.765  33.122  26.045  1.00  0.00     0.173 A 
ATOM     99  C   UNL A   1      46.380  33.506  27.744  1.00  0.00     0.173 A 
ATOM    100  F   UNL A   1      43.882  32.370  25.377  1.00  0.00    -0.203 F 
ATOM    101  C   UNL A   1      44.703  34.501  25.829  1.00  0.00     0.198 A 
ATOM    102  C   UNL A   1      46.330  34.876  27.516  1.00  0.00     0.198 A 
ATOM    103  F   UNL A   1      47.104  33.163  28.817  1.00  0.00    -0.203 F 
ATOM    104  F   UNL A   1      43.838  34.982  24.926  1.00  0.00    -0.200 F 
ATOM    105  C   UNL A   1      45.499  35.375  26.544  1.00  0.00     0.200 A 
ATOM    106  F   UNL A   1      47.069  35.701  28.271  1.00  0.00    -0.200 F 
ATOM    107  F   UNL A   1      45.425  36.694  26.337  1.00  0.00    -0.200 F 
ENDBRANCH  74  97
ENDBRANCH  48  49
ENDBRANCH  41  43
ENDBRANCH  40  41
ENDBRANCH  39  40
ENDBRANCH  38  39
ENDBRANCH  37  38
ENDBRANCH  36  37
ENDBRANCH  35  36
ENDBRANCH  34  35
ENDBRANCH   1  34
TORSDOF 24
ENDMDL
MODEL 2
REMARK VINA RESULT:     -11.4      1.941      3.796
REMARK SMILES Cc1ccc(C(=O)NC2CC2)cc1NC(=O)[C@@H]1[C@@H](C(=O)OCCOCCOCCOCCOC(=O)c2ccc(-c3c4nc(c(-c5c(F)c(F)c(F)c(F)c5F)c5ccc([nH]5)c(-c5c(F)c(F)c(F)c(F)c5F)c5nc(c(-c6c(F)c(F)c(F)c(F)c6F)c6ccc3[nH]6)C=C5)C=C4)cc2)[C@H]2C=C[C@@H]1C2
REMARK SMILES IDX 26 1 25 2 24 3 23 4 22 5 21 6 19 7 20 8 18 9 17 10 102 11
REMARK SMILES IDX 99 12 101 13 103 14 100 15 15 16 14 17 16 19 13 20 1 21 2 22
REMARK SMILES IDX 3 23 4 24 12 25 5 26 6 27 7 28 8 29 9 31 10 32 11 33 27 34
REMARK SMILES IDX 28 35 29 36 30 37 31 38 32 39 33 40 34 41 35 42 36 43 37 44
REMARK SMILES IDX 98 45 38 46 97 47 39 48 40 49 41 50 91 51 42 52 96 53 90 54
REMARK SMILES IDX 92 55 43 56 95 57 89 58 88 59 44 61 76 62 56 63 75 64 57 65
REMARK SMILES IDX 60 66 74 67 93 68 58 69 59 70 73 72 94 73 61 74 45 75 46 76
REMARK SMILES IDX 54 77 47 78 48 79 52 80 55 81 49 82 50 83 53 84 51 85 77 86
REMARK SMILES IDX 78 87 86 88 79 89 80 90 84 91 87 92 81 93 82 94 85 95 83 96
REMARK SMILES IDX 62 97 63 98 71 99 64 100 65 101 69 102 72 103 66 104 67 105
REMARK SMILES IDX 70 106 68 107
REMARK H PARENT 14 18 8 30 92 60 60 71
REMARK Flexibility Score: inf
ROOT
ATOM      1  C   UNL A   1      40.067  22.511  26.529  1.00  0.00     0.188 C 
ENDROOT
BRANCH   1   2
ATOM      2  C   UNL A   1      38.605  22.403  26.055  1.00  0.00     0.188 C 
BRANCH   2   3
ATOM      3  O   UNL A   1      37.889  23.620  25.934  1.00  0.00    -0.376 OA
BRANCH   3   4
ATOM      4  C   UNL A   1      36.555  23.456  25.479  1.00  0.00     0.202 C 
BRANCH   4   5
ATOM      5  C   UNL A   1      35.610  22.982  26.570  1.00  0.00     0.261 C 
BRANCH   5   6
ATOM      6  O   UNL A   1      34.352  23.700  26.725  1.00  0.00    -0.463 OA
BRANCH   6   7
ATOM      7  C   UNL A   1      33.276  23.166  26.148  1.00  0.00     0.310 C 
ATOM      8  O   UNL A   1      32.808  22.083  26.491  1.00  0.00    -0.252 OA
BRANCH   7   9
ATOM      9  C   UNL A   1      32.665  23.912  24.982  1.00  0.00     0.119 C 
ATOM     10  C   UNL A   1      31.197  23.370  25.020  1.00  0.00     0.100 C 
ATOM     11  C   UNL A   1      30.779  23.355  23.545  1.00  0.00     0.025 C 
ATOM     12  C   UNL A   1      32.977  23.869  23.464  1.00  0.00     0.027 C 
ATOM     13  C   UNL A   1      31.512  22.191  22.890  1.00  0.00    -0.027 C 
ATOM     14  C   UNL A   1      31.639  24.463  22.939  1.00  0.00     0.017 C 
ATOM     15  C   UNL A   1      32.817  22.507  22.841  1.00  0.00    -0.027 C 
BRANCH  10  16
ATOM     16  C   UNL A   1      30.404  24.167  26.036  1.00  0.00     0.228 C 
ATOM     17  N   UNL A   1      30.016  25.470  25.854  1.00  0.00    -0.326 N 
ATOM     18  H   UNL A   1      29.409  25.771  26.567  1.00  0.00     0.169 HD
ATOM     19  O   UNL A   1      30.052  23.626  27.093  1.00  0.00    -0.274 OA
BRANCH  17  20
ATOM     20  C   UNL A   1      30.263  26.497  24.904  1.00  0.00     0.044 A 
ATOM     21  C   UNL A   1      27.912  26.244  23.935  1.00  0.00     0.046 C 
ATOM     22  C   UNL A   1      29.234  26.941  24.074  1.00  0.00    -0.027 A 
ATOM     23  C   UNL A   1      29.420  28.122  23.320  1.00  0.00     0.006 A 
ATOM     24  C   UNL A   1      30.634  28.814  23.310  1.00  0.00     0.014 A 
ATOM     25  C   UNL A   1      31.497  27.119  24.724  1.00  0.00     0.040 A 
ATOM     26  C   UNL A   1      31.727  28.303  23.988  1.00  0.00     0.041 A 
BRANCH  26  27
ATOM     27  C   UNL A   1      33.029  29.088  23.852  1.00  0.00     0.251 C 
ATOM     28  O   UNL A   1      33.668  29.045  22.802  1.00  0.00    -0.269 OA
ATOM     29  N   UNL A   1      33.513  29.889  24.869  1.00  0.00    -0.349 N 
ATOM     30  H   UNL A   1      34.276  30.481  24.677  1.00  0.00     0.164 HD
BRANCH  29  31
ATOM     31  C   UNL A   1      32.972  29.896  26.154  1.00  0.00     0.082 C 
ATOM     32  C   UNL A   1      34.048  29.467  27.116  1.00  0.00     0.027 C 
ATOM     33  C   UNL A   1      33.221  30.667  27.384  1.00  0.00     0.027 C 
ENDBRANCH  29  31
ENDBRANCH  26  27
ENDBRANCH  17  20
ENDBRANCH  10  16
ENDBRANCH   7   9
ENDBRANCH   6   7
ENDBRANCH   5   6
ENDBRANCH   4   5
ENDBRANCH   3   4
ENDBRANCH   2   3
ENDBRANCH   1   2
BRANCH   1  34
ATOM     34  O   UNL A   1      40.960  21.484  26.068  1.00  0.00    -0.377 OA
BRANCH  34  35
ATOM     35  C   UNL A   1      40.643  20.136  26.422  1.00  0.00     0.188 C 
BRANCH  35  36
ATOM     36  C   UNL A   1      41.620  19.027  26.006  1.00  0.00     0.188 C 
BRANCH  36  37
ATOM     37  O   UNL A   1      42.816  19.613  25.502  1.00  0.00    -0.376 OA
BRANCH  37  38
ATOM     38  C   UNL A   1      43.990  18.809  25.540  1.00  0.00     0.202 C 
BRANCH  38  39
ATOM     39  C   UNL A   1      44.832  18.946  24.271  1.00  0.00     0.261 C 
BRANCH  39  40
ATOM     40  O   UNL A   1      45.718  20.076  24.414  1.00  0.00    -0.460 OA
BRANCH  40  41
ATOM     41  C   UNL A   1      45.204  21.272  24.032  1.00  0.00     0.338 C 
ATOM     42  O   UNL A   1      44.545  21.459  23.013  1.00  0.00    -0.246 OA
BRANCH  41  43
ATOM     43  C   UNL A   1      45.719  22.360  24.901  1.00  0.00     0.060 A 
ATOM     44  C   UNL A   1      45.403  22.389  26.271  1.00  0.00     0.016 A 
ATOM     45  C   UNL A   1      46.295  23.477  24.306  1.00  0.00     0.016 A 
ATOM     46  C   UNL A   1      45.518  23.580  26.998  1.00  0.00     0.010 A 
ATOM     47  C   UNL A   1      46.296  24.668  24.996  1.00  0.00     0.010 A 
ATOM     48  C   UNL A   1      45.882  24.747  26.335  1.00  0.00    -0.014 A 
BRANCH  48  49
ATOM     49  C   UNL A   1      45.695  26.106  26.866  1.00  0.00     0.031 A 
ATOM     50  C   UNL A   1      44.290  26.638  27.038  1.00  0.00     0.074 A 
ATOM     51  C   UNL A   1      46.756  26.637  27.517  1.00  0.00     0.049 A 
ATOM     52  N   UNL A   1      43.942  27.736  27.625  1.00  0.00    -0.248 NA
ATOM     53  C   UNL A   1      43.122  25.927  26.516  1.00  0.00     0.031 C 
ATOM     54  C   UNL A   1      46.684  27.329  28.776  1.00  0.00     0.029 A 
ATOM     55  N   UNL A   1      48.127  26.500  27.391  1.00  0.00    -0.354 N 
ATOM     56  C   UNL A   1      42.553  27.771  27.762  1.00  0.00     0.074 A 
ATOM     57  C   UNL A   1      42.102  26.633  27.011  1.00  0.00     0.031 C 
ATOM     58  C   UNL A   1      47.823  27.903  29.155  1.00  0.00     0.029 A 
ATOM     59  C   UNL A   1      48.740  27.553  28.123  1.00  0.00     0.049 A 
ATOM     60  H   UNL A   1      48.596  25.798  26.885  1.00  0.00     0.167 HD
ATOM     61  C   UNL A   1      41.957  28.722  28.558  1.00  0.00     0.037 A 
ATOM     62  C   UNL A   1      49.545  28.446  27.509  1.00  0.00     0.037 A 
ATOM     63  C   UNL A   1      42.906  29.838  28.839  1.00  0.00     0.049 A 
ATOM     64  C   UNL A   1      48.783  29.766  27.411  1.00  0.00     0.074 A 
ATOM     65  C   UNL A   1      43.126  30.717  29.875  1.00  0.00     0.029 A 
ATOM     66  N   UNL A   1      43.915  30.179  27.898  1.00  0.00    -0.354 N 
ATOM     67  N   UNL A   1      47.468  29.893  27.317  1.00  0.00    -0.248 NA
ATOM     68  C   UNL A   1      49.448  31.034  27.705  1.00  0.00     0.031 C 
ATOM     69  C   UNL A   1      44.368  31.371  29.671  1.00  0.00     0.029 A 
ATOM     70  C   UNL A   1      44.852  31.037  28.423  1.00  0.00     0.049 A 
ATOM     71  H   UNL A   1      43.940  29.839  26.974  1.00  0.00     0.167 HD
ATOM     72  C   UNL A   1      47.124  31.211  27.553  1.00  0.00     0.074 A 
ATOM     73  C   UNL A   1      48.401  31.868  27.806  1.00  0.00     0.031 C 
ATOM     74  C   UNL A   1      45.862  31.749  27.653  1.00  0.00     0.037 A 
BRANCH  61  75
ATOM     75  C   UNL A   1      40.550  28.552  29.263  1.00  0.00     0.064 A 
ATOM     76  C   UNL A   1      39.322  28.820  28.599  1.00  0.00     0.173 A 
ATOM     77  C   UNL A   1      40.339  28.256  30.635  1.00  0.00     0.173 A 
ATOM     78  F   UNL A   1      39.253  28.928  27.270  1.00  0.00    -0.203 F 
ATOM     79  C   UNL A   1      38.073  28.937  29.250  1.00  0.00     0.198 A 
ATOM     80  C   UNL A   1      39.081  28.290  31.273  1.00  0.00     0.198 A 
ATOM     81  F   UNL A   1      41.333  27.919  31.455  1.00  0.00    -0.203 F 
ATOM     82  F   UNL A   1      36.987  29.295  28.552  1.00  0.00    -0.200 F 
ATOM     83  C   UNL A   1      37.952  28.674  30.592  1.00  0.00     0.200 A 
ATOM     84  F   UNL A   1      38.988  27.954  32.569  1.00  0.00    -0.200 F 
ATOM     85  F   UNL A   1      36.768  28.758  31.214  1.00  0.00    -0.200 F 
ENDBRANCH  61  75
BRANCH  62  86
ATOM     86  C   UNL A   1      50.520  27.644  26.688  1.00  0.00     0.064 A 
ATOM     87  C   UNL A   1      50.316  27.829  25.283  1.00  0.00     0.173 A 
ATOM     88  C   UNL A   1      51.856  27.524  27.106  1.00  0.00     0.173 A 
ATOM     89  F   UNL A   1      49.064  27.963  24.810  1.00  0.00    -0.203 F 
ATOM     90  C   UNL A   1      51.365  28.200  24.435  1.00  0.00     0.198 A 
ATOM     91  C   UNL A   1      52.909  27.850  26.231  1.00  0.00     0.198 A 
ATOM     92  F   UNL A   1      52.137  27.361  28.406  1.00  0.00    -0.203 F 
ATOM     93  F   UNL A   1      51.100  28.671  23.205  1.00  0.00    -0.200 F 
ATOM     94  C   UNL A   1      52.655  28.259  24.926  1.00  0.00     0.200 A 
ATOM     95  F   UNL A   1      54.163  27.939  26.700  1.00  0.00    -0.200 F 
ATOM     96  F   UNL A   1      53.628  28.813  24.186  1.00  0.00    -0.200 F 
ENDBRANCH  62  86
BRANCH  74  97
ATOM     97  C   UNL A   1      45.525  33.217  27.369  1.00  0.00     0.064 A 
ATOM     98  C   UNL A   1      44.586  33.617  26.412  1.00  0.00     0.173 A 
ATOM     99  C   UNL A   1      46.046  34.282  28.162  1.00  0.00     0.173 A 
ATOM    100  F   UNL A   1      43.866  32.720  25.725  1.00  0.00    -0.203 F 
ATOM    101  C   UNL A   1      44.305  34.963  26.168  1.00  0.00     0.198 A 
ATOM    102  C   UNL A   1      45.780  35.622  27.908  1.00  0.00     0.198 A 
ATOM    103  F   UNL A   1      46.774  34.077  29.268  1.00  0.00    -0.203 F 
ATOM    104  F   UNL A   1      43.409  35.284  25.226  1.00  0.00    -0.200 F 
ATOM    105  C   UNL A   1      44.917  35.965  26.898  1.00  0.00     0.200 A 
ATOM    106  F   UNL A   1      46.341  36.567  28.676  1.00  0.00    -0.200 F 
ATOM    107  F   UNL A   1      44.634  37.252  26.664  1.00  0.00    -0.200 F 
ENDBRANCH  74  97
ENDBRANCH  48  49
ENDBRANCH  41  43
ENDBRANCH  40  41
ENDBRANCH  39  40
ENDBRANCH  38  39
ENDBRANCH  37  38
ENDBRANCH  36  37
ENDBRANCH  35  36
ENDBRANCH  34  35
ENDBRANCH   1  34
TORSDOF 24
ENDMDL
MODEL 3
REMARK VINA RESULT:     -11.4      5.293      8.658
REMARK SMILES Cc1ccc(C(=O)NC2CC2)cc1NC(=O)[C@@H]1[C@@H](C(=O)OCCOCCOCCOCCOC(=O)c2ccc(-c3c4nc(c(-c5c(F)c(F)c(F)c(F)c5F)c5ccc([nH]5)c(-c5c(F)c(F)c(F)c(F)c5F)c5nc(c(-c6c(F)c(F)c(F)c(F)c6F)c6ccc3[nH]6)C=C5)C=C4)cc2)[C@H]2C=C[C@@H]1C2
REMARK SMILES IDX 26 1 25 2 24 3 23 4 22 5 21 6 19 7 20 8 18 9 17 10 102 11
REMARK SMILES IDX 99 12 101 13 103 14 100 15 15 16 14 17 16 19 13 20 1 21 2 22
REMARK SMILES IDX 3 23 4 24 12 25 5 26 6 27 7 28 8 29 9 31 10 32 11 33 27 34
REMARK SMILES IDX 28 35 29 36 30 37 31 38 32 39 33 40 34 41 35 42 36 43 37 44
REMARK SMILES IDX 98 45 38 46 97 47 39 48 40 49 41 50 91 51 42 52 96 53 90 54
REMARK SMILES IDX 92 55 43 56 95 57 89 58 88 59 44 61 76 62 56 63 75 64 57 65
REMARK SMILES IDX 60 66 74 67 93 68 58 69 59 70 73 72 94 73 61 74 45 75 46 76
REMARK SMILES IDX 54 77 47 78 48 79 52 80 55 81 49 82 50 83 53 84 51 85 77 86
REMARK SMILES IDX 78 87 86 88 79 89 80 90 84 91 87 92 81 93 82 94 85 95 83 96
REMARK SMILES IDX 62 97 63 98 71 99 64 100 65 101 69 102 72 103 66 104 67 105
REMARK SMILES IDX 70 106 68 107
REMARK H PARENT 14 18 8 30 92 60 60 71
REMARK Flexibility Score: inf
ROOT
ATOM      1  C   UNL A   1      40.247  25.059  27.986  1.00  0.00     0.188 C 
ENDROOT
BRANCH   1   2
ATOM      2  C   UNL A   1      38.977  24.321  27.521  1.00  0.00     0.188 C 
BRANCH   2   3
ATOM      3  O   UNL A   1      38.783  24.217  26.122  1.00  0.00    -0.376 OA
BRANCH   3   4
ATOM      4  C   UNL A   1      37.538  23.642  25.758  1.00  0.00     0.202 C 
BRANCH   4   5
ATOM      5  C   UNL A   1      37.566  22.122  25.748  1.00  0.00     0.261 C 
BRANCH   5   6
ATOM      6  O   UNL A   1      36.574  21.439  24.929  1.00  0.00    -0.463 OA
BRANCH   6   7
ATOM      7  C   UNL A   1      35.302  21.536  25.312  1.00  0.00     0.310 C 
ATOM      8  O   UNL A   1      34.968  21.617  26.493  1.00  0.00    -0.252 OA
BRANCH   7   9
ATOM      9  C   UNL A   1      34.240  21.476  24.236  1.00  0.00     0.119 C 
ATOM     10  C   UNL A   1      33.603  22.899  24.367  1.00  0.00     0.100 C 
ATOM     11  C   UNL A   1      32.131  22.671  24.008  1.00  0.00     0.025 C 
ATOM     12  C   UNL A   1      32.982  20.581  24.090  1.00  0.00     0.027 C 
ATOM     13  C   UNL A   1      31.495  21.948  25.189  1.00  0.00    -0.027 C 
ATOM     14  C   UNL A   1      32.193  21.460  23.078  1.00  0.00     0.017 C 
ATOM     15  C   UNL A   1      32.003  20.705  25.227  1.00  0.00    -0.027 C 
BRANCH  10  16
ATOM     16  C   UNL A   1      34.442  23.888  23.582  1.00  0.00     0.228 C 
ATOM     17  N   UNL A   1      34.214  25.240  23.561  1.00  0.00    -0.326 N 
ATOM     18  H   UNL A   1      34.933  25.723  23.096  1.00  0.00     0.169 HD
ATOM     19  O   UNL A   1      35.412  23.479  22.930  1.00  0.00    -0.274 OA
BRANCH  17  20
ATOM     20  C   UNL A   1      33.207  26.124  24.036  1.00  0.00     0.044 A 
ATOM     21  C   UNL A   1      32.013  26.068  21.778  1.00  0.00     0.046 C 
ATOM     22  C   UNL A   1      32.108  26.425  23.232  1.00  0.00    -0.027 A 
ATOM     23  C   UNL A   1      31.001  27.093  23.803  1.00  0.00     0.006 A 
ATOM     24  C   UNL A   1      31.005  27.540  25.127  1.00  0.00     0.014 A 
ATOM     25  C   UNL A   1      33.230  26.741  25.286  1.00  0.00     0.040 A 
ATOM     26  C   UNL A   1      32.147  27.409  25.898  1.00  0.00     0.041 A 
BRANCH  26  27
ATOM     27  C   UNL A   1      32.081  28.001  27.303  1.00  0.00     0.251 C 
ATOM     28  O   UNL A   1      31.080  27.830  27.999  1.00  0.00    -0.269 OA
ATOM     29  N   UNL A   1      33.134  28.706  27.854  1.00  0.00    -0.349 N 
ATOM     30  H   UNL A   1      33.094  28.940  28.810  1.00  0.00     0.164 HD
BRANCH  29  31
ATOM     31  C   UNL A   1      34.250  29.103  27.118  1.00  0.00     0.082 C 
ATOM     32  C   UNL A   1      34.409  30.591  27.278  1.00  0.00     0.027 C 
ATOM     33  C   UNL A   1      35.564  29.679  27.449  1.00  0.00     0.027 C 
ENDBRANCH  29  31
ENDBRANCH  26  27
ENDBRANCH  17  20
ENDBRANCH  10  16
ENDBRANCH   7   9
ENDBRANCH   6   7
ENDBRANCH   5   6
ENDBRANCH   4   5
ENDBRANCH   3   4
ENDBRANCH   2   3
ENDBRANCH   1   2
BRANCH   1  34
ATOM     34  O   UNL A   1      41.387  24.968  27.116  1.00  0.00    -0.377 OA
BRANCH  34  35
ATOM     35  C   UNL A   1      42.291  23.882  27.335  1.00  0.00     0.188 C 
BRANCH  35  36
ATOM     36  C   UNL A   1      43.299  23.542  26.229  1.00  0.00     0.188 C 
BRANCH  36  37
ATOM     37  O   UNL A   1      44.449  24.372  26.361  1.00  0.00    -0.376 OA
BRANCH  37  38
ATOM     38  C   UNL A   1      44.660  25.344  25.344  1.00  0.00     0.202 C 
BRANCH  38  39
ATOM     39  C   UNL A   1      44.658  26.771  25.891  1.00  0.00     0.261 C 
BRANCH  39  40
ATOM     40  O   UNL A   1      43.399  27.022  26.549  1.00  0.00    -0.460 OA
BRANCH  40  41
ATOM     41  C   UNL A   1      42.506  27.755  25.839  1.00  0.00     0.338 C 
ATOM     42  O   UNL A   1      42.330  27.665  24.627  1.00  0.00    -0.246 OA
BRANCH  41  43
ATOM     43  C   UNL A   1      41.919  28.823  26.687  1.00  0.00     0.060 A 
ATOM     44  C   UNL A   1      42.748  29.768  27.318  1.00  0.00     0.016 A 
ATOM     45  C   UNL A   1      40.583  28.727  27.056  1.00  0.00     0.016 A 
ATOM     46  C   UNL A   1      42.277  30.498  28.416  1.00  0.00     0.010 A 
ATOM     47  C   UNL A   1      40.165  29.362  28.204  1.00  0.00     0.010 A 
ATOM     48  C   UNL A   1      41.008  30.228  28.917  1.00  0.00    -0.014 A 
BRANCH  48  49
ATOM     49  C   UNL A   1      40.527  30.635  30.247  1.00  0.00     0.031 A 
ATOM     50  C   UNL A   1      39.567  31.798  30.354  1.00  0.00     0.074 A 
ATOM     51  C   UNL A   1      40.666  29.716  31.232  1.00  0.00     0.049 A 
ATOM     52  N   UNL A   1      38.935  32.187  31.412  1.00  0.00    -0.248 NA
ATOM     53  C   UNL A   1      39.254  32.652  29.208  1.00  0.00     0.031 C 
ATOM     54  C   UNL A   1      39.646  29.376  32.187  1.00  0.00     0.029 A 
ATOM     55  N   UNL A   1      41.585  28.713  31.488  1.00  0.00    -0.354 N 
ATOM     56  C   UNL A   1      37.992  33.155  31.062  1.00  0.00     0.074 A 
ATOM     57  C   UNL A   1      38.274  33.429  29.679  1.00  0.00     0.031 C 
ATOM     58  C   UNL A   1      40.051  28.563  33.159  1.00  0.00     0.029 A 
ATOM     59  C   UNL A   1      41.412  28.296  32.834  1.00  0.00     0.049 A 
ATOM     60  H   UNL A   1      42.242  28.353  30.849  1.00  0.00     0.167 HD
ATOM     61  C   UNL A   1      37.038  33.557  31.967  1.00  0.00     0.037 A 
ATOM     62  C   UNL A   1      42.422  28.392  33.725  1.00  0.00     0.037 A 
ATOM     63  C   UNL A   1      37.429  33.158  33.349  1.00  0.00     0.049 A 
ATOM     64  C   UNL A   1      42.096  29.546  34.672  1.00  0.00     0.074 A 
ATOM     65  C   UNL A   1      36.769  32.797  34.503  1.00  0.00     0.029 A 
ATOM     66  N   UNL A   1      38.800  33.054  33.708  1.00  0.00    -0.354 N 
ATOM     67  N   UNL A   1      41.386  30.620  34.364  1.00  0.00    -0.248 NA
ATOM     68  C   UNL A   1      42.312  29.412  36.112  1.00  0.00     0.031 C 
ATOM     69  C   UNL A   1      37.705  32.254  35.420  1.00  0.00     0.029 A 
ATOM     70  C   UNL A   1      38.978  32.428  34.919  1.00  0.00     0.049 A 
ATOM     71  H   UNL A   1      39.539  33.393  33.152  1.00  0.00     0.167 HD
ATOM     72  C   UNL A   1      41.045  31.284  35.527  1.00  0.00     0.074 A 
ATOM     73  C   UNL A   1      41.637  30.472  36.583  1.00  0.00     0.031 C 
ATOM     74  C   UNL A   1      40.229  32.384  35.663  1.00  0.00     0.037 A 
BRANCH  61  75
ATOM     75  C   UNL A   1      35.622  34.151  31.579  1.00  0.00     0.064 A 
ATOM     76  C   UNL A   1      34.961  33.825  30.364  1.00  0.00     0.173 A 
ATOM     77  C   UNL A   1      34.917  35.150  32.298  1.00  0.00     0.173 A 
ATOM     78  F   UNL A   1      35.331  32.778  29.623  1.00  0.00    -0.203 F 
ATOM     79  C   UNL A   1      33.838  34.519  29.857  1.00  0.00     0.198 A 
ATOM     80  C   UNL A   1      33.746  35.789  31.834  1.00  0.00     0.198 A 
ATOM     81  F   UNL A   1      35.310  35.584  33.493  1.00  0.00    -0.203 F 
ATOM     82  F   UNL A   1      33.348  34.205  28.650  1.00  0.00    -0.200 F 
ATOM     83  C   UNL A   1      33.230  35.506  30.593  1.00  0.00     0.200 A 
ATOM     84  F   UNL A   1      33.135  36.696  32.612  1.00  0.00    -0.200 F 
ATOM     85  F   UNL A   1      32.151  36.153  30.132  1.00  0.00    -0.200 F 
ENDBRANCH  61  75
BRANCH  62  86
ATOM     86  C   UNL A   1      43.631  27.785  33.063  1.00  0.00     0.064 A 
ATOM     87  C   UNL A   1      44.650  28.759  32.812  1.00  0.00     0.173 A 
ATOM     88  C   UNL A   1      44.078  26.511  33.453  1.00  0.00     0.173 A 
ATOM     89  F   UNL A   1      44.297  30.004  32.445  1.00  0.00    -0.203 F 
ATOM     90  C   UNL A   1      45.966  28.567  33.244  1.00  0.00     0.198 A 
ATOM     91  C   UNL A   1      45.417  26.313  33.839  1.00  0.00     0.198 A 
ATOM     92  F   UNL A   1      43.190  25.545  33.720  1.00  0.00    -0.203 F 
ATOM     93  F   UNL A   1      46.819  29.604  33.285  1.00  0.00    -0.200 F 
ATOM     94  C   UNL A   1      46.334  27.359  33.805  1.00  0.00     0.200 A 
ATOM     95  F   UNL A   1      45.782  25.156  34.410  1.00  0.00    -0.200 F 
ATOM     96  F   UNL A   1      47.526  27.237  34.411  1.00  0.00    -0.200 F 
ENDBRANCH  62  86
BRANCH  74  97
ATOM     97  C   UNL A   1      40.313  33.381  36.824  1.00  0.00     0.064 A 
ATOM     98  C   UNL A   1      39.640  33.203  38.038  1.00  0.00     0.173 A 
ATOM     99  C   UNL A   1      41.199  34.499  36.802  1.00  0.00     0.173 A 
ATOM    100  F   UNL A   1      38.926  32.096  38.283  1.00  0.00    -0.203 F 
ATOM    101  C   UNL A   1      39.727  34.133  39.076  1.00  0.00     0.198 A 
ATOM    102  C   UNL A   1      41.272  35.434  37.828  1.00  0.00     0.198 A 
ATOM    103  F   UNL A   1      42.092  34.700  35.825  1.00  0.00    -0.203 F 
ATOM    104  F   UNL A   1      39.044  33.915  40.208  1.00  0.00    -0.200 F 
ATOM    105  C   UNL A   1      40.523  35.258  38.964  1.00  0.00     0.200 A 
ATOM    106  F   UNL A   1      42.102  36.480  37.714  1.00  0.00    -0.200 F 
ATOM    107  F   UNL A   1      40.608  36.138  39.968  1.00  0.00    -0.200 F 
ENDBRANCH  74  97
ENDBRANCH  48  49
ENDBRANCH  41  43
ENDBRANCH  40  41
ENDBRANCH  39  40
ENDBRANCH  38  39
ENDBRANCH  37  38
ENDBRANCH  36  37
ENDBRANCH  35  36
ENDBRANCH  34  35
ENDBRANCH   1  34
TORSDOF 24
ENDMDL
