MODEL 1
REMARK VINA RESULT:     -10.4      0.000      0.000
REMARK SMILES Cn1ccc(NS(=O)(=O)c2cc(C(=O)OCCOCCOCCOCCOC(=O)c3ccc(-c4c5nc(c(-c6c(F)c(F)c(F)c(F)c6F)c6ccc([nH]6)c(-c6c(F)c(F)c(F)c(F)c6F)c6nc(c(-c7c(F)c(F)c(F)c(F)c7F)c7ccc4[nH]7)C=C6)C=C5)cc3)ccc2F)n1
REMARK SMILES IDX 20 1 19 2 18 3 17 4 16 5 15 6 13 7 14 8 12 9 10 10 11 11
REMARK SMILES IDX 95 12 94 13 96 14 93 15 7 16 8 17 9 18 6 19 5 21 1 22 2 23
REMARK SMILES IDX 3 24 97 25 4 26 21 27 22 28 23 29 24 30 25 31 26 32 27 33
REMARK SMILES IDX 28 34 29 35 30 36 31 37 92 38 32 39 91 40 33 41 34 42 35 43
REMARK SMILES IDX 85 44 36 45 90 46 84 47 86 48 37 49 89 50 83 51 82 52 38 54
REMARK SMILES IDX 70 55 50 56 69 57 51 58 54 59 68 60 87 61 52 62 53 63 67 65
REMARK SMILES IDX 88 66 55 67 39 68 40 69 48 70 41 71 42 72 46 73 49 74 43 75
REMARK SMILES IDX 44 76 47 77 45 78 71 79 72 80 80 81 73 82 74 83 78 84 81 85
REMARK SMILES IDX 75 86 76 87 79 88 77 89 56 90 57 91 65 92 58 93 59 94 63 95
REMARK SMILES IDX 66 96 60 97 61 98 64 99 62 100
REMARK H PARENT 6 20 86 53 54 64
REMARK Flexibility Score: inf
ROOT
ATOM      1  C   UNL A   1      33.807  30.763  27.649  1.00  0.00     0.188 C 
ENDROOT
BRANCH   1   2
ATOM      2  C   UNL A   1      33.422  29.677  26.635  1.00  0.00     0.188 C 
BRANCH   2   3
ATOM      3  O   UNL A   1      32.334  30.028  25.783  1.00  0.00    -0.376 OA
BRANCH   3   4
ATOM      4  C   UNL A   1      32.206  29.278  24.579  1.00  0.00     0.202 C 
BRANCH   4   5
ATOM      5  C   UNL A   1      30.871  28.550  24.379  1.00  0.00     0.261 C 
BRANCH   5   6
ATOM      6  O   UNL A   1      30.956  27.121  24.500  1.00  0.00    -0.460 OA
BRANCH   6   7
ATOM      7  C   UNL A   1      31.415  26.633  25.676  1.00  0.00     0.338 C 
ATOM      8  O   UNL A   1      30.936  26.824  26.780  1.00  0.00    -0.246 OA
BRANCH   7   9
ATOM      9  C   UNL A   1      32.452  25.620  25.363  1.00  0.00     0.061 A 
ATOM     10  C   UNL A   1      33.327  23.404  25.831  1.00  0.00     0.124 A 
ATOM     11  C   UNL A   1      32.543  24.503  26.200  1.00  0.00     0.041 A 
ATOM     12  C   UNL A   1      34.126  23.492  24.697  1.00  0.00     0.143 A 
ATOM     13  C   UNL A   1      34.096  24.639  23.896  1.00  0.00     0.041 A 
ATOM     14  F   UNL A   1      34.961  22.510  24.334  1.00  0.00    -0.205 F 
ATOM     15  C   UNL A   1      33.239  25.696  24.210  1.00  0.00     0.019 A 
BRANCH  10  16
ATOM     16  S   UNL A   1      33.375  21.993  26.894  1.00  0.00     0.266 S 
ATOM     17  O   UNL A   1      32.741  22.357  28.144  1.00  0.00    -0.201 OA
ATOM     18  O   UNL A   1      34.727  21.467  26.903  1.00  0.00    -0.201 OA
BRANCH  16  19
ATOM     19  N   UNL A   1      32.491  20.771  26.147  1.00  0.00    -0.262 N 
ATOM     20  H   UNL A   1      31.518  20.891  26.062  1.00  0.00     0.182 HD
BRANCH  19  21
ATOM     21  C   UNL A   1      33.048  19.606  25.645  1.00  0.00     0.161 A 
ATOM     22  C   UNL A   1      32.905  16.161  25.090  1.00  0.00     0.173 C 
ATOM     23  N   UNL A   1      33.244  17.564  25.121  1.00  0.00    -0.274 N 
ATOM     24  C   UNL A   1      34.173  18.195  24.353  1.00  0.00     0.110 A 
ATOM     25  N   UNL A   1      32.544  18.403  25.904  1.00  0.00    -0.155 NA
ATOM     26  C   UNL A   1      34.064  19.531  24.665  1.00  0.00     0.069 A 
ENDBRANCH  19  21
ENDBRANCH  16  19
ENDBRANCH  10  16
ENDBRANCH   7   9
ENDBRANCH   6   7
ENDBRANCH   5   6
ENDBRANCH   4   5
ENDBRANCH   3   4
ENDBRANCH   2   3
ENDBRANCH   1   2
BRANCH   1  27
ATOM     27  O   UNL A   1      34.825  31.664  27.258  1.00  0.00    -0.377 OA
BRANCH  27  28
ATOM     28  C   UNL A   1      35.731  32.162  28.237  1.00  0.00     0.188 C 
BRANCH  28  29
ATOM     29  C   UNL A   1      35.336  33.222  29.290  1.00  0.00     0.188 C 
BRANCH  29  30
ATOM     30  O   UNL A   1      34.019  33.740  29.168  1.00  0.00    -0.376 OA
BRANCH  30  31
ATOM     31  C   UNL A   1      33.915  35.095  28.752  1.00  0.00     0.202 C 
BRANCH  31  32
ATOM     32  C   UNL A   1      32.952  35.908  29.623  1.00  0.00     0.261 C 
BRANCH  32  33
ATOM     33  O   UNL A   1      32.412  35.184  30.739  1.00  0.00    -0.460 OA
BRANCH  33  34
ATOM     34  C   UNL A   1      32.639  35.699  31.967  1.00  0.00     0.338 C 
ATOM     35  O   UNL A   1      31.935  36.475  32.587  1.00  0.00    -0.246 OA
BRANCH  34  36
ATOM     36  C   UNL A   1      33.815  35.008  32.531  1.00  0.00     0.060 A 
ATOM     37  C   UNL A   1      35.051  35.667  32.523  1.00  0.00     0.016 A 
ATOM     38  C   UNL A   1      33.689  33.736  33.096  1.00  0.00     0.016 A 
ATOM     39  C   UNL A   1      36.176  35.037  33.054  1.00  0.00     0.010 A 
ATOM     40  C   UNL A   1      34.818  33.099  33.609  1.00  0.00     0.010 A 
ATOM     41  C   UNL A   1      36.071  33.733  33.560  1.00  0.00    -0.014 A 
BRANCH  41  42
ATOM     42  C   UNL A   1      37.295  32.946  33.832  1.00  0.00     0.031 A 
ATOM     43  C   UNL A   1      38.045  33.233  35.102  1.00  0.00     0.074 A 
ATOM     44  C   UNL A   1      37.733  32.003  32.980  1.00  0.00     0.049 A 
ATOM     45  N   UNL A   1      39.166  32.722  35.539  1.00  0.00    -0.248 NA
ATOM     46  C   UNL A   1      37.447  34.233  36.004  1.00  0.00     0.031 C 
ATOM     47  C   UNL A   1      37.072  31.611  31.739  1.00  0.00     0.029 A 
ATOM     48  N   UNL A   1      38.851  31.208  33.035  1.00  0.00    -0.354 N 
ATOM     49  C   UNL A   1      39.404  33.335  36.762  1.00  0.00     0.074 A 
ATOM     50  C   UNL A   1      38.330  34.275  36.989  1.00  0.00     0.031 C 
ATOM     51  C   UNL A   1      37.805  30.654  31.141  1.00  0.00     0.029 A 
ATOM     52  C   UNL A   1      38.999  30.389  31.943  1.00  0.00     0.049 A 
ATOM     53  H   UNL A   1      39.488  31.224  33.787  1.00  0.00     0.167 HD
ATOM     54  C   UNL A   1      40.424  33.123  37.624  1.00  0.00     0.037 A 
ATOM     55  C   UNL A   1      39.998  29.541  31.623  1.00  0.00     0.037 A 
ATOM     56  C   UNL A   1      41.497  32.195  37.395  1.00  0.00     0.049 A 
ATOM     57  C   UNL A   1      41.167  29.383  32.565  1.00  0.00     0.074 A 
ATOM     58  C   UNL A   1      42.573  31.907  38.213  1.00  0.00     0.029 A 
ATOM     59  N   UNL A   1      41.628  31.409  36.261  1.00  0.00    -0.354 N 
ATOM     60  N   UNL A   1      41.374  29.949  33.730  1.00  0.00    -0.248 NA
ATOM     61  C   UNL A   1      42.241  28.470  32.147  1.00  0.00     0.031 C 
ATOM     62  C   UNL A   1      43.383  30.981  37.554  1.00  0.00     0.029 A 
ATOM     63  C   UNL A   1      42.783  30.652  36.349  1.00  0.00     0.049 A 
ATOM     64  H   UNL A   1      40.996  31.392  35.506  1.00  0.00     0.167 HD
ATOM     65  C   UNL A   1      42.582  29.443  34.193  1.00  0.00     0.074 A 
ATOM     66  C   UNL A   1      43.060  28.516  33.190  1.00  0.00     0.031 C 
ATOM     67  C   UNL A   1      43.236  29.720  35.347  1.00  0.00     0.037 A 
BRANCH  54  68
ATOM     68  C   UNL A   1      40.440  33.915  38.894  1.00  0.00     0.064 A 
ATOM     69  C   UNL A   1      39.689  33.497  40.002  1.00  0.00     0.173 A 
ATOM     70  C   UNL A   1      41.140  35.126  38.991  1.00  0.00     0.173 A 
ATOM     71  F   UNL A   1      39.004  32.344  39.956  1.00  0.00    -0.203 F 
ATOM     72  C   UNL A   1      39.621  34.274  41.154  1.00  0.00     0.198 A 
ATOM     73  C   UNL A   1      41.090  35.889  40.153  1.00  0.00     0.198 A 
ATOM     74  F   UNL A   1      41.888  35.557  37.963  1.00  0.00    -0.203 F 
ATOM     75  F   UNL A   1      38.871  33.871  42.188  1.00  0.00    -0.200 F 
ATOM     76  C   UNL A   1      40.322  35.468  41.230  1.00  0.00     0.200 A 
ATOM     77  F   UNL A   1      41.786  37.032  40.234  1.00  0.00    -0.200 F 
ATOM     78  F   UNL A   1      40.257  36.214  42.341  1.00  0.00    -0.200 F 
ENDBRANCH  54  68
BRANCH  55  79
ATOM     79  C   UNL A   1      39.943  28.775  30.351  1.00  0.00     0.064 A 
ATOM     80  C   UNL A   1      39.391  27.486  30.298  1.00  0.00     0.173 A 
ATOM     81  C   UNL A   1      40.428  29.325  29.155  1.00  0.00     0.173 A 
ATOM     82  F   UNL A   1      38.907  26.918  31.412  1.00  0.00    -0.203 F 
ATOM     83  C   UNL A   1      39.340  26.773  29.103  1.00  0.00     0.198 A 
ATOM     84  C   UNL A   1      40.352  28.620  27.955  1.00  0.00     0.198 A 
ATOM     85  F   UNL A   1      40.938  30.565  29.148  1.00  0.00    -0.203 F 
ATOM     86  F   UNL A   1      38.827  25.534  29.086  1.00  0.00    -0.200 F 
ATOM     87  C   UNL A   1      39.814  27.342  27.931  1.00  0.00     0.200 A 
ATOM     88  F   UNL A   1      40.784  29.186  26.820  1.00  0.00    -0.200 F 
ATOM     89  F   UNL A   1      39.745  26.663  26.778  1.00  0.00    -0.200 F 
ENDBRANCH  55  79
BRANCH  67  90
ATOM     90  C   UNL A   1      44.523  29.001  35.619  1.00  0.00     0.064 A 
ATOM     91  C   UNL A   1      44.523  27.795  36.340  1.00  0.00     0.173 A 
ATOM     92  C   UNL A   1      45.761  29.552  35.260  1.00  0.00     0.173 A 
ATOM     93  F   UNL A   1      43.364  27.235  36.717  1.00  0.00    -0.203 F 
ATOM     94  C   UNL A   1      45.715  27.181  36.708  1.00  0.00     0.198 A 
ATOM     95  C   UNL A   1      46.953  28.919  35.607  1.00  0.00     0.198 A 
ATOM     96  F   UNL A   1      45.814  30.697  34.563  1.00  0.00    -0.203 F 
ATOM     97  F   UNL A   1      45.691  26.054  37.433  1.00  0.00    -0.200 F 
ATOM     98  C   UNL A   1      46.929  27.742  36.341  1.00  0.00     0.200 A 
ATOM     99  F   UNL A   1      48.124  29.451  35.235  1.00  0.00    -0.200 F 
ATOM    100  F   UNL A   1      48.077  27.147  36.694  1.00  0.00    -0.200 F 
ENDBRANCH  67  90
ENDBRANCH  41  42
ENDBRANCH  34  36
ENDBRANCH  33  34
ENDBRANCH  32  33
ENDBRANCH  31  32
ENDBRANCH  30  31
ENDBRANCH  29  30
ENDBRANCH  28  29
ENDBRANCH  27  28
ENDBRANCH   1  27
TORSDOF 23
ENDMDL
MODEL 2
REMARK VINA RESULT:     -10.3      1.611      7.370
REMARK SMILES Cn1ccc(NS(=O)(=O)c2cc(C(=O)OCCOCCOCCOCCOC(=O)c3ccc(-c4c5nc(c(-c6c(F)c(F)c(F)c(F)c6F)c6ccc([nH]6)c(-c6c(F)c(F)c(F)c(F)c6F)c6nc(c(-c7c(F)c(F)c(F)c(F)c7F)c7ccc4[nH]7)C=C6)C=C5)cc3)ccc2F)n1
REMARK SMILES IDX 20 1 19 2 18 3 17 4 16 5 15 6 13 7 14 8 12 9 10 10 11 11
REMARK SMILES IDX 95 12 94 13 96 14 93 15 7 16 8 17 9 18 6 19 5 21 1 22 2 23
REMARK SMILES IDX 3 24 97 25 4 26 21 27 22 28 23 29 24 30 25 31 26 32 27 33
REMARK SMILES IDX 28 34 29 35 30 36 31 37 92 38 32 39 91 40 33 41 34 42 35 43
REMARK SMILES IDX 85 44 36 45 90 46 84 47 86 48 37 49 89 50 83 51 82 52 38 54
REMARK SMILES IDX 70 55 50 56 69 57 51 58 54 59 68 60 87 61 52 62 53 63 67 65
REMARK SMILES IDX 88 66 55 67 39 68 40 69 48 70 41 71 42 72 46 73 49 74 43 75
REMARK SMILES IDX 44 76 47 77 45 78 71 79 72 80 80 81 73 82 74 83 78 84 81 85
REMARK SMILES IDX 75 86 76 87 79 88 77 89 56 90 57 91 65 92 58 93 59 94 63 95
REMARK SMILES IDX 66 96 60 97 61 98 64 99 62 100
REMARK H PARENT 6 20 86 53 54 64
REMARK Flexibility Score: inf
ROOT
ATOM      1  C   UNL A   1      31.629  26.931  26.692  1.00  0.00     0.188 C 
ENDROOT
BRANCH   1   2
ATOM      2  C   UNL A   1      31.529  25.486  26.185  1.00  0.00     0.188 C 
BRANCH   2   3
ATOM      3  O   UNL A   1      30.415  25.239  25.330  1.00  0.00    -0.376 OA
BRANCH   3   4
ATOM      4  C   UNL A   1      30.252  26.129  24.231  1.00  0.00     0.202 C 
BRANCH   4   5
ATOM      5  C   UNL A   1      30.939  25.715  22.923  1.00  0.00     0.261 C 
BRANCH   5   6
ATOM      6  O   UNL A   1      32.373  25.803  22.959  1.00  0.00    -0.460 OA
BRANCH   6   7
ATOM      7  C   UNL A   1      33.057  24.975  22.135  1.00  0.00     0.338 C 
ATOM      8  O   UNL A   1      33.235  25.122  20.939  1.00  0.00    -0.246 OA
BRANCH   7   9
ATOM      9  C   UNL A   1      33.768  23.989  22.985  1.00  0.00     0.061 A 
ATOM     10  C   UNL A   1      33.597  21.971  24.325  1.00  0.00     0.124 A 
ATOM     11  C   UNL A   1      32.995  23.068  23.699  1.00  0.00     0.041 A 
ATOM     12  C   UNL A   1      34.985  21.884  24.351  1.00  0.00     0.143 A 
ATOM     13  C   UNL A   1      35.767  22.847  23.703  1.00  0.00     0.041 A 
ATOM     14  F   UNL A   1      35.626  20.906  25.003  1.00  0.00    -0.205 F 
ATOM     15  C   UNL A   1      35.163  23.887  22.994  1.00  0.00     0.019 A 
BRANCH  10  16
ATOM     16  S   UNL A   1      32.577  20.804  25.174  1.00  0.00     0.266 S 
ATOM     17  O   UNL A   1      31.282  21.416  25.382  1.00  0.00    -0.201 OA
ATOM     18  O   UNL A   1      33.316  20.286  26.310  1.00  0.00    -0.201 OA
BRANCH  16  19
ATOM     19  N   UNL A   1      32.413  19.459  24.176  1.00  0.00    -0.262 N 
ATOM     20  H   UNL A   1      31.923  19.570  23.329  1.00  0.00     0.182 HD
BRANCH  19  21
ATOM     21  C   UNL A   1      32.925  18.206  24.470  1.00  0.00     0.161 A 
ATOM     22  C   UNL A   1      32.478  14.918  25.555  1.00  0.00     0.173 C 
ATOM     23  N   UNL A   1      32.982  16.168  25.039  1.00  0.00    -0.274 N 
ATOM     24  C   UNL A   1      34.166  16.368  24.400  1.00  0.00     0.110 A 
ATOM     25  N   UNL A   1      32.210  17.268  25.083  1.00  0.00    -0.155 NA
ATOM     26  C   UNL A   1      34.157  17.688  24.009  1.00  0.00     0.069 A 
ENDBRANCH  19  21
ENDBRANCH  16  19
ENDBRANCH  10  16
ENDBRANCH   7   9
ENDBRANCH   6   7
ENDBRANCH   5   6
ENDBRANCH   4   5
ENDBRANCH   3   4
ENDBRANCH   2   3
ENDBRANCH   1   2
BRANCH   1  27
ATOM     27  O   UNL A   1      32.324  27.847  25.866  1.00  0.00    -0.377 OA
BRANCH  27  28
ATOM     28  C   UNL A   1      31.734  29.108  25.572  1.00  0.00     0.188 C 
BRANCH  28  29
ATOM     29  C   UNL A   1      32.224  30.435  26.195  1.00  0.00     0.188 C 
BRANCH  29  30
ATOM     30  O   UNL A   1      33.510  30.385  26.799  1.00  0.00    -0.376 OA
BRANCH  30  31
ATOM     31  C   UNL A   1      33.837  31.463  27.666  1.00  0.00     0.202 C 
BRANCH  31  32
ATOM     32  C   UNL A   1      32.767  32.559  27.675  1.00  0.00     0.261 C 
BRANCH  32  33
ATOM     33  O   UNL A   1      33.288  33.893  27.577  1.00  0.00    -0.460 OA
BRANCH  33  34
ATOM     34  C   UNL A   1      33.297  34.629  28.710  1.00  0.00     0.338 C 
ATOM     35  O   UNL A   1      32.427  35.377  29.115  1.00  0.00    -0.246 OA
BRANCH  34  36
ATOM     36  C   UNL A   1      34.481  34.227  29.494  1.00  0.00     0.060 A 
ATOM     37  C   UNL A   1      35.753  34.428  28.944  1.00  0.00     0.016 A 
ATOM     38  C   UNL A   1      34.337  33.691  30.777  1.00  0.00     0.016 A 
ATOM     39  C   UNL A   1      36.888  34.061  29.666  1.00  0.00     0.010 A 
ATOM     40  C   UNL A   1      35.471  33.305  31.490  1.00  0.00     0.010 A 
ATOM     41  C   UNL A   1      36.748  33.458  30.925  1.00  0.00    -0.014 A 
BRANCH  41  42
ATOM     42  C   UNL A   1      37.907  32.787  31.555  1.00  0.00     0.031 A 
ATOM     43  C   UNL A   1      38.508  31.609  30.842  1.00  0.00     0.074 A 
ATOM     44  C   UNL A   1      38.416  33.207  32.726  1.00  0.00     0.049 A 
ATOM     45  N   UNL A   1      39.486  30.824  31.210  1.00  0.00    -0.248 NA
ATOM     46  C   UNL A   1      37.925  31.271  29.531  1.00  0.00     0.031 C 
ATOM     47  C   UNL A   1      37.944  34.357  33.492  1.00  0.00     0.029 A 
ATOM     48  N   UNL A   1      39.447  32.699  33.479  1.00  0.00    -0.354 N 
ATOM     49  C   UNL A   1      39.636  29.906  30.180  1.00  0.00     0.074 A 
ATOM     50  C   UNL A   1      38.634  30.208  29.184  1.00  0.00     0.031 C 
ATOM     51  C   UNL A   1      38.677  34.462  34.614  1.00  0.00     0.029 A 
ATOM     52  C   UNL A   1      39.649  33.369  34.659  1.00  0.00     0.049 A 
ATOM     53  H   UNL A   1      39.989  31.926  33.198  1.00  0.00     0.167 HD
ATOM     54  C   UNL A   1      40.538  28.904  30.072  1.00  0.00     0.037 A 
ATOM     55  C   UNL A   1      40.508  33.113  35.667  1.00  0.00     0.037 A 
ATOM     56  C   UNL A   1      41.529  28.597  31.066  1.00  0.00     0.049 A 
ATOM     57  C   UNL A   1      41.450  31.939  35.558  1.00  0.00     0.074 A 
ATOM     58  C   UNL A   1      42.490  27.604  31.043  1.00  0.00     0.029 A 
ATOM     59  N   UNL A   1      41.679  29.279  32.263  1.00  0.00    -0.354 N 
ATOM     60  N   UNL A   1      41.601  31.088  34.571  1.00  0.00    -0.248 NA
ATOM     61  C   UNL A   1      42.339  31.688  36.702  1.00  0.00     0.031 C 
ATOM     62  C   UNL A   1      43.194  27.654  32.248  1.00  0.00     0.029 A 
ATOM     63  C   UNL A   1      42.706  28.711  32.998  1.00  0.00     0.049 A 
ATOM     64  H   UNL A   1      41.137  30.050  32.549  1.00  0.00     0.167 HD
ATOM     65  C   UNL A   1      42.615  30.223  34.962  1.00  0.00     0.074 A 
ATOM     66  C   UNL A   1      43.052  30.654  36.272  1.00  0.00     0.031 C 
ATOM     67  C   UNL A   1      43.138  29.166  34.295  1.00  0.00     0.037 A 
BRANCH  54  68
ATOM     68  C   UNL A   1      40.493  28.055  28.839  1.00  0.00     0.064 A 
ATOM     69  C   UNL A   1      39.760  26.860  28.826  1.00  0.00     0.173 A 
ATOM     70  C   UNL A   1      41.232  28.390  27.696  1.00  0.00     0.173 A 
ATOM     71  F   UNL A   1      39.036  26.500  29.896  1.00  0.00    -0.203 F 
ATOM     72  C   UNL A   1      39.787  26.018  27.719  1.00  0.00     0.198 A 
ATOM     73  C   UNL A   1      41.238  27.557  26.581  1.00  0.00     0.198 A 
ATOM     74  F   UNL A   1      41.933  29.534  27.655  1.00  0.00    -0.203 F 
ATOM     75  F   UNL A   1      39.106  24.865  27.740  1.00  0.00    -0.200 F 
ATOM     76  C   UNL A   1      40.525  26.367  26.598  1.00  0.00     0.200 A 
ATOM     77  F   UNL A   1      41.933  27.906  25.489  1.00  0.00    -0.200 F 
ATOM     78  F   UNL A   1      40.549  25.555  25.531  1.00  0.00    -0.200 F 
ENDBRANCH  54  68
BRANCH  55  79
ATOM     79  C   UNL A   1      40.518  33.980  36.874  1.00  0.00     0.064 A 
ATOM     80  C   UNL A   1      39.640  33.750  37.944  1.00  0.00     0.173 A 
ATOM     81  C   UNL A   1      41.418  35.048  36.989  1.00  0.00     0.173 A 
ATOM     82  F   UNL A   1      38.764  32.737  37.888  1.00  0.00    -0.203 F 
ATOM     83  C   UNL A   1      39.653  34.564  39.075  1.00  0.00     0.198 A 
ATOM     84  C   UNL A   1      41.449  35.846  38.132  1.00  0.00     0.198 A 
ATOM     85  F   UNL A   1      42.297  35.290  36.006  1.00  0.00    -0.203 F 
ATOM     86  F   UNL A   1      38.788  34.335  40.073  1.00  0.00    -0.200 F 
ATOM     87  C   UNL A   1      40.561  35.607  39.171  1.00  0.00     0.200 A 
ATOM     88  F   UNL A   1      42.348  36.834  38.233  1.00  0.00    -0.200 F 
ATOM     89  F   UNL A   1      40.587  36.377  40.267  1.00  0.00    -0.200 F 
ENDBRANCH  55  79
BRANCH  67  90
ATOM     90  C   UNL A   1      44.263  28.410  34.940  1.00  0.00     0.064 A 
ATOM     91  C   UNL A   1      43.991  27.326  35.790  1.00  0.00     0.173 A 
ATOM     92  C   UNL A   1      45.595  28.821  34.802  1.00  0.00     0.173 A 
ATOM     93  F   UNL A   1      42.731  26.904  35.965  1.00  0.00    -0.203 F 
ATOM     94  C   UNL A   1      45.012  26.695  36.494  1.00  0.00     0.198 A 
ATOM     95  C   UNL A   1      46.618  28.169  35.487  1.00  0.00     0.198 A 
ATOM     96  F   UNL A   1      45.907  29.846  33.995  1.00  0.00    -0.203 F 
ATOM     97  F   UNL A   1      44.725  25.690  37.332  1.00  0.00    -0.200 F 
ATOM     98  C   UNL A   1      46.324  27.115  36.341  1.00  0.00     0.200 A 
ATOM     99  F   UNL A   1      47.888  28.562  35.324  1.00  0.00    -0.200 F 
ATOM    100  F   UNL A   1      47.308  26.504  37.017  1.00  0.00    -0.200 F 
ENDBRANCH  67  90
ENDBRANCH  41  42
ENDBRANCH  34  36
ENDBRANCH  33  34
ENDBRANCH  32  33
ENDBRANCH  31  32
ENDBRANCH  30  31
ENDBRANCH  29  30
ENDBRANCH  28  29
ENDBRANCH  27  28
ENDBRANCH   1  27
TORSDOF 23
ENDMDL
MODEL 3
REMARK VINA RESULT:     -10.2      0.576      7.119
REMARK SMILES Cn1ccc(NS(=O)(=O)c2cc(C(=O)OCCOCCOCCOCCOC(=O)c3ccc(-c4c5nc(c(-c6c(F)c(F)c(F)c(F)c6F)c6ccc([nH]6)c(-c6c(F)c(F)c(F)c(F)c6F)c6nc(c(-c7c(F)c(F)c(F)c(F)c7F)c7ccc4[nH]7)C=C6)C=C5)cc3)ccc2F)n1
REMARK SMILES IDX 20 1 19 2 18 3 17 4 16 5 15 6 13 7 14 8 12 9 10 10 11 11
REMARK SMILES IDX 95 12 94 13 96 14 93 15 7 16 8 17 9 18 6 19 5 21 1 22 2 23
REMARK SMILES IDX 3 24 97 25 4 26 21 27 22 28 23 29 24 30 25 31 26 32 27 33
REMARK SMILES IDX 28 34 29 35 30 36 31 37 92 38 32 39 91 40 33 41 34 42 35 43
REMARK SMILES IDX 85 44 36 45 90 46 84 47 86 48 37 49 89 50 83 51 82 52 38 54
REMARK SMILES IDX 70 55 50 56 69 57 51 58 54 59 68 60 87 61 52 62 53 63 67 65
REMARK SMILES IDX 88 66 55 67 39 68 40 69 48 70 41 71 42 72 46 73 49 74 43 75
REMARK SMILES IDX 44 76 47 77 45 78 71 79 72 80 80 81 73 82 74 83 78 84 81 85
REMARK SMILES IDX 75 86 76 87 79 88 77 89 56 90 57 91 65 92 58 93 59 94 63 95
REMARK SMILES IDX 66 96 60 97 61 98 64 99 62 100
REMARK H PARENT 6 20 86 53 54 64
REMARK Flexibility Score: inf
ROOT
ATOM      1  C   UNL A   1      33.290  31.089  27.500  1.00  0.00     0.188 C 
ENDROOT
BRANCH   1   2
ATOM      2  C   UNL A   1      33.248  30.007  26.412  1.00  0.00     0.188 C 
BRANCH   2   3
ATOM      3  O   UNL A   1      31.982  29.865  25.772  1.00  0.00    -0.376 OA
BRANCH   3   4
ATOM      4  C   UNL A   1      31.934  28.988  24.652  1.00  0.00     0.202 C 
BRANCH   4   5
ATOM      5  C   UNL A   1      30.685  28.105  24.543  1.00  0.00     0.261 C 
BRANCH   5   6
ATOM      6  O   UNL A   1      30.954  26.695  24.611  1.00  0.00    -0.460 OA
BRANCH   6   7
ATOM      7  C   UNL A   1      31.600  26.248  25.713  1.00  0.00     0.338 C 
ATOM      8  O   UNL A   1      31.261  26.411  26.872  1.00  0.00    -0.246 OA
BRANCH   7   9
ATOM      9  C   UNL A   1      32.655  25.310  25.261  1.00  0.00     0.061 A 
ATOM     10  C   UNL A   1      33.602  23.081  25.447  1.00  0.00     0.124 A 
ATOM     11  C   UNL A   1      32.799  24.106  25.959  1.00  0.00     0.041 A 
ATOM     12  C   UNL A   1      34.369  23.324  24.312  1.00  0.00     0.143 A 
ATOM     13  C   UNL A   1      34.287  24.556  23.652  1.00  0.00     0.041 A 
ATOM     14  F   UNL A   1      35.220  22.416  23.819  1.00  0.00    -0.205 F 
ATOM     15  C   UNL A   1      33.410  25.543  24.106  1.00  0.00     0.019 A 
BRANCH  10  16
ATOM     16  S   UNL A   1      33.716  21.559  26.336  1.00  0.00     0.266 S 
ATOM     17  O   UNL A   1      33.225  21.791  27.678  1.00  0.00    -0.201 OA
ATOM     18  O   UNL A   1      35.045  21.010  26.145  1.00  0.00    -0.201 OA
BRANCH  16  19
ATOM     19  N   UNL A   1      32.724  20.445  25.556  1.00  0.00    -0.262 N 
ATOM     20  H   UNL A   1      31.838  20.749  25.254  1.00  0.00     0.182 HD
BRANCH  19  21
ATOM     21  C   UNL A   1      33.076  19.128  25.312  1.00  0.00     0.161 A 
ATOM     22  C   UNL A   1      32.538  15.706  25.750  1.00  0.00     0.173 C 
ATOM     23  N   UNL A   1      32.997  17.013  25.344  1.00  0.00    -0.274 N 
ATOM     24  C   UNL A   1      33.819  17.299  24.298  1.00  0.00     0.110 A 
ATOM     25  N   UNL A   1      32.527  18.109  25.965  1.00  0.00    -0.155 NA
ATOM     26  C   UNL A   1      33.886  18.673  24.246  1.00  0.00     0.069 A 
ENDBRANCH  19  21
ENDBRANCH  16  19
ENDBRANCH  10  16
ENDBRANCH   7   9
ENDBRANCH   6   7
ENDBRANCH   5   6
ENDBRANCH   4   5
ENDBRANCH   3   4
ENDBRANCH   2   3
ENDBRANCH   1   2
BRANCH   1  27
ATOM     27  O   UNL A   1      34.120  32.207  27.251  1.00  0.00    -0.377 OA
BRANCH  27  28
ATOM     28  C   UNL A   1      35.078  32.598  28.229  1.00  0.00     0.188 C 
BRANCH  28  29
ATOM     29  C   UNL A   1      34.694  33.282  29.560  1.00  0.00     0.188 C 
BRANCH  29  30
ATOM     30  O   UNL A   1      33.395  33.857  29.597  1.00  0.00    -0.376 OA
BRANCH  30  31
ATOM     31  C   UNL A   1      33.294  35.206  29.160  1.00  0.00     0.202 C 
BRANCH  31  32
ATOM     32  C   UNL A   1      32.542  36.094  30.156  1.00  0.00     0.261 C 
BRANCH  32  33
ATOM     33  O   UNL A   1      32.237  35.454  31.404  1.00  0.00    -0.460 OA
BRANCH  33  34
ATOM     34  C   UNL A   1      32.877  35.918  32.500  1.00  0.00     0.338 C 
ATOM     35  O   UNL A   1      32.464  36.722  33.315  1.00  0.00    -0.246 OA
BRANCH  34  36
ATOM     36  C   UNL A   1      34.116  35.132  32.660  1.00  0.00     0.060 A 
ATOM     37  C   UNL A   1      34.029  33.836  33.185  1.00  0.00     0.016 A 
ATOM     38  C   UNL A   1      35.348  35.656  32.259  1.00  0.00     0.016 A 
ATOM     39  C   UNL A   1      35.184  33.072  33.341  1.00  0.00     0.010 A 
ATOM     40  C   UNL A   1      36.506  34.899  32.435  1.00  0.00     0.010 A 
ATOM     41  C   UNL A   1      36.432  33.617  33.006  1.00  0.00    -0.014 A 
BRANCH  41  42
ATOM     42  C   UNL A   1      37.674  32.949  33.454  1.00  0.00     0.031 A 
ATOM     43  C   UNL A   1      38.253  31.880  32.570  1.00  0.00     0.074 A 
ATOM     44  C   UNL A   1      38.276  33.277  34.610  1.00  0.00     0.049 A 
ATOM     45  N   UNL A   1      39.295  31.114  32.764  1.00  0.00    -0.248 NA
ATOM     46  C   UNL A   1      37.561  31.643  31.291  1.00  0.00     0.031 C 
ATOM     47  C   UNL A   1      37.832  34.319  35.531  1.00  0.00     0.029 A 
ATOM     48  N   UNL A   1      39.395  32.751  35.208  1.00  0.00    -0.354 N 
ATOM     49  C   UNL A   1      39.383  30.311  31.635  1.00  0.00     0.074 A 
ATOM     50  C   UNL A   1      38.278  30.659  30.771  1.00  0.00     0.031 C 
ATOM     51  C   UNL A   1      38.665  34.351  36.586  1.00  0.00     0.029 A 
ATOM     52  C   UNL A   1      39.682  33.310  36.429  1.00  0.00     0.049 A 
ATOM     53  H   UNL A   1      39.940  32.039  34.801  1.00  0.00     0.167 HD
ATOM     54  C   UNL A   1      40.313  29.374  31.342  1.00  0.00     0.037 A 
ATOM     55  C   UNL A   1      40.645  33.001  37.321  1.00  0.00     0.037 A 
ATOM     56  C   UNL A   1      41.407  29.022  32.203  1.00  0.00     0.049 A 
ATOM     57  C   UNL A   1      41.621  31.894  37.005  1.00  0.00     0.074 A 
ATOM     58  C   UNL A   1      42.403  28.088  31.989  1.00  0.00     0.029 A 
ATOM     59  N   UNL A   1      41.643  29.589  33.446  1.00  0.00    -0.354 N 
ATOM     60  N   UNL A   1      41.712  31.154  35.926  1.00  0.00    -0.248 NA
ATOM     61  C   UNL A   1      42.626  31.578  38.030  1.00  0.00     0.031 C 
ATOM     62  C   UNL A   1      43.217  28.054  33.123  1.00  0.00     0.029 A 
ATOM     63  C   UNL A   1      42.759  29.006  34.020  1.00  0.00     0.049 A 
ATOM     64  H   UNL A   1      41.099  30.298  33.858  1.00  0.00     0.167 HD
ATOM     65  C   UNL A   1      42.795  30.308  36.130  1.00  0.00     0.074 A 
ATOM     66  C   UNL A   1      43.338  30.631  37.432  1.00  0.00     0.031 C 
ATOM     67  C   UNL A   1      43.296  29.351  35.312  1.00  0.00     0.037 A 
BRANCH  54  68
ATOM     68  C   UNL A   1      40.185  28.650  30.037  1.00  0.00     0.064 A 
ATOM     69  C   UNL A   1      39.518  27.418  29.970  1.00  0.00     0.173 A 
ATOM     70  C   UNL A   1      40.783  29.142  28.868  1.00  0.00     0.173 A 
ATOM     71  F   UNL A   1      38.929  26.909  31.063  1.00  0.00    -0.203 F 
ATOM     72  C   UNL A   1      39.475  26.693  28.783  1.00  0.00     0.198 A 
ATOM     73  C   UNL A   1      40.717  28.426  27.677  1.00  0.00     0.198 A 
ATOM     74  F   UNL A   1      41.414  30.326  28.879  1.00  0.00    -0.203 F 
ATOM     75  F   UNL A   1      38.862  25.503  28.750  1.00  0.00    -0.200 F 
ATOM     76  C   UNL A   1      40.073  27.197  27.638  1.00  0.00     0.200 A 
ATOM     77  F   UNL A   1      41.275  28.924  26.565  1.00  0.00    -0.200 F 
ATOM     78  F   UNL A   1      40.029  26.498  26.495  1.00  0.00    -0.200 F 
ENDBRANCH  54  68
BRANCH  55  79
ATOM     79  C   UNL A   1      40.734  33.743  38.605  1.00  0.00     0.064 A 
ATOM     80  C   UNL A   1      41.598  34.839  38.756  1.00  0.00     0.173 A 
ATOM     81  C   UNL A   1      39.943  33.383  39.705  1.00  0.00     0.173 A 
ATOM     82  F   UNL A   1      42.371  35.229  37.732  1.00  0.00    -0.203 F 
ATOM     83  C   UNL A   1      41.678  35.533  39.961  1.00  0.00     0.198 A 
ATOM     84  C   UNL A   1      40.004  34.095  40.902  1.00  0.00     0.198 A 
ATOM     85  F   UNL A   1      39.080  32.362  39.602  1.00  0.00    -0.203 F 
ATOM     86  F   UNL A   1      42.528  36.562  40.083  1.00  0.00    -0.200 F 
ATOM     87  C   UNL A   1      40.876  35.166  41.030  1.00  0.00     0.200 A 
ATOM     88  F   UNL A   1      39.207  33.755  41.923  1.00  0.00    -0.200 F 
ATOM     89  F   UNL A   1      40.938  35.848  42.182  1.00  0.00    -0.200 F 
ENDBRANCH  55  79
BRANCH  67  90
ATOM     90  C   UNL A   1      44.508  28.596  35.770  1.00  0.00     0.064 A 
ATOM     91  C   UNL A   1      45.794  29.043  35.425  1.00  0.00     0.173 A 
ATOM     92  C   UNL A   1      44.397  27.379  36.456  1.00  0.00     0.173 A 
ATOM     93  F   UNL A   1      45.951  30.195  34.757  1.00  0.00    -0.203 F 
ATOM     94  C   UNL A   1      46.921  28.289  35.733  1.00  0.00     0.198 A 
ATOM     95  C   UNL A   1      45.531  26.640  36.787  1.00  0.00     0.198 A 
ATOM     96  F   UNL A   1      43.192  26.913  36.816  1.00  0.00    -0.203 F 
ATOM     97  F   UNL A   1      48.135  28.715  35.357  1.00  0.00    -0.200 F 
ATOM     98  C   UNL A   1      46.789  27.089  36.415  1.00  0.00     0.200 A 
ATOM     99  F   UNL A   1      45.405  25.490  37.464  1.00  0.00    -0.200 F 
ATOM    100  F   UNL A   1      47.877  26.365  36.714  1.00  0.00    -0.200 F 
ENDBRANCH  67  90
ENDBRANCH  41  42
ENDBRANCH  34  36
ENDBRANCH  33  34
ENDBRANCH  32  33
ENDBRANCH  31  32
ENDBRANCH  30  31
ENDBRANCH  29  30
ENDBRANCH  28  29
ENDBRANCH  27  28
ENDBRANCH   1  27
TORSDOF 23
ENDMDL
