MODEL 1
REMARK VINA RESULT:      -9.4      0.000      0.000
REMARK SMILES COC(=O)C[C@@H](NC(=O)c1ccccc1C(=O)OCCOCCOCCOCCOC(=O)c1ccc(-c2c3nc(c(-c4c(F)c(F)c(F)c(F)c4F)c4ccc([nH]4)c(-c4c(F)c(F)c(F)c(F)c4F)c4nc(c(-c5c(F)c(F)c(F)c(F)c5F)c5ccc2[nH]5)C=C4)C=C3)cc1)c1cccc(C)c1C
REMARK SMILES IDX 22 1 21 2 20 3 19 4 18 5 16 6 17 7 15 8 10 9 11 10 12 11
REMARK SMILES IDX 14 12 13 13 8 14 7 15 9 17 6 18 5 19 3 20 4 21 2 22 1 23
REMARK SMILES IDX 96 24 97 25 102 26 98 27 100 28 103 29 99 30 101 31 23 32
REMARK SMILES IDX 24 33 25 34 26 35 27 36 28 37 29 38 30 39 31 40 32 41 33 42
REMARK SMILES IDX 34 43 95 44 35 45 94 46 36 47 37 48 38 49 88 50 39 51 93 52
REMARK SMILES IDX 87 53 89 54 40 55 92 56 86 57 85 58 41 60 73 61 53 62 72 63
REMARK SMILES IDX 54 64 57 65 71 66 90 67 55 68 56 69 70 71 91 72 58 73 42 74
REMARK SMILES IDX 43 75 51 76 44 77 45 78 49 79 52 80 46 81 47 82 50 83 48 84
REMARK SMILES IDX 74 85 75 86 83 87 76 88 77 89 81 90 84 91 78 92 79 93 82 94
REMARK SMILES IDX 80 95 59 96 60 97 68 98 61 99 62 100 66 101 69 102 63 103
REMARK SMILES IDX 64 104 67 105 65 106
REMARK H PARENT 7 16 89 59 57 70
REMARK Flexibility Score: inf
ROOT
ATOM      1  C   UNL A   1      39.333  21.126  26.111  1.00  0.00     0.188 C 
ENDROOT
BRANCH   1   2
ATOM      2  O   UNL A   1      38.061  21.374  25.538  1.00  0.00    -0.376 OA
BRANCH   2   3
ATOM      3  C   UNL A   1      37.721  22.764  25.362  1.00  0.00     0.202 C 
BRANCH   3   4
ATOM      4  C   UNL A   1      36.573  23.435  26.157  1.00  0.00     0.261 C 
BRANCH   4   5
ATOM      5  O   UNL A   1      35.264  23.028  25.741  1.00  0.00    -0.460 OA
BRANCH   5   6
ATOM      6  C   UNL A   1      34.305  22.689  26.629  1.00  0.00     0.339 C 
ATOM      7  O   UNL A   1      34.631  22.588  27.809  1.00  0.00    -0.246 OA
BRANCH   6   8
ATOM      8  C   UNL A   1      32.654  22.549  26.094  1.00  0.00     0.072 A 
ATOM      9  C   UNL A   1      31.352  23.745  25.312  1.00  0.00     0.054 A 
ATOM     10  C   UNL A   1      30.875  23.426  23.566  1.00  0.00     0.015 A 
ATOM     11  C   UNL A   1      31.499  22.023  22.682  1.00  0.00     0.001 A 
ATOM     12  C   UNL A   1      33.164  21.085  25.101  1.00  0.00     0.016 A 
ATOM     13  C   UNL A   1      32.592  20.844  23.450  1.00  0.00     0.001 A 
BRANCH   9  14
ATOM     14  C   UNL A   1      30.894  25.332  25.192  1.00  0.00     0.252 C 
ATOM     15  N   UNL A   1      31.580  26.419  24.492  1.00  0.00    -0.345 N 
ATOM     16  H   UNL A   1      30.968  27.095  24.120  1.00  0.00     0.164 HD
ATOM     17  O   UNL A   1      29.751  25.585  25.595  1.00  0.00    -0.269 OA
BRANCH  15  18
ATOM     18  C   UNL A   1      33.091  26.725  24.215  1.00  0.00     0.124 C 
BRANCH  18  19
ATOM     19  C   UNL A   1      34.032  25.525  24.166  1.00  0.00     0.152 C 
BRANCH  19  20
ATOM     20  C   UNL A   1      34.020  24.972  22.755  1.00  0.00     0.307 C 
ATOM     21  O   UNL A   1      34.398  23.847  22.456  1.00  0.00    -0.252 OA
BRANCH  20  22
ATOM     22  O   UNL A   1      33.603  25.916  21.868  1.00  0.00    -0.469 OA
ATOM     23  C   UNL A   1      32.676  25.435  20.890  1.00  0.00     0.282 C 
ENDBRANCH  20  22
ENDBRANCH  19  20
ENDBRANCH  18  19
BRANCH  18  24
ATOM     24  C   UNL A   1      33.490  27.848  25.118  1.00  0.00    -0.022 A 
ATOM     25  C   UNL A   1      34.024  27.881  26.382  1.00  0.00     0.006 A 
ATOM     26  C   UNL A   1      32.934  29.011  24.670  1.00  0.00    -0.043 A 
ATOM     27  C   UNL A   1      33.703  28.936  27.253  1.00  0.00     0.001 A 
ATOM     28  C   UNL A   1      32.038  30.039  25.702  1.00  0.00    -0.048 A 
ATOM     29  C   UNL A   1      33.035  28.959  22.855  1.00  0.00     0.045 C 
ATOM     30  C   UNL A   1      32.686  29.896  26.996  1.00  0.00     0.004 A 
ATOM     31  C   UNL A   1      30.469  31.293  25.007  1.00  0.00     0.044 C 
ENDBRANCH  18  24
ENDBRANCH  15  18
ENDBRANCH   9  14
ENDBRANCH   6   8
ENDBRANCH   5   6
ENDBRANCH   4   5
ENDBRANCH   3   4
ENDBRANCH   2   3
ENDBRANCH   1   2
BRANCH   1  32
ATOM     32  C   UNL A   1      40.442  22.128  26.342  1.00  0.00     0.188 C 
BRANCH  32  33
ATOM     33  O   UNL A   1      41.572  21.976  25.483  1.00  0.00    -0.377 OA
BRANCH  33  34
ATOM     34  C   UNL A   1      42.824  22.311  26.073  1.00  0.00     0.188 C 
BRANCH  34  35
ATOM     35  C   UNL A   1      44.062  21.611  25.477  1.00  0.00     0.188 C 
BRANCH  35  36
ATOM     36  O   UNL A   1      44.663  22.293  24.386  1.00  0.00    -0.376 OA
BRANCH  36  37
ATOM     37  C   UNL A   1      45.990  22.784  24.551  1.00  0.00     0.202 C 
BRANCH  37  38
ATOM     38  C   UNL A   1      46.222  24.154  25.235  1.00  0.00     0.261 C 
BRANCH  38  39
ATOM     39  O   UNL A   1      45.587  25.287  24.625  1.00  0.00    -0.460 OA
BRANCH  39  40
ATOM     40  C   UNL A   1      46.186  26.477  24.808  1.00  0.00     0.338 C 
ATOM     41  O   UNL A   1      46.801  27.125  23.981  1.00  0.00    -0.246 OA
BRANCH  40  42
ATOM     42  C   UNL A   1      45.791  26.997  26.131  1.00  0.00     0.060 A 
ATOM     43  C   UNL A   1      44.422  27.104  26.412  1.00  0.00     0.016 A 
ATOM     44  C   UNL A   1      46.743  27.403  27.070  1.00  0.00     0.016 A 
ATOM     45  C   UNL A   1      43.998  27.672  27.605  1.00  0.00     0.010 A 
ATOM     46  C   UNL A   1      46.316  28.021  28.249  1.00  0.00     0.010 A 
ATOM     47  C   UNL A   1      44.943  28.205  28.489  1.00  0.00    -0.014 A 
BRANCH  47  48
ATOM     48  C   UNL A   1      44.471  29.203  29.475  1.00  0.00     0.031 A 
ATOM     49  C   UNL A   1      44.184  28.717  30.871  1.00  0.00     0.074 A 
ATOM     50  C   UNL A   1      44.414  30.512  29.179  1.00  0.00     0.049 A 
ATOM     51  N   UNL A   1      43.802  29.388  31.927  1.00  0.00    -0.248 NA
ATOM     52  C   UNL A   1      44.367  27.274  31.111  1.00  0.00     0.031 C 
ATOM     53  C   UNL A   1      44.740  31.103  27.882  1.00  0.00     0.029 A 
ATOM     54  N   UNL A   1      44.069  31.583  29.963  1.00  0.00    -0.354 N 
ATOM     55  C   UNL A   1      43.715  28.454  32.952  1.00  0.00     0.074 A 
ATOM     56  C   UNL A   1      44.038  27.163  32.388  1.00  0.00     0.031 C 
ATOM     57  C   UNL A   1      44.569  32.435  27.958  1.00  0.00     0.029 A 
ATOM     58  C   UNL A   1      44.100  32.784  29.297  1.00  0.00     0.049 A 
ATOM     59  H   UNL A   1      43.823  31.498  30.911  1.00  0.00     0.167 HD
ATOM     60  C   UNL A   1      43.411  28.657  34.254  1.00  0.00     0.037 A 
ATOM     61  C   UNL A   1      43.765  34.015  29.728  1.00  0.00     0.037 A 
ATOM     62  C   UNL A   1      43.071  29.939  34.810  1.00  0.00     0.049 A 
ATOM     63  C   UNL A   1      43.326  34.194  31.163  1.00  0.00     0.074 A 
ATOM     64  C   UNL A   1      42.700  30.251  36.105  1.00  0.00     0.029 A 
ATOM     65  N   UNL A   1      43.063  31.128  34.093  1.00  0.00    -0.354 N 
ATOM     66  N   UNL A   1      43.243  33.307  32.126  1.00  0.00    -0.248 NA
ATOM     67  C   UNL A   1      42.947  35.554  31.571  1.00  0.00     0.031 C 
ATOM     68  C   UNL A   1      42.428  31.622  36.163  1.00  0.00     0.029 A 
ATOM     69  C   UNL A   1      42.687  32.173  34.920  1.00  0.00     0.049 A 
ATOM     70  H   UNL A   1      43.291  31.214  33.139  1.00  0.00     0.167 HD
ATOM     71  C   UNL A   1      42.849  34.009  33.260  1.00  0.00     0.074 A 
ATOM     72  C   UNL A   1      42.730  35.397  32.867  1.00  0.00     0.031 C 
ATOM     73  C   UNL A   1      42.602  33.552  34.513  1.00  0.00     0.037 A 
BRANCH  60  74
ATOM     74  C   UNL A   1      43.419  27.464  35.163  1.00  0.00     0.064 A 
ATOM     75  C   UNL A   1      44.533  27.158  35.960  1.00  0.00     0.173 A 
ATOM     76  C   UNL A   1      42.289  26.641  35.271  1.00  0.00     0.173 A 
ATOM     77  F   UNL A   1      45.647  27.901  35.878  1.00  0.00    -0.203 F 
ATOM     78  C   UNL A   1      44.518  26.065  36.822  1.00  0.00     0.198 A 
ATOM     79  C   UNL A   1      42.267  25.566  36.156  1.00  0.00     0.198 A 
ATOM     80  F   UNL A   1      41.199  26.888  34.529  1.00  0.00    -0.203 F 
ATOM     81  F   UNL A   1      45.608  25.769  37.546  1.00  0.00    -0.200 F 
ATOM     82  C   UNL A   1      43.383  25.277  36.928  1.00  0.00     0.200 A 
ATOM     83  F   UNL A   1      41.165  24.812  36.265  1.00  0.00    -0.200 F 
ATOM     84  F   UNL A   1      43.364  24.235  37.771  1.00  0.00    -0.200 F 
ENDBRANCH  60  74
BRANCH  61  85
ATOM     85  C   UNL A   1      43.805  35.181  28.804  1.00  0.00     0.064 A 
ATOM     86  C   UNL A   1      44.996  35.888  28.575  1.00  0.00     0.173 A 
ATOM     87  C   UNL A   1      42.637  35.662  28.196  1.00  0.00     0.173 A 
ATOM     88  F   UNL A   1      46.137  35.483  29.151  1.00  0.00    -0.203 F 
ATOM     89  C   UNL A   1      45.006  37.055  27.814  1.00  0.00     0.198 A 
ATOM     90  C   UNL A   1      42.656  36.808  27.402  1.00  0.00     0.198 A 
ATOM     91  F   UNL A   1      41.472  35.025  28.377  1.00  0.00    -0.203 F 
ATOM     92  F   UNL A   1      46.141  37.754  27.678  1.00  0.00    -0.200 F 
ATOM     93  C   UNL A   1      43.836  37.514  27.227  1.00  0.00     0.200 A 
ATOM     94  F   UNL A   1      41.527  37.236  26.822  1.00  0.00    -0.200 F 
ATOM     95  F   UNL A   1      43.843  38.642  26.504  1.00  0.00    -0.200 F 
ENDBRANCH  61  85
BRANCH  73  96
ATOM     96  C   UNL A   1      42.254  34.572  35.561  1.00  0.00     0.064 A 
ATOM     97  C   UNL A   1      43.239  35.244  36.300  1.00  0.00     0.173 A 
ATOM     98  C   UNL A   1      40.911  34.880  35.826  1.00  0.00     0.173 A 
ATOM     99  F   UNL A   1      44.538  34.980  36.093  1.00  0.00    -0.203 F 
ATOM    100  C   UNL A   1      42.890  36.148  37.300  1.00  0.00     0.198 A 
ATOM    101  C   UNL A   1      40.567  35.815  36.800  1.00  0.00     0.198 A 
ATOM    102  F   UNL A   1      39.928  34.278  35.139  1.00  0.00    -0.203 F 
ATOM    103  F   UNL A   1      43.847  36.720  38.045  1.00  0.00    -0.200 F 
ATOM    104  C   UNL A   1      41.556  36.435  37.547  1.00  0.00     0.200 A 
ATOM    105  F   UNL A   1      39.278  36.104  37.022  1.00  0.00    -0.200 F 
ATOM    106  F   UNL A   1      41.223  37.301  38.514  1.00  0.00    -0.200 F 
ENDBRANCH  73  96
ENDBRANCH  47  48
ENDBRANCH  40  42
ENDBRANCH  39  40
ENDBRANCH  38  39
ENDBRANCH  37  38
ENDBRANCH  36  37
ENDBRANCH  35  36
ENDBRANCH  34  35
ENDBRANCH  33  34
ENDBRANCH  32  33
ENDBRANCH   1  32
TORSDOF 26
ENDMDL
MODEL 2
REMARK VINA RESULT:      -9.0      1.235      2.613
REMARK SMILES COC(=O)C[C@@H](NC(=O)c1ccccc1C(=O)OCCOCCOCCOCCOC(=O)c1ccc(-c2c3nc(c(-c4c(F)c(F)c(F)c(F)c4F)c4ccc([nH]4)c(-c4c(F)c(F)c(F)c(F)c4F)c4nc(c(-c5c(F)c(F)c(F)c(F)c5F)c5ccc2[nH]5)C=C4)C=C3)cc1)c1cccc(C)c1C
REMARK SMILES IDX 22 1 21 2 20 3 19 4 18 5 16 6 17 7 15 8 10 9 11 10 12 11
REMARK SMILES IDX 14 12 13 13 8 14 7 15 9 17 6 18 5 19 3 20 4 21 2 22 1 23
REMARK SMILES IDX 96 24 97 25 102 26 98 27 100 28 103 29 99 30 101 31 23 32
REMARK SMILES IDX 24 33 25 34 26 35 27 36 28 37 29 38 30 39 31 40 32 41 33 42
REMARK SMILES IDX 34 43 95 44 35 45 94 46 36 47 37 48 38 49 88 50 39 51 93 52
REMARK SMILES IDX 87 53 89 54 40 55 92 56 86 57 85 58 41 60 73 61 53 62 72 63
REMARK SMILES IDX 54 64 57 65 71 66 90 67 55 68 56 69 70 71 91 72 58 73 42 74
REMARK SMILES IDX 43 75 51 76 44 77 45 78 49 79 52 80 46 81 47 82 50 83 48 84
REMARK SMILES IDX 74 85 75 86 83 87 76 88 77 89 81 90 84 91 78 92 79 93 82 94
REMARK SMILES IDX 80 95 59 96 60 97 68 98 61 99 62 100 66 101 69 102 63 103
REMARK SMILES IDX 64 104 67 105 65 106
REMARK H PARENT 7 16 89 59 57 70
REMARK Flexibility Score: inf
ROOT
ATOM      1  C   UNL A   1      40.291  21.702  26.034  1.00  0.00     0.188 C 
ENDROOT
BRANCH   1   2
ATOM      2  O   UNL A   1      39.073  22.126  26.620  1.00  0.00    -0.376 OA
BRANCH   2   3
ATOM      3  C   UNL A   1      38.085  22.630  25.698  1.00  0.00     0.202 C 
BRANCH   3   4
ATOM      4  C   UNL A   1      37.373  23.988  25.921  1.00  0.00     0.261 C 
BRANCH   4   5
ATOM      5  O   UNL A   1      36.186  24.157  25.138  1.00  0.00    -0.460 OA
BRANCH   5   6
ATOM      6  C   UNL A   1      34.953  23.987  25.662  1.00  0.00     0.339 C 
ATOM      7  O   UNL A   1      34.871  23.438  26.758  1.00  0.00    -0.246 OA
BRANCH   6   8
ATOM      8  C   UNL A   1      33.573  24.664  24.844  1.00  0.00     0.072 A 
ATOM      9  C   UNL A   1      33.193  26.320  23.922  1.00  0.00     0.054 A 
ATOM     10  C   UNL A   1      32.943  26.220  22.104  1.00  0.00     0.015 A 
ATOM     11  C   UNL A   1      32.941  24.663  21.258  1.00  0.00     0.001 A 
ATOM     12  C   UNL A   1      33.465  23.107  23.867  1.00  0.00     0.016 A 
ATOM     13  C   UNL A   1      33.155  23.125  22.131  1.00  0.00     0.001 A 
BRANCH   9  14
ATOM     14  C   UNL A   1      33.605  27.921  23.820  1.00  0.00     0.252 C 
ATOM     15  N   UNL A   1      32.966  29.061  24.481  1.00  0.00    -0.345 N 
ATOM     16  H   UNL A   1      33.593  29.786  24.705  1.00  0.00     0.164 HD
ATOM     17  O   UNL A   1      34.683  28.156  23.259  1.00  0.00    -0.269 OA
BRANCH  15  18
ATOM     18  C   UNL A   1      31.488  29.359  24.904  1.00  0.00     0.124 C 
BRANCH  18  19
ATOM     19  C   UNL A   1      30.503  29.657  23.778  1.00  0.00     0.152 C 
BRANCH  19  20
ATOM     20  C   UNL A   1      29.643  28.428  23.564  1.00  0.00     0.307 C 
ATOM     21  O   UNL A   1      29.901  27.322  24.022  1.00  0.00    -0.252 OA
BRANCH  20  22
ATOM     22  O   UNL A   1      28.595  28.706  22.742  1.00  0.00    -0.469 OA
ATOM     23  C   UNL A   1      27.888  29.904  23.075  1.00  0.00     0.282 C 
ENDBRANCH  20  22
ENDBRANCH  19  20
ENDBRANCH  18  19
BRANCH  18  24
ATOM     24  C   UNL A   1      31.537  30.347  26.025  1.00  0.00    -0.022 A 
ATOM     25  C   UNL A   1      31.141  31.657  26.128  1.00  0.00     0.006 A 
ATOM     26  C   UNL A   1      32.397  29.901  26.986  1.00  0.00    -0.043 A 
ATOM     27  C   UNL A   1      31.847  32.541  26.963  1.00  0.00     0.001 A 
ATOM     28  C   UNL A   1      33.651  30.888  27.604  1.00  0.00    -0.048 A 
ATOM     29  C   UNL A   1      32.144  28.104  27.104  1.00  0.00     0.045 C 
ATOM     30  C   UNL A   1      33.093  32.231  27.575  1.00  0.00     0.004 A 
ATOM     31  C   UNL A   1      35.477  30.102  28.354  1.00  0.00     0.044 C 
ENDBRANCH  18  24
ENDBRANCH  15  18
ENDBRANCH   9  14
ENDBRANCH   6   8
ENDBRANCH   5   6
ENDBRANCH   4   5
ENDBRANCH   3   4
ENDBRANCH   2   3
ENDBRANCH   1   2
BRANCH   1  32
ATOM     32  C   UNL A   1      41.689  22.136  26.416  1.00  0.00     0.188 C 
BRANCH  32  33
ATOM     33  O   UNL A   1      42.276  23.097  25.539  1.00  0.00    -0.377 OA
BRANCH  33  34
ATOM     34  C   UNL A   1      43.698  23.148  25.569  1.00  0.00     0.188 C 
BRANCH  34  35
ATOM     35  C   UNL A   1      44.424  22.524  24.359  1.00  0.00     0.188 C 
BRANCH  35  36
ATOM     36  O   UNL A   1      45.463  23.323  23.814  1.00  0.00    -0.376 OA
BRANCH  36  37
ATOM     37  C   UNL A   1      46.628  23.541  24.607  1.00  0.00     0.202 C 
BRANCH  37  38
ATOM     38  C   UNL A   1      47.092  24.988  24.907  1.00  0.00     0.261 C 
BRANCH  38  39
ATOM     39  O   UNL A   1      46.305  26.042  24.335  1.00  0.00    -0.460 OA
BRANCH  39  40
ATOM     40  C   UNL A   1      46.734  27.296  24.560  1.00  0.00     0.338 C 
ATOM     41  O   UNL A   1      47.278  28.040  23.765  1.00  0.00    -0.246 OA
BRANCH  40  42
ATOM     42  C   UNL A   1      46.240  27.727  25.883  1.00  0.00     0.060 A 
ATOM     43  C   UNL A   1      44.854  27.822  26.066  1.00  0.00     0.016 A 
ATOM     44  C   UNL A   1      47.118  28.061  26.917  1.00  0.00     0.016 A 
ATOM     45  C   UNL A   1      44.340  28.310  27.259  1.00  0.00     0.010 A 
ATOM     46  C   UNL A   1      46.603  28.600  28.100  1.00  0.00     0.010 A 
ATOM     47  C   UNL A   1      45.216  28.775  28.247  1.00  0.00    -0.014 A 
BRANCH  47  48
ATOM     48  C   UNL A   1      44.671  29.706  29.260  1.00  0.00     0.031 A 
ATOM     49  C   UNL A   1      44.300  29.131  30.602  1.00  0.00     0.074 A 
ATOM     50  C   UNL A   1      44.620  31.030  29.043  1.00  0.00     0.049 A 
ATOM     51  N   UNL A   1      43.844  29.731  31.670  1.00  0.00    -0.248 NA
ATOM     52  C   UNL A   1      44.482  27.676  30.762  1.00  0.00     0.031 C 
ATOM     53  C   UNL A   1      45.022  31.703  27.810  1.00  0.00     0.029 A 
ATOM     54  N   UNL A   1      44.214  32.047  29.869  1.00  0.00    -0.354 N 
ATOM     55  C   UNL A   1      43.701  28.734  32.628  1.00  0.00     0.074 A 
ATOM     56  C   UNL A   1      44.073  27.483  32.006  1.00  0.00     0.031 C 
ATOM     57  C   UNL A   1      44.832  33.027  27.958  1.00  0.00     0.029 A 
ATOM     58  C   UNL A   1      44.274  33.288  29.283  1.00  0.00     0.049 A 
ATOM     59  H   UNL A   1      43.908  31.901  30.793  1.00  0.00     0.167 HD
ATOM     60  C   UNL A   1      43.312  28.853  33.917  1.00  0.00     0.037 A 
ATOM     61  C   UNL A   1      43.900  34.487  29.768  1.00  0.00     0.037 A 
ATOM     62  C   UNL A   1      42.924  30.095  34.529  1.00  0.00     0.049 A 
ATOM     63  C   UNL A   1      43.368  34.572  31.179  1.00  0.00     0.074 A 
ATOM     64  C   UNL A   1      42.466  30.322  35.814  1.00  0.00     0.029 A 
ATOM     65  N   UNL A   1      42.949  31.326  33.889  1.00  0.00    -0.354 N 
ATOM     66  N   UNL A   1      43.232  33.626  32.078  1.00  0.00    -0.248 NA
ATOM     67  C   UNL A   1      42.949  35.902  31.646  1.00  0.00     0.031 C 
ATOM     68  C   UNL A   1      42.177  31.684  35.940  1.00  0.00     0.029 A 
ATOM     69  C   UNL A   1      42.510  32.315  34.753  1.00  0.00     0.049 A 
ATOM     70  H   UNL A   1      43.237  31.473  32.959  1.00  0.00     0.167 HD
ATOM     71  C   UNL A   1      42.759  34.253  33.225  1.00  0.00     0.074 A 
ATOM     72  C   UNL A   1      42.651  35.662  32.913  1.00  0.00     0.031 C 
ATOM     73  C   UNL A   1      42.437  33.715  34.429  1.00  0.00     0.037 A 
BRANCH  60  74
ATOM     74  C   UNL A   1      43.274  27.604  34.749  1.00  0.00     0.064 A 
ATOM     75  C   UNL A   1      42.133  26.788  34.792  1.00  0.00     0.173 A 
ATOM     76  C   UNL A   1      44.401  27.196  35.476  1.00  0.00     0.173 A 
ATOM     77  F   UNL A   1      41.021  27.145  34.132  1.00  0.00    -0.203 F 
ATOM     78  C   UNL A   1      42.120  25.615  35.543  1.00  0.00     0.198 A 
ATOM     79  C   UNL A   1      44.394  26.009  36.202  1.00  0.00     0.198 A 
ATOM     80  F   UNL A   1      45.515  27.943  35.470  1.00  0.00    -0.203 F 
ATOM     81  F   UNL A   1      41.006  24.870  35.601  1.00  0.00    -0.200 F 
ATOM     82  C   UNL A   1      43.253  25.221  36.239  1.00  0.00     0.200 A 
ATOM     83  F   UNL A   1      45.493  25.624  36.865  1.00  0.00    -0.200 F 
ATOM     84  F   UNL A   1      43.244  24.084  36.948  1.00  0.00    -0.200 F 
ENDBRANCH  60  74
BRANCH  61  85
ATOM     85  C   UNL A   1      43.987  35.709  28.923  1.00  0.00     0.064 A 
ATOM     86  C   UNL A   1      42.894  36.146  28.159  1.00  0.00     0.173 A 
ATOM     87  C   UNL A   1      45.191  36.418  28.799  1.00  0.00     0.173 A 
ATOM     88  F   UNL A   1      41.727  35.490  28.223  1.00  0.00    -0.203 F 
ATOM     89  C   UNL A   1      43.017  37.212  27.269  1.00  0.00     0.198 A 
ATOM     90  C   UNL A   1      45.301  37.509  27.938  1.00  0.00     0.198 A 
ATOM     91  F   UNL A   1      46.267  36.047  29.507  1.00  0.00    -0.203 F 
ATOM     92  F   UNL A   1      41.980  37.556  26.493  1.00  0.00    -0.200 F 
ATOM     93  C   UNL A   1      44.220  37.894  27.161  1.00  0.00     0.200 A 
ATOM     94  F   UNL A   1      46.459  38.175  27.851  1.00  0.00    -0.200 F 
ATOM     95  F   UNL A   1      44.342  38.912  26.298  1.00  0.00    -0.200 F 
ENDBRANCH  61  85
BRANCH  73  96
ATOM     96  C   UNL A   1      42.011  34.665  35.513  1.00  0.00     0.064 A 
ATOM     97  C   UNL A   1      42.940  35.297  36.355  1.00  0.00     0.173 A 
ATOM     98  C   UNL A   1      40.651  34.947  35.711  1.00  0.00     0.173 A 
ATOM     99  F   UNL A   1      44.252  35.055  36.215  1.00  0.00    -0.203 F 
ATOM    100  C   UNL A   1      42.517  36.134  37.385  1.00  0.00     0.198 A 
ATOM    101  C   UNL A   1      40.235  35.815  36.717  1.00  0.00     0.198 A 
ATOM    102  F   UNL A   1      39.720  34.381  34.926  1.00  0.00    -0.203 F 
ATOM    103  F   UNL A   1      43.418  36.665  38.224  1.00  0.00    -0.200 F 
ATOM    104  C   UNL A   1      41.167  36.395  37.563  1.00  0.00     0.200 A 
ATOM    105  F   UNL A   1      38.931  36.081  36.874  1.00  0.00    -0.200 F 
ATOM    106  F   UNL A   1      40.764  37.196  38.558  1.00  0.00    -0.200 F 
ENDBRANCH  73  96
ENDBRANCH  47  48
ENDBRANCH  40  42
ENDBRANCH  39  40
ENDBRANCH  38  39
ENDBRANCH  37  38
ENDBRANCH  36  37
ENDBRANCH  35  36
ENDBRANCH  34  35
ENDBRANCH  33  34
ENDBRANCH  32  33
ENDBRANCH   1  32
TORSDOF 26
ENDMDL
MODEL 3
REMARK VINA RESULT:      -8.9      3.470      5.064
REMARK SMILES COC(=O)C[C@@H](NC(=O)c1ccccc1C(=O)OCCOCCOCCOCCOC(=O)c1ccc(-c2c3nc(c(-c4c(F)c(F)c(F)c(F)c4F)c4ccc([nH]4)c(-c4c(F)c(F)c(F)c(F)c4F)c4nc(c(-c5c(F)c(F)c(F)c(F)c5F)c5ccc2[nH]5)C=C4)C=C3)cc1)c1cccc(C)c1C
REMARK SMILES IDX 22 1 21 2 20 3 19 4 18 5 16 6 17 7 15 8 10 9 11 10 12 11
REMARK SMILES IDX 14 12 13 13 8 14 7 15 9 17 6 18 5 19 3 20 4 21 2 22 1 23
REMARK SMILES IDX 96 24 97 25 102 26 98 27 100 28 103 29 99 30 101 31 23 32
REMARK SMILES IDX 24 33 25 34 26 35 27 36 28 37 29 38 30 39 31 40 32 41 33 42
REMARK SMILES IDX 34 43 95 44 35 45 94 46 36 47 37 48 38 49 88 50 39 51 93 52
REMARK SMILES IDX 87 53 89 54 40 55 92 56 86 57 85 58 41 60 73 61 53 62 72 63
REMARK SMILES IDX 54 64 57 65 71 66 90 67 55 68 56 69 70 71 91 72 58 73 42 74
REMARK SMILES IDX 43 75 51 76 44 77 45 78 49 79 52 80 46 81 47 82 50 83 48 84
REMARK SMILES IDX 74 85 75 86 83 87 76 88 77 89 81 90 84 91 78 92 79 93 82 94
REMARK SMILES IDX 80 95 59 96 60 97 68 98 61 99 62 100 66 101 69 102 63 103
REMARK SMILES IDX 64 104 67 105 65 106
REMARK H PARENT 7 16 89 59 57 70
REMARK Flexibility Score: inf
ROOT
ATOM      1  C   UNL A   1      43.316  21.675  28.147  1.00  0.00     0.188 C 
ENDROOT
BRANCH   1   2
ATOM      2  O   UNL A   1      43.348  22.483  29.311  1.00  0.00    -0.376 OA
BRANCH   2   3
ATOM      3  C   UNL A   1      43.618  23.882  29.085  1.00  0.00     0.202 C 
BRANCH   3   4
ATOM      4  C   UNL A   1      42.610  24.804  28.354  1.00  0.00     0.261 C 
BRANCH   4   5
ATOM      5  O   UNL A   1      41.258  24.656  28.802  1.00  0.00    -0.460 OA
BRANCH   5   6
ATOM      6  C   UNL A   1      40.214  24.677  27.945  1.00  0.00     0.339 C 
ATOM      7  O   UNL A   1      39.785  23.598  27.543  1.00  0.00    -0.246 OA
BRANCH   6   8
ATOM      8  C   UNL A   1      39.448  26.194  27.564  1.00  0.00     0.072 A 
ATOM      9  C   UNL A   1      38.933  27.766  28.563  1.00  0.00     0.054 A 
ATOM     10  C   UNL A   1      39.863  29.313  28.216  1.00  0.00     0.015 A 
ATOM     11  C   UNL A   1      41.098  29.380  26.947  1.00  0.00     0.001 A 
ATOM     12  C   UNL A   1      40.688  26.413  26.221  1.00  0.00     0.016 A 
ATOM     13  C   UNL A   1      41.475  27.965  25.934  1.00  0.00     0.001 A 
BRANCH   9  14
ATOM     14  C   UNL A   1      38.494  28.316  30.063  1.00  0.00     0.252 C 
ATOM     15  N   UNL A   1      37.430  29.263  30.401  1.00  0.00    -0.345 N 
ATOM     16  H   UNL A   1      37.011  29.087  31.275  1.00  0.00     0.164 HD
ATOM     17  O   UNL A   1      39.013  27.723  31.017  1.00  0.00    -0.269 OA
BRANCH  15  18
ATOM     18  C   UNL A   1      36.822  30.498  29.654  1.00  0.00     0.124 C 
BRANCH  18  19
ATOM     19  C   UNL A   1      36.528  30.319  28.168  1.00  0.00     0.152 C 
BRANCH  19  20
ATOM     20  C   UNL A   1      35.291  31.128  27.831  1.00  0.00     0.307 C 
ATOM     21  O   UNL A   1      35.304  32.323  27.567  1.00  0.00    -0.252 OA
BRANCH  20  22
ATOM     22  O   UNL A   1      34.169  30.364  27.931  1.00  0.00    -0.469 OA
ATOM     23  C   UNL A   1      33.064  30.839  27.157  1.00  0.00     0.282 C 
ENDBRANCH  20  22
ENDBRANCH  19  20
ENDBRANCH  18  19
BRANCH  18  24
ATOM     24  C   UNL A   1      37.641  31.692  30.032  1.00  0.00    -0.022 A 
ATOM     25  C   UNL A   1      38.765  32.259  29.487  1.00  0.00     0.006 A 
ATOM     26  C   UNL A   1      37.338  32.064  31.309  1.00  0.00    -0.043 A 
ATOM     27  C   UNL A   1      39.702  32.900  30.317  1.00  0.00     0.001 A 
ATOM     28  C   UNL A   1      38.551  32.308  32.490  1.00  0.00    -0.048 A 
ATOM     29  C   UNL A   1      35.541  31.849  31.492  1.00  0.00     0.045 C 
ATOM     30  C   UNL A   1      39.679  32.836  31.737  1.00  0.00     0.004 A 
ATOM     31  C   UNL A   1      38.221  32.007  34.568  1.00  0.00     0.044 C 
ENDBRANCH  18  24
ENDBRANCH  15  18
ENDBRANCH   9  14
ENDBRANCH   6   8
ENDBRANCH   5   6
ENDBRANCH   4   5
ENDBRANCH   3   4
ENDBRANCH   2   3
ENDBRANCH   1   2
BRANCH   1  32
ATOM     32  C   UNL A   1      42.150  21.476  27.204  1.00  0.00     0.188 C 
BRANCH  32  33
ATOM     33  O   UNL A   1      42.369  20.504  26.182  1.00  0.00    -0.377 OA
BRANCH  33  34
ATOM     34  C   UNL A   1      43.730  20.135  25.986  1.00  0.00     0.188 C 
BRANCH  34  35
ATOM     35  C   UNL A   1      44.426  20.745  24.752  1.00  0.00     0.188 C 
BRANCH  35  36
ATOM     36  O   UNL A   1      45.582  21.517  25.044  1.00  0.00    -0.376 OA
BRANCH  36  37
ATOM     37  C   UNL A   1      45.803  22.705  24.289  1.00  0.00     0.202 C 
BRANCH  37  38
ATOM     38  C   UNL A   1      46.740  23.805  24.846  1.00  0.00     0.261 C 
BRANCH  38  39
ATOM     39  O   UNL A   1      46.275  25.157  24.733  1.00  0.00    -0.460 OA
BRANCH  39  40
ATOM     40  C   UNL A   1      47.167  26.121  25.021  1.00  0.00     0.338 C 
ATOM     41  O   UNL A   1      48.326  26.183  24.655  1.00  0.00    -0.246 OA
BRANCH  40  42
ATOM     42  C   UNL A   1      46.454  27.231  25.682  1.00  0.00     0.060 A 
ATOM     43  C   UNL A   1      47.209  28.331  26.112  1.00  0.00     0.016 A 
ATOM     44  C   UNL A   1      45.076  27.184  25.906  1.00  0.00     0.016 A 
ATOM     45  C   UNL A   1      46.602  29.359  26.821  1.00  0.00     0.010 A 
ATOM     46  C   UNL A   1      44.474  28.194  26.663  1.00  0.00     0.010 A 
ATOM     47  C   UNL A   1      45.250  29.252  27.167  1.00  0.00    -0.014 A 
BRANCH  47  48
ATOM     48  C   UNL A   1      44.766  30.080  28.294  1.00  0.00     0.031 A 
ATOM     49  C   UNL A   1      44.539  29.391  29.614  1.00  0.00     0.074 A 
ATOM     50  C   UNL A   1      44.645  31.414  28.186  1.00  0.00     0.049 A 
ATOM     51  N   UNL A   1      44.159  29.889  30.761  1.00  0.00    -0.248 NA
ATOM     52  C   UNL A   1      44.789  27.938  29.644  1.00  0.00     0.031 C 
ATOM     53  C   UNL A   1      44.909  32.194  26.979  1.00  0.00     0.029 A 
ATOM     54  N   UNL A   1      44.278  32.348  29.121  1.00  0.00    -0.354 N 
ATOM     55  C   UNL A   1      44.141  28.819  31.647  1.00  0.00     0.074 A 
ATOM     56  C   UNL A   1      44.502  27.635  30.900  1.00  0.00     0.031 C 
ATOM     57  C   UNL A   1      44.684  33.493  27.245  1.00  0.00     0.029 A 
ATOM     58  C   UNL A   1      44.239  33.629  28.631  1.00  0.00     0.049 A 
ATOM     59  H   UNL A   1      44.063  32.120  30.053  1.00  0.00     0.167 HD
ATOM     60  C   UNL A   1      43.866  28.824  32.971  1.00  0.00     0.037 A 
ATOM     61  C   UNL A   1      43.865  34.772  29.238  1.00  0.00     0.037 A 
ATOM     62  C   UNL A   1      43.489  29.999  33.709  1.00  0.00     0.049 A 
ATOM     63  C   UNL A   1      43.460  34.728  30.693  1.00  0.00     0.074 A 
ATOM     64  C   UNL A   1      43.142  30.109  35.043  1.00  0.00     0.029 A 
ATOM     65  N   UNL A   1      43.410  31.274  33.167  1.00  0.00    -0.354 N 
ATOM     66  N   UNL A   1      43.442  33.713  31.523  1.00  0.00    -0.248 NA
ATOM     67  C   UNL A   1      43.036  35.999  31.297  1.00  0.00     0.031 C 
ATOM     68  C   UNL A   1      42.814  31.444  35.300  1.00  0.00     0.029 A 
ATOM     69  C   UNL A   1      43.015  32.176  34.141  1.00  0.00     0.049 A 
ATOM     70  H   UNL A   1      43.607  31.503  32.230  1.00  0.00     0.167 HD
ATOM     71  C   UNL A   1      43.051  34.231  32.753  1.00  0.00     0.074 A 
ATOM     72  C   UNL A   1      42.863  35.653  32.563  1.00  0.00     0.031 C 
ATOM     73  C   UNL A   1      42.860  33.592  33.935  1.00  0.00     0.037 A 
BRANCH  60  74
ATOM     74  C   UNL A   1      43.950  27.517  33.703  1.00  0.00     0.064 A 
ATOM     75  C   UNL A   1      42.797  26.797  34.051  1.00  0.00     0.173 A 
ATOM     76  C   UNL A   1      45.195  26.956  34.023  1.00  0.00     0.173 A 
ATOM     77  F   UNL A   1      41.581  27.299  33.787  1.00  0.00    -0.203 F 
ATOM     78  C   UNL A   1      42.888  25.570  34.703  1.00  0.00     0.198 A 
ATOM     79  C   UNL A   1      45.283  25.716  34.648  1.00  0.00     0.198 A 
ATOM     80  F   UNL A   1      46.327  27.606  33.715  1.00  0.00    -0.203 F 
ATOM     81  F   UNL A   1      41.772  24.918  35.060  1.00  0.00    -0.200 F 
ATOM     82  C   UNL A   1      44.130  25.025  34.991  1.00  0.00     0.200 A 
ATOM     83  F   UNL A   1      46.484  25.187  34.916  1.00  0.00    -0.200 F 
ATOM     84  F   UNL A   1      44.217  23.837  35.604  1.00  0.00    -0.200 F 
ENDBRANCH  60  74
BRANCH  61  85
ATOM     85  C   UNL A   1      43.830  36.056  28.487  1.00  0.00     0.064 A 
ATOM     86  C   UNL A   1      42.639  36.538  27.924  1.00  0.00     0.173 A 
ATOM     87  C   UNL A   1      45.003  36.786  28.246  1.00  0.00     0.173 A 
ATOM     88  F   UNL A   1      41.492  35.866  28.104  1.00  0.00    -0.203 F 
ATOM     89  C   UNL A   1      42.632  37.671  27.111  1.00  0.00     0.198 A 
ATOM     90  C   UNL A   1      44.988  37.941  27.466  1.00  0.00     0.198 A 
ATOM     91  F   UNL A   1      46.170  36.374  28.762  1.00  0.00    -0.203 F 
ATOM     92  F   UNL A   1      41.494  38.062  26.521  1.00  0.00    -0.200 F 
ATOM     93  C   UNL A   1      43.807  38.372  26.884  1.00  0.00     0.200 A 
ATOM     94  F   UNL A   1      46.122  38.624  27.265  1.00  0.00    -0.200 F 
ATOM     95  F   UNL A   1      43.803  39.455  26.094  1.00  0.00    -0.200 F 
ENDBRANCH  61  85
BRANCH  73  96
ATOM     96  C   UNL A   1      42.499  34.439  35.123  1.00  0.00     0.064 A 
ATOM     97  C   UNL A   1      43.448  34.807  36.089  1.00  0.00     0.173 A 
ATOM     98  C   UNL A   1      41.181  34.889  35.294  1.00  0.00     0.173 A 
ATOM     99  F   UNL A   1      44.720  34.395  35.979  1.00  0.00    -0.203 F 
ATOM    100  C   UNL A   1      43.079  35.549  37.208  1.00  0.00     0.198 A 
ATOM    101  C   UNL A   1      40.825  35.666  36.394  1.00  0.00     0.198 A 
ATOM    102  F   UNL A   1      40.236  34.579  34.394  1.00  0.00    -0.203 F 
ATOM    103  F   UNL A   1      43.986  35.823  38.156  1.00  0.00    -0.200 F 
ATOM    104  C   UNL A   1      41.769  35.981  37.357  1.00  0.00     0.200 A 
ATOM    105  F   UNL A   1      39.563  36.098  36.526  1.00  0.00    -0.200 F 
ATOM    106  F   UNL A   1      41.415  36.691  38.437  1.00  0.00    -0.200 F 
ENDBRANCH  73  96
ENDBRANCH  47  48
ENDBRANCH  40  42
ENDBRANCH  39  40
ENDBRANCH  38  39
ENDBRANCH  37  38
ENDBRANCH  36  37
ENDBRANCH  35  36
ENDBRANCH  34  35
ENDBRANCH  33  34
ENDBRANCH  32  33
ENDBRANCH   1  32
TORSDOF 26
ENDMDL
