MODEL 1
REMARK VINA RESULT:     -10.5      0.000      0.000
REMARK SMILES C[C@@H](C(=O)OCCOCCOCCOCCOC(=O)c1ccc(-c2c3nc(c(-c4c(F)c(F)c(F)c(F)c4F)c4ccc([nH]4)c(-c4c(F)c(F)c(F)c(F)c4F)c4nc(c(-c5c(F)c(F)c(F)c(F)c5F)c5ccc2[nH]5)C=C4)C=C3)cc1)c1ccc(Cc2ccoc2)cc1F
REMARK SMILES IDX 10 1 9 2 8 3 7 4 6 5 5 6 3 7 4 8 2 9 1 10 83 11 84 12 94 13
REMARK SMILES IDX 85 14 93 15 95 16 86 17 87 18 88 19 89 20 92 21 90 22 91 23
REMARK SMILES IDX 11 24 12 25 13 26 14 27 15 28 16 29 17 30 18 31 19 32 20 33
REMARK SMILES IDX 21 34 82 35 22 36 81 37 23 38 24 39 25 40 75 41 26 42 80 43
REMARK SMILES IDX 74 44 76 45 27 46 79 47 73 48 72 49 28 51 60 52 40 53 59 54
REMARK SMILES IDX 41 55 44 56 58 57 77 58 42 59 43 60 57 62 78 63 45 64 29 65
REMARK SMILES IDX 30 66 38 67 31 68 32 69 36 70 39 71 33 72 34 73 37 74 35 75
REMARK SMILES IDX 61 76 62 77 70 78 63 79 64 80 68 81 71 82 65 83 66 84 69 85
REMARK SMILES IDX 67 86 46 87 47 88 55 89 48 90 49 91 53 92 56 93 50 94 51 95
REMARK SMILES IDX 54 96 52 97
REMARK H PARENT 76 50 44 61
REMARK Flexibility Score: inf
ROOT
ATOM      1  C   UNL A   1      35.536  21.822  26.016  1.00  0.00     0.188 C 
ENDROOT
BRANCH   1   2
ATOM      2  C   UNL A   1      34.589  20.640  25.752  1.00  0.00     0.188 C 
BRANCH   2   3
ATOM      3  O   UNL A   1      33.950  20.691  24.490  1.00  0.00    -0.376 OA
BRANCH   3   4
ATOM      4  C   UNL A   1      32.540  20.829  24.417  1.00  0.00     0.202 C 
BRANCH   4   5
ATOM      5  C   UNL A   1      31.794  22.169  24.592  1.00  0.00     0.261 C 
BRANCH   5   6
ATOM      6  O   UNL A   1      31.541  22.563  25.943  1.00  0.00    -0.463 OA
BRANCH   6   7
ATOM      7  C   UNL A   1      31.583  23.874  26.278  1.00  0.00     0.313 C 
ATOM      8  O   UNL A   1      31.024  24.360  27.254  1.00  0.00    -0.252 OA
BRANCH   7   9
ATOM      9  C   UNL A   1      32.431  24.684  25.288  1.00  0.00     0.129 C 
ATOM     10  C   UNL A   1      33.831  24.993  25.866  1.00  0.00     0.025 C 
BRANCH   9  11
ATOM     11  C   UNL A   1      31.740  25.880  24.622  1.00  0.00     0.002 A 
ATOM     12  C   UNL A   1      31.797  27.155  25.213  1.00  0.00     0.008 A 
ATOM     13  C   UNL A   1      31.128  25.810  23.363  1.00  0.00     0.127 A 
ATOM     14  C   UNL A   1      31.291  28.294  24.562  1.00  0.00     0.004 A 
ATOM     15  C   UNL A   1      30.586  26.933  22.727  1.00  0.00     0.043 A 
ATOM     16  F   UNL A   1      31.054  24.647  22.703  1.00  0.00    -0.207 F 
ATOM     17  C   UNL A   1      30.686  28.206  23.301  1.00  0.00    -0.041 A 
BRANCH  17  18
ATOM     18  C   UNL A   1      30.337  29.430  22.486  1.00  0.00     0.074 C 
BRANCH  18  19
ATOM     19  C   UNL A   1      29.093  30.076  22.995  1.00  0.00    -0.005 A 
ATOM     20  C   UNL A   1      28.854  31.451  23.299  1.00  0.00     0.046 A 
ATOM     21  C   UNL A   1      27.855  29.471  23.121  1.00  0.00     0.198 A 
ATOM     22  C   UNL A   1      27.517  31.569  23.595  1.00  0.00     0.195 A 
ATOM     23  O   UNL A   1      26.903  30.366  23.489  1.00  0.00    -0.472 OA
ENDBRANCH  18  19
ENDBRANCH  17  18
ENDBRANCH   9  11
ENDBRANCH   7   9
ENDBRANCH   6   7
ENDBRANCH   5   6
ENDBRANCH   4   5
ENDBRANCH   3   4
ENDBRANCH   2   3
ENDBRANCH   1   2
BRANCH   1  24
ATOM     24  O   UNL A   1      35.979  22.517  24.861  1.00  0.00    -0.377 OA
BRANCH  24  25
ATOM     25  C   UNL A   1      37.309  23.031  24.839  1.00  0.00     0.188 C 
BRANCH  25  26
ATOM     26  C   UNL A   1      38.139  23.238  26.129  1.00  0.00     0.188 C 
BRANCH  26  27
ATOM     27  O   UNL A   1      39.082  22.217  26.412  1.00  0.00    -0.376 OA
BRANCH  27  28
ATOM     28  C   UNL A   1      39.151  21.099  25.544  1.00  0.00     0.202 C 
BRANCH  28  29
ATOM     29  C   UNL A   1      39.740  19.803  26.122  1.00  0.00     0.261 C 
BRANCH  29  30
ATOM     30  O   UNL A   1      40.853  19.240  25.408  1.00  0.00    -0.460 OA
BRANCH  30  31
ATOM     31  C   UNL A   1      42.012  19.080  26.078  1.00  0.00     0.338 C 
ATOM     32  O   UNL A   1      42.600  18.034  26.302  1.00  0.00    -0.246 OA
BRANCH  31  33
ATOM     33  C   UNL A   1      42.571  20.421  26.338  1.00  0.00     0.060 A 
ATOM     34  C   UNL A   1      42.542  20.929  27.645  1.00  0.00     0.016 A 
ATOM     35  C   UNL A   1      43.126  21.171  25.299  1.00  0.00     0.016 A 
ATOM     36  C   UNL A   1      43.033  22.208  27.907  1.00  0.00     0.010 A 
ATOM     37  C   UNL A   1      43.595  22.461  25.559  1.00  0.00     0.010 A 
ATOM     38  C   UNL A   1      43.516  22.998  26.856  1.00  0.00    -0.014 A 
BRANCH  38  39
ATOM     39  C   UNL A   1      43.733  24.449  27.071  1.00  0.00     0.031 A 
ATOM     40  C   UNL A   1      45.102  25.009  26.797  1.00  0.00     0.074 A 
ATOM     41  C   UNL A   1      42.741  25.259  27.478  1.00  0.00     0.049 A 
ATOM     42  N   UNL A   1      45.558  26.224  26.965  1.00  0.00    -0.248 NA
ATOM     43  C   UNL A   1      46.096  24.062  26.262  1.00  0.00     0.031 C 
ATOM     44  C   UNL A   1      41.364  24.846  27.729  1.00  0.00     0.029 A 
ATOM     45  N   UNL A   1      42.750  26.603  27.758  1.00  0.00    -0.354 N 
ATOM     46  C   UNL A   1      46.887  26.185  26.565  1.00  0.00     0.074 A 
ATOM     47  C   UNL A   1      47.177  24.821  26.180  1.00  0.00     0.031 C 
ATOM     48  C   UNL A   1      40.660  25.915  28.146  1.00  0.00     0.029 A 
ATOM     49  C   UNL A   1      41.548  27.075  28.224  1.00  0.00     0.049 A 
ATOM     50  H   UNL A   1      43.544  27.174  27.639  1.00  0.00     0.167 HD
ATOM     51  C   UNL A   1      47.784  27.199  26.512  1.00  0.00     0.037 A 
ATOM     52  C   UNL A   1      41.215  28.296  28.685  1.00  0.00     0.037 A 
ATOM     53  C   UNL A   1      47.493  28.553  26.903  1.00  0.00     0.049 A 
ATOM     54  C   UNL A   1      42.255  29.391  28.699  1.00  0.00     0.074 A 
ATOM     55  C   UNL A   1      48.328  29.656  26.880  1.00  0.00     0.029 A 
ATOM     56  N   UNL A   1      46.273  28.986  27.401  1.00  0.00    -0.354 N 
ATOM     57  N   UNL A   1      43.503  29.355  28.301  1.00  0.00    -0.248 NA
ATOM     58  C   UNL A   1      41.834  30.698  29.226  1.00  0.00     0.031 C 
ATOM     59  C   UNL A   1      47.633  30.741  27.423  1.00  0.00     0.029 A 
ATOM     60  C   UNL A   1      46.342  30.333  27.717  1.00  0.00     0.049 A 
ATOM     61  H   UNL A   1      45.475  28.420  27.512  1.00  0.00     0.167 HD
ATOM     62  C   UNL A   1      44.007  30.636  28.496  1.00  0.00     0.074 A 
ATOM     63  C   UNL A   1      42.923  31.430  29.037  1.00  0.00     0.031 C 
ATOM     64  C   UNL A   1      45.252  31.114  28.248  1.00  0.00     0.037 A 
BRANCH  51  65
ATOM     65  C   UNL A   1      49.173  26.870  26.047  1.00  0.00     0.064 A 
ATOM     66  C   UNL A   1      50.154  26.382  26.924  1.00  0.00     0.173 A 
ATOM     67  C   UNL A   1      49.522  27.026  24.696  1.00  0.00     0.173 A 
ATOM     68  F   UNL A   1      49.877  26.229  28.229  1.00  0.00    -0.203 F 
ATOM     69  C   UNL A   1      51.440  26.096  26.474  1.00  0.00     0.198 A 
ATOM     70  C   UNL A   1      50.799  26.704  24.244  1.00  0.00     0.198 A 
ATOM     71  F   UNL A   1      48.623  27.485  23.813  1.00  0.00    -0.203 F 
ATOM     72  F   UNL A   1      52.376  25.686  27.342  1.00  0.00    -0.200 F 
ATOM     73  C   UNL A   1      51.759  26.249  25.133  1.00  0.00     0.200 A 
ATOM     74  F   UNL A   1      51.101  26.839  22.945  1.00  0.00    -0.200 F 
ATOM     75  F   UNL A   1      52.995  25.966  24.700  1.00  0.00    -0.200 F 
ENDBRANCH  51  65
BRANCH  52  76
ATOM     76  C   UNL A   1      39.840  28.551  29.192  1.00  0.00     0.064 A 
ATOM     77  C   UNL A   1      38.838  29.058  28.353  1.00  0.00     0.173 A 
ATOM     78  C   UNL A   1      39.505  28.313  30.534  1.00  0.00     0.173 A 
ATOM     79  F   UNL A   1      39.114  29.331  27.069  1.00  0.00    -0.203 F 
ATOM     80  C   UNL A   1      37.562  29.337  28.842  1.00  0.00     0.198 A 
ATOM     81  C   UNL A   1      38.220  28.561  31.013  1.00  0.00     0.198 A 
ATOM     82  F   UNL A   1      40.426  27.831  31.381  1.00  0.00    -0.203 F 
ATOM     83  F   UNL A   1      36.639  29.873  28.030  1.00  0.00    -0.200 F 
ATOM     84  C   UNL A   1      37.253  29.082  30.168  1.00  0.00     0.200 A 
ATOM     85  F   UNL A   1      37.923  28.301  32.293  1.00  0.00    -0.200 F 
ATOM     86  F   UNL A   1      36.025  29.347  30.636  1.00  0.00    -0.200 F 
ENDBRANCH  52  76
BRANCH  64  87
ATOM     87  C   UNL A   1      45.504  32.572  28.513  1.00  0.00     0.064 A 
ATOM     88  C   UNL A   1      45.204  33.561  27.564  1.00  0.00     0.173 A 
ATOM     89  C   UNL A   1      46.013  32.989  29.753  1.00  0.00     0.173 A 
ATOM     90  F   UNL A   1      44.727  33.218  26.358  1.00  0.00    -0.203 F 
ATOM     91  C   UNL A   1      45.430  34.909  27.837  1.00  0.00     0.198 A 
ATOM     92  C   UNL A   1      46.203  34.339  30.036  1.00  0.00     0.198 A 
ATOM     93  F   UNL A   1      46.308  32.087  30.701  1.00  0.00    -0.203 F 
ATOM     94  F   UNL A   1      45.185  35.831  26.896  1.00  0.00    -0.200 F 
ATOM     95  C   UNL A   1      45.921  35.297  29.074  1.00  0.00     0.200 A 
ATOM     96  F   UNL A   1      46.658  34.713  31.240  1.00  0.00    -0.200 F 
ATOM     97  F   UNL A   1      46.127  36.594  29.339  1.00  0.00    -0.200 F 
ENDBRANCH  64  87
ENDBRANCH  38  39
ENDBRANCH  31  33
ENDBRANCH  30  31
ENDBRANCH  29  30
ENDBRANCH  28  29
ENDBRANCH  27  28
ENDBRANCH  26  27
ENDBRANCH  25  26
ENDBRANCH  24  25
ENDBRANCH   1  24
TORSDOF 23
ENDMDL
MODEL 2
REMARK VINA RESULT:     -10.3      1.462      2.745
REMARK SMILES C[C@@H](C(=O)OCCOCCOCCOCCOC(=O)c1ccc(-c2c3nc(c(-c4c(F)c(F)c(F)c(F)c4F)c4ccc([nH]4)c(-c4c(F)c(F)c(F)c(F)c4F)c4nc(c(-c5c(F)c(F)c(F)c(F)c5F)c5ccc2[nH]5)C=C4)C=C3)cc1)c1ccc(Cc2ccoc2)cc1F
REMARK SMILES IDX 10 1 9 2 8 3 7 4 6 5 5 6 3 7 4 8 2 9 1 10 83 11 84 12 94 13
REMARK SMILES IDX 85 14 93 15 95 16 86 17 87 18 88 19 89 20 92 21 90 22 91 23
REMARK SMILES IDX 11 24 12 25 13 26 14 27 15 28 16 29 17 30 18 31 19 32 20 33
REMARK SMILES IDX 21 34 82 35 22 36 81 37 23 38 24 39 25 40 75 41 26 42 80 43
REMARK SMILES IDX 74 44 76 45 27 46 79 47 73 48 72 49 28 51 60 52 40 53 59 54
REMARK SMILES IDX 41 55 44 56 58 57 77 58 42 59 43 60 57 62 78 63 45 64 29 65
REMARK SMILES IDX 30 66 38 67 31 68 32 69 36 70 39 71 33 72 34 73 37 74 35 75
REMARK SMILES IDX 61 76 62 77 70 78 63 79 64 80 68 81 71 82 65 83 66 84 69 85
REMARK SMILES IDX 67 86 46 87 47 88 55 89 48 90 49 91 53 92 56 93 50 94 51 95
REMARK SMILES IDX 54 96 52 97
REMARK H PARENT 76 50 44 61
REMARK Flexibility Score: inf
ROOT
ATOM      1  C   UNL A   1      35.256  22.788  26.440  1.00  0.00     0.188 C 
ENDROOT
BRANCH   1   2
ATOM      2  C   UNL A   1      34.094  21.823  26.726  1.00  0.00     0.188 C 
BRANCH   2   3
ATOM      3  O   UNL A   1      32.862  22.226  26.158  1.00  0.00    -0.376 OA
BRANCH   3   4
ATOM      4  C   UNL A   1      32.272  21.451  25.126  1.00  0.00     0.202 C 
BRANCH   4   5
ATOM      5  C   UNL A   1      32.864  21.311  23.707  1.00  0.00     0.261 C 
BRANCH   5   6
ATOM      6  O   UNL A   1      32.433  22.290  22.757  1.00  0.00    -0.463 OA
BRANCH   6   7
ATOM      7  C   UNL A   1      33.200  23.379  22.523  1.00  0.00     0.313 C 
ATOM      8  O   UNL A   1      34.414  23.352  22.360  1.00  0.00    -0.252 OA
BRANCH   7   9
ATOM      9  C   UNL A   1      32.361  24.664  22.474  1.00  0.00     0.129 C 
ATOM     10  C   UNL A   1      32.888  25.640  21.397  1.00  0.00     0.025 C 
BRANCH   9  11
ATOM     11  C   UNL A   1      32.040  25.318  23.823  1.00  0.00     0.002 A 
ATOM     12  C   UNL A   1      33.003  25.347  24.848  1.00  0.00     0.008 A 
ATOM     13  C   UNL A   1      30.849  26.011  24.075  1.00  0.00     0.127 A 
ATOM     14  C   UNL A   1      32.788  26.054  26.043  1.00  0.00     0.004 A 
ATOM     15  C   UNL A   1      30.612  26.685  25.280  1.00  0.00     0.043 A 
ATOM     16  F   UNL A   1      29.883  26.071  23.149  1.00  0.00    -0.207 F 
ATOM     17  C   UNL A   1      31.592  26.746  26.277  1.00  0.00    -0.041 A 
BRANCH  17  18
ATOM     18  C   UNL A   1      31.421  27.691  27.445  1.00  0.00     0.074 C 
BRANCH  18  19
ATOM     19  C   UNL A   1      32.213  28.938  27.247  1.00  0.00    -0.005 A 
ATOM     20  C   UNL A   1      33.607  29.162  27.464  1.00  0.00     0.046 A 
ATOM     21  C   UNL A   1      31.763  30.102  26.649  1.00  0.00     0.198 A 
ATOM     22  C   UNL A   1      33.887  30.425  27.002  1.00  0.00     0.195 A 
ATOM     23  O   UNL A   1      32.767  31.003  26.504  1.00  0.00    -0.472 OA
ENDBRANCH  18  19
ENDBRANCH  17  18
ENDBRANCH   9  11
ENDBRANCH   7   9
ENDBRANCH   6   7
ENDBRANCH   5   6
ENDBRANCH   4   5
ENDBRANCH   3   4
ENDBRANCH   2   3
ENDBRANCH   1   2
BRANCH   1  24
ATOM     24  O   UNL A   1      36.177  22.355  25.452  1.00  0.00    -0.377 OA
BRANCH  24  25
ATOM     25  C   UNL A   1      37.368  23.113  25.248  1.00  0.00     0.188 C 
BRANCH  25  26
ATOM     26  C   UNL A   1      38.437  23.292  26.353  1.00  0.00     0.188 C 
BRANCH  26  27
ATOM     27  O   UNL A   1      39.281  22.173  26.565  1.00  0.00    -0.376 OA
BRANCH  27  28
ATOM     28  C   UNL A   1      39.212  21.090  25.653  1.00  0.00     0.202 C 
BRANCH  28  29
ATOM     29  C   UNL A   1      39.787  19.745  26.124  1.00  0.00     0.261 C 
BRANCH  29  30
ATOM     30  O   UNL A   1      40.944  19.269  25.416  1.00  0.00    -0.460 OA
BRANCH  30  31
ATOM     31  C   UNL A   1      42.084  19.104  26.116  1.00  0.00     0.338 C 
ATOM     32  O   UNL A   1      42.654  18.054  26.368  1.00  0.00    -0.246 OA
BRANCH  31  33
ATOM     33  C   UNL A   1      42.653  20.442  26.373  1.00  0.00     0.060 A 
ATOM     34  C   UNL A   1      42.593  20.970  27.670  1.00  0.00     0.016 A 
ATOM     35  C   UNL A   1      43.247  21.168  25.339  1.00  0.00     0.016 A 
ATOM     36  C   UNL A   1      43.092  22.246  27.927  1.00  0.00     0.010 A 
ATOM     37  C   UNL A   1      43.726  22.456  25.594  1.00  0.00     0.010 A 
ATOM     38  C   UNL A   1      43.616  23.014  26.880  1.00  0.00    -0.014 A 
BRANCH  38  39
ATOM     39  C   UNL A   1      43.846  24.465  27.079  1.00  0.00     0.031 A 
ATOM     40  C   UNL A   1      45.226  25.007  26.820  1.00  0.00     0.074 A 
ATOM     41  C   UNL A   1      42.857  25.291  27.459  1.00  0.00     0.049 A 
ATOM     42  N   UNL A   1      45.692  26.218  26.979  1.00  0.00    -0.248 NA
ATOM     43  C   UNL A   1      46.216  24.042  26.312  1.00  0.00     0.031 C 
ATOM     44  C   UNL A   1      41.471  24.897  27.695  1.00  0.00     0.029 A 
ATOM     45  N   UNL A   1      42.877  26.638  27.723  1.00  0.00    -0.354 N 
ATOM     46  C   UNL A   1      47.027  26.160  26.600  1.00  0.00     0.074 A 
ATOM     47  C   UNL A   1      47.307  24.788  26.237  1.00  0.00     0.031 C 
ATOM     48  C   UNL A   1      40.773  25.978  28.086  1.00  0.00     0.029 A 
ATOM     49  C   UNL A   1      41.672  27.130  28.163  1.00  0.00     0.049 A 
ATOM     50  H   UNL A   1      43.678  27.199  27.608  1.00  0.00     0.167 HD
ATOM     51  C   UNL A   1      47.935  27.163  26.549  1.00  0.00     0.037 A 
ATOM     52  C   UNL A   1      41.346  28.361  28.604  1.00  0.00     0.037 A 
ATOM     53  C   UNL A   1      47.654  28.525  26.917  1.00  0.00     0.049 A 
ATOM     54  C   UNL A   1      42.398  29.444  28.620  1.00  0.00     0.074 A 
ATOM     55  C   UNL A   1      48.501  29.619  26.893  1.00  0.00     0.029 A 
ATOM     56  N   UNL A   1      46.430  28.978  27.390  1.00  0.00    -0.354 N 
ATOM     57  N   UNL A   1      43.652  29.389  28.242  1.00  0.00    -0.248 NA
ATOM     58  C   UNL A   1      41.983  30.762  29.123  1.00  0.00     0.031 C 
ATOM     59  C   UNL A   1      47.810  30.718  27.411  1.00  0.00     0.029 A 
ATOM     60  C   UNL A   1      46.510  30.328  27.690  1.00  0.00     0.049 A 
ATOM     61  H   UNL A   1      45.625  28.423  27.496  1.00  0.00     0.167 HD
ATOM     62  C   UNL A   1      44.166  30.667  28.428  1.00  0.00     0.074 A 
ATOM     63  C   UNL A   1      43.083  31.479  28.942  1.00  0.00     0.031 C 
ATOM     64  C   UNL A   1      45.421  31.128  28.194  1.00  0.00     0.037 A 
BRANCH  51  65
ATOM     65  C   UNL A   1      49.328  26.813  26.109  1.00  0.00     0.064 A 
ATOM     66  C   UNL A   1      49.747  26.965  24.779  1.00  0.00     0.173 A 
ATOM     67  C   UNL A   1      50.264  26.334  27.039  1.00  0.00     0.173 A 
ATOM     68  F   UNL A   1      48.888  27.404  23.846  1.00  0.00    -0.203 F 
ATOM     69  C   UNL A   1      51.039  26.622  24.390  1.00  0.00     0.198 A 
ATOM     70  C   UNL A   1      51.565  26.025  26.654  1.00  0.00     0.198 A 
ATOM     71  F   UNL A   1      49.918  26.171  28.326  1.00  0.00    -0.203 F 
ATOM     72  F   UNL A   1      51.399  26.722  23.102  1.00  0.00    -0.200 F 
ATOM     73  C   UNL A   1      51.950  26.159  25.329  1.00  0.00     0.200 A 
ATOM     74  F   UNL A   1      52.447  25.593  27.565  1.00  0.00    -0.200 F 
ATOM     75  F   UNL A   1      53.195  25.836  24.954  1.00  0.00    -0.200 F 
ENDBRANCH  51  65
BRANCH  52  76
ATOM     76  C   UNL A   1      39.966  28.636  29.086  1.00  0.00     0.064 A 
ATOM     77  C   UNL A   1      39.594  28.378  30.413  1.00  0.00     0.173 A 
ATOM     78  C   UNL A   1      38.983  29.142  28.222  1.00  0.00     0.173 A 
ATOM     79  F   UNL A   1      40.489  27.866  31.272  1.00  0.00    -0.203 F 
ATOM     80  C   UNL A   1      38.289  28.596  30.851  1.00  0.00     0.198 A 
ATOM     81  C   UNL A   1      37.687  29.391  28.670  1.00  0.00     0.198 A 
ATOM     82  F   UNL A   1      39.283  29.403  26.942  1.00  0.00    -0.203 F 
ATOM     83  F   UNL A   1      37.947  28.290  32.110  1.00  0.00    -0.200 F 
ATOM     84  C   UNL A   1      37.339  29.108  29.981  1.00  0.00     0.200 A 
ATOM     85  F   UNL A   1      36.775  29.898  27.828  1.00  0.00    -0.200 F 
ATOM     86  F   UNL A   1      36.085  29.321  30.404  1.00  0.00    -0.200 F 
ENDBRANCH  52  76
BRANCH  64  87
ATOM     87  C   UNL A   1      45.685  32.586  28.443  1.00  0.00     0.064 A 
ATOM     88  C   UNL A   1      46.127  33.058  29.688  1.00  0.00     0.173 A 
ATOM     89  C   UNL A   1      45.536  33.521  27.406  1.00  0.00     0.173 A 
ATOM     90  F   UNL A   1      46.275  32.212  30.718  1.00  0.00    -0.203 F 
ATOM     91  C   UNL A   1      46.382  34.413  29.892  1.00  0.00     0.198 A 
ATOM     92  C   UNL A   1      45.827  34.867  27.603  1.00  0.00     0.198 A 
ATOM     93  F   UNL A   1      45.125  33.124  26.192  1.00  0.00    -0.203 F 
ATOM     94  F   UNL A   1      46.753  34.847  31.105  1.00  0.00    -0.200 F 
ATOM     95  C   UNL A   1      46.240  35.314  28.848  1.00  0.00     0.200 A 
ATOM     96  F   UNL A   1      45.707  35.734  26.586  1.00  0.00    -0.200 F 
ATOM     97  F   UNL A   1      46.496  36.615  29.044  1.00  0.00    -0.200 F 
ENDBRANCH  64  87
ENDBRANCH  38  39
ENDBRANCH  31  33
ENDBRANCH  30  31
ENDBRANCH  29  30
ENDBRANCH  28  29
ENDBRANCH  27  28
ENDBRANCH  26  27
ENDBRANCH  25  26
ENDBRANCH  24  25
ENDBRANCH   1  24
TORSDOF 23
ENDMDL
MODEL 3
REMARK VINA RESULT:     -10.1      5.076      8.169
REMARK SMILES C[C@@H](C(=O)OCCOCCOCCOCCOC(=O)c1ccc(-c2c3nc(c(-c4c(F)c(F)c(F)c(F)c4F)c4ccc([nH]4)c(-c4c(F)c(F)c(F)c(F)c4F)c4nc(c(-c5c(F)c(F)c(F)c(F)c5F)c5ccc2[nH]5)C=C4)C=C3)cc1)c1ccc(Cc2ccoc2)cc1F
REMARK SMILES IDX 10 1 9 2 8 3 7 4 6 5 5 6 3 7 4 8 2 9 1 10 83 11 84 12 94 13
REMARK SMILES IDX 85 14 93 15 95 16 86 17 87 18 88 19 89 20 92 21 90 22 91 23
REMARK SMILES IDX 11 24 12 25 13 26 14 27 15 28 16 29 17 30 18 31 19 32 20 33
REMARK SMILES IDX 21 34 82 35 22 36 81 37 23 38 24 39 25 40 75 41 26 42 80 43
REMARK SMILES IDX 74 44 76 45 27 46 79 47 73 48 72 49 28 51 60 52 40 53 59 54
REMARK SMILES IDX 41 55 44 56 58 57 77 58 42 59 43 60 57 62 78 63 45 64 29 65
REMARK SMILES IDX 30 66 38 67 31 68 32 69 36 70 39 71 33 72 34 73 37 74 35 75
REMARK SMILES IDX 61 76 62 77 70 78 63 79 64 80 68 81 71 82 65 83 66 84 69 85
REMARK SMILES IDX 67 86 46 87 47 88 55 89 48 90 49 91 53 92 56 93 50 94 51 95
REMARK SMILES IDX 54 96 52 97
REMARK H PARENT 76 50 44 61
REMARK Flexibility Score: inf
ROOT
ATOM      1  C   UNL A   1      39.677  22.071  26.817  1.00  0.00     0.188 C 
ENDROOT
BRANCH   1   2
ATOM      2  C   UNL A   1      39.652  23.602  26.681  1.00  0.00     0.188 C 
BRANCH   2   3
ATOM      3  O   UNL A   1      38.468  24.105  26.093  1.00  0.00    -0.376 OA
BRANCH   3   4
ATOM      4  C   UNL A   1      37.455  23.207  25.664  1.00  0.00     0.202 C 
BRANCH   4   5
ATOM      5  C   UNL A   1      35.985  23.281  26.126  1.00  0.00     0.261 C 
BRANCH   5   6
ATOM      6  O   UNL A   1      35.187  24.284  25.490  1.00  0.00    -0.463 OA
BRANCH   6   7
ATOM      7  C   UNL A   1      34.633  24.032  24.282  1.00  0.00     0.313 C 
ATOM      8  O   UNL A   1      35.235  24.086  23.216  1.00  0.00    -0.252 OA
BRANCH   7   9
ATOM      9  C   UNL A   1      33.150  23.657  24.405  1.00  0.00     0.129 C 
ATOM     10  C   UNL A   1      32.548  24.168  25.735  1.00  0.00     0.025 C 
BRANCH   9  11
ATOM     11  C   UNL A   1      32.784  22.209  24.057  1.00  0.00     0.002 A 
ATOM     12  C   UNL A   1      32.363  21.874  22.757  1.00  0.00     0.008 A 
ATOM     13  C   UNL A   1      32.953  21.139  24.946  1.00  0.00     0.127 A 
ATOM     14  C   UNL A   1      32.152  20.539  22.371  1.00  0.00     0.004 A 
ATOM     15  C   UNL A   1      32.705  19.811  24.580  1.00  0.00     0.043 A 
ATOM     16  F   UNL A   1      33.382  21.352  26.197  1.00  0.00    -0.207 F 
ATOM     17  C   UNL A   1      32.329  19.481  23.273  1.00  0.00    -0.041 A 
BRANCH  17  18
ATOM     18  C   UNL A   1      32.325  18.035  22.832  1.00  0.00     0.074 C 
BRANCH  18  19
ATOM     19  C   UNL A   1      33.042  17.173  23.814  1.00  0.00    -0.005 A 
ATOM     20  C   UNL A   1      34.404  16.743  23.808  1.00  0.00     0.046 A 
ATOM     21  C   UNL A   1      32.546  16.745  25.034  1.00  0.00     0.198 A 
ATOM     22  C   UNL A   1      34.622  16.088  24.996  1.00  0.00     0.195 A 
ATOM     23  O   UNL A   1      33.495  16.085  25.747  1.00  0.00    -0.472 OA
ENDBRANCH  18  19
ENDBRANCH  17  18
ENDBRANCH   9  11
ENDBRANCH   7   9
ENDBRANCH   6   7
ENDBRANCH   5   6
ENDBRANCH   4   5
ENDBRANCH   3   4
ENDBRANCH   2   3
ENDBRANCH   1   2
BRANCH   1  24
ATOM     24  O   UNL A   1      40.802  21.427  26.241  1.00  0.00    -0.377 OA
BRANCH  24  25
ATOM     25  C   UNL A   1      41.270  20.213  26.826  1.00  0.00     0.188 C 
BRANCH  25  26
ATOM     26  C   UNL A   1      42.305  19.300  26.127  1.00  0.00     0.188 C 
BRANCH  26  27
ATOM     27  O   UNL A   1      42.948  19.869  24.997  1.00  0.00    -0.376 OA
BRANCH  27  28
ATOM     28  C   UNL A   1      44.359  19.996  25.013  1.00  0.00     0.202 C 
BRANCH  28  29
ATOM     29  C   UNL A   1      44.931  21.373  25.384  1.00  0.00     0.261 C 
BRANCH  29  30
ATOM     30  O   UNL A   1      44.096  22.204  26.206  1.00  0.00    -0.460 OA
BRANCH  30  31
ATOM     31  C   UNL A   1      43.730  23.407  25.717  1.00  0.00     0.338 C 
ATOM     32  O   UNL A   1      43.441  23.681  24.564  1.00  0.00    -0.246 OA
BRANCH  31  33
ATOM     33  C   UNL A   1      43.546  24.320  26.862  1.00  0.00     0.060 A 
ATOM     34  C   UNL A   1      42.921  23.841  28.022  1.00  0.00     0.016 A 
ATOM     35  C   UNL A   1      43.993  25.641  26.793  1.00  0.00     0.016 A 
ATOM     36  C   UNL A   1      42.705  24.696  29.102  1.00  0.00     0.010 A 
ATOM     37  C   UNL A   1      43.755  26.502  27.867  1.00  0.00     0.010 A 
ATOM     38  C   UNL A   1      43.077  26.043  29.010  1.00  0.00    -0.014 A 
BRANCH  38  39
ATOM     39  C   UNL A   1      42.567  27.013  30.008  1.00  0.00     0.031 A 
ATOM     40  C   UNL A   1      43.254  27.083  31.345  1.00  0.00     0.074 A 
ATOM     41  C   UNL A   1      41.535  27.831  29.736  1.00  0.00     0.049 A 
ATOM     42  N   UNL A   1      42.962  27.800  32.399  1.00  0.00    -0.248 NA
ATOM     43  C   UNL A   1      44.435  26.219  31.513  1.00  0.00     0.031 C 
ATOM     44  C   UNL A   1      40.820  27.892  28.465  1.00  0.00     0.029 A 
ATOM     45  N   UNL A   1      40.907  28.761  30.526  1.00  0.00    -0.354 N 
ATOM     46  C   UNL A   1      43.914  27.469  33.354  1.00  0.00     0.074 A 
ATOM     47  C   UNL A   1      44.772  26.461  32.770  1.00  0.00     0.031 C 
ATOM     48  C   UNL A   1      39.834  28.802  28.566  1.00  0.00     0.029 A 
ATOM     49  C   UNL A   1      39.830  29.359  29.919  1.00  0.00     0.049 A 
ATOM     50  H   UNL A   1      41.200  28.979  31.441  1.00  0.00     0.167 HD
ATOM     51  C   UNL A   1      44.066  27.968  34.604  1.00  0.00     0.037 A 
ATOM     52  C   UNL A   1      38.930  30.232  30.412  1.00  0.00     0.037 A 
ATOM     53  C   UNL A   1      43.207  28.965  35.184  1.00  0.00     0.049 A 
ATOM     54  C   UNL A   1      39.069  30.711  31.838  1.00  0.00     0.074 A 
ATOM     55  C   UNL A   1      43.280  29.544  36.439  1.00  0.00     0.029 A 
ATOM     56  N   UNL A   1      42.105  29.523  34.550  1.00  0.00    -0.354 N 
ATOM     57  N   UNL A   1      39.981  30.411  32.730  1.00  0.00    -0.248 NA
ATOM     58  C   UNL A   1      38.049  31.654  32.322  1.00  0.00     0.031 C 
ATOM     59  C   UNL A   1      42.188  30.404  36.587  1.00  0.00     0.029 A 
ATOM     60  C   UNL A   1      41.474  30.417  35.400  1.00  0.00     0.049 A 
ATOM     61  H   UNL A   1      41.816  29.315  33.633  1.00  0.00     0.167 HD
ATOM     62  C   UNL A   1      39.668  31.150  33.865  1.00  0.00     0.074 A 
ATOM     63  C   UNL A   1      38.487  31.923  33.544  1.00  0.00     0.031 C 
ATOM     64  C   UNL A   1      40.301  31.187  35.064  1.00  0.00     0.037 A 
BRANCH  51  65
ATOM     65  C   UNL A   1      45.186  27.415  35.438  1.00  0.00     0.064 A 
ATOM     66  C   UNL A   1      46.485  27.942  35.381  1.00  0.00     0.173 A 
ATOM     67  C   UNL A   1      44.951  26.351  36.322  1.00  0.00     0.173 A 
ATOM     68  F   UNL A   1      46.768  28.950  34.540  1.00  0.00    -0.203 F 
ATOM     69  C   UNL A   1      47.512  27.406  36.152  1.00  0.00     0.198 A 
ATOM     70  C   UNL A   1      45.972  25.840  37.119  1.00  0.00     0.198 A 
ATOM     71  F   UNL A   1      43.727  25.809  36.420  1.00  0.00    -0.203 F 
ATOM     72  F   UNL A   1      48.758  27.889  36.037  1.00  0.00    -0.200 F 
ATOM     73  C   UNL A   1      47.254  26.360  37.027  1.00  0.00     0.200 A 
ATOM     74  F   UNL A   1      45.717  24.840  37.973  1.00  0.00    -0.200 F 
ATOM     75  F   UNL A   1      48.242  25.849  37.774  1.00  0.00    -0.200 F 
ENDBRANCH  51  65
BRANCH  52  76
ATOM     76  C   UNL A   1      37.804  30.701  29.561  1.00  0.00     0.064 A 
ATOM     77  C   UNL A   1      37.758  32.016  29.076  1.00  0.00     0.173 A 
ATOM     78  C   UNL A   1      36.738  29.850  29.234  1.00  0.00     0.173 A 
ATOM     79  F   UNL A   1      38.737  32.879  29.384  1.00  0.00    -0.203 F 
ATOM     80  C   UNL A   1      36.679  32.465  28.315  1.00  0.00     0.198 A 
ATOM     81  C   UNL A   1      35.677  30.290  28.446  1.00  0.00     0.198 A 
ATOM     82  F   UNL A   1      36.730  28.583  29.675  1.00  0.00    -0.203 F 
ATOM     83  F   UNL A   1      36.634  33.742  27.910  1.00  0.00    -0.200 F 
ATOM     84  C   UNL A   1      35.644  31.601  27.995  1.00  0.00     0.200 A 
ATOM     85  F   UNL A   1      34.685  29.447  28.129  1.00  0.00    -0.200 F 
ATOM     86  F   UNL A   1      34.610  32.033  27.260  1.00  0.00    -0.200 F 
ENDBRANCH  52  76
BRANCH  64  87
ATOM     87  C   UNL A   1      39.764  32.127  36.107  1.00  0.00     0.064 A 
ATOM     88  C   UNL A   1      40.316  33.400  36.314  1.00  0.00     0.173 A 
ATOM     89  C   UNL A   1      38.649  31.764  36.880  1.00  0.00     0.173 A 
ATOM     90  F   UNL A   1      41.388  33.794  35.612  1.00  0.00    -0.203 F 
ATOM     91  C   UNL A   1      39.790  34.261  37.275  1.00  0.00     0.198 A 
ATOM     92  C   UNL A   1      38.104  32.641  37.813  1.00  0.00     0.198 A 
ATOM     93  F   UNL A   1      38.075  30.563  36.717  1.00  0.00    -0.203 F 
ATOM     94  F   UNL A   1      40.367  35.452  37.492  1.00  0.00    -0.200 F 
ATOM     95  C   UNL A   1      38.681  33.885  38.017  1.00  0.00     0.200 A 
ATOM     96  F   UNL A   1      37.020  32.282  38.515  1.00  0.00    -0.200 F 
ATOM     97  F   UNL A   1      38.170  34.719  38.933  1.00  0.00    -0.200 F 
ENDBRANCH  64  87
ENDBRANCH  38  39
ENDBRANCH  31  33
ENDBRANCH  30  31
ENDBRANCH  29  30
ENDBRANCH  28  29
ENDBRANCH  27  28
ENDBRANCH  26  27
ENDBRANCH  25  26
ENDBRANCH  24  25
ENDBRANCH   1  24
TORSDOF 23
ENDMDL
