MODEL 1
REMARK VINA RESULT:     -10.8      0.000      0.000
REMARK SMILES Nc1nc(Nc2ccc(C(=O)OCCOCCOCCOCCOC(=O)c3ccc(-c4c5nc(c(-c6c(F)c(F)c(F)c(F)c6F)c6ccc([nH]6)c(-c6c(F)c(F)c(F)c(F)c6F)c6nc(c(-c7c(F)c(F)c(F)c(F)c7F)c7ccc4[nH]7)C=C6)C=C5)cc3)cc2)ccc1[N+](=O)[O-]
REMARK SMILES IDX 17 1 16 2 15 3 14 4 13 5 12 6 10 7 11 8 9 9 6 10 7 11 91 12
REMARK SMILES IDX 8 13 90 14 5 15 4 17 2 18 3 19 94 20 93 21 92 22 1 23 95 26
REMARK SMILES IDX 96 27 97 28 18 29 19 30 20 31 21 32 22 33 23 34 24 35 25 36
REMARK SMILES IDX 26 37 27 38 28 39 89 40 29 41 88 42 30 43 31 44 32 45 82 46
REMARK SMILES IDX 33 47 87 48 81 49 83 50 34 51 86 52 80 53 79 54 35 56 67 57
REMARK SMILES IDX 47 58 66 59 48 60 51 61 65 62 84 63 49 64 50 65 64 67 85 68
REMARK SMILES IDX 52 69 36 70 37 71 45 72 38 73 39 74 43 75 46 76 40 77 41 78
REMARK SMILES IDX 44 79 42 80 68 81 69 82 77 83 70 84 71 85 75 86 78 87 72 88
REMARK SMILES IDX 73 89 76 90 74 91 53 92 54 93 62 94 55 95 56 96 60 97 63 98
REMARK SMILES IDX 57 99 58 100 61 101 59 102
REMARK H PARENT 5 16 1 24 1 25 83 55 51 66
REMARK Flexibility Score: inf
ROOT
ATOM      1  C   UNL A   1      29.334  30.403  23.367  1.00  0.00     0.188 C 
ENDROOT
BRANCH   1   2
ATOM      2  C   UNL A   1      29.280  28.875  23.141  1.00  0.00     0.188 C 
BRANCH   2   3
ATOM      3  O   UNL A   1      30.097  28.423  22.075  1.00  0.00    -0.376 OA
BRANCH   3   4
ATOM      4  C   UNL A   1      31.025  27.383  22.308  1.00  0.00     0.202 C 
BRANCH   4   5
ATOM      5  C   UNL A   1      32.184  27.631  23.284  1.00  0.00     0.261 C 
BRANCH   5   6
ATOM      6  O   UNL A   1      32.528  26.537  24.138  1.00  0.00    -0.460 OA
BRANCH   6   7
ATOM      7  C   UNL A   1      31.849  26.445  25.303  1.00  0.00     0.338 C 
ATOM      8  O   UNL A   1      31.029  27.237  25.732  1.00  0.00    -0.246 OA
BRANCH   7   9
ATOM      9  C   UNL A   1      32.110  25.108  25.884  1.00  0.00     0.060 A 
ATOM     10  C   UNL A   1      32.668  22.543  26.854  1.00  0.00     0.040 A 
ATOM     11  C   UNL A   1      33.712  23.380  26.440  1.00  0.00     0.027 A 
ATOM     12  C   UNL A   1      31.356  23.042  26.865  1.00  0.00     0.027 A 
ATOM     13  C   UNL A   1      33.433  24.653  25.941  1.00  0.00     0.018 A 
ATOM     14  C   UNL A   1      31.073  24.323  26.393  1.00  0.00     0.018 A 
BRANCH  10  15
ATOM     15  N   UNL A   1      32.908  21.157  26.990  1.00  0.00    -0.340 N 
ATOM     16  H   UNL A   1      33.049  20.783  27.890  1.00  0.00     0.168 HD
BRANCH  15  17
ATOM     17  C   UNL A   1      32.949  20.292  25.876  1.00  0.00     0.133 A 
ATOM     18  C   UNL A   1      33.408  18.150  25.023  1.00  0.00     0.204 A 
ATOM     19  N   UNL A   1      33.384  19.021  26.048  1.00  0.00    -0.207 NA
ATOM     20  C   UNL A   1      32.996  18.538  23.758  1.00  0.00     0.311 A 
ATOM     21  C   UNL A   1      32.568  19.859  23.553  1.00  0.00     0.093 A 
ATOM     22  C   UNL A   1      32.561  20.750  24.627  1.00  0.00     0.054 A 
BRANCH  18  23
ATOM     23  N   UNL A   1      33.959  16.935  25.358  1.00  0.00    -0.378 N 
ATOM     24  H   UNL A   1      33.950  16.632  26.294  1.00  0.00     0.158 HD
ATOM     25  H   UNL A   1      34.361  16.368  24.661  1.00  0.00     0.158 HD
ENDBRANCH  18  23
BRANCH  20  26
ATOM     26  N   UNL A   1      32.962  17.594  22.645  1.00  0.00     0.066 N 
ATOM     27  O   UNL A   1      33.860  16.740  22.598  1.00  0.00    -0.258 OA
ATOM     28  O   UNL A   1      32.073  17.712  21.788  1.00  0.00    -0.258 OA
ENDBRANCH  20  26
ENDBRANCH  15  17
ENDBRANCH  10  15
ENDBRANCH   7   9
ENDBRANCH   6   7
ENDBRANCH   5   6
ENDBRANCH   4   5
ENDBRANCH   3   4
ENDBRANCH   2   3
ENDBRANCH   1   2
BRANCH   1  29
ATOM     29  O   UNL A   1      29.898  30.909  24.569  1.00  0.00    -0.377 OA
BRANCH  29  30
ATOM     30  C   UNL A   1      31.192  30.481  24.984  1.00  0.00     0.188 C 
BRANCH  30  31
ATOM     31  C   UNL A   1      31.595  30.441  26.478  1.00  0.00     0.188 C 
BRANCH  31  32
ATOM     32  O   UNL A   1      32.491  31.463  26.876  1.00  0.00    -0.376 OA
BRANCH  32  33
ATOM     33  C   UNL A   1      31.953  32.733  27.188  1.00  0.00     0.202 C 
BRANCH  33  34
ATOM     34  C   UNL A   1      32.940  33.833  27.601  1.00  0.00     0.261 C 
BRANCH  34  35
ATOM     35  O   UNL A   1      32.407  34.903  28.398  1.00  0.00    -0.460 OA
BRANCH  35  36
ATOM     36  C   UNL A   1      33.229  35.477  29.300  1.00  0.00     0.338 C 
ATOM     37  O   UNL A   1      33.066  36.540  29.880  1.00  0.00    -0.246 OA
BRANCH  36  38
ATOM     38  C   UNL A   1      34.295  34.505  29.612  1.00  0.00     0.060 A 
ATOM     39  C   UNL A   1      34.025  33.440  30.483  1.00  0.00     0.016 A 
ATOM     40  C   UNL A   1      35.557  34.640  29.029  1.00  0.00     0.016 A 
ATOM     41  C   UNL A   1      35.029  32.523  30.796  1.00  0.00     0.010 A 
ATOM     42  C   UNL A   1      36.568  33.735  29.362  1.00  0.00     0.010 A 
ATOM     43  C   UNL A   1      36.317  32.692  30.272  1.00  0.00    -0.014 A 
BRANCH  43  44
ATOM     44  C   UNL A   1      37.451  31.911  30.825  1.00  0.00     0.031 A 
ATOM     45  C   UNL A   1      37.904  32.216  32.227  1.00  0.00     0.074 A 
ATOM     46  C   UNL A   1      38.054  30.943  30.113  1.00  0.00     0.049 A 
ATOM     47  N   UNL A   1      38.911  31.727  32.904  1.00  0.00    -0.248 NA
ATOM     48  C   UNL A   1      37.111  33.213  32.964  1.00  0.00     0.031 C 
ATOM     49  C   UNL A   1      37.675  30.519  28.768  1.00  0.00     0.029 A 
ATOM     50  N   UNL A   1      39.128  30.146  30.429  1.00  0.00    -0.354 N 
ATOM     51  C   UNL A   1      38.870  32.354  34.143  1.00  0.00     0.074 A 
ATOM     52  C   UNL A   1      37.767  33.290  34.111  1.00  0.00     0.031 C 
ATOM     53  C   UNL A   1      38.511  29.543  28.368  1.00  0.00     0.029 A 
ATOM     54  C   UNL A   1      39.506  29.304  29.412  1.00  0.00     0.049 A 
ATOM     55  H   UNL A   1      39.583  30.176  31.302  1.00  0.00     0.167 HD
ATOM     56  C   UNL A   1      39.670  32.157  35.217  1.00  0.00     0.037 A 
ATOM     57  C   UNL A   1      40.553  28.459  29.331  1.00  0.00     0.037 A 
ATOM     58  C   UNL A   1      40.774  31.234  35.242  1.00  0.00     0.049 A 
ATOM     59  C   UNL A   1      41.499  28.341  30.504  1.00  0.00     0.074 A 
ATOM     60  C   UNL A   1      41.655  30.969  36.276  1.00  0.00     0.029 A 
ATOM     61  N   UNL A   1      41.153  30.429  34.177  1.00  0.00    -0.354 N 
ATOM     62  N   UNL A   1      41.447  28.925  31.677  1.00  0.00    -0.248 NA
ATOM     63  C   UNL A   1      42.650  27.441  30.338  1.00  0.00     0.031 C 
ATOM     64  C   UNL A   1      42.599  30.045  35.820  1.00  0.00     0.029 A 
ATOM     65  C   UNL A   1      42.267  29.682  34.524  1.00  0.00     0.049 A 
ATOM     66  H   UNL A   1      40.697  30.393  33.306  1.00  0.00     0.167 HD
ATOM     67  C   UNL A   1      42.526  28.432  32.400  1.00  0.00     0.074 A 
ATOM     68  C   UNL A   1      43.209  27.489  31.538  1.00  0.00     0.031 C 
ATOM     69  C   UNL A   1      42.921  28.729  33.663  1.00  0.00     0.037 A 
BRANCH  56  70
ATOM     70  C   UNL A   1      39.393  32.969  36.448  1.00  0.00     0.064 A 
ATOM     71  C   UNL A   1      40.035  34.196  36.680  1.00  0.00     0.173 A 
ATOM     72  C   UNL A   1      38.448  32.535  37.390  1.00  0.00     0.173 A 
ATOM     73  F   UNL A   1      40.959  34.648  35.820  1.00  0.00    -0.203 F 
ATOM     74  C   UNL A   1      39.756  34.946  37.821  1.00  0.00     0.198 A 
ATOM     75  C   UNL A   1      38.148  33.303  38.512  1.00  0.00     0.198 A 
ATOM     76  F   UNL A   1      37.804  31.371  37.216  1.00  0.00    -0.203 F 
ATOM     77  F   UNL A   1      40.416  36.090  38.044  1.00  0.00    -0.200 F 
ATOM     78  C   UNL A   1      38.807  34.504  38.730  1.00  0.00     0.200 A 
ATOM     79  F   UNL A   1      37.220  32.882  39.382  1.00  0.00    -0.200 F 
ATOM     80  F   UNL A   1      38.531  35.232  39.820  1.00  0.00    -0.200 F 
ENDBRANCH  56  70
BRANCH  57  81
ATOM     81  C   UNL A   1      40.790  27.663  28.095  1.00  0.00     0.064 A 
ATOM     82  C   UNL A   1      40.339  26.338  27.992  1.00  0.00     0.173 A 
ATOM     83  C   UNL A   1      41.526  28.183  27.021  1.00  0.00     0.173 A 
ATOM     84  F   UNL A   1      39.655  25.783  29.003  1.00  0.00    -0.203 F 
ATOM     85  C   UNL A   1      40.644  25.557  26.879  1.00  0.00     0.198 A 
ATOM     86  C   UNL A   1      41.799  27.411  25.892  1.00  0.00     0.198 A 
ATOM     87  F   UNL A   1      41.987  29.441  27.068  1.00  0.00    -0.203 F 
ATOM     88  F   UNL A   1      40.260  24.274  26.839  1.00  0.00    -0.200 F 
ATOM     89  C   UNL A   1      41.370  26.095  25.828  1.00  0.00     0.200 A 
ATOM     90  F   UNL A   1      42.493  27.940  24.875  1.00  0.00    -0.200 F 
ATOM     91  F   UNL A   1      41.671  25.340  24.762  1.00  0.00    -0.200 F 
ENDBRANCH  57  81
BRANCH  69  92
ATOM     92  C   UNL A   1      44.104  27.987  34.217  1.00  0.00     0.064 A 
ATOM     93  C   UNL A   1      44.002  26.667  34.682  1.00  0.00     0.173 A 
ATOM     94  C   UNL A   1      45.370  28.593  34.243  1.00  0.00     0.173 A 
ATOM     95  F   UNL A   1      42.814  26.044  34.692  1.00  0.00    -0.203 F 
ATOM     96  C   UNL A   1      45.116  25.997  35.184  1.00  0.00     0.198 A 
ATOM     97  C   UNL A   1      46.488  27.908  34.709  1.00  0.00     0.198 A 
ATOM     98  F   UNL A   1      45.527  29.850  33.800  1.00  0.00    -0.203 F 
ATOM     99  F   UNL A   1      44.983  24.756  35.676  1.00  0.00    -0.200 F 
ATOM    100  C   UNL A   1      46.358  26.613  35.188  1.00  0.00     0.200 A 
ATOM    101  F   UNL A   1      47.689  28.499  34.694  1.00  0.00    -0.200 F 
ATOM    102  F   UNL A   1      47.430  25.962  35.662  1.00  0.00    -0.200 F 
ENDBRANCH  69  92
ENDBRANCH  43  44
ENDBRANCH  36  38
ENDBRANCH  35  36
ENDBRANCH  34  35
ENDBRANCH  33  34
ENDBRANCH  32  33
ENDBRANCH  31  32
ENDBRANCH  30  31
ENDBRANCH  29  30
ENDBRANCH   1  29
TORSDOF 24
ENDMDL
MODEL 2
REMARK VINA RESULT:     -10.8      0.779      6.957
REMARK SMILES Nc1nc(Nc2ccc(C(=O)OCCOCCOCCOCCOC(=O)c3ccc(-c4c5nc(c(-c6c(F)c(F)c(F)c(F)c6F)c6ccc([nH]6)c(-c6c(F)c(F)c(F)c(F)c6F)c6nc(c(-c7c(F)c(F)c(F)c(F)c7F)c7ccc4[nH]7)C=C6)C=C5)cc3)cc2)ccc1[N+](=O)[O-]
REMARK SMILES IDX 17 1 16 2 15 3 14 4 13 5 12 6 10 7 11 8 9 9 6 10 7 11 91 12
REMARK SMILES IDX 8 13 90 14 5 15 4 17 2 18 3 19 94 20 93 21 92 22 1 23 95 26
REMARK SMILES IDX 96 27 97 28 18 29 19 30 20 31 21 32 22 33 23 34 24 35 25 36
REMARK SMILES IDX 26 37 27 38 28 39 89 40 29 41 88 42 30 43 31 44 32 45 82 46
REMARK SMILES IDX 33 47 87 48 81 49 83 50 34 51 86 52 80 53 79 54 35 56 67 57
REMARK SMILES IDX 47 58 66 59 48 60 51 61 65 62 84 63 49 64 50 65 64 67 85 68
REMARK SMILES IDX 52 69 36 70 37 71 45 72 38 73 39 74 43 75 46 76 40 77 41 78
REMARK SMILES IDX 44 79 42 80 68 81 69 82 77 83 70 84 71 85 75 86 78 87 72 88
REMARK SMILES IDX 73 89 76 90 74 91 53 92 54 93 62 94 55 95 56 96 60 97 63 98
REMARK SMILES IDX 57 99 58 100 61 101 59 102
REMARK H PARENT 5 16 1 24 1 25 83 55 51 66
REMARK Flexibility Score: inf
ROOT
ATOM      1  C   UNL A   1      29.566  30.917  23.476  1.00  0.00     0.188 C 
ENDROOT
BRANCH   1   2
ATOM      2  C   UNL A   1      29.148  29.518  22.970  1.00  0.00     0.188 C 
BRANCH   2   3
ATOM      3  O   UNL A   1      30.011  28.982  21.983  1.00  0.00    -0.376 OA
BRANCH   3   4
ATOM      4  C   UNL A   1      30.551  27.688  22.165  1.00  0.00     0.202 C 
BRANCH   4   5
ATOM      5  C   UNL A   1      31.646  27.486  23.222  1.00  0.00     0.261 C 
BRANCH   5   6
ATOM      6  O   UNL A   1      31.640  26.224  23.895  1.00  0.00    -0.460 OA
BRANCH   6   7
ATOM      7  C   UNL A   1      31.243  26.233  25.186  1.00  0.00     0.338 C 
ATOM      8  O   UNL A   1      30.508  27.046  25.717  1.00  0.00    -0.246 OA
BRANCH   7   9
ATOM      9  C   UNL A   1      31.681  24.963  25.811  1.00  0.00     0.060 A 
ATOM     10  C   UNL A   1      32.598  22.542  26.874  1.00  0.00     0.040 A 
ATOM     11  C   UNL A   1      33.501  23.580  26.609  1.00  0.00     0.027 A 
ATOM     12  C   UNL A   1      31.225  22.768  26.691  1.00  0.00     0.027 A 
ATOM     13  C   UNL A   1      33.046  24.781  26.063  1.00  0.00     0.018 A 
ATOM     14  C   UNL A   1      30.761  23.976  26.172  1.00  0.00     0.018 A 
BRANCH  10  15
ATOM     15  N   UNL A   1      33.089  21.230  27.056  1.00  0.00    -0.340 N 
ATOM     16  H   UNL A   1      33.432  20.967  27.941  1.00  0.00     0.168 HD
BRANCH  15  17
ATOM     17  C   UNL A   1      33.102  20.284  26.009  1.00  0.00     0.133 A 
ATOM     18  C   UNL A   1      33.131  18.027  25.353  1.00  0.00     0.204 A 
ATOM     19  N   UNL A   1      33.152  18.966  26.316  1.00  0.00    -0.207 NA
ATOM     20  C   UNL A   1      33.067  18.388  24.016  1.00  0.00     0.311 A 
ATOM     21  C   UNL A   1      33.042  19.750  23.677  1.00  0.00     0.093 A 
ATOM     22  C   UNL A   1      33.076  20.709  24.690  1.00  0.00     0.054 A 
BRANCH  18  23
ATOM     23  N   UNL A   1      33.276  16.748  25.840  1.00  0.00    -0.378 N 
ATOM     24  H   UNL A   1      33.927  16.565  26.555  1.00  0.00     0.158 HD
ATOM     25  H   UNL A   1      32.729  16.017  25.473  1.00  0.00     0.158 HD
ENDBRANCH  18  23
BRANCH  20  26
ATOM     26  N   UNL A   1      32.988  17.386  22.959  1.00  0.00     0.066 N 
ATOM     27  O   UNL A   1      33.704  16.380  23.075  1.00  0.00    -0.258 OA
ATOM     28  O   UNL A   1      32.248  17.600  21.986  1.00  0.00    -0.258 OA
ENDBRANCH  20  26
ENDBRANCH  15  17
ENDBRANCH  10  15
ENDBRANCH   7   9
ENDBRANCH   6   7
ENDBRANCH   5   6
ENDBRANCH   4   5
ENDBRANCH   3   4
ENDBRANCH   2   3
ENDBRANCH   1   2
BRANCH   1  29
ATOM     29  O   UNL A   1      30.119  31.049  24.779  1.00  0.00    -0.377 OA
BRANCH  29  30
ATOM     30  C   UNL A   1      31.346  30.402  25.101  1.00  0.00     0.188 C 
BRANCH  30  31
ATOM     31  C   UNL A   1      31.786  30.175  26.567  1.00  0.00     0.188 C 
BRANCH  31  32
ATOM     32  O   UNL A   1      32.617  31.192  27.098  1.00  0.00    -0.376 OA
BRANCH  32  33
ATOM     33  C   UNL A   1      32.055  32.477  27.286  1.00  0.00     0.202 C 
BRANCH  33  34
ATOM     34  C   UNL A   1      33.003  33.599  27.731  1.00  0.00     0.261 C 
BRANCH  34  35
ATOM     35  O   UNL A   1      32.385  34.779  28.270  1.00  0.00    -0.460 OA
BRANCH  35  36
ATOM     36  C   UNL A   1      33.110  35.525  29.128  1.00  0.00     0.338 C 
ATOM     37  O   UNL A   1      32.836  36.635  29.559  1.00  0.00    -0.246 OA
BRANCH  36  38
ATOM     38  C   UNL A   1      34.225  34.687  29.613  1.00  0.00     0.060 A 
ATOM     39  C   UNL A   1      33.997  33.765  30.644  1.00  0.00     0.016 A 
ATOM     40  C   UNL A   1      35.490  34.805  29.034  1.00  0.00     0.016 A 
ATOM     41  C   UNL A   1      35.047  32.978  31.120  1.00  0.00     0.010 A 
ATOM     42  C   UNL A   1      36.545  34.033  29.527  1.00  0.00     0.010 A 
ATOM     43  C   UNL A   1      36.335  33.140  30.594  1.00  0.00    -0.014 A 
BRANCH  43  44
ATOM     44  C   UNL A   1      37.500  32.535  31.285  1.00  0.00     0.031 A 
ATOM     45  C   UNL A   1      38.227  31.412  30.597  1.00  0.00     0.074 A 
ATOM     46  C   UNL A   1      37.917  32.977  32.484  1.00  0.00     0.049 A 
ATOM     47  N   UNL A   1      39.221  30.675  31.022  1.00  0.00    -0.248 NA
ATOM     48  C   UNL A   1      37.765  31.073  29.240  1.00  0.00     0.031 C 
ATOM     49  C   UNL A   1      37.331  34.089  33.228  1.00  0.00     0.029 A 
ATOM     50  N   UNL A   1      38.935  32.530  33.291  1.00  0.00    -0.354 N 
ATOM     51  C   UNL A   1      39.503  29.791  29.988  1.00  0.00     0.074 A 
ATOM     52  C   UNL A   1      38.549  30.052  28.932  1.00  0.00     0.031 C 
ATOM     53  C   UNL A   1      37.994  34.232  34.390  1.00  0.00     0.029 A 
ATOM     54  C   UNL A   1      39.022  33.198  34.488  1.00  0.00     0.049 A 
ATOM     55  H   UNL A   1      39.544  31.800  33.036  1.00  0.00     0.167 HD
ATOM     56  C   UNL A   1      40.478  28.855  29.918  1.00  0.00     0.037 A 
ATOM     57  C   UNL A   1      39.826  32.977  35.548  1.00  0.00     0.037 A 
ATOM     58  C   UNL A   1      41.418  28.589  30.975  1.00  0.00     0.049 A 
ATOM     59  C   UNL A   1      40.832  31.851  35.488  1.00  0.00     0.074 A 
ATOM     60  C   UNL A   1      42.437  27.653  31.010  1.00  0.00     0.029 A 
ATOM     61  N   UNL A   1      41.448  29.258  32.190  1.00  0.00    -0.354 N 
ATOM     62  N   UNL A   1      41.103  31.028  34.503  1.00  0.00    -0.248 NA
ATOM     63  C   UNL A   1      41.646  31.626  36.692  1.00  0.00     0.031 C 
ATOM     64  C   UNL A   1      43.048  27.719  32.265  1.00  0.00     0.029 A 
ATOM     65  C   UNL A   1      42.455  28.741  32.988  1.00  0.00     0.049 A 
ATOM     66  H   UNL A   1      40.844  29.992  32.446  1.00  0.00     0.167 HD
ATOM     67  C   UNL A   1      42.144  30.223  34.951  1.00  0.00     0.074 A 
ATOM     68  C   UNL A   1      42.464  30.664  36.292  1.00  0.00     0.031 C 
ATOM     69  C   UNL A   1      42.779  29.208  34.313  1.00  0.00     0.037 A 
BRANCH  56  70
ATOM     70  C   UNL A   1      40.567  28.036  28.664  1.00  0.00     0.064 A 
ATOM     71  C   UNL A   1      41.347  28.448  27.571  1.00  0.00     0.173 A 
ATOM     72  C   UNL A   1      39.895  26.809  28.565  1.00  0.00     0.173 A 
ATOM     73  F   UNL A   1      41.995  29.621  27.607  1.00  0.00    -0.203 F 
ATOM     74  C   UNL A   1      41.431  27.670  26.418  1.00  0.00     0.198 A 
ATOM     75  C   UNL A   1      40.009  26.018  27.424  1.00  0.00     0.198 A 
ATOM     76  F   UNL A   1      39.138  26.368  29.581  1.00  0.00    -0.203 F 
ATOM     77  F   UNL A   1      42.144  28.105  25.370  1.00  0.00    -0.200 F 
ATOM     78  C   UNL A   1      40.771  26.452  26.350  1.00  0.00     0.200 A 
ATOM     79  F   UNL A   1      39.382  24.835  27.366  1.00  0.00    -0.200 F 
ATOM     80  F   UNL A   1      40.863  25.700  25.246  1.00  0.00    -0.200 F 
ENDBRANCH  56  70
BRANCH  57  81
ATOM     81  C   UNL A   1      39.714  33.817  36.772  1.00  0.00     0.064 A 
ATOM     82  C   UNL A   1      38.902  33.425  37.846  1.00  0.00     0.173 A 
ATOM     83  C   UNL A   1      40.363  35.057  36.868  1.00  0.00     0.173 A 
ATOM     84  F   UNL A   1      38.238  32.261  37.793  1.00  0.00    -0.203 F 
ATOM     85  C   UNL A   1      38.716  34.254  38.951  1.00  0.00     0.198 A 
ATOM     86  C   UNL A   1      40.203  35.870  37.990  1.00  0.00     0.198 A 
ATOM     87  F   UNL A   1      41.146  35.486  35.868  1.00  0.00    -0.203 F 
ATOM     88  F   UNL A   1      37.879  33.884  39.929  1.00  0.00    -0.200 F 
ATOM     89  C   UNL A   1      39.370  35.474  39.024  1.00  0.00     0.200 A 
ATOM     90  F   UNL A   1      40.847  37.043  38.059  1.00  0.00    -0.200 F 
ATOM     91  F   UNL A   1      39.184  36.275  40.082  1.00  0.00    -0.200 F 
ENDBRANCH  57  81
BRANCH  69  92
ATOM     92  C   UNL A   1      43.925  28.546  35.024  1.00  0.00     0.064 A 
ATOM     93  C   UNL A   1      43.753  27.383  35.790  1.00  0.00     0.173 A 
ATOM     94  C   UNL A   1      45.225  29.062  34.902  1.00  0.00     0.173 A 
ATOM     95  F   UNL A   1      42.530  26.855  35.950  1.00  0.00    -0.203 F 
ATOM     96  C   UNL A   1      44.833  26.783  36.433  1.00  0.00     0.198 A 
ATOM     97  C   UNL A   1      46.308  28.438  35.514  1.00  0.00     0.198 A 
ATOM     98  F   UNL A   1      45.449  30.165  34.173  1.00  0.00    -0.203 F 
ATOM     99  F   UNL A   1      44.636  25.705  37.205  1.00  0.00    -0.200 F 
ATOM    100  C   UNL A   1      46.110  27.304  36.287  1.00  0.00     0.200 A 
ATOM    101  F   UNL A   1      47.543  28.933  35.355  1.00  0.00    -0.200 F 
ATOM    102  F   UNL A   1      47.149  26.718  36.898  1.00  0.00    -0.200 F 
ENDBRANCH  69  92
ENDBRANCH  43  44
ENDBRANCH  36  38
ENDBRANCH  35  36
ENDBRANCH  34  35
ENDBRANCH  33  34
ENDBRANCH  32  33
ENDBRANCH  31  32
ENDBRANCH  30  31
ENDBRANCH  29  30
ENDBRANCH   1  29
TORSDOF 24
ENDMDL
MODEL 3
REMARK VINA RESULT:     -10.6      0.611      2.054
REMARK SMILES Nc1nc(Nc2ccc(C(=O)OCCOCCOCCOCCOC(=O)c3ccc(-c4c5nc(c(-c6c(F)c(F)c(F)c(F)c6F)c6ccc([nH]6)c(-c6c(F)c(F)c(F)c(F)c6F)c6nc(c(-c7c(F)c(F)c(F)c(F)c7F)c7ccc4[nH]7)C=C6)C=C5)cc3)cc2)ccc1[N+](=O)[O-]
REMARK SMILES IDX 17 1 16 2 15 3 14 4 13 5 12 6 10 7 11 8 9 9 6 10 7 11 91 12
REMARK SMILES IDX 8 13 90 14 5 15 4 17 2 18 3 19 94 20 93 21 92 22 1 23 95 26
REMARK SMILES IDX 96 27 97 28 18 29 19 30 20 31 21 32 22 33 23 34 24 35 25 36
REMARK SMILES IDX 26 37 27 38 28 39 89 40 29 41 88 42 30 43 31 44 32 45 82 46
REMARK SMILES IDX 33 47 87 48 81 49 83 50 34 51 86 52 80 53 79 54 35 56 67 57
REMARK SMILES IDX 47 58 66 59 48 60 51 61 65 62 84 63 49 64 50 65 64 67 85 68
REMARK SMILES IDX 52 69 36 70 37 71 45 72 38 73 39 74 43 75 46 76 40 77 41 78
REMARK SMILES IDX 44 79 42 80 68 81 69 82 77 83 70 84 71 85 75 86 78 87 72 88
REMARK SMILES IDX 73 89 76 90 74 91 53 92 54 93 62 94 55 95 56 96 60 97 63 98
REMARK SMILES IDX 57 99 58 100 61 101 59 102
REMARK H PARENT 5 16 1 24 1 25 83 55 51 66
REMARK Flexibility Score: inf
ROOT
ATOM      1  C   UNL A   1      29.409  30.512  23.403  1.00  0.00     0.188 C 
ENDROOT
BRANCH   1   2
ATOM      2  C   UNL A   1      29.312  28.995  23.128  1.00  0.00     0.188 C 
BRANCH   2   3
ATOM      3  O   UNL A   1      30.135  28.549  22.064  1.00  0.00    -0.376 OA
BRANCH   3   4
ATOM      4  C   UNL A   1      30.995  27.446  22.271  1.00  0.00     0.202 C 
BRANCH   4   5
ATOM      5  C   UNL A   1      32.156  27.589  23.266  1.00  0.00     0.261 C 
BRANCH   5   6
ATOM      6  O   UNL A   1      32.434  26.442  24.072  1.00  0.00    -0.460 OA
BRANCH   6   7
ATOM      7  C   UNL A   1      31.784  26.363  25.254  1.00  0.00     0.338 C 
ATOM      8  O   UNL A   1      30.971  27.158  25.692  1.00  0.00    -0.246 OA
BRANCH   7   9
ATOM      9  C   UNL A   1      32.063  25.035  25.846  1.00  0.00     0.060 A 
ATOM     10  C   UNL A   1      32.661  22.487  26.839  1.00  0.00     0.040 A 
ATOM     11  C   UNL A   1      33.693  23.352  26.455  1.00  0.00     0.027 A 
ATOM     12  C   UNL A   1      31.336  22.951  26.809  1.00  0.00     0.027 A 
ATOM     13  C   UNL A   1      33.395  24.616  25.944  1.00  0.00     0.018 A 
ATOM     14  C   UNL A   1      31.033  24.223  26.326  1.00  0.00     0.018 A 
BRANCH  10  15
ATOM     15  N   UNL A   1      32.933  21.109  26.986  1.00  0.00    -0.340 N 
ATOM     16  H   UNL A   1      33.160  20.760  27.879  1.00  0.00     0.168 HD
BRANCH  15  17
ATOM     17  C   UNL A   1      32.890  20.217  25.894  1.00  0.00     0.133 A 
ATOM     18  C   UNL A   1      32.490  19.881  23.602  1.00  0.00     0.204 A 
ATOM     19  N   UNL A   1      32.513  20.685  24.680  1.00  0.00    -0.207 NA
ATOM     20  C   UNL A   1      32.844  18.544  23.710  1.00  0.00     0.311 A 
ATOM     21  C   UNL A   1      33.211  18.035  24.965  1.00  0.00     0.093 A 
ATOM     22  C   UNL A   1      33.218  18.883  26.074  1.00  0.00     0.054 A 
BRANCH  18  23
ATOM     23  N   UNL A   1      32.001  20.499  22.474  1.00  0.00    -0.378 N 
ATOM     24  H   UNL A   1      31.350  20.034  21.901  1.00  0.00     0.158 HD
ATOM     25  H   UNL A   1      32.302  21.407  22.241  1.00  0.00     0.158 HD
ENDBRANCH  18  23
BRANCH  20  26
ATOM     26  N   UNL A   1      32.879  17.668  22.544  1.00  0.00     0.066 N 
ATOM     27  O   UNL A   1      31.957  17.781  21.721  1.00  0.00    -0.258 OA
ATOM     28  O   UNL A   1      33.793  16.835  22.449  1.00  0.00    -0.258 OA
ENDBRANCH  20  26
ENDBRANCH  15  17
ENDBRANCH  10  15
ENDBRANCH   7   9
ENDBRANCH   6   7
ENDBRANCH   5   6
ENDBRANCH   4   5
ENDBRANCH   3   4
ENDBRANCH   2   3
ENDBRANCH   1   2
BRANCH   1  29
ATOM     29  O   UNL A   1      29.970  30.964  24.628  1.00  0.00    -0.377 OA
BRANCH  29  30
ATOM     30  C   UNL A   1      31.249  30.494  25.043  1.00  0.00     0.188 C 
BRANCH  30  31
ATOM     31  C   UNL A   1      31.651  30.440  26.536  1.00  0.00     0.188 C 
BRANCH  31  32
ATOM     32  O   UNL A   1      32.527  31.474  26.950  1.00  0.00    -0.376 OA
BRANCH  32  33
ATOM     33  C   UNL A   1      31.975  32.753  27.194  1.00  0.00     0.202 C 
BRANCH  33  34
ATOM     34  C   UNL A   1      32.943  33.868  27.612  1.00  0.00     0.261 C 
BRANCH  34  35
ATOM     35  O   UNL A   1      32.384  34.940  28.387  1.00  0.00    -0.460 OA
BRANCH  35  36
ATOM     36  C   UNL A   1      33.196  35.561  29.268  1.00  0.00     0.338 C 
ATOM     37  O   UNL A   1      33.022  36.648  29.797  1.00  0.00    -0.246 OA
BRANCH  36  38
ATOM     38  C   UNL A   1      34.264  34.609  29.633  1.00  0.00     0.060 A 
ATOM     39  C   UNL A   1      34.029  33.660  30.637  1.00  0.00     0.016 A 
ATOM     40  C   UNL A   1      35.493  34.649  28.970  1.00  0.00     0.016 A 
ATOM     41  C   UNL A   1      35.036  32.765  31.001  1.00  0.00     0.010 A 
ATOM     42  C   UNL A   1      36.507  33.768  29.351  1.00  0.00     0.010 A 
ATOM     43  C   UNL A   1      36.295  32.844  30.390  1.00  0.00    -0.014 A 
BRANCH  43  44
ATOM     44  C   UNL A   1      37.447  32.110  30.968  1.00  0.00     0.031 A 
ATOM     45  C   UNL A   1      37.926  32.508  32.337  1.00  0.00     0.074 A 
ATOM     46  C   UNL A   1      38.044  31.103  30.307  1.00  0.00     0.049 A 
ATOM     47  N   UNL A   1      38.951  32.072  33.023  1.00  0.00    -0.248 NA
ATOM     48  C   UNL A   1      37.139  33.544  33.026  1.00  0.00     0.031 C 
ATOM     49  C   UNL A   1      37.642  30.589  29.001  1.00  0.00     0.029 A 
ATOM     50  N   UNL A   1      39.132  30.337  30.651  1.00  0.00    -0.354 N 
ATOM     51  C   UNL A   1      38.930  32.778  34.220  1.00  0.00     0.074 A 
ATOM     52  C   UNL A   1      37.818  33.700  34.151  1.00  0.00     0.031 C 
ATOM     53  C   UNL A   1      38.478  29.597  28.647  1.00  0.00     0.029 A 
ATOM     54  C   UNL A   1      39.497  29.434  29.682  1.00  0.00     0.049 A 
ATOM     55  H   UNL A   1      39.604  30.427  31.510  1.00  0.00     0.167 HD
ATOM     56  C   UNL A   1      39.754  32.657  35.286  1.00  0.00     0.037 A 
ATOM     57  C   UNL A   1      40.550  28.594  29.634  1.00  0.00     0.037 A 
ATOM     58  C   UNL A   1      40.867  31.747  35.348  1.00  0.00     0.049 A 
ATOM     59  C   UNL A   1      41.521  28.560  30.791  1.00  0.00     0.074 A 
ATOM     60  C   UNL A   1      41.772  31.556  36.377  1.00  0.00     0.029 A 
ATOM     61  N   UNL A   1      41.231  30.878  34.329  1.00  0.00    -0.354 N 
ATOM     62  N   UNL A   1      41.488  29.218  31.925  1.00  0.00    -0.248 NA
ATOM     63  C   UNL A   1      42.677  27.659  30.659  1.00  0.00     0.031 C 
ATOM     64  C   UNL A   1      42.714  30.612  35.962  1.00  0.00     0.029 A 
ATOM     65  C   UNL A   1      42.359  30.163  34.700  1.00  0.00     0.049 A 
ATOM     66  H   UNL A   1      40.758  30.781  33.472  1.00  0.00     0.167 HD
ATOM     67  C   UNL A   1      42.586  28.780  32.655  1.00  0.00     0.074 A 
ATOM     68  C   UNL A   1      43.260  27.790  31.841  1.00  0.00     0.031 C 
ATOM     69  C   UNL A   1      43.004  29.162  33.888  1.00  0.00     0.037 A 
BRANCH  56  70
ATOM     70  C   UNL A   1      39.495  33.544  36.469  1.00  0.00     0.064 A 
ATOM     71  C   UNL A   1      38.747  33.101  37.571  1.00  0.00     0.173 A 
ATOM     72  C   UNL A   1      40.030  34.840  36.519  1.00  0.00     0.173 A 
ATOM     73  F   UNL A   1      38.198  31.877  37.567  1.00  0.00    -0.203 F 
ATOM     74  C   UNL A   1      38.526  33.930  38.668  1.00  0.00     0.198 A 
ATOM     75  C   UNL A   1      39.836  35.654  37.631  1.00  0.00     0.198 A 
ATOM     76  F   UNL A   1      40.754  35.313  35.493  1.00  0.00    -0.203 F 
ATOM     77  F   UNL A   1      37.769  33.502  39.687  1.00  0.00    -0.200 F 
ATOM     78  C   UNL A   1      39.078  35.202  38.701  1.00  0.00     0.200 A 
ATOM     79  F   UNL A   1      40.382  36.877  37.668  1.00  0.00    -0.200 F 
ATOM     80  F   UNL A   1      38.876  35.994  39.762  1.00  0.00    -0.200 F 
ENDBRANCH  56  70
BRANCH  57  81
ATOM     81  C   UNL A   1      40.769  27.721  28.447  1.00  0.00     0.064 A 
ATOM     82  C   UNL A   1      41.542  28.158  27.362  1.00  0.00     0.173 A 
ATOM     83  C   UNL A   1      40.158  26.463  28.343  1.00  0.00     0.173 A 
ATOM     84  F   UNL A   1      42.126  29.365  27.398  1.00  0.00    -0.203 F 
ATOM     85  C   UNL A   1      41.668  27.387  26.208  1.00  0.00     0.198 A 
ATOM     86  C   UNL A   1      40.314  25.677  27.202  1.00  0.00     0.198 A 
ATOM     87  F   UNL A   1      39.402  25.997  29.347  1.00  0.00    -0.203 F 
ATOM     88  F   UNL A   1      42.355  27.861  25.160  1.00  0.00    -0.200 F 
ATOM     89  C   UNL A   1      41.058  26.146  26.130  1.00  0.00     0.200 A 
ATOM     90  F   UNL A   1      39.730  24.472  27.137  1.00  0.00    -0.200 F 
ATOM     91  F   UNL A   1      41.171  25.408  25.017  1.00  0.00    -0.200 F 
ENDBRANCH  57  81
BRANCH  69  92
ATOM     92  C   UNL A   1      44.205  28.467  34.464  1.00  0.00     0.064 A 
ATOM     93  C   UNL A   1      45.507  28.952  34.275  1.00  0.00     0.173 A 
ATOM     94  C   UNL A   1      44.045  27.317  35.254  1.00  0.00     0.173 A 
ATOM     95  F   UNL A   1      45.719  30.040  33.518  1.00  0.00    -0.203 F 
ATOM     96  C   UNL A   1      46.605  28.294  34.826  1.00  0.00     0.198 A 
ATOM     97  C   UNL A   1      45.139  26.684  35.835  1.00  0.00     0.198 A 
ATOM     98  F   UNL A   1      42.821  26.815  35.477  1.00  0.00    -0.203 F 
ATOM     99  F   UNL A   1      47.844  28.745  34.585  1.00  0.00    -0.200 F 
ATOM    100  C   UNL A   1      46.419  27.168  35.613  1.00  0.00     0.200 A 
ATOM    101  F   UNL A   1      44.955  25.607  36.610  1.00  0.00    -0.200 F 
ATOM    102  F   UNL A   1      47.476  26.543  36.151  1.00  0.00    -0.200 F 
ENDBRANCH  69  92
ENDBRANCH  43  44
ENDBRANCH  36  38
ENDBRANCH  35  36
ENDBRANCH  34  35
ENDBRANCH  33  34
ENDBRANCH  32  33
ENDBRANCH  31  32
ENDBRANCH  30  31
ENDBRANCH  29  30
ENDBRANCH   1  29
TORSDOF 24
ENDMDL
