MODEL 1
REMARK VINA RESULT:     -10.8      0.000      0.000
REMARK SMILES CCc1cc(C)c2c(c1)C=C(C(=O)OCCOCCOCCOCCOC(=O)c1ccc(-c3c4nc(c(-c5c(F)c(F)c(F)c(F)c5F)c5ccc([nH]5)c(-c5c(F)c(F)c(F)c(F)c5F)c5nc(c(-c6c(F)c(F)c(F)c(F)c6F)c6ccc3[nH]6)C=C5)C=C4)cc1)[C@@H](C(F)(F)F)O2
REMARK SMILES IDX 21 1 20 2 19 3 18 4 17 5 16 6 15 7 14 8 12 9 13 10 11 11
REMARK SMILES IDX 3 12 4 13 9 14 5 15 8 16 6 17 7 18 10 19 97 20 92 21 2 22
REMARK SMILES IDX 1 23 93 24 94 25 95 26 96 27 22 28 23 29 24 30 25 31 26 32
REMARK SMILES IDX 27 33 28 34 29 35 30 36 91 37 31 38 90 39 32 40 33 41 34 42
REMARK SMILES IDX 84 43 35 44 89 45 83 46 85 47 36 48 88 49 82 50 81 51 37 53
REMARK SMILES IDX 69 54 49 55 68 56 50 57 53 58 67 59 86 60 51 61 52 62 66 64
REMARK SMILES IDX 87 65 54 66 38 67 39 68 47 69 40 70 41 71 45 72 48 73 42 74
REMARK SMILES IDX 43 75 46 76 44 77 70 78 71 79 79 80 72 81 73 82 77 83 80 84
REMARK SMILES IDX 74 85 75 86 78 87 76 88 55 89 56 90 64 91 57 92 58 93 62 94
REMARK SMILES IDX 65 95 59 96 60 97 63 98 61 99
REMARK H PARENT 85 52 53 63
REMARK Flexibility Score: inf
ROOT
ATOM      1  C   UNL A   1      33.544  35.591  30.641  1.00  0.00     0.188 C 
ENDROOT
BRANCH   1   2
ATOM      2  O   UNL A   1      32.882  34.626  29.821  1.00  0.00    -0.377 OA
BRANCH   2   3
ATOM      3  C   UNL A   1      33.356  34.441  28.495  1.00  0.00     0.188 C 
BRANCH   3   4
ATOM      4  C   UNL A   1      34.045  33.080  28.279  1.00  0.00     0.188 C 
BRANCH   4   5
ATOM      5  O   UNL A   1      33.344  32.249  27.364  1.00  0.00    -0.376 OA
BRANCH   5   6
ATOM      6  C   UNL A   1      33.307  30.849  27.585  1.00  0.00     0.202 C 
BRANCH   6   7
ATOM      7  C   UNL A   1      33.945  29.881  26.573  1.00  0.00     0.261 C 
BRANCH   7   8
ATOM      8  O   UNL A   1      33.752  28.484  26.817  1.00  0.00    -0.460 OA
BRANCH   8   9
ATOM      9  C   UNL A   1      32.563  27.946  26.487  1.00  0.00     0.338 C 
ATOM     10  O   UNL A   1      31.464  28.427  26.693  1.00  0.00    -0.246 OA
BRANCH   9  11
ATOM     11  C   UNL A   1      32.828  26.739  25.671  1.00  0.00     0.087 C 
ATOM     12  C   UNL A   1      34.993  22.445  25.217  1.00  0.00    -0.047 A 
ATOM     13  C   UNL A   1      34.564  22.391  23.884  1.00  0.00     0.011 A 
ATOM     14  C   UNL A   1      34.594  23.539  26.001  1.00  0.00     0.015 A 
ATOM     15  C   UNL A   1      33.767  23.408  23.333  1.00  0.00    -0.008 A 
ATOM     16  C   UNL A   1      33.822  24.573  25.458  1.00  0.00     0.018 A 
ATOM     17  C   UNL A   1      33.361  23.343  21.887  1.00  0.00     0.048 C 
ATOM     18  C   UNL A   1      33.378  24.489  24.138  1.00  0.00     0.130 A 
ATOM     19  C   UNL A   1      33.549  25.766  26.243  1.00  0.00     0.027 C 
ATOM     20  O   UNL A   1      32.576  25.430  23.558  1.00  0.00    -0.475 OA
ATOM     21  C   UNL A   1      32.218  26.626  24.298  1.00  0.00     0.316 C 
BRANCH  12  22
ATOM     22  C   UNL A   1      35.852  21.376  25.853  1.00  0.00     0.032 C 
ATOM     23  C   UNL A   1      36.253  20.216  24.949  1.00  0.00     0.009 C 
ENDBRANCH  12  22
BRANCH  21  24
ATOM     24  C   UNL A   1      32.546  27.835  23.412  1.00  0.00     0.430 C 
ATOM     25  F   UNL A   1      31.754  28.895  23.711  1.00  0.00    -0.167 F 
ATOM     26  F   UNL A   1      33.822  28.256  23.570  1.00  0.00    -0.167 F 
ATOM     27  F   UNL A   1      32.373  27.558  22.099  1.00  0.00    -0.167 F 
ENDBRANCH  21  24
ENDBRANCH   9  11
ENDBRANCH   8   9
ENDBRANCH   7   8
ENDBRANCH   6   7
ENDBRANCH   5   6
ENDBRANCH   4   5
ENDBRANCH   3   4
ENDBRANCH   2   3
ENDBRANCH   1   2
BRANCH   1  28
ATOM     28  C   UNL A   1      33.181  35.814  32.132  1.00  0.00     0.188 C 
BRANCH  28  29
ATOM     29  O   UNL A   1      34.271  36.235  32.941  1.00  0.00    -0.376 OA
BRANCH  29  30
ATOM     30  C   UNL A   1      34.828  35.289  33.838  1.00  0.00     0.202 C 
BRANCH  30  31
ATOM     31  C   UNL A   1      35.990  34.460  33.279  1.00  0.00     0.261 C 
BRANCH  31  32
ATOM     32  O   UNL A   1      35.878  33.038  33.445  1.00  0.00    -0.460 OA
BRANCH  32  33
ATOM     33  C   UNL A   1      35.355  32.324  32.426  1.00  0.00     0.338 C 
ATOM     34  O   UNL A   1      34.217  32.361  31.996  1.00  0.00    -0.246 OA
BRANCH  33  35
ATOM     35  C   UNL A   1      36.476  31.598  31.796  1.00  0.00     0.060 A 
ATOM     36  C   UNL A   1      37.457  31.006  32.603  1.00  0.00     0.016 A 
ATOM     37  C   UNL A   1      36.529  31.479  30.406  1.00  0.00     0.016 A 
ATOM     38  C   UNL A   1      38.506  30.299  32.014  1.00  0.00     0.010 A 
ATOM     39  C   UNL A   1      37.597  30.800  29.817  1.00  0.00     0.010 A 
ATOM     40  C   UNL A   1      38.602  30.230  30.617  1.00  0.00    -0.014 A 
BRANCH  40  41
ATOM     41  C   UNL A   1      39.863  29.773  29.993  1.00  0.00     0.031 A 
ATOM     42  C   UNL A   1      40.990  30.760  29.891  1.00  0.00     0.074 A 
ATOM     43  C   UNL A   1      40.013  28.517  29.537  1.00  0.00     0.049 A 
ATOM     44  N   UNL A   1      42.181  30.615  29.370  1.00  0.00    -0.248 NA
ATOM     45  C   UNL A   1      40.741  32.097  30.458  1.00  0.00     0.031 C 
ATOM     46  C   UNL A   1      39.007  27.461  29.621  1.00  0.00     0.029 A 
ATOM     47  N   UNL A   1      41.078  27.923  28.907  1.00  0.00    -0.354 N 
ATOM     48  C   UNL A   1      42.823  31.829  29.563  1.00  0.00     0.074 A 
ATOM     49  C   UNL A   1      41.883  32.717  30.209  1.00  0.00     0.031 C 
ATOM     50  C   UNL A   1      39.502  26.346  29.055  1.00  0.00     0.029 A 
ATOM     51  C   UNL A   1      40.846  26.618  28.546  1.00  0.00     0.049 A 
ATOM     52  H   UNL A   1      41.927  28.387  28.730  1.00  0.00     0.167 HD
ATOM     53  C   UNL A   1      44.093  32.169  29.243  1.00  0.00     0.037 A 
ATOM     54  C   UNL A   1      41.630  25.754  27.869  1.00  0.00     0.037 A 
ATOM     55  C   UNL A   1      45.018  31.292  28.579  1.00  0.00     0.049 A 
ATOM     56  C   UNL A   1      43.002  26.194  27.419  1.00  0.00     0.074 A 
ATOM     57  C   UNL A   1      46.324  31.544  28.207  1.00  0.00     0.029 A 
ATOM     58  N   UNL A   1      44.726  29.997  28.177  1.00  0.00    -0.354 N 
ATOM     59  N   UNL A   1      43.617  27.333  27.632  1.00  0.00    -0.248 NA
ATOM     60  C   UNL A   1      43.788  25.231  26.634  1.00  0.00     0.031 C 
ATOM     61  C   UNL A   1      46.808  30.423  27.529  1.00  0.00     0.029 A 
ATOM     62  C   UNL A   1      45.821  29.449  27.532  1.00  0.00     0.049 A 
ATOM     63  H   UNL A   1      43.869  29.537  28.327  1.00  0.00     0.167 HD
ATOM     64  C   UNL A   1      44.867  27.213  27.038  1.00  0.00     0.074 A 
ATOM     65  C   UNL A   1      44.929  25.886  26.461  1.00  0.00     0.031 C 
ATOM     66  C   UNL A   1      45.873  28.120  26.977  1.00  0.00     0.037 A 
BRANCH  53  67
ATOM     67  C   UNL A   1      44.554  33.550  29.597  1.00  0.00     0.064 A 
ATOM     68  C   UNL A   1      45.343  33.786  30.733  1.00  0.00     0.173 A 
ATOM     69  C   UNL A   1      44.255  34.638  28.765  1.00  0.00     0.173 A 
ATOM     70  F   UNL A   1      45.641  32.780  31.570  1.00  0.00    -0.203 F 
ATOM     71  C   UNL A   1      45.806  35.065  31.028  1.00  0.00     0.198 A 
ATOM     72  C   UNL A   1      44.744  35.910  29.047  1.00  0.00     0.198 A 
ATOM     73  F   UNL A   1      43.503  34.463  27.668  1.00  0.00    -0.203 F 
ATOM     74  F   UNL A   1      46.530  35.274  32.137  1.00  0.00    -0.200 F 
ATOM     75  C   UNL A   1      45.516  36.122  30.179  1.00  0.00     0.200 A 
ATOM     76  F   UNL A   1      44.473  36.929  28.220  1.00  0.00    -0.200 F 
ATOM     77  F   UNL A   1      45.979  37.350  30.455  1.00  0.00    -0.200 F 
ENDBRANCH  53  67
BRANCH  54  78
ATOM     78  C   UNL A   1      41.142  24.378  27.582  1.00  0.00     0.064 A 
ATOM     79  C   UNL A   1      40.100  24.159  26.670  1.00  0.00     0.173 A 
ATOM     80  C   UNL A   1      41.700  23.257  28.215  1.00  0.00     0.173 A 
ATOM     81  F   UNL A   1      39.513  25.200  26.063  1.00  0.00    -0.203 F 
ATOM     82  C   UNL A   1      39.630  22.874  26.408  1.00  0.00     0.198 A 
ATOM     83  C   UNL A   1      41.247  21.970  27.932  1.00  0.00     0.198 A 
ATOM     84  F   UNL A   1      42.693  23.411  29.103  1.00  0.00    -0.203 F 
ATOM     85  F   UNL A   1      38.607  22.697  25.562  1.00  0.00    -0.200 F 
ATOM     86  C   UNL A   1      40.209  21.779  27.032  1.00  0.00     0.200 A 
ATOM     87  F   UNL A   1      41.815  20.915  28.532  1.00  0.00    -0.200 F 
ATOM     88  F   UNL A   1      39.762  20.543  26.775  1.00  0.00    -0.200 F 
ENDBRANCH  54  78
BRANCH  66  89
ATOM     89  C   UNL A   1      47.146  27.721  26.288  1.00  0.00     0.064 A 
ATOM     90  C   UNL A   1      48.241  27.219  27.005  1.00  0.00     0.173 A 
ATOM     91  C   UNL A   1      47.226  27.730  24.886  1.00  0.00     0.173 A 
ATOM     92  F   UNL A   1      48.217  27.199  28.346  1.00  0.00    -0.203 F 
ATOM     93  C   UNL A   1      49.370  26.742  26.344  1.00  0.00     0.198 A 
ATOM     94  C   UNL A   1      48.344  27.224  24.228  1.00  0.00     0.198 A 
ATOM     95  F   UNL A   1      46.200  28.189  24.153  1.00  0.00    -0.203 F 
ATOM     96  F   UNL A   1      50.413  26.285  27.050  1.00  0.00    -0.200 F 
ATOM     97  C   UNL A   1      49.414  26.732  24.958  1.00  0.00     0.200 A 
ATOM     98  F   UNL A   1      48.375  27.194  22.889  1.00  0.00    -0.200 F 
ATOM     99  F   UNL A   1      50.489  26.242  24.324  1.00  0.00    -0.200 F 
ENDBRANCH  66  89
ENDBRANCH  40  41
ENDBRANCH  33  35
ENDBRANCH  32  33
ENDBRANCH  31  32
ENDBRANCH  30  31
ENDBRANCH  29  30
ENDBRANCH  28  29
ENDBRANCH   1  28
TORSDOF 22
ENDMDL
MODEL 2
REMARK VINA RESULT:     -10.1      0.565      7.095
REMARK SMILES CCc1cc(C)c2c(c1)C=C(C(=O)OCCOCCOCCOCCOC(=O)c1ccc(-c3c4nc(c(-c5c(F)c(F)c(F)c(F)c5F)c5ccc([nH]5)c(-c5c(F)c(F)c(F)c(F)c5F)c5nc(c(-c6c(F)c(F)c(F)c(F)c6F)c6ccc3[nH]6)C=C5)C=C4)cc1)[C@@H](C(F)(F)F)O2
REMARK SMILES IDX 21 1 20 2 19 3 18 4 17 5 16 6 15 7 14 8 12 9 13 10 11 11
REMARK SMILES IDX 3 12 4 13 9 14 5 15 8 16 6 17 7 18 10 19 97 20 92 21 2 22
REMARK SMILES IDX 1 23 93 24 94 25 95 26 96 27 22 28 23 29 24 30 25 31 26 32
REMARK SMILES IDX 27 33 28 34 29 35 30 36 91 37 31 38 90 39 32 40 33 41 34 42
REMARK SMILES IDX 84 43 35 44 89 45 83 46 85 47 36 48 88 49 82 50 81 51 37 53
REMARK SMILES IDX 69 54 49 55 68 56 50 57 53 58 67 59 86 60 51 61 52 62 66 64
REMARK SMILES IDX 87 65 54 66 38 67 39 68 47 69 40 70 41 71 45 72 48 73 42 74
REMARK SMILES IDX 43 75 46 76 44 77 70 78 71 79 79 80 72 81 73 82 77 83 80 84
REMARK SMILES IDX 74 85 75 86 78 87 76 88 55 89 56 90 64 91 57 92 58 93 62 94
REMARK SMILES IDX 65 95 59 96 60 97 63 98 61 99
REMARK H PARENT 85 52 53 63
REMARK Flexibility Score: inf
ROOT
ATOM      1  C   UNL A   1      33.932  35.118  30.431  1.00  0.00     0.188 C 
ENDROOT
BRANCH   1   2
ATOM      2  O   UNL A   1      33.145  34.428  29.458  1.00  0.00    -0.377 OA
BRANCH   2   3
ATOM      3  C   UNL A   1      33.815  33.847  28.349  1.00  0.00     0.188 C 
BRANCH   3   4
ATOM      4  C   UNL A   1      33.897  32.311  28.424  1.00  0.00     0.188 C 
BRANCH   4   5
ATOM      5  O   UNL A   1      34.178  31.714  27.164  1.00  0.00    -0.376 OA
BRANCH   5   6
ATOM      6  C   UNL A   1      33.503  30.523  26.794  1.00  0.00     0.202 C 
BRANCH   6   7
ATOM      7  C   UNL A   1      34.201  29.157  26.922  1.00  0.00     0.261 C 
BRANCH   7   8
ATOM      8  O   UNL A   1      33.387  28.062  27.354  1.00  0.00    -0.460 OA
BRANCH   8   9
ATOM      9  C   UNL A   1      32.304  27.755  26.617  1.00  0.00     0.338 C 
ATOM     10  O   UNL A   1      31.260  28.379  26.559  1.00  0.00    -0.246 OA
BRANCH   9  11
ATOM     11  C   UNL A   1      32.662  26.609  25.750  1.00  0.00     0.087 C 
ATOM     12  C   UNL A   1      34.948  22.390  25.204  1.00  0.00    -0.047 A 
ATOM     13  C   UNL A   1      34.635  22.418  23.838  1.00  0.00     0.011 A 
ATOM     14  C   UNL A   1      34.461  23.422  26.020  1.00  0.00     0.015 A 
ATOM     15  C   UNL A   1      33.866  23.457  23.288  1.00  0.00    -0.008 A 
ATOM     16  C   UNL A   1      33.716  24.478  25.482  1.00  0.00     0.018 A 
ATOM     17  C   UNL A   1      33.586  23.482  21.811  1.00  0.00     0.048 C 
ATOM     18  C   UNL A   1      33.387  24.475  24.125  1.00  0.00     0.130 A 
ATOM     19  C   UNL A   1      33.352  25.611  26.317  1.00  0.00     0.027 C 
ATOM     20  O   UNL A   1      32.618  25.441  23.542  1.00  0.00    -0.475 OA
ATOM     21  C   UNL A   1      32.174  26.579  24.325  1.00  0.00     0.316 C 
BRANCH  12  22
ATOM     22  C   UNL A   1      35.772  21.293  25.840  1.00  0.00     0.032 C 
ATOM     23  C   UNL A   1      36.373  20.269  24.885  1.00  0.00     0.009 C 
ENDBRANCH  12  22
BRANCH  21  24
ATOM     24  C   UNL A   1      32.549  27.850  23.552  1.00  0.00     0.430 C 
ATOM     25  F   UNL A   1      33.795  28.275  23.877  1.00  0.00    -0.167 F 
ATOM     26  F   UNL A   1      32.550  27.654  22.213  1.00  0.00    -0.167 F 
ATOM     27  F   UNL A   1      31.694  28.866  23.809  1.00  0.00    -0.167 F 
ENDBRANCH  21  24
ENDBRANCH   9  11
ENDBRANCH   8   9
ENDBRANCH   7   8
ENDBRANCH   6   7
ENDBRANCH   5   6
ENDBRANCH   4   5
ENDBRANCH   3   4
ENDBRANCH   2   3
ENDBRANCH   1   2
BRANCH   1  28
ATOM     28  C   UNL A   1      33.334  35.678  31.747  1.00  0.00     0.188 C 
BRANCH  28  29
ATOM     29  O   UNL A   1      34.297  36.223  32.640  1.00  0.00    -0.376 OA
BRANCH  29  30
ATOM     30  C   UNL A   1      34.866  35.352  33.604  1.00  0.00     0.202 C 
BRANCH  30  31
ATOM     31  C   UNL A   1      36.075  34.543  33.123  1.00  0.00     0.261 C 
BRANCH  31  32
ATOM     32  O   UNL A   1      36.040  33.137  33.415  1.00  0.00    -0.460 OA
BRANCH  32  33
ATOM     33  C   UNL A   1      35.548  32.310  32.469  1.00  0.00     0.338 C 
ATOM     34  O   UNL A   1      34.391  32.192  32.110  1.00  0.00    -0.246 OA
BRANCH  33  35
ATOM     35  C   UNL A   1      36.709  31.678  31.810  1.00  0.00     0.060 A 
ATOM     36  C   UNL A   1      37.648  30.982  32.582  1.00  0.00     0.016 A 
ATOM     37  C   UNL A   1      36.840  31.751  30.422  1.00  0.00     0.016 A 
ATOM     38  C   UNL A   1      38.734  30.363  31.962  1.00  0.00     0.010 A 
ATOM     39  C   UNL A   1      37.945  31.160  29.807  1.00  0.00     0.010 A 
ATOM     40  C   UNL A   1      38.909  30.487  30.577  1.00  0.00    -0.014 A 
BRANCH  40  41
ATOM     41  C   UNL A   1      40.207  30.121  29.968  1.00  0.00     0.031 A 
ATOM     42  C   UNL A   1      40.346  28.739  29.398  1.00  0.00     0.074 A 
ATOM     43  C   UNL A   1      41.232  30.989  29.911  1.00  0.00     0.049 A 
ATOM     44  N   UNL A   1      41.380  28.170  28.835  1.00  0.00    -0.248 NA
ATOM     45  C   UNL A   1      39.152  27.878  29.472  1.00  0.00     0.031 C 
ATOM     46  C   UNL A   1      41.199  32.369  30.390  1.00  0.00     0.029 A 
ATOM     47  N   UNL A   1      42.505  30.828  29.423  1.00  0.00    -0.354 N 
ATOM     48  C   UNL A   1      40.956  26.900  28.473  1.00  0.00     0.074 A 
ATOM     49  C   UNL A   1      39.588  26.759  28.916  1.00  0.00     0.031 C 
ATOM     50  C   UNL A   1      42.404  32.929  30.178  1.00  0.00     0.029 A 
ATOM     51  C   UNL A   1      43.298  31.940  29.575  1.00  0.00     0.049 A 
ATOM     52  H   UNL A   1      42.821  29.996  29.005  1.00  0.00     0.167 HD
ATOM     53  C   UNL A   1      41.645  25.940  27.815  1.00  0.00     0.037 A 
ATOM     54  C   UNL A   1      44.598  32.124  29.273  1.00  0.00     0.037 A 
ATOM     55  C   UNL A   1      43.013  26.073  27.398  1.00  0.00     0.049 A 
ATOM     56  C   UNL A   1      45.380  30.996  28.643  1.00  0.00     0.074 A 
ATOM     57  C   UNL A   1      43.801  25.155  26.729  1.00  0.00     0.029 A 
ATOM     58  N   UNL A   1      43.800  27.192  27.622  1.00  0.00    -0.354 N 
ATOM     59  N   UNL A   1      44.966  29.808  28.274  1.00  0.00    -0.248 NA
ATOM     60  C   UNL A   1      46.809  31.234  28.390  1.00  0.00     0.031 C 
ATOM     61  C   UNL A   1      45.082  25.695  26.597  1.00  0.00     0.029 A 
ATOM     62  C   UNL A   1      45.076  26.975  27.130  1.00  0.00     0.049 A 
ATOM     63  H   UNL A   1      43.497  28.018  28.064  1.00  0.00     0.167 HD
ATOM     64  C   UNL A   1      46.069  29.171  27.720  1.00  0.00     0.074 A 
ATOM     65  C   UNL A   1      47.172  30.106  27.792  1.00  0.00     0.031 C 
ATOM     66  C   UNL A   1      46.159  27.923  27.196  1.00  0.00     0.037 A 
BRANCH  53  67
ATOM     67  C   UNL A   1      40.933  24.656  27.513  1.00  0.00     0.064 A 
ATOM     68  C   UNL A   1      39.912  24.596  26.554  1.00  0.00     0.173 A 
ATOM     69  C   UNL A   1      41.313  23.463  28.146  1.00  0.00     0.173 A 
ATOM     70  F   UNL A   1      39.500  25.713  25.934  1.00  0.00    -0.203 F 
ATOM     71  C   UNL A   1      39.289  23.390  26.246  1.00  0.00     0.198 A 
ATOM     72  C   UNL A   1      40.708  22.254  27.815  1.00  0.00     0.198 A 
ATOM     73  F   UNL A   1      42.284  23.468  29.072  1.00  0.00    -0.203 F 
ATOM     74  F   UNL A   1      38.292  23.362  25.351  1.00  0.00    -0.200 F 
ATOM     75  C   UNL A   1      39.695  22.219  26.869  1.00  0.00     0.200 A 
ATOM     76  F   UNL A   1      41.109  21.122  28.409  1.00  0.00    -0.200 F 
ATOM     77  F   UNL A   1      39.107  21.056  26.559  1.00  0.00    -0.200 F 
ENDBRANCH  53  67
BRANCH  54  78
ATOM     78  C   UNL A   1      45.247  33.434  29.550  1.00  0.00     0.064 A 
ATOM     79  C   UNL A   1      45.819  33.703  30.801  1.00  0.00     0.173 A 
ATOM     80  C   UNL A   1      45.303  34.444  28.578  1.00  0.00     0.173 A 
ATOM     81  F   UNL A   1      45.765  32.782  31.774  1.00  0.00    -0.203 F 
ATOM     82  C   UNL A   1      46.416  34.933  31.072  1.00  0.00     0.198 A 
ATOM     83  C   UNL A   1      45.923  35.664  28.841  1.00  0.00     0.198 A 
ATOM     84  F   UNL A   1      44.763  34.242  27.367  1.00  0.00    -0.203 F 
ATOM     85  F   UNL A   1      46.920  35.178  32.288  1.00  0.00    -0.200 F 
ATOM     86  C   UNL A   1      46.475  35.910  30.089  1.00  0.00     0.200 A 
ATOM     87  F   UNL A   1      45.985  36.602  27.886  1.00  0.00    -0.200 F 
ATOM     88  F   UNL A   1      47.054  37.090  30.347  1.00  0.00    -0.200 F 
ENDBRANCH  54  78
BRANCH  66  89
ATOM     89  C   UNL A   1      47.480  27.484  26.632  1.00  0.00     0.064 A 
ATOM     90  C   UNL A   1      48.457  26.882  27.435  1.00  0.00     0.173 A 
ATOM     91  C   UNL A   1      47.718  27.559  25.249  1.00  0.00     0.173 A 
ATOM     92  F   UNL A   1      48.279  26.796  28.762  1.00  0.00    -0.203 F 
ATOM     93  C   UNL A   1      49.626  26.371  26.878  1.00  0.00     0.198 A 
ATOM     94  C   UNL A   1      48.875  27.021  24.692  1.00  0.00     0.198 A 
ATOM     95  F   UNL A   1      46.809  28.115  24.435  1.00  0.00    -0.203 F 
ATOM     96  F   UNL A   1      50.556  25.818  27.668  1.00  0.00    -0.200 F 
ATOM     97  C   UNL A   1      49.827  26.429  25.507  1.00  0.00     0.200 A 
ATOM     98  F   UNL A   1      49.057  27.057  23.365  1.00  0.00    -0.200 F 
ATOM     99  F   UNL A   1      50.939  25.908  24.968  1.00  0.00    -0.200 F 
ENDBRANCH  66  89
ENDBRANCH  40  41
ENDBRANCH  33  35
ENDBRANCH  32  33
ENDBRANCH  31  32
ENDBRANCH  30  31
ENDBRANCH  29  30
ENDBRANCH  28  29
ENDBRANCH   1  28
TORSDOF 22
ENDMDL
MODEL 3
REMARK VINA RESULT:     -10.0      4.184     10.044
REMARK SMILES CCc1cc(C)c2c(c1)C=C(C(=O)OCCOCCOCCOCCOC(=O)c1ccc(-c3c4nc(c(-c5c(F)c(F)c(F)c(F)c5F)c5ccc([nH]5)c(-c5c(F)c(F)c(F)c(F)c5F)c5nc(c(-c6c(F)c(F)c(F)c(F)c6F)c6ccc3[nH]6)C=C5)C=C4)cc1)[C@@H](C(F)(F)F)O2
REMARK SMILES IDX 21 1 20 2 19 3 18 4 17 5 16 6 15 7 14 8 12 9 13 10 11 11
REMARK SMILES IDX 3 12 4 13 9 14 5 15 8 16 6 17 7 18 10 19 97 20 92 21 2 22
REMARK SMILES IDX 1 23 93 24 94 25 95 26 96 27 22 28 23 29 24 30 25 31 26 32
REMARK SMILES IDX 27 33 28 34 29 35 30 36 91 37 31 38 90 39 32 40 33 41 34 42
REMARK SMILES IDX 84 43 35 44 89 45 83 46 85 47 36 48 88 49 82 50 81 51 37 53
REMARK SMILES IDX 69 54 49 55 68 56 50 57 53 58 67 59 86 60 51 61 52 62 66 64
REMARK SMILES IDX 87 65 54 66 38 67 39 68 47 69 40 70 41 71 45 72 48 73 42 74
REMARK SMILES IDX 43 75 46 76 44 77 70 78 71 79 79 80 72 81 73 82 77 83 80 84
REMARK SMILES IDX 74 85 75 86 78 87 76 88 55 89 56 90 64 91 57 92 58 93 62 94
REMARK SMILES IDX 65 95 59 96 60 97 63 98 61 99
REMARK H PARENT 85 52 53 63
REMARK Flexibility Score: inf
ROOT
ATOM      1  C   UNL A   1      41.595  21.161  26.317  1.00  0.00     0.188 C 
ENDROOT
BRANCH   1   2
ATOM      2  O   UNL A   1      41.148  22.474  26.662  1.00  0.00    -0.377 OA
BRANCH   2   3
ATOM      3  C   UNL A   1      39.758  22.750  26.571  1.00  0.00     0.188 C 
BRANCH   3   4
ATOM      4  C   UNL A   1      39.366  24.110  27.180  1.00  0.00     0.188 C 
BRANCH   4   5
ATOM      5  O   UNL A   1      38.030  24.484  26.873  1.00  0.00    -0.376 OA
BRANCH   5   6
ATOM      6  C   UNL A   1      37.278  23.693  25.967  1.00  0.00     0.202 C 
BRANCH   6   7
ATOM      7  C   UNL A   1      35.803  23.362  26.256  1.00  0.00     0.261 C 
BRANCH   7   8
ATOM      8  O   UNL A   1      34.887  23.529  25.169  1.00  0.00    -0.460 OA
BRANCH   8   9
ATOM      9  C   UNL A   1      33.588  23.255  25.395  1.00  0.00     0.338 C 
ATOM     10  O   UNL A   1      32.782  23.965  25.966  1.00  0.00    -0.246 OA
BRANCH   9  11
ATOM     11  C   UNL A   1      33.263  22.003  24.674  1.00  0.00     0.087 C 
ATOM     12  C   UNL A   1      33.553  17.189  24.401  1.00  0.00    -0.047 A 
ATOM     13  C   UNL A   1      32.960  17.244  23.133  1.00  0.00     0.011 A 
ATOM     14  C   UNL A   1      33.709  18.388  25.116  1.00  0.00     0.015 A 
ATOM     15  C   UNL A   1      32.543  18.464  22.575  1.00  0.00    -0.008 A 
ATOM     16  C   UNL A   1      33.321  19.614  24.563  1.00  0.00     0.018 A 
ATOM     17  C   UNL A   1      31.952  18.494  21.193  1.00  0.00     0.048 C 
ATOM     18  C   UNL A   1      32.705  19.647  23.311  1.00  0.00     0.130 A 
ATOM     19  C   UNL A   1      33.630  20.854  25.256  1.00  0.00     0.027 C 
ATOM     20  O   UNL A   1      32.250  20.798  22.733  1.00  0.00    -0.475 OA
ATOM     21  C   UNL A   1      32.477  22.072  23.390  1.00  0.00     0.316 C 
BRANCH  12  22
ATOM     22  C   UNL A   1      34.019  15.901  25.041  1.00  0.00     0.032 C 
ATOM     23  C   UNL A   1      35.494  15.837  25.417  1.00  0.00     0.009 C 
ENDBRANCH  12  22
BRANCH  21  24
ATOM     24  C   UNL A   1      33.116  23.016  22.364  1.00  0.00     0.430 C 
ATOM     25  F   UNL A   1      32.758  22.686  21.099  1.00  0.00    -0.167 F 
ATOM     26  F   UNL A   1      32.738  24.302  22.545  1.00  0.00    -0.167 F 
ATOM     27  F   UNL A   1      34.468  22.983  22.424  1.00  0.00    -0.167 F 
ENDBRANCH  21  24
ENDBRANCH   9  11
ENDBRANCH   8   9
ENDBRANCH   7   8
ENDBRANCH   6   7
ENDBRANCH   5   6
ENDBRANCH   4   5
ENDBRANCH   3   4
ENDBRANCH   2   3
ENDBRANCH   1   2
BRANCH   1  28
ATOM     28  C   UNL A   1      41.753  20.028  27.363  1.00  0.00     0.188 C 
BRANCH  28  29
ATOM     29  O   UNL A   1      41.942  18.737  26.800  1.00  0.00    -0.376 OA
BRANCH  29  30
ATOM     30  C   UNL A   1      43.265  18.228  26.751  1.00  0.00     0.202 C 
BRANCH  30  31
ATOM     31  C   UNL A   1      43.899  18.181  25.357  1.00  0.00     0.261 C 
BRANCH  31  32
ATOM     32  O   UNL A   1      44.991  19.087  25.137  1.00  0.00    -0.460 OA
BRANCH  32  33
ATOM     33  C   UNL A   1      44.892  19.954  24.108  1.00  0.00     0.338 C 
ATOM     34  O   UNL A   1      44.669  19.702  22.938  1.00  0.00    -0.246 OA
BRANCH  33  35
ATOM     35  C   UNL A   1      44.934  21.311  24.690  1.00  0.00     0.060 A 
ATOM     36  C   UNL A   1      44.591  22.415  23.898  1.00  0.00     0.016 A 
ATOM     37  C   UNL A   1      45.280  21.477  26.032  1.00  0.00     0.016 A 
ATOM     38  C   UNL A   1      44.605  23.696  24.449  1.00  0.00     0.010 A 
ATOM     39  C   UNL A   1      45.328  22.764  26.573  1.00  0.00     0.010 A 
ATOM     40  C   UNL A   1      45.016  23.878  25.777  1.00  0.00    -0.014 A 
BRANCH  40  41
ATOM     41  C   UNL A   1      45.345  25.238  26.260  1.00  0.00     0.031 A 
ATOM     42  C   UNL A   1      44.229  26.066  26.829  1.00  0.00     0.074 A 
ATOM     43  C   UNL A   1      46.597  25.724  26.207  1.00  0.00     0.049 A 
ATOM     44  N   UNL A   1      44.252  27.287  27.296  1.00  0.00    -0.248 NA
ATOM     45  C   UNL A   1      42.902  25.426  26.883  1.00  0.00     0.031 C 
ATOM     46  C   UNL A   1      47.766  24.999  25.718  1.00  0.00     0.029 A 
ATOM     47  N   UNL A   1      47.087  26.955  26.570  1.00  0.00    -0.354 N 
ATOM     48  C   UNL A   1      42.954  27.552  27.712  1.00  0.00     0.074 A 
ATOM     49  C   UNL A   1      42.157  26.386  27.406  1.00  0.00     0.031 C 
ATOM     50  C   UNL A   1      48.842  25.803  25.805  1.00  0.00     0.029 A 
ATOM     51  C   UNL A   1      48.430  27.105  26.329  1.00  0.00     0.049 A 
ATOM     52  H   UNL A   1      46.529  27.662  26.965  1.00  0.00     0.167 HD
ATOM     53  C   UNL A   1      42.475  28.666  28.311  1.00  0.00     0.037 A 
ATOM     54  C   UNL A   1      49.227  28.179  26.501  1.00  0.00     0.037 A 
ATOM     55  C   UNL A   1      43.264  29.833  28.591  1.00  0.00     0.049 A 
ATOM     56  C   UNL A   1      48.642  29.452  27.064  1.00  0.00     0.074 A 
ATOM     57  C   UNL A   1      42.869  31.014  29.190  1.00  0.00     0.029 A 
ATOM     58  N   UNL A   1      44.608  29.968  28.278  1.00  0.00    -0.354 N 
ATOM     59  N   UNL A   1      47.423  29.687  27.486  1.00  0.00    -0.248 NA
ATOM     60  C   UNL A   1      49.543  30.610  27.175  1.00  0.00     0.031 C 
ATOM     61  C   UNL A   1      43.959  31.887  29.190  1.00  0.00     0.029 A 
ATOM     62  C   UNL A   1      45.050  31.228  28.645  1.00  0.00     0.049 A 
ATOM     63  H   UNL A   1      45.165  29.274  27.858  1.00  0.00     0.167 HD
ATOM     64  C   UNL A   1      47.417  31.001  27.937  1.00  0.00     0.074 A 
ATOM     65  C   UNL A   1      48.758  31.513  27.747  1.00  0.00     0.031 C 
ATOM     66  C   UNL A   1      46.394  31.718  28.463  1.00  0.00     0.037 A 
BRANCH  53  67
ATOM     67  C   UNL A   1      41.026  28.680  28.694  1.00  0.00     0.064 A 
ATOM     68  C   UNL A   1      40.613  28.342  29.991  1.00  0.00     0.173 A 
ATOM     69  C   UNL A   1      40.048  29.090  27.777  1.00  0.00     0.173 A 
ATOM     70  F   UNL A   1      41.508  27.926  30.900  1.00  0.00    -0.203 F 
ATOM     71  C   UNL A   1      39.269  28.405  30.352  1.00  0.00     0.198 A 
ATOM     72  C   UNL A   1      38.711  29.179  28.149  1.00  0.00     0.198 A 
ATOM     73  F   UNL A   1      40.394  29.423  26.524  1.00  0.00    -0.203 F 
ATOM     74  F   UNL A   1      38.892  28.044  31.587  1.00  0.00    -0.200 F 
ATOM     75  C   UNL A   1      38.322  28.833  29.435  1.00  0.00     0.200 A 
ATOM     76  F   UNL A   1      37.797  29.605  27.266  1.00  0.00    -0.200 F 
ATOM     77  F   UNL A   1      37.032  28.910  29.789  1.00  0.00    -0.200 F 
ENDBRANCH  53  67
BRANCH  54  78
ATOM     78  C   UNL A   1      50.670  28.099  26.147  1.00  0.00     0.064 A 
ATOM     79  C   UNL A   1      51.091  28.211  24.814  1.00  0.00     0.173 A 
ATOM     80  C   UNL A   1      51.654  27.903  27.127  1.00  0.00     0.173 A 
ATOM     81  F   UNL A   1      50.186  28.369  23.838  1.00  0.00    -0.203 F 
ATOM     82  C   UNL A   1      52.439  28.122  24.475  1.00  0.00     0.198 A 
ATOM     83  C   UNL A   1      53.005  27.841  26.789  1.00  0.00     0.198 A 
ATOM     84  F   UNL A   1      51.305  27.780  28.415  1.00  0.00    -0.203 F 
ATOM     85  F   UNL A   1      52.810  28.194  23.189  1.00  0.00    -0.200 F 
ATOM     86  C   UNL A   1      53.397  27.946  25.463  1.00  0.00     0.200 A 
ATOM     87  F   UNL A   1      53.927  27.678  27.747  1.00  0.00    -0.200 F 
ATOM     88  F   UNL A   1      54.693  27.868  25.137  1.00  0.00    -0.200 F 
ENDBRANCH  54  78
BRANCH  66  89
ATOM     89  C   UNL A   1      46.666  33.128  28.901  1.00  0.00     0.064 A 
ATOM     90  C   UNL A   1      46.450  34.216  28.046  1.00  0.00     0.173 A 
ATOM     91  C   UNL A   1      47.032  33.398  30.231  1.00  0.00     0.173 A 
ATOM     92  F   UNL A   1      46.109  34.010  26.765  1.00  0.00    -0.203 F 
ATOM     93  C   UNL A   1      46.592  35.524  28.502  1.00  0.00     0.198 A 
ATOM     94  C   UNL A   1      47.143  34.707  30.691  1.00  0.00     0.198 A 
ATOM     95  F   UNL A   1      47.239  32.392  31.093  1.00  0.00    -0.203 F 
ATOM     96  F   UNL A   1      46.400  36.549  27.661  1.00  0.00    -0.200 F 
ATOM     97  C   UNL A   1      46.924  35.768  29.826  1.00  0.00     0.200 A 
ATOM     98  F   UNL A   1      47.442  34.941  31.976  1.00  0.00    -0.200 F 
ATOM     99  F   UNL A   1      47.029  37.028  30.272  1.00  0.00    -0.200 F 
ENDBRANCH  66  89
ENDBRANCH  40  41
ENDBRANCH  33  35
ENDBRANCH  32  33
ENDBRANCH  31  32
ENDBRANCH  30  31
ENDBRANCH  29  30
ENDBRANCH  28  29
ENDBRANCH   1  28
TORSDOF 22
ENDMDL
