MODEL 1
REMARK VINA RESULT:     -11.2      0.000      0.000
REMARK SMILES Nc1nonc1C(=O)N1[C@@H]2CC[C@H]1C[C@H](CC(=O)OCCOCCOCCOCCOC(=O)c1ccc(-c3c4nc(c(-c5c(F)c(F)c(F)c(F)c5F)c5ccc([nH]5)c(-c5c(F)c(F)c(F)c(F)c5F)c5nc(c(-c6c(F)c(F)c(F)c(F)c6F)c6ccc3[nH]6)C=C5)C=C4)cc1)C2
REMARK SMILES IDX 24 1 23 2 22 3 21 4 20 5 19 6 17 7 18 8 16 9 15 10 9 11
REMARK SMILES IDX 10 12 13 13 11 14 97 15 12 16 14 17 7 18 8 19 6 20 2 21 3 22
REMARK SMILES IDX 4 23 5 24 1 25 25 28 26 29 27 30 28 31 29 32 30 33 31 34
REMARK SMILES IDX 32 35 33 36 34 37 35 38 96 39 36 40 95 41 37 42 38 43 39 44
REMARK SMILES IDX 89 45 40 46 94 47 88 48 90 49 41 50 93 51 87 52 86 53 42 55
REMARK SMILES IDX 74 56 54 57 73 58 55 59 58 60 72 61 91 62 56 63 57 64 71 66
REMARK SMILES IDX 92 67 59 68 43 69 44 70 52 71 45 72 46 73 50 74 53 75 47 76
REMARK SMILES IDX 48 77 51 78 49 79 75 80 76 81 84 82 77 83 78 84 82 85 85 86
REMARK SMILES IDX 79 87 80 88 83 89 81 90 60 91 61 92 69 93 62 94 63 95 67 96
REMARK SMILES IDX 70 97 64 98 65 99 68 100 66 101
REMARK H PARENT 1 26 1 27 90 54 58 65
REMARK Flexibility Score: inf
ROOT
ATOM      1  C   UNL A   1      38.602  21.275  25.640  1.00  0.00     0.188 C 
ENDROOT
BRANCH   1   2
ATOM      2  C   UNL A   1      37.422  21.959  24.941  1.00  0.00     0.188 C 
BRANCH   2   3
ATOM      3  O   UNL A   1      36.509  22.561  25.835  1.00  0.00    -0.376 OA
BRANCH   3   4
ATOM      4  C   UNL A   1      35.377  23.204  25.286  1.00  0.00     0.202 C 
BRANCH   4   5
ATOM      5  C   UNL A   1      34.158  23.524  26.171  1.00  0.00     0.261 C 
BRANCH   5   6
ATOM      6  O   UNL A   1      32.853  23.323  25.603  1.00  0.00    -0.463 OA
BRANCH   6   7
ATOM      7  C   UNL A   1      31.851  24.083  26.090  1.00  0.00     0.306 C 
ATOM      8  O   UNL A   1      31.408  23.980  27.229  1.00  0.00    -0.252 OA
BRANCH   7   9
ATOM      9  C   UNL A   1      31.273  25.090  25.106  1.00  0.00     0.126 C 
BRANCH   9  10
ATOM     10  C   UNL A   1      31.923  26.455  24.774  1.00  0.00     0.004 C 
ATOM     11  N   UNL A   1      31.062  28.618  23.179  1.00  0.00    -0.331 N 
ATOM     12  C   UNL A   1      31.212  28.923  24.585  1.00  0.00     0.086 C 
ATOM     13  C   UNL A   1      32.324  28.037  22.752  1.00  0.00     0.086 C 
ATOM     14  C   UNL A   1      32.659  29.407  24.734  1.00  0.00     0.027 C 
ATOM     15  C   UNL A   1      30.959  27.580  25.269  1.00  0.00     0.029 C 
ATOM     16  C   UNL A   1      33.360  28.933  23.456  1.00  0.00     0.027 C 
ATOM     17  C   UNL A   1      32.413  26.604  23.304  1.00  0.00     0.029 C 
BRANCH  11  18
ATOM     18  C   UNL A   1      30.208  29.367  22.384  1.00  0.00     0.280 C 
ATOM     19  O   UNL A   1      30.562  29.715  21.256  1.00  0.00    -0.267 OA
BRANCH  18  20
ATOM     20  C   UNL A   1      28.962  29.843  22.993  1.00  0.00     0.216 A 
ATOM     21  C   UNL A   1      28.539  31.129  23.431  1.00  0.00     0.201 A 
ATOM     22  N   UNL A   1      27.290  31.063  23.882  1.00  0.00    -0.032 NA
ATOM     23  O   UNL A   1      26.891  29.759  23.656  1.00  0.00    -0.242 OA
ATOM     24  N   UNL A   1      27.919  29.005  23.120  1.00  0.00    -0.042 NA
BRANCH  21  25
ATOM     25  N   UNL A   1      29.217  32.284  23.375  1.00  0.00    -0.379 N 
ATOM     26  H   UNL A   1      30.002  32.422  23.954  1.00  0.00     0.158 HD
ATOM     27  H   UNL A   1      28.932  32.994  22.756  1.00  0.00     0.158 HD
ENDBRANCH  21  25
ENDBRANCH  18  20
ENDBRANCH  11  18
ENDBRANCH   9  10
ENDBRANCH   7   9
ENDBRANCH   6   7
ENDBRANCH   5   6
ENDBRANCH   4   5
ENDBRANCH   3   4
ENDBRANCH   2   3
ENDBRANCH   1   2
BRANCH   1  28
ATOM     28  O   UNL A   1      39.679  22.033  26.186  1.00  0.00    -0.377 OA
BRANCH  28  29
ATOM     29  C   UNL A   1      40.613  21.395  27.054  1.00  0.00     0.188 C 
BRANCH  29  30
ATOM     30  C   UNL A   1      41.387  20.176  26.519  1.00  0.00     0.188 C 
BRANCH  30  31
ATOM     31  O   UNL A   1      42.338  20.497  25.519  1.00  0.00    -0.376 OA
BRANCH  31  32
ATOM     32  C   UNL A   1      43.342  21.444  25.859  1.00  0.00     0.202 C 
BRANCH  32  33
ATOM     33  C   UNL A   1      43.912  22.342  24.746  1.00  0.00     0.261 C 
BRANCH  33  34
ATOM     34  O   UNL A   1      43.344  23.658  24.618  1.00  0.00    -0.460 OA
BRANCH  34  35
ATOM     35  C   UNL A   1      44.093  24.705  25.025  1.00  0.00     0.338 C 
ATOM     36  O   UNL A   1      45.188  25.032  24.619  1.00  0.00    -0.246 OA
BRANCH  35  37
ATOM     37  C   UNL A   1      43.270  25.518  25.946  1.00  0.00     0.060 A 
ATOM     38  C   UNL A   1      43.617  26.858  26.157  1.00  0.00     0.016 A 
ATOM     39  C   UNL A   1      42.183  24.955  26.618  1.00  0.00     0.016 A 
ATOM     40  C   UNL A   1      42.909  27.625  27.080  1.00  0.00     0.010 A 
ATOM     41  C   UNL A   1      41.485  25.719  27.559  1.00  0.00     0.010 A 
ATOM     42  C   UNL A   1      41.874  27.044  27.825  1.00  0.00    -0.014 A 
BRANCH  42  43
ATOM     43  C   UNL A   1      41.367  27.760  29.022  1.00  0.00     0.031 A 
ATOM     44  C   UNL A   1      42.129  27.624  30.312  1.00  0.00     0.074 A 
ATOM     45  C   UNL A   1      40.301  28.576  28.952  1.00  0.00     0.049 A 
ATOM     46  N   UNL A   1      41.915  28.188  31.474  1.00  0.00    -0.248 NA
ATOM     47  C   UNL A   1      43.296  26.727  30.285  1.00  0.00     0.031 C 
ATOM     48  C   UNL A   1      39.513  28.833  27.749  1.00  0.00     0.029 A 
ATOM     49  N   UNL A   1      39.709  29.350  29.918  1.00  0.00    -0.354 N 
ATOM     50  C   UNL A   1      42.922  27.720  32.310  1.00  0.00     0.074 A 
ATOM     51  C   UNL A   1      43.715  26.788  31.539  1.00  0.00     0.031 C 
ATOM     52  C   UNL A   1      38.543  29.717  28.046  1.00  0.00     0.029 A 
ATOM     53  C   UNL A   1      38.626  30.063  29.465  1.00  0.00     0.049 A 
ATOM     54  H   UNL A   1      40.029  29.391  30.847  1.00  0.00     0.167 HD
ATOM     55  C   UNL A   1      43.173  28.049  33.601  1.00  0.00     0.037 A 
ATOM     56  C   UNL A   1      37.798  30.896  30.125  1.00  0.00     0.037 A 
ATOM     57  C   UNL A   1      42.371  28.963  34.372  1.00  0.00     0.049 A 
ATOM     58  C   UNL A   1      38.037  31.167  31.590  1.00  0.00     0.074 A 
ATOM     59  C   UNL A   1      42.536  29.361  35.686  1.00  0.00     0.029 A 
ATOM     60  N   UNL A   1      41.240  29.612  33.897  1.00  0.00    -0.354 N 
ATOM     61  N   UNL A   1      39.004  30.741  32.368  1.00  0.00    -0.248 NA
ATOM     62  C   UNL A   1      37.071  32.044  32.264  1.00  0.00     0.031 C 
ATOM     63  C   UNL A   1      41.470  30.200  36.026  1.00  0.00     0.029 A 
ATOM     64  C   UNL A   1      40.680  30.385  34.902  1.00  0.00     0.049 A 
ATOM     65  H   UNL A   1      40.887  29.534  32.981  1.00  0.00     0.167 HD
ATOM     66  C   UNL A   1      38.785  31.330  33.608  1.00  0.00     0.074 A 
ATOM     67  C   UNL A   1      37.601  32.152  33.473  1.00  0.00     0.031 C 
ATOM     68  C   UNL A   1      39.503  31.206  34.753  1.00  0.00     0.037 A 
BRANCH  55  69
ATOM     69  C   UNL A   1      44.343  27.375  34.263  1.00  0.00     0.064 A 
ATOM     70  C   UNL A   1      45.618  27.965  34.296  1.00  0.00     0.173 A 
ATOM     71  C   UNL A   1      44.191  26.118  34.867  1.00  0.00     0.173 A 
ATOM     72  F   UNL A   1      45.824  29.159  33.720  1.00  0.00    -0.203 F 
ATOM     73  C   UNL A   1      46.702  27.301  34.865  1.00  0.00     0.198 A 
ATOM     74  C   UNL A   1      45.269  25.474  35.469  1.00  0.00     0.198 A 
ATOM     75  F   UNL A   1      42.996  25.509  34.871  1.00  0.00    -0.203 F 
ATOM     76  F   UNL A   1      47.923  27.852  34.818  1.00  0.00    -0.200 F 
ATOM     77  C   UNL A   1      46.526  26.059  35.455  1.00  0.00     0.200 A 
ATOM     78  F   UNL A   1      45.093  24.279  36.052  1.00  0.00    -0.200 F 
ATOM     79  F   UNL A   1      47.570  25.420  36.000  1.00  0.00    -0.200 F 
ENDBRANCH  55  69
BRANCH  56  80
ATOM     80  C   UNL A   1      36.672  31.552  29.409  1.00  0.00     0.064 A 
ATOM     81  C   UNL A   1      35.581  30.806  28.942  1.00  0.00     0.173 A 
ATOM     82  C   UNL A   1      36.671  32.933  29.158  1.00  0.00     0.173 A 
ATOM     83  F   UNL A   1      35.547  29.479  29.134  1.00  0.00    -0.203 F 
ATOM     84  C   UNL A   1      34.542  31.410  28.236  1.00  0.00     0.198 A 
ATOM     85  C   UNL A   1      35.617  33.541  28.479  1.00  0.00     0.198 A 
ATOM     86  F   UNL A   1      37.691  33.693  29.580  1.00  0.00    -0.203 F 
ATOM     87  F   UNL A   1      33.536  30.664  27.759  1.00  0.00    -0.200 F 
ATOM     88  C   UNL A   1      34.558  32.778  28.011  1.00  0.00     0.200 A 
ATOM     89  F   UNL A   1      35.628  34.865  28.276  1.00  0.00    -0.200 F 
ATOM     90  F   UNL A   1      33.556  33.359  27.337  1.00  0.00    -0.200 F 
ENDBRANCH  56  80
BRANCH  68  91
ATOM     91  C   UNL A   1      39.061  32.022  35.938  1.00  0.00     0.064 A 
ATOM     92  C   UNL A   1      38.176  31.517  36.903  1.00  0.00     0.173 A 
ATOM     93  C   UNL A   1      39.547  33.328  36.117  1.00  0.00     0.173 A 
ATOM     94  F   UNL A   1      37.672  30.280  36.775  1.00  0.00    -0.203 F 
ATOM     95  C   UNL A   1      37.761  32.302  37.976  1.00  0.00     0.198 A 
ATOM     96  C   UNL A   1      39.160  34.095  37.212  1.00  0.00     0.198 A 
ATOM     97  F   UNL A   1      40.403  33.859  35.232  1.00  0.00    -0.203 F 
ATOM     98  F   UNL A   1      36.862  31.822  38.846  1.00  0.00    -0.200 F 
ATOM     99  C   UNL A   1      38.257  33.588  38.133  1.00  0.00     0.200 A 
ATOM    100  F   UNL A   1      39.656  35.330  37.371  1.00  0.00    -0.200 F 
ATOM    101  F   UNL A   1      37.858  34.340  39.167  1.00  0.00    -0.200 F 
ENDBRANCH  68  91
ENDBRANCH  42  43
ENDBRANCH  35  37
ENDBRANCH  34  35
ENDBRANCH  33  34
ENDBRANCH  32  33
ENDBRANCH  31  32
ENDBRANCH  30  31
ENDBRANCH  29  30
ENDBRANCH  28  29
ENDBRANCH   1  28
TORSDOF 24
ENDMDL
MODEL 2
REMARK VINA RESULT:     -10.9      1.049      2.452
REMARK SMILES Nc1nonc1C(=O)N1[C@@H]2CC[C@H]1C[C@H](CC(=O)OCCOCCOCCOCCOC(=O)c1ccc(-c3c4nc(c(-c5c(F)c(F)c(F)c(F)c5F)c5ccc([nH]5)c(-c5c(F)c(F)c(F)c(F)c5F)c5nc(c(-c6c(F)c(F)c(F)c(F)c6F)c6ccc3[nH]6)C=C5)C=C4)cc1)C2
REMARK SMILES IDX 24 1 23 2 22 3 21 4 20 5 19 6 17 7 18 8 16 9 15 10 9 11
REMARK SMILES IDX 10 12 13 13 11 14 97 15 12 16 14 17 7 18 8 19 6 20 2 21 3 22
REMARK SMILES IDX 4 23 5 24 1 25 25 28 26 29 27 30 28 31 29 32 30 33 31 34
REMARK SMILES IDX 32 35 33 36 34 37 35 38 96 39 36 40 95 41 37 42 38 43 39 44
REMARK SMILES IDX 89 45 40 46 94 47 88 48 90 49 41 50 93 51 87 52 86 53 42 55
REMARK SMILES IDX 74 56 54 57 73 58 55 59 58 60 72 61 91 62 56 63 57 64 71 66
REMARK SMILES IDX 92 67 59 68 43 69 44 70 52 71 45 72 46 73 50 74 53 75 47 76
REMARK SMILES IDX 48 77 51 78 49 79 75 80 76 81 84 82 77 83 78 84 82 85 85 86
REMARK SMILES IDX 79 87 80 88 83 89 81 90 60 91 61 92 69 93 62 94 63 95 67 96
REMARK SMILES IDX 70 97 64 98 65 99 68 100 66 101
REMARK H PARENT 1 26 1 27 90 54 58 65
REMARK Flexibility Score: inf
ROOT
ATOM      1  C   UNL A   1      39.029  20.434  25.734  1.00  0.00     0.188 C 
ENDROOT
BRANCH   1   2
ATOM      2  C   UNL A   1      37.717  20.947  25.128  1.00  0.00     0.188 C 
BRANCH   2   3
ATOM      3  O   UNL A   1      37.282  22.171  25.682  1.00  0.00    -0.376 OA
BRANCH   3   4
ATOM      4  C   UNL A   1      35.898  22.452  25.650  1.00  0.00     0.202 C 
BRANCH   4   5
ATOM      5  C   UNL A   1      34.871  21.326  25.871  1.00  0.00     0.261 C 
BRANCH   5   6
ATOM      6  O   UNL A   1      34.218  20.783  24.711  1.00  0.00    -0.463 OA
BRANCH   6   7
ATOM      7  C   UNL A   1      32.872  20.850  24.679  1.00  0.00     0.306 C 
ATOM      8  O   UNL A   1      32.134  20.015  25.192  1.00  0.00    -0.252 OA
BRANCH   7   9
ATOM      9  C   UNL A   1      32.307  22.047  23.928  1.00  0.00     0.126 C 
BRANCH   9  10
ATOM     10  C   UNL A   1      31.796  23.340  24.609  1.00  0.00     0.004 C 
ATOM     11  N   UNL A   1      31.806  26.039  23.784  1.00  0.00    -0.331 N 
ATOM     12  C   UNL A   1      30.491  25.463  23.960  1.00  0.00     0.086 C 
ATOM     13  C   UNL A   1      32.524  25.800  25.025  1.00  0.00     0.086 C 
ATOM     14  C   UNL A   1      30.124  25.749  25.421  1.00  0.00     0.027 C 
ATOM     15  C   UNL A   1      30.713  23.977  23.681  1.00  0.00     0.029 C 
ATOM     16  C   UNL A   1      31.456  26.102  26.093  1.00  0.00     0.027 C 
ATOM     17  C   UNL A   1      32.915  24.313  25.084  1.00  0.00     0.029 C 
BRANCH  11  18
ATOM     18  C   UNL A   1      31.993  27.122  22.940  1.00  0.00     0.280 C 
ATOM     19  O   UNL A   1      33.028  27.218  22.278  1.00  0.00    -0.267 OA
BRANCH  18  20
ATOM     20  C   UNL A   1      30.996  28.198  22.991  1.00  0.00     0.216 A 
ATOM     21  C   UNL A   1      30.805  29.286  23.887  1.00  0.00     0.201 A 
ATOM     22  N   UNL A   1      29.773  30.024  23.487  1.00  0.00    -0.032 NA
ATOM     23  O   UNL A   1      29.362  29.456  22.295  1.00  0.00    -0.242 OA
ATOM     24  N   UNL A   1      30.104  28.328  21.995  1.00  0.00    -0.042 NA
BRANCH  21  25
ATOM     25  N   UNL A   1      31.543  29.614  24.957  1.00  0.00    -0.379 N 
ATOM     26  H   UNL A   1      31.193  29.454  25.864  1.00  0.00     0.158 HD
ATOM     27  H   UNL A   1      32.435  30.013  24.837  1.00  0.00     0.158 HD
ENDBRANCH  21  25
ENDBRANCH  18  20
ENDBRANCH  11  18
ENDBRANCH   9  10
ENDBRANCH   7   9
ENDBRANCH   6   7
ENDBRANCH   5   6
ENDBRANCH   4   5
ENDBRANCH   3   4
ENDBRANCH   2   3
ENDBRANCH   1   2
BRANCH   1  28
ATOM     28  O   UNL A   1      40.101  21.323  26.036  1.00  0.00    -0.377 OA
BRANCH  28  29
ATOM     29  C   UNL A   1      41.133  20.897  26.923  1.00  0.00     0.188 C 
BRANCH  29  30
ATOM     30  C   UNL A   1      42.138  19.845  26.416  1.00  0.00     0.188 C 
BRANCH  30  31
ATOM     31  O   UNL A   1      42.959  20.305  25.355  1.00  0.00    -0.376 OA
BRANCH  31  32
ATOM     32  C   UNL A   1      43.818  21.403  25.629  1.00  0.00     0.202 C 
BRANCH  32  33
ATOM     33  C   UNL A   1      44.086  22.423  24.507  1.00  0.00     0.261 C 
BRANCH  33  34
ATOM     34  O   UNL A   1      43.434  23.700  24.621  1.00  0.00    -0.460 OA
BRANCH  34  35
ATOM     35  C   UNL A   1      44.180  24.750  25.028  1.00  0.00     0.338 C 
ATOM     36  O   UNL A   1      45.276  25.077  24.625  1.00  0.00    -0.246 OA
BRANCH  35  37
ATOM     37  C   UNL A   1      43.352  25.564  25.943  1.00  0.00     0.060 A 
ATOM     38  C   UNL A   1      43.706  26.900  26.166  1.00  0.00     0.016 A 
ATOM     39  C   UNL A   1      42.253  25.005  26.599  1.00  0.00     0.016 A 
ATOM     40  C   UNL A   1      42.993  27.667  27.085  1.00  0.00     0.010 A 
ATOM     41  C   UNL A   1      41.549  25.769  27.536  1.00  0.00     0.010 A 
ATOM     42  C   UNL A   1      41.945  27.089  27.814  1.00  0.00    -0.014 A 
BRANCH  42  43
ATOM     43  C   UNL A   1      41.428  27.803  29.008  1.00  0.00     0.031 A 
ATOM     44  C   UNL A   1      42.186  27.671  30.302  1.00  0.00     0.074 A 
ATOM     45  C   UNL A   1      40.358  28.612  28.934  1.00  0.00     0.049 A 
ATOM     46  N   UNL A   1      41.964  28.234  31.463  1.00  0.00    -0.248 NA
ATOM     47  C   UNL A   1      43.358  26.781  30.280  1.00  0.00     0.031 C 
ATOM     48  C   UNL A   1      39.573  28.865  27.728  1.00  0.00     0.029 A 
ATOM     49  N   UNL A   1      39.757  29.383  29.897  1.00  0.00    -0.354 N 
ATOM     50  C   UNL A   1      42.969  27.772  32.303  1.00  0.00     0.074 A 
ATOM     51  C   UNL A   1      43.771  26.845  31.535  1.00  0.00     0.031 C 
ATOM     52  C   UNL A   1      38.598  29.743  28.021  1.00  0.00     0.029 A 
ATOM     53  C   UNL A   1      38.673  30.090  29.439  1.00  0.00     0.049 A 
ATOM     54  H   UNL A   1      40.073  29.426  30.828  1.00  0.00     0.167 HD
ATOM     55  C   UNL A   1      43.213  28.102  33.595  1.00  0.00     0.037 A 
ATOM     56  C   UNL A   1      37.837  30.918  30.096  1.00  0.00     0.037 A 
ATOM     57  C   UNL A   1      42.403  29.011  34.362  1.00  0.00     0.049 A 
ATOM     58  C   UNL A   1      38.068  31.190  31.562  1.00  0.00     0.074 A 
ATOM     59  C   UNL A   1      42.560  29.411  35.678  1.00  0.00     0.029 A 
ATOM     60  N   UNL A   1      41.270  29.655  33.883  1.00  0.00    -0.354 N 
ATOM     61  N   UNL A   1      39.034  30.771  32.345  1.00  0.00    -0.248 NA
ATOM     62  C   UNL A   1      37.094  32.062  32.232  1.00  0.00     0.031 C 
ATOM     63  C   UNL A   1      41.487  30.243  36.013  1.00  0.00     0.029 A 
ATOM     64  C   UNL A   1      40.701  30.424  34.885  1.00  0.00     0.049 A 
ATOM     65  H   UNL A   1      40.922  29.575  32.966  1.00  0.00     0.167 HD
ATOM     66  C   UNL A   1      38.807  31.358  33.583  1.00  0.00     0.074 A 
ATOM     67  C   UNL A   1      37.618  32.173  33.443  1.00  0.00     0.031 C 
ATOM     68  C   UNL A   1      39.521  31.239  34.731  1.00  0.00     0.037 A 
BRANCH  55  69
ATOM     69  C   UNL A   1      44.385  27.435  34.262  1.00  0.00     0.064 A 
ATOM     70  C   UNL A   1      44.311  26.120  34.749  1.00  0.00     0.173 A 
ATOM     71  C   UNL A   1      45.596  28.125  34.426  1.00  0.00     0.173 A 
ATOM     72  F   UNL A   1      43.173  25.420  34.635  1.00  0.00    -0.203 F 
ATOM     73  C   UNL A   1      45.388  25.539  35.415  1.00  0.00     0.198 A 
ATOM     74  C   UNL A   1      46.684  27.527  35.058  1.00  0.00     0.198 A 
ATOM     75  F   UNL A   1      45.726  29.382  33.976  1.00  0.00    -0.203 F 
ATOM     76  F   UNL A   1      45.269  24.310  35.935  1.00  0.00    -0.200 F 
ATOM     77  C   UNL A   1      46.575  26.241  35.564  1.00  0.00     0.200 A 
ATOM     78  F   UNL A   1      47.834  28.203  35.188  1.00  0.00    -0.200 F 
ATOM     79  F   UNL A   1      47.609  25.683  36.206  1.00  0.00    -0.200 F 
ENDBRANCH  55  69
BRANCH  56  80
ATOM     80  C   UNL A   1      36.710  31.568  29.376  1.00  0.00     0.064 A 
ATOM     81  C   UNL A   1      36.715  32.947  29.122  1.00  0.00     0.173 A 
ATOM     82  C   UNL A   1      35.597  30.831  28.944  1.00  0.00     0.173 A 
ATOM     83  F   UNL A   1      37.744  33.700  29.538  1.00  0.00    -0.203 F 
ATOM     84  C   UNL A   1      35.643  33.567  28.483  1.00  0.00     0.198 A 
ATOM     85  C   UNL A   1      34.539  31.447  28.278  1.00  0.00     0.198 A 
ATOM     86  F   UNL A   1      35.539  29.510  29.163  1.00  0.00    -0.203 F 
ATOM     87  F   UNL A   1      35.652  34.894  28.298  1.00  0.00    -0.200 F 
ATOM     88  C   UNL A   1      34.559  32.815  28.055  1.00  0.00     0.200 A 
ATOM     89  F   UNL A   1      33.500  30.716  27.853  1.00  0.00    -0.200 F 
ATOM     90  F   UNL A   1      33.531  33.411  27.435  1.00  0.00    -0.200 F 
ENDBRANCH  56  80
BRANCH  68  91
ATOM     91  C   UNL A   1      39.069  32.052  35.914  1.00  0.00     0.064 A 
ATOM     92  C   UNL A   1      39.461  33.387  36.095  1.00  0.00     0.173 A 
ATOM     93  C   UNL A   1      38.213  31.488  36.874  1.00  0.00     0.173 A 
ATOM     94  F   UNL A   1      40.287  33.973  35.215  1.00  0.00    -0.203 F 
ATOM     95  C   UNL A   1      39.051  34.110  37.213  1.00  0.00     0.198 A 
ATOM     96  C   UNL A   1      37.773  32.226  37.969  1.00  0.00     0.198 A 
ATOM     97  F   UNL A   1      37.796  30.219  36.747  1.00  0.00    -0.203 F 
ATOM     98  F   UNL A   1      39.495  35.361  37.398  1.00  0.00    -0.200 F 
ATOM     99  C   UNL A   1      38.202  33.532  38.146  1.00  0.00     0.200 A 
ATOM    100  F   UNL A   1      36.939  31.670  38.858  1.00  0.00    -0.200 F 
ATOM    101  F   UNL A   1      37.808  34.230  39.218  1.00  0.00    -0.200 F 
ENDBRANCH  68  91
ENDBRANCH  42  43
ENDBRANCH  35  37
ENDBRANCH  34  35
ENDBRANCH  33  34
ENDBRANCH  32  33
ENDBRANCH  31  32
ENDBRANCH  30  31
ENDBRANCH  29  30
ENDBRANCH  28  29
ENDBRANCH   1  28
TORSDOF 24
ENDMDL
MODEL 3
REMARK VINA RESULT:     -10.4      3.723      9.358
REMARK SMILES Nc1nonc1C(=O)N1[C@@H]2CC[C@H]1C[C@H](CC(=O)OCCOCCOCCOCCOC(=O)c1ccc(-c3c4nc(c(-c5c(F)c(F)c(F)c(F)c5F)c5ccc([nH]5)c(-c5c(F)c(F)c(F)c(F)c5F)c5nc(c(-c6c(F)c(F)c(F)c(F)c6F)c6ccc3[nH]6)C=C5)C=C4)cc1)C2
REMARK SMILES IDX 24 1 23 2 22 3 21 4 20 5 19 6 17 7 18 8 16 9 15 10 9 11
REMARK SMILES IDX 10 12 13 13 11 14 97 15 12 16 14 17 7 18 8 19 6 20 2 21 3 22
REMARK SMILES IDX 4 23 5 24 1 25 25 28 26 29 27 30 28 31 29 32 30 33 31 34
REMARK SMILES IDX 32 35 33 36 34 37 35 38 96 39 36 40 95 41 37 42 38 43 39 44
REMARK SMILES IDX 89 45 40 46 94 47 88 48 90 49 41 50 93 51 87 52 86 53 42 55
REMARK SMILES IDX 74 56 54 57 73 58 55 59 58 60 72 61 91 62 56 63 57 64 71 66
REMARK SMILES IDX 92 67 59 68 43 69 44 70 52 71 45 72 46 73 50 74 53 75 47 76
REMARK SMILES IDX 48 77 51 78 49 79 75 80 76 81 84 82 77 83 78 84 82 85 85 86
REMARK SMILES IDX 79 87 80 88 83 89 81 90 60 91 61 92 69 93 62 94 63 95 67 96
REMARK SMILES IDX 70 97 64 98 65 99 68 100 66 101
REMARK H PARENT 1 26 1 27 90 54 58 65
REMARK Flexibility Score: inf
ROOT
ATOM      1  C   UNL A   1      32.003  27.289  22.380  1.00  0.00     0.188 C 
ENDROOT
BRANCH   1   2
ATOM      2  C   UNL A   1      32.353  26.261  23.462  1.00  0.00     0.188 C 
BRANCH   2   3
ATOM      3  O   UNL A   1      31.773  24.991  23.241  1.00  0.00    -0.376 OA
BRANCH   3   4
ATOM      4  C   UNL A   1      30.555  24.702  23.894  1.00  0.00     0.202 C 
BRANCH   4   5
ATOM      5  C   UNL A   1      30.216  25.372  25.239  1.00  0.00     0.261 C 
BRANCH   5   6
ATOM      6  O   UNL A   1      31.018  25.017  26.379  1.00  0.00    -0.463 OA
BRANCH   6   7
ATOM      7  C   UNL A   1      30.761  23.829  26.961  1.00  0.00     0.306 C 
ATOM      8  O   UNL A   1      29.635  23.441  27.255  1.00  0.00    -0.252 OA
BRANCH   7   9
ATOM      9  C   UNL A   1      31.990  22.982  27.261  1.00  0.00     0.126 C 
BRANCH   9  10
ATOM     10  C   UNL A   1      33.238  22.905  26.349  1.00  0.00     0.004 C 
ATOM     11  N   UNL A   1      34.671  20.717  25.290  1.00  0.00    -0.331 N 
ATOM     12  C   UNL A   1      34.039  21.562  24.303  1.00  0.00     0.086 C 
ATOM     13  C   UNL A   1      35.473  21.597  26.126  1.00  0.00     0.086 C 
ATOM     14  C   UNL A   1      35.092  22.620  23.952  1.00  0.00     0.027 C 
ATOM     15  C   UNL A   1      32.837  22.141  25.047  1.00  0.00     0.029 C 
ATOM     16  C   UNL A   1      36.110  22.548  25.096  1.00  0.00     0.027 C 
ATOM     17  C   UNL A   1      34.527  22.385  27.049  1.00  0.00     0.029 C 
BRANCH  11  18
ATOM     18  C   UNL A   1      34.964  19.393  25.001  1.00  0.00     0.280 C 
ATOM     19  O   UNL A   1      36.095  19.079  24.625  1.00  0.00    -0.267 OA
BRANCH  18  20
ATOM     20  C   UNL A   1      33.851  18.437  25.012  1.00  0.00     0.216 A 
ATOM     21  C   UNL A   1      33.797  17.031  25.218  1.00  0.00     0.201 A 
ATOM     22  N   UNL A   1      32.534  16.617  25.173  1.00  0.00    -0.032 NA
ATOM     23  O   UNL A   1      31.781  17.767  25.024  1.00  0.00    -0.242 OA
ATOM     24  N   UNL A   1      32.588  18.884  24.913  1.00  0.00    -0.042 NA
BRANCH  21  25
ATOM     25  N   UNL A   1      34.813  16.195  25.478  1.00  0.00    -0.379 N 
ATOM     26  H   UNL A   1      35.712  16.388  25.125  1.00  0.00     0.158 HD
ATOM     27  H   UNL A   1      34.661  15.390  26.023  1.00  0.00     0.158 HD
ENDBRANCH  21  25
ENDBRANCH  18  20
ENDBRANCH  11  18
ENDBRANCH   9  10
ENDBRANCH   7   9
ENDBRANCH   6   7
ENDBRANCH   5   6
ENDBRANCH   4   5
ENDBRANCH   3   4
ENDBRANCH   2   3
ENDBRANCH   1   2
BRANCH   1  28
ATOM     28  O   UNL A   1      30.654  27.505  21.973  1.00  0.00    -0.377 OA
BRANCH  28  29
ATOM     29  C   UNL A   1      29.771  28.221  22.834  1.00  0.00     0.188 C 
BRANCH  29  30
ATOM     30  C   UNL A   1      30.249  29.566  23.409  1.00  0.00     0.188 C 
BRANCH  30  31
ATOM     31  O   UNL A   1      30.699  29.487  24.752  1.00  0.00    -0.376 OA
BRANCH  31  32
ATOM     32  C   UNL A   1      31.350  30.631  25.286  1.00  0.00     0.202 C 
BRANCH  32  33
ATOM     33  C   UNL A   1      31.808  30.595  26.756  1.00  0.00     0.261 C 
BRANCH  33  34
ATOM     34  O   UNL A   1      33.223  30.490  26.992  1.00  0.00    -0.460 OA
BRANCH  34  35
ATOM     35  C   UNL A   1      33.841  31.543  27.570  1.00  0.00     0.338 C 
ATOM     36  O   UNL A   1      33.357  32.615  27.862  1.00  0.00    -0.246 OA
BRANCH  35  37
ATOM     37  C   UNL A   1      35.199  31.107  27.964  1.00  0.00     0.060 A 
ATOM     38  C   UNL A   1      35.456  29.737  28.094  1.00  0.00     0.016 A 
ATOM     39  C   UNL A   1      36.200  32.044  28.231  1.00  0.00     0.016 A 
ATOM     40  C   UNL A   1      36.701  29.301  28.542  1.00  0.00     0.010 A 
ATOM     41  C   UNL A   1      37.444  31.606  28.699  1.00  0.00     0.010 A 
ATOM     42  C   UNL A   1      37.683  30.235  28.898  1.00  0.00    -0.014 A 
BRANCH  42  43
ATOM     43  C   UNL A   1      38.858  29.773  29.680  1.00  0.00     0.031 A 
ATOM     44  C   UNL A   1      39.035  30.299  31.079  1.00  0.00     0.074 A 
ATOM     45  C   UNL A   1      39.705  28.851  29.194  1.00  0.00     0.049 A 
ATOM     46  N   UNL A   1      39.946  30.009  31.973  1.00  0.00    -0.248 NA
ATOM     47  C   UNL A   1      38.044  31.288  31.531  1.00  0.00     0.031 C 
ATOM     48  C   UNL A   1      39.609  28.226  27.878  1.00  0.00     0.029 A 
ATOM     49  N   UNL A   1      40.809  28.269  29.766  1.00  0.00    -0.354 N 
ATOM     50  C   UNL A   1      39.634  30.773  33.090  1.00  0.00     0.074 A 
ATOM     51  C   UNL A   1      38.482  31.577  32.746  1.00  0.00     0.031 C 
ATOM     52  C   UNL A   1      40.608  27.337  27.745  1.00  0.00     0.029 A 
ATOM     53  C   UNL A   1      41.429  27.351  28.955  1.00  0.00     0.049 A 
ATOM     54  H   UNL A   1      41.126  28.487  30.672  1.00  0.00     0.167 HD
ATOM     55  C   UNL A   1      40.243  30.794  34.301  1.00  0.00     0.037 A 
ATOM     56  C   UNL A   1      42.536  26.613  29.169  1.00  0.00     0.037 A 
ATOM     57  C   UNL A   1      41.402  30.007  34.635  1.00  0.00     0.049 A 
ATOM     58  C   UNL A   1      43.258  26.729  30.489  1.00  0.00     0.074 A 
ATOM     59  C   UNL A   1      42.097  29.956  35.830  1.00  0.00     0.029 A 
ATOM     60  N   UNL A   1      42.044  29.140  33.762  1.00  0.00    -0.354 N 
ATOM     61  N   UNL A   1      42.944  27.434  31.550  1.00  0.00    -0.248 NA
ATOM     62  C   UNL A   1      44.485  25.937  30.641  1.00  0.00     0.031 C 
ATOM     63  C   UNL A   1      43.197  29.109  35.659  1.00  0.00     0.029 A 
ATOM     64  C   UNL A   1      43.146  28.572  34.382  1.00  0.00     0.049 A 
ATOM     65  H   UNL A   1      41.759  28.956  32.837  1.00  0.00     0.167 HD
ATOM     66  C   UNL A   1      43.909  27.139  32.506  1.00  0.00     0.074 A 
ATOM     67  C   UNL A   1      44.811  26.181  31.901  1.00  0.00     0.031 C 
ATOM     68  C   UNL A   1      44.033  27.613  33.771  1.00  0.00     0.037 A 
BRANCH  55  69
ATOM     69  C   UNL A   1      39.683  31.733  35.333  1.00  0.00     0.064 A 
ATOM     70  C   UNL A   1      40.162  33.046  35.480  1.00  0.00     0.173 A 
ATOM     71  C   UNL A   1      38.659  31.312  36.195  1.00  0.00     0.173 A 
ATOM     72  F   UNL A   1      41.151  33.495  34.693  1.00  0.00    -0.203 F 
ATOM     73  C   UNL A   1      39.670  33.882  36.479  1.00  0.00     0.198 A 
ATOM     74  C   UNL A   1      38.143  32.165  37.169  1.00  0.00     0.198 A 
ATOM     75  F   UNL A   1      38.160  30.072  36.099  1.00  0.00    -0.203 F 
ATOM     76  F   UNL A   1      40.194  35.104  36.646  1.00  0.00    -0.200 F 
ATOM     77  C   UNL A   1      38.658  33.444  37.318  1.00  0.00     0.200 A 
ATOM     78  F   UNL A   1      37.154  31.743  37.970  1.00  0.00    -0.200 F 
ATOM     79  F   UNL A   1      38.187  34.248  38.281  1.00  0.00    -0.200 F 
ENDBRANCH  55  69
BRANCH  56  80
ATOM     80  C   UNL A   1      43.028  25.682  28.118  1.00  0.00     0.064 A 
ATOM     81  C   UNL A   1      42.695  24.320  28.147  1.00  0.00     0.173 A 
ATOM     82  C   UNL A   1      43.856  26.127  27.077  1.00  0.00     0.173 A 
ATOM     83  F   UNL A   1      41.927  23.841  29.136  1.00  0.00    -0.203 F 
ATOM     84  C   UNL A   1      43.186  23.437  27.188  1.00  0.00     0.198 A 
ATOM     85  C   UNL A   1      44.322  25.249  26.101  1.00  0.00     0.198 A 
ATOM     86  F   UNL A   1      44.208  27.419  27.004  1.00  0.00    -0.203 F 
ATOM     87  F   UNL A   1      42.891  22.132  27.268  1.00  0.00    -0.200 F 
ATOM     88  C   UNL A   1      43.993  23.903  26.161  1.00  0.00     0.200 A 
ATOM     89  F   UNL A   1      45.090  25.706  25.103  1.00  0.00    -0.200 F 
ATOM     90  F   UNL A   1      44.460  23.055  25.236  1.00  0.00    -0.200 F 
ENDBRANCH  56  80
BRANCH  68  91
ATOM     91  C   UNL A   1      45.154  27.060  34.609  1.00  0.00     0.064 A 
ATOM     92  C   UNL A   1      45.015  25.880  35.357  1.00  0.00     0.173 A 
ATOM     93  C   UNL A   1      46.396  27.715  34.650  1.00  0.00     0.173 A 
ATOM     94  F   UNL A   1      43.848  25.219  35.364  1.00  0.00    -0.203 F 
ATOM     95  C   UNL A   1      46.060  25.403  36.146  1.00  0.00     0.198 A 
ATOM     96  C   UNL A   1      47.450  27.214  35.408  1.00  0.00     0.198 A 
ATOM     97  F   UNL A   1      46.590  28.841  33.947  1.00  0.00    -0.203 F 
ATOM     98  F   UNL A   1      45.879  24.313  36.904  1.00  0.00    -0.200 F 
ATOM     99  C   UNL A   1      47.278  26.067  36.166  1.00  0.00     0.200 A 
ATOM    100  F   UNL A   1      48.631  27.847  35.411  1.00  0.00    -0.200 F 
ATOM    101  F   UNL A   1      48.281  25.605  36.924  1.00  0.00    -0.200 F 
ENDBRANCH  68  91
ENDBRANCH  42  43
ENDBRANCH  35  37
ENDBRANCH  34  35
ENDBRANCH  33  34
ENDBRANCH  32  33
ENDBRANCH  31  32
ENDBRANCH  30  31
ENDBRANCH  29  30
ENDBRANCH  28  29
ENDBRANCH   1  28
TORSDOF 24
ENDMDL
