MODEL 1
REMARK VINA RESULT:     -11.0      0.000      0.000
REMARK SMILES Cc1cccc2nc(C(=O)NCC(=O)OCCOCCOCCOCCOC(=O)c3ccc(-c4c5nc(c(-c6c(F)c(F)c(F)c(F)c6F)c6ccc([nH]6)c(-c6c(F)c(F)c(F)c(F)c6F)c6nc(c(-c7c(F)c(F)c(F)c(F)c7F)c7ccc4[nH]7)C=C6)C=C5)cc3)cn12
REMARK SMILES IDX 21 1 20 2 19 3 18 4 17 5 16 6 15 7 13 8 14 9 12 10 11 11
REMARK SMILES IDX 9 12 10 13 8 15 1 16 2 17 3 18 94 19 4 20 6 21 93 22 5 23
REMARK SMILES IDX 7 24 22 25 23 26 24 27 25 28 26 29 27 30 28 31 29 32 30 33
REMARK SMILES IDX 31 34 92 35 32 36 91 37 33 38 34 39 35 40 85 41 36 42 90 43
REMARK SMILES IDX 84 44 86 45 37 46 89 47 83 48 82 49 38 51 70 52 50 53 69 54
REMARK SMILES IDX 51 55 54 56 68 57 87 58 52 59 53 60 67 62 88 63 55 64 39 65
REMARK SMILES IDX 40 66 48 67 41 68 42 69 46 70 49 71 43 72 44 73 47 74 45 75
REMARK SMILES IDX 71 76 72 77 80 78 73 79 74 80 78 81 81 82 75 83 76 84 79 85
REMARK SMILES IDX 77 86 56 87 57 88 65 89 58 90 59 91 63 92 66 93 60 94 61 95
REMARK SMILES IDX 64 96 62 97
REMARK H PARENT 11 14 86 50 54 61
REMARK Flexibility Score: inf
ROOT
ATOM      1  O   UNL A   1      39.548  22.475  26.877  1.00  0.00    -0.377 OA
ENDROOT
BRANCH   1   2
ATOM      2  C   UNL A   1      38.659  22.184  25.817  1.00  0.00     0.188 C 
BRANCH   2   3
ATOM      3  C   UNL A   1      37.371  23.036  25.751  1.00  0.00     0.188 C 
BRANCH   3   4
ATOM      4  O   UNL A   1      36.255  22.622  24.972  1.00  0.00    -0.376 OA
BRANCH   4   5
ATOM      5  C   UNL A   1      34.978  22.513  25.586  1.00  0.00     0.202 C 
BRANCH   5   6
ATOM      6  C   UNL A   1      34.696  21.320  26.517  1.00  0.00     0.261 C 
BRANCH   6   7
ATOM      7  O   UNL A   1      33.371  20.760  26.412  1.00  0.00    -0.462 OA
BRANCH   7   8
ATOM      8  C   UNL A   1      32.773  20.833  25.189  1.00  0.00     0.325 C 
ATOM      9  O   UNL A   1      32.917  20.000  24.298  1.00  0.00    -0.250 OA
BRANCH   8  10
ATOM     10  C   UNL A   1      31.708  21.944  25.099  1.00  0.00     0.239 C 
BRANCH  10  11
ATOM     11  N   UNL A   1      30.716  22.115  26.160  1.00  0.00    -0.340 N 
ATOM     12  C   UNL A   1      30.316  23.262  26.794  1.00  0.00     0.272 C 
ATOM     13  O   UNL A   1      29.415  23.192  27.630  1.00  0.00    -0.267 OA
ATOM     14  H   UNL A   1      30.271  21.290  26.460  1.00  0.00     0.164 HD
BRANCH  12  15
ATOM     15  C   UNL A   1      30.915  24.528  26.389  1.00  0.00     0.147 A 
ATOM     16  C   UNL A   1      30.061  27.817  23.630  1.00  0.00     0.065 C 
ATOM     17  C   UNL A   1      31.309  27.473  24.381  1.00  0.00     0.021 A 
ATOM     18  C   UNL A   1      32.462  28.159  24.224  1.00  0.00     0.022 A 
ATOM     19  N   UNL A   1      31.312  26.382  25.268  1.00  0.00    -0.304 N 
ATOM     20  C   UNL A   1      33.647  27.772  24.975  1.00  0.00     0.006 A 
ATOM     21  C   UNL A   1      32.432  25.992  25.998  1.00  0.00     0.137 A 
ATOM     22  C   UNL A   1      30.327  25.472  25.567  1.00  0.00     0.127 A 
ATOM     23  C   UNL A   1      33.626  26.738  25.834  1.00  0.00     0.048 A 
ATOM     24  N   UNL A   1      32.198  24.914  26.706  1.00  0.00    -0.223 NA
ENDBRANCH  12  15
ENDBRANCH  10  11
ENDBRANCH   8  10
ENDBRANCH   7   8
ENDBRANCH   6   7
ENDBRANCH   5   6
ENDBRANCH   4   5
ENDBRANCH   3   4
ENDBRANCH   2   3
ENDBRANCH   1   2
BRANCH   1  25
ATOM     25  C   UNL A   1      40.480  21.449  27.191  1.00  0.00     0.188 C 
BRANCH  25  26
ATOM     26  C   UNL A   1      41.578  21.189  26.141  1.00  0.00     0.188 C 
BRANCH  26  27
ATOM     27  O   UNL A   1      41.683  19.827  25.728  1.00  0.00    -0.376 OA
BRANCH  27  28
ATOM     28  C   UNL A   1      42.849  19.086  26.052  1.00  0.00     0.202 C 
BRANCH  28  29
ATOM     29  C   UNL A   1      43.908  18.987  24.951  1.00  0.00     0.261 C 
BRANCH  29  30
ATOM     30  O   UNL A   1      44.335  20.225  24.395  1.00  0.00    -0.460 OA
BRANCH  30  31
ATOM     31  C   UNL A   1      45.485  20.711  24.875  1.00  0.00     0.338 C 
ATOM     32  O   UNL A   1      46.446  20.075  25.307  1.00  0.00    -0.246 OA
BRANCH  31  33
ATOM     33  C   UNL A   1      45.414  22.162  24.960  1.00  0.00     0.060 A 
ATOM     34  C   UNL A   1      46.167  22.749  25.976  1.00  0.00     0.016 A 
ATOM     35  C   UNL A   1      44.400  22.855  24.280  1.00  0.00     0.016 A 
ATOM     36  C   UNL A   1      45.753  23.964  26.458  1.00  0.00     0.010 A 
ATOM     37  C   UNL A   1      43.989  24.077  24.766  1.00  0.00     0.010 A 
ATOM     38  C   UNL A   1      44.620  24.574  25.899  1.00  0.00    -0.014 A 
BRANCH  38  39
ATOM     39  C   UNL A   1      44.190  25.802  26.526  1.00  0.00     0.031 A 
ATOM     40  C   UNL A   1      45.128  26.912  26.307  1.00  0.00     0.074 A 
ATOM     41  C   UNL A   1      43.098  25.911  27.303  1.00  0.00     0.049 A 
ATOM     42  N   UNL A   1      45.966  27.382  27.166  1.00  0.00    -0.248 NA
ATOM     43  C   UNL A   1      45.269  27.449  24.950  1.00  0.00     0.031 C 
ATOM     44  C   UNL A   1      41.977  24.979  27.420  1.00  0.00     0.029 A 
ATOM     45  N   UNL A   1      42.744  26.945  28.119  1.00  0.00    -0.354 N 
ATOM     46  C   UNL A   1      46.616  28.419  26.516  1.00  0.00     0.074 A 
ATOM     47  C   UNL A   1      46.264  28.322  25.123  1.00  0.00     0.031 C 
ATOM     48  C   UNL A   1      40.973  25.583  28.099  1.00  0.00     0.029 A 
ATOM     49  C   UNL A   1      41.444  26.870  28.587  1.00  0.00     0.049 A 
ATOM     50  H   UNL A   1      43.358  27.678  28.354  1.00  0.00     0.167 HD
ATOM     51  C   UNL A   1      47.155  29.431  27.241  1.00  0.00     0.037 A 
ATOM     52  C   UNL A   1      40.795  27.825  29.293  1.00  0.00     0.037 A 
ATOM     53  C   UNL A   1      47.307  29.067  28.626  1.00  0.00     0.049 A 
ATOM     54  C   UNL A   1      41.814  28.630  30.008  1.00  0.00     0.074 A 
ATOM     55  C   UNL A   1      48.140  28.253  29.360  1.00  0.00     0.029 A 
ATOM     56  N   UNL A   1      46.215  29.343  29.405  1.00  0.00    -0.354 N 
ATOM     57  N   UNL A   1      42.542  28.174  30.989  1.00  0.00    -0.248 NA
ATOM     58  C   UNL A   1      42.257  29.902  29.443  1.00  0.00     0.031 C 
ATOM     59  C   UNL A   1      47.415  27.899  30.537  1.00  0.00     0.029 A 
ATOM     60  C   UNL A   1      46.164  28.513  30.490  1.00  0.00     0.049 A 
ATOM     61  H   UNL A   1      45.555  30.047  29.209  1.00  0.00     0.167 HD
ATOM     62  C   UNL A   1      43.736  28.856  30.875  1.00  0.00     0.074 A 
ATOM     63  C   UNL A   1      43.439  30.019  30.054  1.00  0.00     0.031 C 
ATOM     64  C   UNL A   1      44.917  28.246  31.174  1.00  0.00     0.037 A 
BRANCH  51  65
ATOM     65  C   UNL A   1      47.051  30.881  26.837  1.00  0.00     0.064 A 
ATOM     66  C   UNL A   1      48.189  31.701  26.963  1.00  0.00     0.173 A 
ATOM     67  C   UNL A   1      45.822  31.557  26.680  1.00  0.00     0.173 A 
ATOM     68  F   UNL A   1      49.402  31.160  27.153  1.00  0.00    -0.203 F 
ATOM     69  C   UNL A   1      48.090  33.094  27.002  1.00  0.00     0.198 A 
ATOM     70  C   UNL A   1      45.733  32.946  26.666  1.00  0.00     0.198 A 
ATOM     71  F   UNL A   1      44.649  30.911  26.666  1.00  0.00    -0.203 F 
ATOM     72  F   UNL A   1      49.178  33.832  27.255  1.00  0.00    -0.200 F 
ATOM     73  C   UNL A   1      46.862  33.714  26.857  1.00  0.00     0.200 A 
ATOM     74  F   UNL A   1      44.530  33.527  26.555  1.00  0.00    -0.200 F 
ATOM     75  F   UNL A   1      46.754  35.045  26.957  1.00  0.00    -0.200 F 
ENDBRANCH  51  65
BRANCH  52  76
ATOM     76  C   UNL A   1      39.371  28.221  29.223  1.00  0.00     0.064 A 
ATOM     77  C   UNL A   1      38.584  28.284  30.385  1.00  0.00     0.173 A 
ATOM     78  C   UNL A   1      38.836  28.828  28.070  1.00  0.00     0.173 A 
ATOM     79  F   UNL A   1      39.033  27.763  31.535  1.00  0.00    -0.203 F 
ATOM     80  C   UNL A   1      37.358  28.955  30.404  1.00  0.00     0.198 A 
ATOM     81  C   UNL A   1      37.607  29.488  28.088  1.00  0.00     0.198 A 
ATOM     82  F   UNL A   1      39.536  28.879  26.929  1.00  0.00    -0.203 F 
ATOM     83  F   UNL A   1      36.674  29.062  31.552  1.00  0.00    -0.200 F 
ATOM     84  C   UNL A   1      36.877  29.569  29.259  1.00  0.00     0.200 A 
ATOM     85  F   UNL A   1      37.168  30.105  26.981  1.00  0.00    -0.200 F 
ATOM     86  F   UNL A   1      35.738  30.271  29.296  1.00  0.00    -0.200 F 
ENDBRANCH  52  76
BRANCH  64  87
ATOM     87  C   UNL A   1      44.881  27.094  32.126  1.00  0.00     0.064 A 
ATOM     88  C   UNL A   1      44.902  27.217  33.523  1.00  0.00     0.173 A 
ATOM     89  C   UNL A   1      44.706  25.811  31.585  1.00  0.00     0.173 A 
ATOM     90  F   UNL A   1      44.994  28.420  34.109  1.00  0.00    -0.203 F 
ATOM     91  C   UNL A   1      44.775  26.095  34.340  1.00  0.00     0.198 A 
ATOM     92  C   UNL A   1      44.543  24.701  32.403  1.00  0.00     0.198 A 
ATOM     93  F   UNL A   1      44.645  25.646  30.254  1.00  0.00    -0.203 F 
ATOM     94  F   UNL A   1      44.806  26.229  35.675  1.00  0.00    -0.200 F 
ATOM     95  C   UNL A   1      44.584  24.841  33.780  1.00  0.00     0.200 A 
ATOM     96  F   UNL A   1      44.317  23.498  31.856  1.00  0.00    -0.200 F 
ATOM     97  F   UNL A   1      44.416  23.769  34.568  1.00  0.00    -0.200 F 
ENDBRANCH  64  87
ENDBRANCH  38  39
ENDBRANCH  31  33
ENDBRANCH  30  31
ENDBRANCH  29  30
ENDBRANCH  28  29
ENDBRANCH  27  28
ENDBRANCH  26  27
ENDBRANCH  25  26
ENDBRANCH   1  25
TORSDOF 22
ENDMDL
MODEL 2
REMARK VINA RESULT:     -10.6      1.023      2.096
REMARK SMILES Cc1cccc2nc(C(=O)NCC(=O)OCCOCCOCCOCCOC(=O)c3ccc(-c4c5nc(c(-c6c(F)c(F)c(F)c(F)c6F)c6ccc([nH]6)c(-c6c(F)c(F)c(F)c(F)c6F)c6nc(c(-c7c(F)c(F)c(F)c(F)c7F)c7ccc4[nH]7)C=C6)C=C5)cc3)cn12
REMARK SMILES IDX 21 1 20 2 19 3 18 4 17 5 16 6 15 7 13 8 14 9 12 10 11 11
REMARK SMILES IDX 9 12 10 13 8 15 1 16 2 17 3 18 94 19 4 20 6 21 93 22 5 23
REMARK SMILES IDX 7 24 22 25 23 26 24 27 25 28 26 29 27 30 28 31 29 32 30 33
REMARK SMILES IDX 31 34 92 35 32 36 91 37 33 38 34 39 35 40 85 41 36 42 90 43
REMARK SMILES IDX 84 44 86 45 37 46 89 47 83 48 82 49 38 51 70 52 50 53 69 54
REMARK SMILES IDX 51 55 54 56 68 57 87 58 52 59 53 60 67 62 88 63 55 64 39 65
REMARK SMILES IDX 40 66 48 67 41 68 42 69 46 70 49 71 43 72 44 73 47 74 45 75
REMARK SMILES IDX 71 76 72 77 80 78 73 79 74 80 78 81 81 82 75 83 76 84 79 85
REMARK SMILES IDX 77 86 56 87 57 88 65 89 58 90 59 91 63 92 66 93 60 94 61 95
REMARK SMILES IDX 64 96 62 97
REMARK H PARENT 11 14 86 50 54 61
REMARK Flexibility Score: inf
ROOT
ATOM      1  O   UNL A   1      37.473  21.585  24.466  1.00  0.00    -0.377 OA
ENDROOT
BRANCH   1   2
ATOM      2  C   UNL A   1      36.959  22.903  24.479  1.00  0.00     0.188 C 
BRANCH   2   3
ATOM      3  C   UNL A   1      36.119  23.321  23.251  1.00  0.00     0.188 C 
BRANCH   3   4
ATOM      4  O   UNL A   1      34.786  23.798  23.400  1.00  0.00    -0.376 OA
BRANCH   4   5
ATOM      5  C   UNL A   1      33.754  23.250  22.593  1.00  0.00     0.202 C 
BRANCH   5   6
ATOM      6  C   UNL A   1      32.872  22.127  23.169  1.00  0.00     0.261 C 
BRANCH   6   7
ATOM      7  O   UNL A   1      33.495  21.319  24.187  1.00  0.00    -0.462 OA
BRANCH   7   8
ATOM      8  C   UNL A   1      32.691  20.883  25.197  1.00  0.00     0.325 C 
ATOM      9  O   UNL A   1      32.200  19.759  25.255  1.00  0.00    -0.250 OA
BRANCH   8  10
ATOM     10  C   UNL A   1      32.634  21.856  26.391  1.00  0.00     0.239 C 
BRANCH  10  11
ATOM     11  N   UNL A   1      31.351  22.299  26.935  1.00  0.00    -0.340 N 
ATOM     12  C   UNL A   1      30.700  23.491  26.755  1.00  0.00     0.272 C 
ATOM     13  O   UNL A   1      29.588  23.641  27.265  1.00  0.00    -0.267 OA
ATOM     14  H   UNL A   1      30.890  21.649  27.512  1.00  0.00     0.164 HD
BRANCH  12  15
ATOM     15  C   UNL A   1      31.311  24.497  25.895  1.00  0.00     0.147 A 
ATOM     16  C   UNL A   1      33.984  27.942  26.277  1.00  0.00     0.065 C 
ATOM     17  C   UNL A   1      33.123  27.497  25.137  1.00  0.00     0.021 A 
ATOM     18  C   UNL A   1      32.995  28.218  24.002  1.00  0.00     0.022 A 
ATOM     19  N   UNL A   1      32.392  26.301  25.239  1.00  0.00    -0.304 N 
ATOM     20  C   UNL A   1      32.136  27.740  22.930  1.00  0.00     0.006 A 
ATOM     21  C   UNL A   1      31.563  25.822  24.228  1.00  0.00     0.137 A 
ATOM     22  C   UNL A   1      32.269  25.417  26.283  1.00  0.00     0.127 A 
ATOM     23  C   UNL A   1      31.458  26.583  23.037  1.00  0.00     0.048 A 
ATOM     24  N   UNL A   1      30.946  24.722  24.587  1.00  0.00    -0.223 NA
ENDBRANCH  12  15
ENDBRANCH  10  11
ENDBRANCH   8  10
ENDBRANCH   7   8
ENDBRANCH   6   7
ENDBRANCH   5   6
ENDBRANCH   4   5
ENDBRANCH   3   4
ENDBRANCH   2   3
ENDBRANCH   1   2
BRANCH   1  25
ATOM     25  C   UNL A   1      38.000  21.125  25.703  1.00  0.00     0.188 C 
BRANCH  25  26
ATOM     26  C   UNL A   1      39.396  21.658  26.083  1.00  0.00     0.188 C 
BRANCH  26  27
ATOM     27  O   UNL A   1      40.357  20.639  26.356  1.00  0.00    -0.376 OA
BRANCH  27  28
ATOM     28  C   UNL A   1      41.721  20.991  26.524  1.00  0.00     0.202 C 
BRANCH  28  29
ATOM     29  C   UNL A   1      42.745  19.991  25.979  1.00  0.00     0.261 C 
BRANCH  29  30
ATOM     30  O   UNL A   1      43.422  20.389  24.792  1.00  0.00    -0.460 OA
BRANCH  30  31
ATOM     31  C   UNL A   1      44.702  20.746  24.947  1.00  0.00     0.338 C 
ATOM     32  O   UNL A   1      45.685  20.007  25.008  1.00  0.00    -0.246 OA
BRANCH  31  33
ATOM     33  C   UNL A   1      44.793  22.179  25.184  1.00  0.00     0.060 A 
ATOM     34  C   UNL A   1      45.418  22.560  26.370  1.00  0.00     0.016 A 
ATOM     35  C   UNL A   1      44.008  23.065  24.429  1.00  0.00     0.016 A 
ATOM     36  C   UNL A   1      45.076  23.771  26.913  1.00  0.00     0.010 A 
ATOM     37  C   UNL A   1      43.668  24.283  24.977  1.00  0.00     0.010 A 
ATOM     38  C   UNL A   1      44.143  24.582  26.248  1.00  0.00    -0.014 A 
BRANCH  38  39
ATOM     39  C   UNL A   1      43.760  25.795  26.932  1.00  0.00     0.031 A 
ATOM     40  C   UNL A   1      44.772  26.855  26.821  1.00  0.00     0.074 A 
ATOM     41  C   UNL A   1      42.643  25.926  27.669  1.00  0.00     0.049 A 
ATOM     42  N   UNL A   1      45.598  27.220  27.740  1.00  0.00    -0.248 NA
ATOM     43  C   UNL A   1      45.005  27.461  25.506  1.00  0.00     0.031 C 
ATOM     44  C   UNL A   1      41.464  25.061  27.682  1.00  0.00     0.029 A 
ATOM     45  N   UNL A   1      42.316  26.930  28.532  1.00  0.00    -0.354 N 
ATOM     46  C   UNL A   1      46.337  28.250  27.183  1.00  0.00     0.074 A 
ATOM     47  C   UNL A   1      46.042  28.259  25.773  1.00  0.00     0.031 C 
ATOM     48  C   UNL A   1      40.469  25.685  28.356  1.00  0.00     0.029 A 
ATOM     49  C   UNL A   1      40.994  26.909  28.942  1.00  0.00     0.049 A 
ATOM     50  H   UNL A   1      42.962  27.607  28.838  1.00  0.00     0.167 HD
ATOM     51  C   UNL A   1      46.902  29.183  27.991  1.00  0.00     0.037 A 
ATOM     52  C   UNL A   1      40.373  27.859  29.678  1.00  0.00     0.037 A 
ATOM     53  C   UNL A   1      46.971  28.728  29.355  1.00  0.00     0.049 A 
ATOM     54  C   UNL A   1      41.405  28.555  30.482  1.00  0.00     0.074 A 
ATOM     55  C   UNL A   1      47.720  27.821  30.071  1.00  0.00     0.029 A 
ATOM     56  N   UNL A   1      45.864  29.025  30.105  1.00  0.00    -0.354 N 
ATOM     57  N   UNL A   1      42.060  27.997  31.462  1.00  0.00    -0.248 NA
ATOM     58  C   UNL A   1      41.948  29.828  30.016  1.00  0.00     0.031 C 
ATOM     59  C   UNL A   1      46.923  27.445  31.193  1.00  0.00     0.029 A 
ATOM     60  C   UNL A   1      45.715  28.137  31.133  1.00  0.00     0.049 A 
ATOM     61  H   UNL A   1      45.257  29.779  29.926  1.00  0.00     0.167 HD
ATOM     62  C   UNL A   1      43.297  28.608  31.440  1.00  0.00     0.074 A 
ATOM     63  C   UNL A   1      43.107  29.834  30.680  1.00  0.00     0.031 C 
ATOM     64  C   UNL A   1      44.425  27.909  31.748  1.00  0.00     0.037 A 
BRANCH  51  65
ATOM     65  C   UNL A   1      46.904  30.657  27.673  1.00  0.00     0.064 A 
ATOM     66  C   UNL A   1      45.677  31.290  27.397  1.00  0.00     0.173 A 
ATOM     67  C   UNL A   1      48.061  31.366  27.284  1.00  0.00     0.173 A 
ATOM     68  F   UNL A   1      44.516  30.686  27.693  1.00  0.00    -0.203 F 
ATOM     69  C   UNL A   1      45.615  32.509  26.718  1.00  0.00     0.198 A 
ATOM     70  C   UNL A   1      47.998  32.606  26.655  1.00  0.00     0.198 A 
ATOM     71  F   UNL A   1      49.287  30.836  27.377  1.00  0.00    -0.203 F 
ATOM     72  F   UNL A   1      44.427  33.013  26.360  1.00  0.00    -0.200 F 
ATOM     73  C   UNL A   1      46.776  33.163  26.345  1.00  0.00     0.200 A 
ATOM     74  F   UNL A   1      49.133  33.209  26.273  1.00  0.00    -0.200 F 
ATOM     75  F   UNL A   1      46.720  34.300  25.638  1.00  0.00    -0.200 F 
ENDBRANCH  51  65
BRANCH  52  76
ATOM     76  C   UNL A   1      38.980  28.347  29.574  1.00  0.00     0.064 A 
ATOM     77  C   UNL A   1      38.202  28.553  30.727  1.00  0.00     0.173 A 
ATOM     78  C   UNL A   1      38.485  28.900  28.378  1.00  0.00     0.173 A 
ATOM     79  F   UNL A   1      38.618  28.091  31.914  1.00  0.00    -0.203 F 
ATOM     80  C   UNL A   1      37.026  29.308  30.692  1.00  0.00     0.198 A 
ATOM     81  C   UNL A   1      37.305  29.644  28.343  1.00  0.00     0.198 A 
ATOM     82  F   UNL A   1      39.184  28.815  27.238  1.00  0.00    -0.203 F 
ATOM     83  F   UNL A   1      36.355  29.548  31.827  1.00  0.00    -0.200 F 
ATOM     84  C   UNL A   1      36.586  29.864  29.503  1.00  0.00     0.200 A 
ATOM     85  F   UNL A   1      36.907  30.204  27.191  1.00  0.00    -0.200 F 
ATOM     86  F   UNL A   1      35.499  30.646  29.483  1.00  0.00    -0.200 F 
ENDBRANCH  52  76
BRANCH  64  87
ATOM     87  C   UNL A   1      44.278  26.706  32.625  1.00  0.00     0.064 A 
ATOM     88  C   UNL A   1      44.237  25.385  32.158  1.00  0.00     0.173 A 
ATOM     89  C   UNL A   1      44.290  26.911  34.013  1.00  0.00     0.173 A 
ATOM     90  F   UNL A   1      44.295  25.112  30.847  1.00  0.00    -0.203 F 
ATOM     91  C   UNL A   1      44.186  24.315  33.050  1.00  0.00     0.198 A 
ATOM     92  C   UNL A   1      44.277  25.841  34.898  1.00  0.00     0.198 A 
ATOM     93  F   UNL A   1      44.364  28.157  34.508  1.00  0.00    -0.203 F 
ATOM     94  F   UNL A   1      44.139  23.056  32.588  1.00  0.00    -0.200 F 
ATOM     95  C   UNL A   1      44.219  24.543  34.418  1.00  0.00     0.200 A 
ATOM     96  F   UNL A   1      44.351  26.067  36.217  1.00  0.00    -0.200 F 
ATOM     97  F   UNL A   1      44.218  23.511  35.274  1.00  0.00    -0.200 F 
ENDBRANCH  64  87
ENDBRANCH  38  39
ENDBRANCH  31  33
ENDBRANCH  30  31
ENDBRANCH  29  30
ENDBRANCH  28  29
ENDBRANCH  27  28
ENDBRANCH  26  27
ENDBRANCH  25  26
ENDBRANCH   1  25
TORSDOF 22
ENDMDL
MODEL 3
REMARK VINA RESULT:     -10.4      3.436      8.912
REMARK SMILES Cc1cccc2nc(C(=O)NCC(=O)OCCOCCOCCOCCOC(=O)c3ccc(-c4c5nc(c(-c6c(F)c(F)c(F)c(F)c6F)c6ccc([nH]6)c(-c6c(F)c(F)c(F)c(F)c6F)c6nc(c(-c7c(F)c(F)c(F)c(F)c7F)c7ccc4[nH]7)C=C6)C=C5)cc3)cn12
REMARK SMILES IDX 21 1 20 2 19 3 18 4 17 5 16 6 15 7 13 8 14 9 12 10 11 11
REMARK SMILES IDX 9 12 10 13 8 15 1 16 2 17 3 18 94 19 4 20 6 21 93 22 5 23
REMARK SMILES IDX 7 24 22 25 23 26 24 27 25 28 26 29 27 30 28 31 29 32 30 33
REMARK SMILES IDX 31 34 92 35 32 36 91 37 33 38 34 39 35 40 85 41 36 42 90 43
REMARK SMILES IDX 84 44 86 45 37 46 89 47 83 48 82 49 38 51 70 52 50 53 69 54
REMARK SMILES IDX 51 55 54 56 68 57 87 58 52 59 53 60 67 62 88 63 55 64 39 65
REMARK SMILES IDX 40 66 48 67 41 68 42 69 46 70 49 71 43 72 44 73 47 74 45 75
REMARK SMILES IDX 71 76 72 77 80 78 73 79 74 80 78 81 81 82 75 83 76 84 79 85
REMARK SMILES IDX 77 86 56 87 57 88 65 89 58 90 59 91 63 92 66 93 60 94 61 95
REMARK SMILES IDX 64 96 62 97
REMARK H PARENT 11 14 86 50 54 61
REMARK Flexibility Score: inf
ROOT
ATOM      1  O   UNL A   1      33.415  28.777  27.643  1.00  0.00    -0.377 OA
ENDROOT
BRANCH   1   2
ATOM      2  C   UNL A   1      33.123  27.740  26.727  1.00  0.00     0.188 C 
BRANCH   2   3
ATOM      3  C   UNL A   1      33.593  27.960  25.271  1.00  0.00     0.188 C 
BRANCH   3   4
ATOM      4  O   UNL A   1      33.834  26.859  24.402  1.00  0.00    -0.376 OA
BRANCH   4   5
ATOM      5  C   UNL A   1      32.902  26.567  23.371  1.00  0.00     0.202 C 
BRANCH   5   6
ATOM      6  C   UNL A   1      31.525  27.257  23.390  1.00  0.00     0.261 C 
BRANCH   6   7
ATOM      7  O   UNL A   1      30.399  26.385  23.169  1.00  0.00    -0.462 OA
BRANCH   7   8
ATOM      8  C   UNL A   1      29.452  26.351  24.148  1.00  0.00     0.325 C 
ATOM      9  O   UNL A   1      28.245  26.255  23.940  1.00  0.00    -0.250 OA
BRANCH   8  10
ATOM     10  C   UNL A   1      30.047  26.210  25.563  1.00  0.00     0.239 C 
BRANCH  10  11
ATOM     11  N   UNL A   1      29.631  25.119  26.444  1.00  0.00    -0.340 N 
ATOM     12  C   UNL A   1      30.165  23.864  26.580  1.00  0.00     0.272 C 
ATOM     13  O   UNL A   1      29.693  23.110  27.431  1.00  0.00    -0.267 OA
ATOM     14  H   UNL A   1      28.859  25.314  27.022  1.00  0.00     0.164 HD
BRANCH  12  15
ATOM     15  C   UNL A   1      31.325  23.509  25.772  1.00  0.00     0.147 A 
ATOM     16  C   UNL A   1      35.689  23.721  26.039  1.00  0.00     0.065 C 
ATOM     17  C   UNL A   1      34.795  23.441  24.872  1.00  0.00     0.021 A 
ATOM     18  C   UNL A   1      35.271  23.280  23.618  1.00  0.00     0.022 A 
ATOM     19  N   UNL A   1      33.405  23.366  25.059  1.00  0.00    -0.304 N 
ATOM     20  C   UNL A   1      34.354  23.019  22.520  1.00  0.00     0.006 A 
ATOM     21  C   UNL A   1      32.506  23.117  24.025  1.00  0.00     0.137 A 
ATOM     22  C   UNL A   1      32.644  23.560  26.186  1.00  0.00     0.127 A 
ATOM     23  C   UNL A   1      33.027  22.930  22.720  1.00  0.00     0.048 A 
ATOM     24  N   UNL A   1      31.264  23.154  24.442  1.00  0.00    -0.223 NA
ENDBRANCH  12  15
ENDBRANCH  10  11
ENDBRANCH   8  10
ENDBRANCH   7   8
ENDBRANCH   6   7
ENDBRANCH   5   6
ENDBRANCH   4   5
ENDBRANCH   3   4
ENDBRANCH   2   3
ENDBRANCH   1   2
BRANCH   1  25
ATOM     25  C   UNL A   1      33.010  30.078  27.239  1.00  0.00     0.188 C 
BRANCH  25  26
ATOM     26  C   UNL A   1      33.997  31.220  27.551  1.00  0.00     0.188 C 
BRANCH  26  27
ATOM     27  O   UNL A   1      33.380  32.494  27.733  1.00  0.00    -0.376 OA
BRANCH  27  28
ATOM     28  C   UNL A   1      34.178  33.613  28.087  1.00  0.00     0.202 C 
BRANCH  28  29
ATOM     29  C   UNL A   1      34.345  33.870  29.588  1.00  0.00     0.261 C 
BRANCH  29  30
ATOM     30  O   UNL A   1      35.624  33.559  30.127  1.00  0.00    -0.460 OA
BRANCH  30  31
ATOM     31  C   UNL A   1      35.730  32.362  30.717  1.00  0.00     0.338 C 
ATOM     32  O   UNL A   1      35.135  31.965  31.719  1.00  0.00    -0.246 OA
BRANCH  31  33
ATOM     33  C   UNL A   1      36.786  31.587  30.083  1.00  0.00     0.060 A 
ATOM     34  C   UNL A   1      36.579  30.210  30.027  1.00  0.00     0.016 A 
ATOM     35  C   UNL A   1      38.045  32.169  29.863  1.00  0.00     0.016 A 
ATOM     36  C   UNL A   1      37.683  29.399  29.965  1.00  0.00     0.010 A 
ATOM     37  C   UNL A   1      39.152  31.350  29.799  1.00  0.00     0.010 A 
ATOM     38  C   UNL A   1      38.960  29.981  29.933  1.00  0.00    -0.014 A 
BRANCH  38  39
ATOM     39  C   UNL A   1      40.074  29.062  29.968  1.00  0.00     0.031 A 
ATOM     40  C   UNL A   1      40.648  28.916  31.313  1.00  0.00     0.074 A 
ATOM     41  C   UNL A   1      40.595  28.464  28.883  1.00  0.00     0.049 A 
ATOM     42  N   UNL A   1      41.748  29.442  31.733  1.00  0.00    -0.248 NA
ATOM     43  C   UNL A   1      39.845  28.259  32.348  1.00  0.00     0.031 C 
ATOM     44  C   UNL A   1      40.002  28.335  27.552  1.00  0.00     0.029 A 
ATOM     45  N   UNL A   1      41.771  27.781  28.780  1.00  0.00    -0.354 N 
ATOM     46  C   UNL A   1      41.881  29.018  33.044  1.00  0.00     0.074 A 
ATOM     47  C   UNL A   1      40.623  28.425  33.420  1.00  0.00     0.031 C 
ATOM     48  C   UNL A   1      40.726  27.444  26.834  1.00  0.00     0.029 A 
ATOM     49  C   UNL A   1      41.904  27.068  27.600  1.00  0.00     0.049 A 
ATOM     50  H   UNL A   1      42.462  27.794  29.480  1.00  0.00     0.167 HD
ATOM     51  C   UNL A   1      43.116  28.940  33.601  1.00  0.00     0.037 A 
ATOM     52  C   UNL A   1      42.897  26.200  27.302  1.00  0.00     0.037 A 
ATOM     53  C   UNL A   1      44.084  29.696  32.849  1.00  0.00     0.049 A 
ATOM     54  C   UNL A   1      44.090  26.588  28.093  1.00  0.00     0.074 A 
ATOM     55  C   UNL A   1      44.383  31.025  32.655  1.00  0.00     0.029 A 
ATOM     56  N   UNL A   1      44.698  28.989  31.850  1.00  0.00    -0.354 N 
ATOM     57  N   UNL A   1      44.769  27.683  27.892  1.00  0.00    -0.248 NA
ATOM     58  C   UNL A   1      44.388  25.891  29.341  1.00  0.00     0.031 C 
ATOM     59  C   UNL A   1      45.042  31.104  31.392  1.00  0.00     0.029 A 
ATOM     60  C   UNL A   1      45.133  29.820  30.856  1.00  0.00     0.049 A 
ATOM     61  H   UNL A   1      44.811  28.011  31.848  1.00  0.00     0.167 HD
ATOM     62  C   UNL A   1      45.240  28.028  29.143  1.00  0.00     0.074 A 
ATOM     63  C   UNL A   1      45.147  26.813  29.938  1.00  0.00     0.031 C 
ATOM     64  C   UNL A   1      45.348  29.335  29.510  1.00  0.00     0.037 A 
BRANCH  51  65
ATOM     65  C   UNL A   1      43.553  27.795  34.481  1.00  0.00     0.064 A 
ATOM     66  C   UNL A   1      43.569  26.495  33.940  1.00  0.00     0.173 A 
ATOM     67  C   UNL A   1      43.604  27.874  35.889  1.00  0.00     0.173 A 
ATOM     68  F   UNL A   1      43.488  26.307  32.613  1.00  0.00    -0.203 F 
ATOM     69  C   UNL A   1      43.564  25.360  34.754  1.00  0.00     0.198 A 
ATOM     70  C   UNL A   1      43.653  26.741  36.696  1.00  0.00     0.198 A 
ATOM     71  F   UNL A   1      43.478  29.035  36.544  1.00  0.00    -0.203 F 
ATOM     72  F   UNL A   1      43.447  24.145  34.202  1.00  0.00    -0.200 F 
ATOM     73  C   UNL A   1      43.602  25.485  36.131  1.00  0.00     0.200 A 
ATOM     74  F   UNL A   1      43.657  26.883  38.029  1.00  0.00    -0.200 F 
ATOM     75  F   UNL A   1      43.533  24.401  36.916  1.00  0.00    -0.200 F 
ENDBRANCH  51  65
BRANCH  52  76
ATOM     76  C   UNL A   1      42.822  24.932  26.543  1.00  0.00     0.064 A 
ATOM     77  C   UNL A   1      43.610  24.733  25.396  1.00  0.00     0.173 A 
ATOM     78  C   UNL A   1      42.207  23.788  27.086  1.00  0.00     0.173 A 
ATOM     79  F   UNL A   1      44.260  25.763  24.835  1.00  0.00    -0.203 F 
ATOM     80  C   UNL A   1      43.809  23.460  24.855  1.00  0.00     0.198 A 
ATOM     81  C   UNL A   1      42.397  22.519  26.538  1.00  0.00     0.198 A 
ATOM     82  F   UNL A   1      41.489  23.862  28.215  1.00  0.00    -0.203 F 
ATOM     83  F   UNL A   1      44.631  23.301  23.809  1.00  0.00    -0.200 F 
ATOM     84  C   UNL A   1      43.213  22.352  25.436  1.00  0.00     0.200 A 
ATOM     85  F   UNL A   1      41.841  21.451  27.129  1.00  0.00    -0.200 F 
ATOM     86  F   UNL A   1      43.460  21.124  24.961  1.00  0.00    -0.200 F 
ENDBRANCH  52  76
BRANCH  64  87
ATOM     87  C   UNL A   1      45.501  30.350  28.423  1.00  0.00     0.064 A 
ATOM     88  C   UNL A   1      44.444  31.092  27.875  1.00  0.00     0.173 A 
ATOM     89  C   UNL A   1      46.803  30.657  28.000  1.00  0.00     0.173 A 
ATOM     90  F   UNL A   1      43.181  30.902  28.285  1.00  0.00    -0.203 F 
ATOM     91  C   UNL A   1      44.685  32.083  26.925  1.00  0.00     0.198 A 
ATOM     92  C   UNL A   1      47.042  31.670  27.081  1.00  0.00     0.198 A 
ATOM     93  F   UNL A   1      47.851  29.999  28.522  1.00  0.00    -0.203 F 
ATOM     94  F   UNL A   1      43.662  32.778  26.404  1.00  0.00    -0.200 F 
ATOM     95  C   UNL A   1      45.983  32.380  26.538  1.00  0.00     0.200 A 
ATOM     96  F   UNL A   1      48.302  31.980  26.744  1.00  0.00    -0.200 F 
ATOM     97  F   UNL A   1      46.217  33.365  25.660  1.00  0.00    -0.200 F 
ENDBRANCH  64  87
ENDBRANCH  38  39
ENDBRANCH  31  33
ENDBRANCH  30  31
ENDBRANCH  29  30
ENDBRANCH  28  29
ENDBRANCH  27  28
ENDBRANCH  26  27
ENDBRANCH  25  26
ENDBRANCH   1  25
TORSDOF 22
ENDMDL
