MODEL 1
REMARK VINA RESULT:     -12.2      0.000      0.000
REMARK SMILES O=C(OCCOCCOCCOCCOC(=O)[C@H]1[C@H]2CC[C@H](CC2)[C@@H]1C(=O)Nc1sc2c(c1C(=O)N1CCCCC1)CCCC2)c1ccc(-c2c3nc(c(-c4c(F)c(F)c(F)c(F)c4F)c4ccc([nH]4)c(-c4c(F)c(F)c(F)c(F)c4F)c4nc(c(-c5c(F)c(F)c(F)c(F)c5F)c5ccc2[nH]5)C=C4)C=C3)cc1
REMARK SMILES IDX 10 1 9 2 8 3 7 4 6 5 5 6 4 7 3 8 2 9 1 10 46 11 47 12 108 13
REMARK SMILES IDX 48 14 107 15 49 16 50 17 51 18 101 19 52 20 106 21 100 22
REMARK SMILES IDX 102 23 53 24 105 25 99 26 98 27 54 29 86 30 66 31 85 32
REMARK SMILES IDX 67 33 70 34 84 35 103 36 68 37 69 38 83 40 104 41 71 42
REMARK SMILES IDX 55 43 56 44 64 45 57 46 58 47 62 48 65 49 59 50 60 51 63 52
REMARK SMILES IDX 61 53 87 54 88 55 96 56 89 57 90 58 94 59 97 60 91 61 92 62
REMARK SMILES IDX 95 63 93 64 72 65 73 66 81 67 74 68 75 69 79 70 82 71 76 72
REMARK SMILES IDX 77 73 80 74 78 75 11 76 12 77 13 78 14 79 15 80 16 81 17 82
REMARK SMILES IDX 18 83 19 84 25 85 24 86 20 87 22 88 23 89 21 90 26 91 27 92
REMARK SMILES IDX 28 93 29 95 30 96 33 97 31 98 32 99 45 100 42 101 44 102
REMARK SMILES IDX 43 103 34 104 35 105 36 106 37 107 41 108 38 109 40 110
REMARK SMILES IDX 39 111
REMARK H PARENT 102 28 70 39 28 94
REMARK Flexibility Score: inf
ROOT
ATOM      1  C   UNL A   1      34.022  31.463  27.974  1.00  0.00     0.188 C 
ENDROOT
BRANCH   1   2
ATOM      2  O   UNL A   1      35.433  31.652  27.970  1.00  0.00    -0.377 OA
BRANCH   2   3
ATOM      3  C   UNL A   1      35.885  33.001  28.105  1.00  0.00     0.188 C 
BRANCH   3   4
ATOM      4  C   UNL A   1      35.268  33.751  29.289  1.00  0.00     0.188 C 
BRANCH   4   5
ATOM      5  O   UNL A   1      34.518  34.850  28.781  1.00  0.00    -0.376 OA
BRANCH   5   6
ATOM      6  C   UNL A   1      33.195  35.017  29.268  1.00  0.00     0.202 C 
BRANCH   6   7
ATOM      7  C   UNL A   1      32.833  36.454  29.629  1.00  0.00     0.261 C 
BRANCH   7   8
ATOM      8  O   UNL A   1      32.588  36.651  31.035  1.00  0.00    -0.460 OA
BRANCH   8   9
ATOM      9  C   UNL A   1      32.533  35.702  32.003  1.00  0.00     0.338 C 
ATOM     10  O   UNL A   1      31.445  35.309  32.416  1.00  0.00    -0.246 OA
BRANCH   9  11
ATOM     11  C   UNL A   1      33.759  35.051  32.530  1.00  0.00     0.060 A 
ATOM     12  C   UNL A   1      34.990  35.692  32.608  1.00  0.00     0.016 A 
ATOM     13  C   UNL A   1      33.656  33.761  33.063  1.00  0.00     0.016 A 
ATOM     14  C   UNL A   1      36.135  35.021  32.986  1.00  0.00     0.010 A 
ATOM     15  C   UNL A   1      34.789  33.114  33.574  1.00  0.00     0.010 A 
ATOM     16  C   UNL A   1      36.048  33.726  33.481  1.00  0.00    -0.014 A 
BRANCH  16  17
ATOM     17  C   UNL A   1      37.313  33.014  33.760  1.00  0.00     0.031 A 
ATOM     18  C   UNL A   1      37.938  33.188  35.111  1.00  0.00     0.074 A 
ATOM     19  C   UNL A   1      37.778  32.098  32.888  1.00  0.00     0.049 A 
ATOM     20  N   UNL A   1      39.075  32.733  35.564  1.00  0.00    -0.248 NA
ATOM     21  C   UNL A   1      37.175  33.979  36.093  1.00  0.00     0.031 C 
ATOM     22  C   UNL A   1      37.154  31.757  31.605  1.00  0.00     0.029 A 
ATOM     23  N   UNL A   1      38.848  31.246  32.967  1.00  0.00    -0.354 N 
ATOM     24  C   UNL A   1      39.183  33.222  36.859  1.00  0.00     0.074 A 
ATOM     25  C   UNL A   1      38.003  34.012  37.123  1.00  0.00     0.031 C 
ATOM     26  C   UNL A   1      37.816  30.730  31.050  1.00  0.00     0.029 A 
ATOM     27  C   UNL A   1      38.970  30.414  31.880  1.00  0.00     0.049 A 
ATOM     28  H   UNL A   1      39.471  31.231  33.730  1.00  0.00     0.167 HD
ATOM     29  C   UNL A   1      40.187  33.025  37.742  1.00  0.00     0.037 A 
ATOM     30  C   UNL A   1      39.939  29.531  31.573  1.00  0.00     0.037 A 
ATOM     31  C   UNL A   1      41.335  32.210  37.455  1.00  0.00     0.049 A 
ATOM     32  C   UNL A   1      41.085  29.394  32.538  1.00  0.00     0.074 A 
ATOM     33  C   UNL A   1      42.473  32.011  38.212  1.00  0.00     0.029 A 
ATOM     34  N   UNL A   1      41.471  31.439  36.308  1.00  0.00    -0.354 N 
ATOM     35  N   UNL A   1      41.253  29.962  33.709  1.00  0.00    -0.248 NA
ATOM     36  C   UNL A   1      42.189  28.516  32.132  1.00  0.00     0.031 C 
ATOM     37  C   UNL A   1      43.311  31.139  37.508  1.00  0.00     0.029 A 
ATOM     38  C   UNL A   1      42.677  30.761  36.333  1.00  0.00     0.049 A 
ATOM     39  H   UNL A   1      40.807  31.384  35.582  1.00  0.00     0.167 HD
ATOM     40  C   UNL A   1      42.479  29.518  34.179  1.00  0.00     0.074 A 
ATOM     41  C   UNL A   1      42.992  28.596  33.183  1.00  0.00     0.031 C 
ATOM     42  C   UNL A   1      43.137  29.850  35.317  1.00  0.00     0.037 A 
BRANCH  29  43
ATOM     43  C   UNL A   1      40.100  33.754  39.048  1.00  0.00     0.064 A 
ATOM     44  C   UNL A   1      39.370  33.248  40.135  1.00  0.00     0.173 A 
ATOM     45  C   UNL A   1      40.718  35.005  39.199  1.00  0.00     0.173 A 
ATOM     46  F   UNL A   1      38.729  32.074  40.030  1.00  0.00    -0.203 F 
ATOM     47  C   UNL A   1      39.241  33.981  41.313  1.00  0.00     0.198 A 
ATOM     48  C   UNL A   1      40.607  35.722  40.386  1.00  0.00     0.198 A 
ATOM     49  F   UNL A   1      41.416  35.538  38.186  1.00  0.00    -0.203 F 
ATOM     50  F   UNL A   1      38.489  33.506  42.316  1.00  0.00    -0.200 F 
ATOM     51  C   UNL A   1      39.861  35.214  41.439  1.00  0.00     0.200 A 
ATOM     52  F   UNL A   1      41.207  36.914  40.506  1.00  0.00    -0.200 F 
ATOM     53  F   UNL A   1      39.728  35.921  42.570  1.00  0.00    -0.200 F 
ENDBRANCH  29  43
BRANCH  30  54
ATOM     54  C   UNL A   1      39.913  28.791  30.281  1.00  0.00     0.064 A 
ATOM     55  C   UNL A   1      39.339  27.516  30.175  1.00  0.00     0.173 A 
ATOM     56  C   UNL A   1      40.496  29.333  29.122  1.00  0.00     0.173 A 
ATOM     57  F   UNL A   1      38.789  26.939  31.253  1.00  0.00    -0.203 F 
ATOM     58  C   UNL A   1      39.368  26.808  28.974  1.00  0.00     0.198 A 
ATOM     59  C   UNL A   1      40.491  28.641  27.913  1.00  0.00     0.198 A 
ATOM     60  F   UNL A   1      41.068  30.546  29.161  1.00  0.00    -0.203 F 
ATOM     61  F   UNL A   1      38.861  25.568  28.918  1.00  0.00    -0.200 F 
ATOM     62  C   UNL A   1      39.937  27.373  27.843  1.00  0.00     0.200 A 
ATOM     63  F   UNL A   1      41.028  29.200  26.821  1.00  0.00    -0.200 F 
ATOM     64  F   UNL A   1      39.965  26.691  26.689  1.00  0.00    -0.200 F 
ENDBRANCH  30  54
BRANCH  42  65
ATOM     65  C   UNL A   1      44.464  29.192  35.537  1.00  0.00     0.064 A 
ATOM     66  C   UNL A   1      45.653  29.777  35.080  1.00  0.00     0.173 A 
ATOM     67  C   UNL A   1      44.545  27.979  36.236  1.00  0.00     0.173 A 
ATOM     68  F   UNL A   1      45.618  30.928  34.392  1.00  0.00    -0.203 F 
ATOM     69  C   UNL A   1      46.878  29.154  35.291  1.00  0.00     0.198 A 
ATOM     70  C   UNL A   1      45.774  27.375  36.470  1.00  0.00     0.198 A 
ATOM     71  F   UNL A   1      43.432  27.387  36.696  1.00  0.00    -0.203 F 
ATOM     72  F   UNL A   1      47.998  29.701  34.801  1.00  0.00    -0.200 F 
ATOM     73  C   UNL A   1      46.938  27.957  35.992  1.00  0.00     0.200 A 
ATOM     74  F   UNL A   1      45.833  26.225  37.156  1.00  0.00    -0.200 F 
ATOM     75  F   UNL A   1      48.119  27.360  36.196  1.00  0.00    -0.200 F 
ENDBRANCH  42  65
ENDBRANCH  16  17
ENDBRANCH   9  11
ENDBRANCH   8   9
ENDBRANCH   7   8
ENDBRANCH   6   7
ENDBRANCH   5   6
ENDBRANCH   4   5
ENDBRANCH   3   4
ENDBRANCH   2   3
ENDBRANCH   1   2
BRANCH   1  76
ATOM     76  C   UNL A   1      33.388  30.602  26.866  1.00  0.00     0.188 C 
BRANCH  76  77
ATOM     77  O   UNL A   1      32.355  29.725  27.305  1.00  0.00    -0.376 OA
BRANCH  77  78
ATOM     78  C   UNL A   1      32.739  28.350  27.369  1.00  0.00     0.202 C 
BRANCH  78  79
ATOM     79  C   UNL A   1      33.963  27.962  26.521  1.00  0.00     0.261 C 
BRANCH  79  80
ATOM     80  O   UNL A   1      33.675  27.077  25.426  1.00  0.00    -0.463 OA
BRANCH  80  81
ATOM     81  C   UNL A   1      32.662  27.412  24.584  1.00  0.00     0.310 C 
ATOM     82  O   UNL A   1      32.614  28.445  23.949  1.00  0.00    -0.252 OA
BRANCH  81  83
ATOM     83  C   UNL A   1      31.643  26.265  24.504  1.00  0.00     0.115 C 
ATOM     84  C   UNL A   1      30.989  26.178  23.111  1.00  0.00     0.004 C 
ATOM     85  C   UNL A   1      32.305  24.907  24.890  1.00  0.00     0.096 C 
ATOM     86  C   UNL A   1      32.042  25.852  22.043  1.00  0.00     0.005 C 
ATOM     87  C   UNL A   1      29.972  25.020  23.154  1.00  0.00     0.005 C 
ATOM     88  C   UNL A   1      32.193  23.942  23.681  1.00  0.00     0.002 C 
ATOM     89  C   UNL A   1      32.854  24.621  22.467  1.00  0.00     0.005 C 
ATOM     90  C   UNL A   1      30.709  23.687  23.346  1.00  0.00     0.005 C 
BRANCH  85  91
ATOM     91  C   UNL A   1      31.705  24.201  26.129  1.00  0.00     0.229 C 
ATOM     92  O   UNL A   1      30.655  24.601  26.643  1.00  0.00    -0.274 OA
ATOM     93  N   UNL A   1      32.198  22.996  26.562  1.00  0.00    -0.317 N 
ATOM     94  H   UNL A   1      31.591  22.475  27.136  1.00  0.00     0.170 HD
BRANCH  93  95
ATOM     95  C   UNL A   1      33.422  22.409  26.312  1.00  0.00     0.108 A 
ATOM     96  S   UNL A   1      34.815  23.152  26.935  1.00  0.00    -0.122 S 
ATOM     97  C   UNL A   1      33.678  21.168  25.727  1.00  0.00     0.078 A 
ATOM     98  C   UNL A   1      35.814  22.089  26.090  1.00  0.00     0.011 A 
ATOM     99  C   UNL A   1      35.119  21.028  25.537  1.00  0.00    -0.019 A 
ATOM    100  C   UNL A   1      37.290  22.314  26.004  1.00  0.00     0.047 C 
ATOM    101  C   UNL A   1      35.855  19.957  24.788  1.00  0.00     0.037 C 
ATOM    102  C   UNL A   1      37.866  21.523  24.826  1.00  0.00     0.006 C 
ATOM    103  C   UNL A   1      37.385  20.072  24.871  1.00  0.00     0.005 C 
BRANCH  97 104
ATOM    104  C   UNL A   1      32.564  20.305  25.278  1.00  0.00     0.257 C 
ATOM    105  O   UNL A   1      31.424  20.749  25.133  1.00  0.00    -0.269 OA
ATOM    106  N   UNL A   1      32.881  19.009  24.881  1.00  0.00    -0.339 N 
ATOM    107  C   UNL A   1      32.450  18.622  23.546  1.00  0.00     0.120 C 
ATOM    108  C   UNL A   1      32.797  17.924  25.851  1.00  0.00     0.120 C 
ATOM    109  C   UNL A   1      33.347  17.512  23.015  1.00  0.00     0.022 C 
ATOM    110  C   UNL A   1      33.654  16.732  25.412  1.00  0.00     0.022 C 
ATOM    111  C   UNL A   1      33.370  16.314  23.967  1.00  0.00     0.004 C 
ENDBRANCH  97 104
ENDBRANCH  93  95
ENDBRANCH  85  91
ENDBRANCH  81  83
ENDBRANCH  80  81
ENDBRANCH  79  80
ENDBRANCH  78  79
ENDBRANCH  77  78
ENDBRANCH  76  77
ENDBRANCH   1  76
TORSDOF 23
ENDMDL
MODEL 2
REMARK VINA RESULT:     -11.8      0.656      6.803
REMARK SMILES O=C(OCCOCCOCCOCCOC(=O)[C@H]1[C@H]2CC[C@H](CC2)[C@@H]1C(=O)Nc1sc2c(c1C(=O)N1CCCCC1)CCCC2)c1ccc(-c2c3nc(c(-c4c(F)c(F)c(F)c(F)c4F)c4ccc([nH]4)c(-c4c(F)c(F)c(F)c(F)c4F)c4nc(c(-c5c(F)c(F)c(F)c(F)c5F)c5ccc2[nH]5)C=C4)C=C3)cc1
REMARK SMILES IDX 10 1 9 2 8 3 7 4 6 5 5 6 4 7 3 8 2 9 1 10 46 11 47 12 108 13
REMARK SMILES IDX 48 14 107 15 49 16 50 17 51 18 101 19 52 20 106 21 100 22
REMARK SMILES IDX 102 23 53 24 105 25 99 26 98 27 54 29 86 30 66 31 85 32
REMARK SMILES IDX 67 33 70 34 84 35 103 36 68 37 69 38 83 40 104 41 71 42
REMARK SMILES IDX 55 43 56 44 64 45 57 46 58 47 62 48 65 49 59 50 60 51 63 52
REMARK SMILES IDX 61 53 87 54 88 55 96 56 89 57 90 58 94 59 97 60 91 61 92 62
REMARK SMILES IDX 95 63 93 64 72 65 73 66 81 67 74 68 75 69 79 70 82 71 76 72
REMARK SMILES IDX 77 73 80 74 78 75 11 76 12 77 13 78 14 79 15 80 16 81 17 82
REMARK SMILES IDX 18 83 19 84 25 85 24 86 20 87 22 88 23 89 21 90 26 91 27 92
REMARK SMILES IDX 28 93 29 95 30 96 33 97 31 98 32 99 45 100 42 101 44 102
REMARK SMILES IDX 43 103 34 104 35 105 36 106 37 107 41 108 38 109 40 110
REMARK SMILES IDX 39 111
REMARK H PARENT 102 28 70 39 28 94
REMARK Flexibility Score: inf
ROOT
ATOM      1  C   UNL A   1      34.691  31.212  28.166  1.00  0.00     0.188 C 
ENDROOT
BRANCH   1   2
ATOM      2  O   UNL A   1      35.619  32.280  28.004  1.00  0.00    -0.377 OA
BRANCH   2   3
ATOM      3  C   UNL A   1      35.429  33.411  28.857  1.00  0.00     0.188 C 
BRANCH   3   4
ATOM      4  C   UNL A   1      33.980  33.898  28.935  1.00  0.00     0.188 C 
BRANCH   4   5
ATOM      5  O   UNL A   1      33.978  35.318  28.826  1.00  0.00    -0.376 OA
BRANCH   5   6
ATOM      6  C   UNL A   1      32.852  36.011  29.341  1.00  0.00     0.202 C 
BRANCH   6   7
ATOM      7  C   UNL A   1      33.191  37.094  30.360  1.00  0.00     0.261 C 
BRANCH   7   8
ATOM      8  O   UNL A   1      32.775  36.774  31.702  1.00  0.00    -0.460 OA
BRANCH   8   9
ATOM      9  C   UNL A   1      32.783  35.554  32.298  1.00  0.00     0.338 C 
ATOM     10  O   UNL A   1      31.724  35.019  32.613  1.00  0.00    -0.246 OA
BRANCH   9  11
ATOM     11  C   UNL A   1      34.043  34.797  32.513  1.00  0.00     0.060 A 
ATOM     12  C   UNL A   1      34.075  33.441  32.815  1.00  0.00     0.016 A 
ATOM     13  C   UNL A   1      35.262  35.455  32.311  1.00  0.00     0.016 A 
ATOM     14  C   UNL A   1      35.254  32.797  33.131  1.00  0.00     0.010 A 
ATOM     15  C   UNL A   1      36.472  34.774  32.499  1.00  0.00     0.010 A 
ATOM     16  C   UNL A   1      36.468  33.453  32.970  1.00  0.00    -0.014 A 
BRANCH  16  17
ATOM     17  C   UNL A   1      37.687  32.759  33.433  1.00  0.00     0.031 A 
ATOM     18  C   UNL A   1      38.372  31.822  32.483  1.00  0.00     0.074 A 
ATOM     19  C   UNL A   1      38.259  33.106  34.603  1.00  0.00     0.049 A 
ATOM     20  N   UNL A   1      39.402  31.046  32.680  1.00  0.00    -0.248 NA
ATOM     21  C   UNL A   1      37.822  31.754  31.117  1.00  0.00     0.031 C 
ATOM     22  C   UNL A   1      37.739  34.114  35.533  1.00  0.00     0.029 A 
ATOM     23  N   UNL A   1      39.427  32.694  35.188  1.00  0.00    -0.354 N 
ATOM     24  C   UNL A   1      39.592  30.366  31.484  1.00  0.00     0.074 A 
ATOM     25  C   UNL A   1      38.571  30.813  30.566  1.00  0.00     0.031 C 
ATOM     26  C   UNL A   1      38.614  34.285  36.535  1.00  0.00     0.029 A 
ATOM     27  C   UNL A   1      39.697  33.324  36.380  1.00  0.00     0.049 A 
ATOM     28  H   UNL A   1      40.017  32.011  34.794  1.00  0.00     0.167 HD
ATOM     29  C   UNL A   1      40.539  29.447  31.191  1.00  0.00     0.037 A 
ATOM     30  C   UNL A   1      40.687  33.107  37.266  1.00  0.00     0.037 A 
ATOM     31  C   UNL A   1      41.557  29.045  32.121  1.00  0.00     0.049 A 
ATOM     32  C   UNL A   1      41.679  32.021  36.948  1.00  0.00     0.074 A 
ATOM     33  C   UNL A   1      42.509  28.052  31.995  1.00  0.00     0.029 A 
ATOM     34  N   UNL A   1      41.758  29.646  33.357  1.00  0.00    -0.354 N 
ATOM     35  N   UNL A   1      41.778  31.281  35.868  1.00  0.00    -0.248 NA
ATOM     36  C   UNL A   1      42.680  31.719  37.978  1.00  0.00     0.031 C 
ATOM     37  C   UNL A   1      43.270  28.035  33.170  1.00  0.00     0.029 A 
ATOM     38  C   UNL A   1      42.820  29.045  34.008  1.00  0.00     0.049 A 
ATOM     39  H   UNL A   1      41.223  30.391  33.718  1.00  0.00     0.167 HD
ATOM     40  C   UNL A   1      42.845  30.424  36.088  1.00  0.00     0.074 A 
ATOM     41  C   UNL A   1      43.389  30.767  37.387  1.00  0.00     0.031 C 
ATOM     42  C   UNL A   1      43.326  29.430  35.301  1.00  0.00     0.037 A 
BRANCH  29  43
ATOM     43  C   UNL A   1      40.457  28.790  29.846  1.00  0.00     0.064 A 
ATOM     44  C   UNL A   1      39.707  27.623  29.634  1.00  0.00     0.173 A 
ATOM     45  C   UNL A   1      41.182  29.310  28.764  1.00  0.00     0.173 A 
ATOM     46  F   UNL A   1      39.026  27.064  30.645  1.00  0.00    -0.203 F 
ATOM     47  C   UNL A   1      39.708  26.988  28.393  1.00  0.00     0.198 A 
ATOM     48  C   UNL A   1      41.161  28.687  27.519  1.00  0.00     0.198 A 
ATOM     49  F   UNL A   1      41.926  30.416  28.918  1.00  0.00    -0.203 F 
ATOM     50  F   UNL A   1      39.034  25.841  28.229  1.00  0.00    -0.200 F 
ATOM     51  C   UNL A   1      40.432  27.522  27.337  1.00  0.00     0.200 A 
ATOM     52  F   UNL A   1      41.861  29.203  26.501  1.00  0.00    -0.200 F 
ATOM     53  F   UNL A   1      40.438  26.905  26.148  1.00  0.00    -0.200 F 
ENDBRANCH  29  43
BRANCH  30  54
ATOM     54  C   UNL A   1      40.736  33.858  38.552  1.00  0.00     0.064 A 
ATOM     55  C   UNL A   1      41.513  35.015  38.698  1.00  0.00     0.173 A 
ATOM     56  C   UNL A   1      40.026  33.411  39.680  1.00  0.00     0.173 A 
ATOM     57  F   UNL A   1      42.231  35.475  37.662  1.00  0.00    -0.203 F 
ATOM     58  C   UNL A   1      41.596  35.680  39.922  1.00  0.00     0.198 A 
ATOM     59  C   UNL A   1      40.079  34.097  40.891  1.00  0.00     0.198 A 
ATOM     60  F   UNL A   1      39.270  32.305  39.605  1.00  0.00    -0.203 F 
ATOM     61  F   UNL A   1      42.392  36.751  40.046  1.00  0.00    -0.200 F 
ATOM     62  C   UNL A   1      40.874  35.226  41.014  1.00  0.00     0.200 A 
ATOM     63  F   UNL A   1      39.366  33.661  41.938  1.00  0.00    -0.200 F 
ATOM     64  F   UNL A   1      40.954  35.865  42.189  1.00  0.00    -0.200 F 
ENDBRANCH  30  54
BRANCH  42  65
ATOM     65  C   UNL A   1      44.503  28.672  35.830  1.00  0.00     0.064 A 
ATOM     66  C   UNL A   1      44.338  27.498  36.581  1.00  0.00     0.173 A 
ATOM     67  C   UNL A   1      45.807  29.109  35.558  1.00  0.00     0.173 A 
ATOM     68  F   UNL A   1      43.108  27.055  36.878  1.00  0.00    -0.203 F 
ATOM     69  C   UNL A   1      45.441  26.805  37.066  1.00  0.00     0.198 A 
ATOM     70  C   UNL A   1      46.907  28.397  36.020  1.00  0.00     0.198 A 
ATOM     71  F   UNL A   1      46.011  30.223  34.839  1.00  0.00    -0.203 F 
ATOM     72  F   UNL A   1      45.264  25.716  37.826  1.00  0.00    -0.200 F 
ATOM     73  C   UNL A   1      46.724  27.251  36.780  1.00  0.00     0.200 A 
ATOM     74  F   UNL A   1      48.146  28.821  35.734  1.00  0.00    -0.200 F 
ATOM     75  F   UNL A   1      47.786  26.579  37.246  1.00  0.00    -0.200 F 
ENDBRANCH  42  65
ENDBRANCH  16  17
ENDBRANCH   9  11
ENDBRANCH   8   9
ENDBRANCH   7   8
ENDBRANCH   6   7
ENDBRANCH   5   6
ENDBRANCH   4   5
ENDBRANCH   3   4
ENDBRANCH   2   3
ENDBRANCH   1   2
BRANCH   1  76
ATOM     76  C   UNL A   1      33.796  30.823  26.974  1.00  0.00     0.188 C 
BRANCH  76  77
ATOM     77  O   UNL A   1      32.611  30.114  27.321  1.00  0.00    -0.376 OA
BRANCH  77  78
ATOM     78  C   UNL A   1      32.797  28.710  27.506  1.00  0.00     0.202 C 
BRANCH  78  79
ATOM     79  C   UNL A   1      34.014  28.102  26.785  1.00  0.00     0.261 C 
BRANCH  79  80
ATOM     80  O   UNL A   1      33.698  27.034  25.875  1.00  0.00    -0.463 OA
BRANCH  80  81
ATOM     81  C   UNL A   1      32.914  27.322  24.803  1.00  0.00     0.310 C 
ATOM     82  O   UNL A   1      33.124  28.231  24.026  1.00  0.00    -0.252 OA
BRANCH  81  83
ATOM     83  C   UNL A   1      31.786  26.286  24.682  1.00  0.00     0.115 C 
ATOM     84  C   UNL A   1      31.071  26.376  23.319  1.00  0.00     0.004 C 
ATOM     85  C   UNL A   1      32.327  24.845  24.930  1.00  0.00     0.096 C 
ATOM     86  C   UNL A   1      32.044  26.039  22.181  1.00  0.00     0.005 C 
ATOM     87  C   UNL A   1      29.948  25.319  23.322  1.00  0.00     0.005 C 
ATOM     88  C   UNL A   1      32.073  23.997  23.657  1.00  0.00     0.002 C 
ATOM     89  C   UNL A   1      32.748  24.707  22.469  1.00  0.00     0.005 C 
ATOM     90  C   UNL A   1      30.559  23.911  23.374  1.00  0.00     0.005 C 
BRANCH  85  91
ATOM     91  C   UNL A   1      31.711  24.100  26.138  1.00  0.00     0.229 C 
ATOM     92  O   UNL A   1      30.651  24.479  26.646  1.00  0.00    -0.274 OA
ATOM     93  N   UNL A   1      32.204  22.886  26.544  1.00  0.00    -0.317 N 
ATOM     94  H   UNL A   1      31.591  22.344  27.092  1.00  0.00     0.170 HD
BRANCH  93  95
ATOM     95  C   UNL A   1      33.435  22.312  26.296  1.00  0.00     0.108 A 
ATOM     96  S   UNL A   1      34.816  23.057  26.943  1.00  0.00    -0.122 S 
ATOM     97  C   UNL A   1      33.707  21.082  25.696  1.00  0.00     0.078 A 
ATOM     98  C   UNL A   1      35.832  22.016  26.092  1.00  0.00     0.011 A 
ATOM     99  C   UNL A   1      35.150  20.956  25.517  1.00  0.00    -0.019 A 
ATOM    100  C   UNL A   1      37.307  22.254  26.024  1.00  0.00     0.047 C 
ATOM    101  C   UNL A   1      35.902  19.903  24.759  1.00  0.00     0.037 C 
ATOM    102  C   UNL A   1      37.900  21.485  24.839  1.00  0.00     0.006 C 
ATOM    103  C   UNL A   1      37.430  20.030  24.859  1.00  0.00     0.005 C 
BRANCH  97 104
ATOM    104  C   UNL A   1      32.604  20.217  25.224  1.00  0.00     0.257 C 
ATOM    105  O   UNL A   1      31.472  20.663  25.034  1.00  0.00    -0.269 OA
ATOM    106  N   UNL A   1      32.928  18.913  24.859  1.00  0.00    -0.339 N 
ATOM    107  C   UNL A   1      32.540  18.506  23.516  1.00  0.00     0.120 C 
ATOM    108  C   UNL A   1      32.807  17.844  25.843  1.00  0.00     0.120 C 
ATOM    109  C   UNL A   1      33.448  17.384  23.033  1.00  0.00     0.022 C 
ATOM    110  C   UNL A   1      33.672  16.642  25.451  1.00  0.00     0.022 C 
ATOM    111  C   UNL A   1      33.435  16.202  24.004  1.00  0.00     0.004 C 
ENDBRANCH  97 104
ENDBRANCH  93  95
ENDBRANCH  85  91
ENDBRANCH  81  83
ENDBRANCH  80  81
ENDBRANCH  79  80
ENDBRANCH  78  79
ENDBRANCH  77  78
ENDBRANCH  76  77
ENDBRANCH   1  76
TORSDOF 23
ENDMDL
MODEL 3
REMARK VINA RESULT:     -10.7      3.668      9.537
REMARK SMILES O=C(OCCOCCOCCOCCOC(=O)[C@H]1[C@H]2CC[C@H](CC2)[C@@H]1C(=O)Nc1sc2c(c1C(=O)N1CCCCC1)CCCC2)c1ccc(-c2c3nc(c(-c4c(F)c(F)c(F)c(F)c4F)c4ccc([nH]4)c(-c4c(F)c(F)c(F)c(F)c4F)c4nc(c(-c5c(F)c(F)c(F)c(F)c5F)c5ccc2[nH]5)C=C4)C=C3)cc1
REMARK SMILES IDX 10 1 9 2 8 3 7 4 6 5 5 6 4 7 3 8 2 9 1 10 46 11 47 12 108 13
REMARK SMILES IDX 48 14 107 15 49 16 50 17 51 18 101 19 52 20 106 21 100 22
REMARK SMILES IDX 102 23 53 24 105 25 99 26 98 27 54 29 86 30 66 31 85 32
REMARK SMILES IDX 67 33 70 34 84 35 103 36 68 37 69 38 83 40 104 41 71 42
REMARK SMILES IDX 55 43 56 44 64 45 57 46 58 47 62 48 65 49 59 50 60 51 63 52
REMARK SMILES IDX 61 53 87 54 88 55 96 56 89 57 90 58 94 59 97 60 91 61 92 62
REMARK SMILES IDX 95 63 93 64 72 65 73 66 81 67 74 68 75 69 79 70 82 71 76 72
REMARK SMILES IDX 77 73 80 74 78 75 11 76 12 77 13 78 14 79 15 80 16 81 17 82
REMARK SMILES IDX 18 83 19 84 25 85 24 86 20 87 22 88 23 89 21 90 26 91 27 92
REMARK SMILES IDX 28 93 29 95 30 96 33 97 31 98 32 99 45 100 42 101 44 102
REMARK SMILES IDX 43 103 34 104 35 105 36 106 37 107 41 108 38 109 40 110
REMARK SMILES IDX 39 111
REMARK H PARENT 102 28 70 39 28 94
REMARK Flexibility Score: inf
ROOT
ATOM      1  C   UNL A   1      40.652  21.628  26.109  1.00  0.00     0.188 C 
ENDROOT
BRANCH   1   2
ATOM      2  O   UNL A   1      40.883  20.241  26.332  1.00  0.00    -0.377 OA
BRANCH   2   3
ATOM      3  C   UNL A   1      42.225  19.872  26.658  1.00  0.00     0.188 C 
BRANCH   3   4
ATOM      4  C   UNL A   1      43.038  19.359  25.468  1.00  0.00     0.188 C 
BRANCH   4   5
ATOM      5  O   UNL A   1      43.654  20.474  24.833  1.00  0.00    -0.376 OA
BRANCH   5   6
ATOM      6  C   UNL A   1      44.866  20.958  25.392  1.00  0.00     0.202 C 
BRANCH   6   7
ATOM      7  C   UNL A   1      45.029  22.473  25.329  1.00  0.00     0.261 C 
BRANCH   7   8
ATOM      8  O   UNL A   1      44.097  23.189  26.163  1.00  0.00    -0.460 OA
BRANCH   8   9
ATOM      9  C   UNL A   1      43.278  24.208  25.797  1.00  0.00     0.338 C 
ATOM     10  O   UNL A   1      42.910  24.310  24.630  1.00  0.00    -0.246 OA
BRANCH   9  11
ATOM     11  C   UNL A   1      42.738  25.171  26.789  1.00  0.00     0.060 A 
ATOM     12  C   UNL A   1      43.147  26.497  26.866  1.00  0.00     0.016 A 
ATOM     13  C   UNL A   1      41.698  24.755  27.629  1.00  0.00     0.016 A 
ATOM     14  C   UNL A   1      42.717  27.331  27.878  1.00  0.00     0.010 A 
ATOM     15  C   UNL A   1      41.158  25.635  28.576  1.00  0.00     0.010 A 
ATOM     16  C   UNL A   1      41.712  26.913  28.741  1.00  0.00    -0.014 A 
BRANCH  16  17
ATOM     17  C   UNL A   1      41.373  27.798  29.875  1.00  0.00     0.031 A 
ATOM     18  C   UNL A   1      42.271  27.783  31.076  1.00  0.00     0.074 A 
ATOM     19  C   UNL A   1      40.395  28.717  29.747  1.00  0.00     0.049 A 
ATOM     20  N   UNL A   1      42.143  28.406  32.216  1.00  0.00    -0.248 NA
ATOM     21  C   UNL A   1      43.487  26.955  30.977  1.00  0.00     0.031 C 
ATOM     22  C   UNL A   1      39.558  28.902  28.557  1.00  0.00     0.029 A 
ATOM     23  N   UNL A   1      39.974  29.704  30.599  1.00  0.00    -0.354 N 
ATOM     24  C   UNL A   1      43.231  28.008  32.982  1.00  0.00     0.074 A 
ATOM     25  C   UNL A   1      44.008  27.088  32.186  1.00  0.00     0.031 C 
ATOM     26  C   UNL A   1      38.771  29.974  28.732  1.00  0.00     0.029 A 
ATOM     27  C   UNL A   1      38.966  30.482  30.082  1.00  0.00     0.049 A 
ATOM     28  H   UNL A   1      40.356  29.842  31.496  1.00  0.00     0.167 HD
ATOM     29  C   UNL A   1      43.542  28.383  34.243  1.00  0.00     0.037 A 
ATOM     30  C   UNL A   1      38.251  31.465  30.661  1.00  0.00     0.037 A 
ATOM     31  C   UNL A   1      42.760  29.323  34.997  1.00  0.00     0.049 A 
ATOM     32  C   UNL A   1      38.568  31.804  32.093  1.00  0.00     0.074 A 
ATOM     33  C   UNL A   1      42.898  29.710  36.316  1.00  0.00     0.029 A 
ATOM     34  N   UNL A   1      41.692  30.039  34.473  1.00  0.00    -0.354 N 
ATOM     35  N   UNL A   1      39.516  31.328  32.865  1.00  0.00    -0.248 NA
ATOM     36  C   UNL A   1      37.702  32.793  32.744  1.00  0.00     0.031 C 
ATOM     37  C   UNL A   1      41.893  30.643  36.598  1.00  0.00     0.029 A 
ATOM     38  C   UNL A   1      41.157  30.869  35.443  1.00  0.00     0.049 A 
ATOM     39  H   UNL A   1      41.362  29.967  33.548  1.00  0.00     0.167 HD
ATOM     40  C   UNL A   1      39.361  31.954  34.092  1.00  0.00     0.074 A 
ATOM     41  C   UNL A   1      38.253  32.877  33.947  1.00  0.00     0.031 C 
ATOM     42  C   UNL A   1      40.054  31.774  35.244  1.00  0.00     0.037 A 
BRANCH  29  43
ATOM     43  C   UNL A   1      44.728  27.723  34.878  1.00  0.00     0.064 A 
ATOM     44  C   UNL A   1      44.620  26.507  35.570  1.00  0.00     0.173 A 
ATOM     45  C   UNL A   1      45.986  28.343  34.833  1.00  0.00     0.173 A 
ATOM     46  F   UNL A   1      43.432  25.892  35.674  1.00  0.00    -0.203 F 
ATOM     47  C   UNL A   1      45.723  25.951  36.216  1.00  0.00     0.198 A 
ATOM     48  C   UNL A   1      47.091  27.772  35.459  1.00  0.00     0.198 A 
ATOM     49  F   UNL A   1      46.140  29.513  34.196  1.00  0.00    -0.203 F 
ATOM     50  F   UNL A   1      45.583  24.820  36.923  1.00  0.00    -0.200 F 
ATOM     51  C   UNL A   1      46.957  26.581  36.158  1.00  0.00     0.200 A 
ATOM     52  F   UNL A   1      48.282  28.383  35.402  1.00  0.00    -0.200 F 
ATOM     53  F   UNL A   1      48.013  26.050  36.787  1.00  0.00    -0.200 F 
ENDBRANCH  29  43
BRANCH  30  54
ATOM     54  C   UNL A   1      37.130  32.123  29.933  1.00  0.00     0.064 A 
ATOM     55  C   UNL A   1      37.249  33.423  29.421  1.00  0.00     0.173 A 
ATOM     56  C   UNL A   1      35.897  31.472  29.759  1.00  0.00     0.173 A 
ATOM     57  F   UNL A   1      38.395  34.102  29.577  1.00  0.00    -0.203 F 
ATOM     58  C   UNL A   1      36.176  34.050  28.788  1.00  0.00     0.198 A 
ATOM     59  C   UNL A   1      34.838  32.085  29.093  1.00  0.00     0.198 A 
ATOM     60  F   UNL A   1      35.720  30.228  30.232  1.00  0.00    -0.203 F 
ATOM     61  F   UNL A   1      36.301  35.315  28.361  1.00  0.00    -0.200 F 
ATOM     62  C   UNL A   1      34.975  33.380  28.618  1.00  0.00     0.200 A 
ATOM     63  F   UNL A   1      33.686  31.424  28.919  1.00  0.00    -0.200 F 
ATOM     64  F   UNL A   1      33.944  33.984  28.010  1.00  0.00    -0.200 F 
ENDBRANCH  30  54
BRANCH  42  65
ATOM     65  C   UNL A   1      39.634  32.610  36.412  1.00  0.00     0.064 A 
ATOM     66  C   UNL A   1      38.586  32.212  37.254  1.00  0.00     0.173 A 
ATOM     67  C   UNL A   1      40.308  33.805  36.706  1.00  0.00     0.173 A 
ATOM     68  F   UNL A   1      37.905  31.085  36.998  1.00  0.00    -0.203 F 
ATOM     69  C   UNL A   1      38.206  33.000  38.336  1.00  0.00     0.198 A 
ATOM     70  C   UNL A   1      39.944  34.573  37.805  1.00  0.00     0.198 A 
ATOM     71  F   UNL A   1      41.320  34.220  35.930  1.00  0.00    -0.203 F 
ATOM     72  F   UNL A   1      37.168  32.630  39.098  1.00  0.00    -0.200 F 
ATOM     73  C   UNL A   1      38.890  34.175  38.614  1.00  0.00     0.200 A 
ATOM     74  F   UNL A   1      40.611  35.703  38.080  1.00  0.00    -0.200 F 
ATOM     75  F   UNL A   1      38.524  34.930  39.658  1.00  0.00    -0.200 F 
ENDBRANCH  42  65
ENDBRANCH  16  17
ENDBRANCH   9  11
ENDBRANCH   8   9
ENDBRANCH   7   8
ENDBRANCH   6   7
ENDBRANCH   5   6
ENDBRANCH   4   5
ENDBRANCH   3   4
ENDBRANCH   2   3
ENDBRANCH   1   2
BRANCH   1  76
ATOM     76  C   UNL A   1      39.274  22.215  26.465  1.00  0.00     0.188 C 
BRANCH  76  77
ATOM     77  O   UNL A   1      38.334  22.229  25.395  1.00  0.00    -0.376 OA
BRANCH  77  78
ATOM     78  C   UNL A   1      37.498  23.387  25.360  1.00  0.00     0.202 C 
BRANCH  78  79
ATOM     79  C   UNL A   1      36.160  23.261  26.110  1.00  0.00     0.261 C 
BRANCH  79  80
ATOM     80  O   UNL A   1      34.996  23.488  25.298  1.00  0.00    -0.463 OA
BRANCH  80  81
ATOM     81  C   UNL A   1      34.381  22.408  24.748  1.00  0.00     0.310 C 
ATOM     82  O   UNL A   1      34.669  21.256  25.000  1.00  0.00    -0.252 OA
BRANCH  81  83
ATOM     83  C   UNL A   1      33.233  22.864  23.835  1.00  0.00     0.115 C 
ATOM     84  C   UNL A   1      31.893  22.215  24.235  1.00  0.00     0.004 C 
ATOM     85  C   UNL A   1      33.115  24.418  23.826  1.00  0.00     0.096 C 
ATOM     86  C   UNL A   1      31.482  22.660  25.645  1.00  0.00     0.005 C 
ATOM     87  C   UNL A   1      30.827  22.718  23.241  1.00  0.00     0.005 C 
ATOM     88  C   UNL A   1      31.707  24.810  24.348  1.00  0.00     0.002 C 
ATOM     89  C   UNL A   1      31.528  24.190  25.746  1.00  0.00     0.005 C 
ATOM     90  C   UNL A   1      30.621  24.229  23.418  1.00  0.00     0.005 C 
BRANCH  85  91
ATOM     91  C   UNL A   1      33.325  25.095  22.451  1.00  0.00     0.229 C 
ATOM     92  O   UNL A   1      33.598  24.428  21.448  1.00  0.00    -0.274 OA
ATOM     93  N   UNL A   1      33.013  26.418  22.261  1.00  0.00    -0.317 N 
ATOM     94  H   UNL A   1      32.879  26.688  21.324  1.00  0.00     0.170 HD
BRANCH  93  95
ATOM     95  C   UNL A   1      32.860  27.425  23.192  1.00  0.00     0.108 A 
ATOM     96  S   UNL A   1      34.175  27.801  24.197  1.00  0.00    -0.122 S 
ATOM     97  C   UNL A   1      31.793  28.314  23.332  1.00  0.00     0.078 A 
ATOM     98  C   UNL A   1      33.230  28.848  25.119  1.00  0.00     0.011 A 
ATOM     99  C   UNL A   1      32.001  29.110  24.538  1.00  0.00    -0.019 A 
ATOM    100  C   UNL A   1      33.733  29.417  26.407  1.00  0.00     0.047 C 
ATOM    101  C   UNL A   1      31.046  30.059  25.198  1.00  0.00     0.037 C 
ATOM    102  C   UNL A   1      32.553  29.914  27.249  1.00  0.00     0.006 C 
ATOM    103  C   UNL A   1      31.635  30.802  26.408  1.00  0.00     0.005 C 
BRANCH  97 104
ATOM    104  C   UNL A   1      30.629  28.239  22.422  1.00  0.00     0.257 C 
ATOM    105  O   UNL A   1      30.423  27.247  21.722  1.00  0.00    -0.269 OA
ATOM    106  N   UNL A   1      29.694  29.267  22.498  1.00  0.00    -0.339 N 
ATOM    107  C   UNL A   1      28.316  28.866  22.739  1.00  0.00     0.120 C 
ATOM    108  C   UNL A   1      29.812  30.409  21.599  1.00  0.00     0.120 C 
ATOM    109  C   UNL A   1      27.554  30.005  23.403  1.00  0.00     0.022 C 
ATOM    110  C   UNL A   1      29.064  31.623  22.158  1.00  0.00     0.022 C 
ATOM    111  C   UNL A   1      27.628  31.284  22.566  1.00  0.00     0.004 C 
ENDBRANCH  97 104
ENDBRANCH  93  95
ENDBRANCH  85  91
ENDBRANCH  81  83
ENDBRANCH  80  81
ENDBRANCH  79  80
ENDBRANCH  78  79
ENDBRANCH  77  78
ENDBRANCH  76  77
ENDBRANCH   1  76
TORSDOF 23
ENDMDL
