MODEL 1
REMARK VINA RESULT:     -10.0      0.000      0.000
REMARK SMILES O=C(COCCNC(=O)c1cc(Cl)c2c(c1)OCCO2)OCCOCCOCCOCCOC(=O)c1ccc(-c2c3nc(c(-c4c(F)c(F)c(F)c(F)c4F)c4ccc([nH]4)c(-c4c(F)c(F)c(F)c(F)c4F)c4nc(c(-c5c(F)c(F)c(F)c(F)c5F)c5ccc2[nH]5)C=C4)C=C3)cc1
REMARK SMILES IDX 25 1 24 2 23 3 22 4 21 5 2 6 1 7 3 8 4 9 5 10 6 11 7 12 8 13
REMARK SMILES IDX 9 15 10 16 11 17 16 18 12 19 15 20 13 21 14 22 17 23 20 24
REMARK SMILES IDX 18 25 19 26 26 27 27 28 28 29 29 30 30 31 31 32 32 33 33 34
REMARK SMILES IDX 34 35 35 36 36 37 37 38 98 39 38 40 97 41 39 42 40 43 41 44
REMARK SMILES IDX 91 45 42 46 96 47 90 48 92 49 43 50 95 51 89 52 88 53 44 55
REMARK SMILES IDX 76 56 56 57 75 58 57 59 60 60 74 61 93 62 58 63 59 64 73 66
REMARK SMILES IDX 94 67 61 68 45 69 46 70 54 71 47 72 48 73 52 74 55 75 49 76
REMARK SMILES IDX 50 77 53 78 51 79 77 80 78 81 86 82 79 83 80 84 84 85 87 86
REMARK SMILES IDX 81 87 82 88 85 89 83 90 62 91 63 92 71 93 64 94 65 95 69 96
REMARK SMILES IDX 72 97 66 98 67 99 70 100 68 101
REMARK H PARENT 7 14 92 54 60 65
REMARK Flexibility Score: inf
ROOT
ATOM      1  C   UNL A   1      38.368  22.228  25.715  1.00  0.00     0.188 C 
ENDROOT
BRANCH   1   2
ATOM      2  O   UNL A   1      37.253  21.415  25.363  1.00  0.00    -0.376 OA
BRANCH   2   3
ATOM      3  C   UNL A   1      35.907  21.419  25.806  1.00  0.00     0.202 C 
BRANCH   3   4
ATOM      4  C   UNL A   1      34.779  20.679  25.093  1.00  0.00     0.261 C 
BRANCH   4   5
ATOM      5  O   UNL A   1      33.657  21.488  24.780  1.00  0.00    -0.462 OA
BRANCH   5   6
ATOM      6  C   UNL A   1      32.424  21.109  25.191  1.00  0.00     0.332 C 
ATOM      7  O   UNL A   1      32.125  19.918  25.178  1.00  0.00    -0.250 OA
BRANCH   6   8
ATOM      8  C   UNL A   1      31.410  22.215  25.548  1.00  0.00     0.282 C 
BRANCH   8   9
ATOM      9  O   UNL A   1      31.875  23.272  26.353  1.00  0.00    -0.368 OA
BRANCH   9  10
ATOM     10  C   UNL A   1      31.962  24.517  25.671  1.00  0.00     0.182 C 
BRANCH  10  11
ATOM     11  C   UNL A   1      31.545  24.419  24.200  1.00  0.00     0.144 C 
BRANCH  11  12
ATOM     12  N   UNL A   1      32.581  24.779  23.220  1.00  0.00    -0.350 N 
ATOM     13  C   UNL A   1      32.794  25.932  22.501  1.00  0.00     0.251 C 
ATOM     14  H   UNL A   1      33.240  24.068  23.048  1.00  0.00     0.163 HD
ATOM     15  O   UNL A   1      33.617  25.948  21.592  1.00  0.00    -0.269 OA
BRANCH  13  16
ATOM     16  C   UNL A   1      32.052  27.157  22.852  1.00  0.00     0.045 A 
ATOM     17  C   UNL A   1      32.579  28.020  23.813  1.00  0.00     0.038 A 
ATOM     18  C   UNL A   1      30.848  27.464  22.218  1.00  0.00     0.064 A 
ATOM     19  C   UNL A   1      31.816  29.072  24.296  1.00  0.00     0.087 A 
ATOM     20  C   UNL A   1      30.119  28.577  22.643  1.00  0.00     0.163 A 
ATOM     21  Cl  UNL A   1      32.431  29.976  25.630  1.00  0.00    -0.080 Cl
ATOM     22  C   UNL A   1      30.585  29.363  23.710  1.00  0.00     0.179 A 
ATOM     23  O   UNL A   1      28.956  28.843  21.967  1.00  0.00    -0.486 OA
ATOM     24  O   UNL A   1      29.871  30.423  24.207  1.00  0.00    -0.485 OA
ATOM     25  C   UNL A   1      28.142  29.818  22.631  1.00  0.00     0.271 C 
ATOM     26  C   UNL A   1      28.979  30.939  23.221  1.00  0.00     0.271 C 
ENDBRANCH  13  16
ENDBRANCH  11  12
ENDBRANCH  10  11
ENDBRANCH   9  10
ENDBRANCH   8   9
ENDBRANCH   6   8
ENDBRANCH   5   6
ENDBRANCH   4   5
ENDBRANCH   3   4
ENDBRANCH   2   3
ENDBRANCH   1   2
BRANCH   1  27
ATOM     27  C   UNL A   1      39.647  21.763  26.436  1.00  0.00     0.188 C 
BRANCH  27  28
ATOM     28  O   UNL A   1      40.156  20.469  26.173  1.00  0.00    -0.377 OA
BRANCH  28  29
ATOM     29  C   UNL A   1      41.251  20.112  26.982  1.00  0.00     0.188 C 
BRANCH  29  30
ATOM     30  C   UNL A   1      42.522  19.784  26.168  1.00  0.00     0.188 C 
BRANCH  30  31
ATOM     31  O   UNL A   1      43.080  20.753  25.302  1.00  0.00    -0.376 OA
BRANCH  31  32
ATOM     32  C   UNL A   1      43.408  22.051  25.775  1.00  0.00     0.202 C 
BRANCH  32  33
ATOM     33  C   UNL A   1      44.320  23.054  25.034  1.00  0.00     0.261 C 
BRANCH  33  34
ATOM     34  O   UNL A   1      44.534  24.338  25.626  1.00  0.00    -0.460 OA
BRANCH  34  35
ATOM     35  C   UNL A   1      43.535  25.237  25.498  1.00  0.00     0.338 C 
ATOM     36  O   UNL A   1      42.797  25.406  24.540  1.00  0.00    -0.246 OA
BRANCH  35  37
ATOM     37  C   UNL A   1      43.319  25.847  26.825  1.00  0.00     0.060 A 
ATOM     38  C   UNL A   1      42.485  25.196  27.751  1.00  0.00     0.016 A 
ATOM     39  C   UNL A   1      43.982  27.024  27.169  1.00  0.00     0.016 A 
ATOM     40  C   UNL A   1      42.318  25.717  29.029  1.00  0.00     0.010 A 
ATOM     41  C   UNL A   1      43.755  27.587  28.423  1.00  0.00     0.010 A 
ATOM     42  C   UNL A   1      42.900  26.950  29.339  1.00  0.00    -0.014 A 
BRANCH  42  43
ATOM     43  C   UNL A   1      42.389  27.724  30.487  1.00  0.00     0.031 A 
ATOM     44  C   UNL A   1      41.161  28.555  30.259  1.00  0.00     0.074 A 
ATOM     45  C   UNL A   1      43.009  27.715  31.676  1.00  0.00     0.049 A 
ATOM     46  N   UNL A   1      40.585  29.423  31.046  1.00  0.00    -0.248 NA
ATOM     47  C   UNL A   1      40.494  28.384  28.956  1.00  0.00     0.031 C 
ATOM     48  C   UNL A   1      44.162  26.890  32.023  1.00  0.00     0.029 A 
ATOM     49  N   UNL A   1      42.756  28.447  32.806  1.00  0.00    -0.354 N 
ATOM     50  C   UNL A   1      39.489  29.895  30.337  1.00  0.00     0.074 A 
ATOM     51  C   UNL A   1      39.496  29.246  29.047  1.00  0.00     0.031 C 
ATOM     52  C   UNL A   1      44.533  27.179  33.283  1.00  0.00     0.029 A 
ATOM     53  C   UNL A   1      43.669  28.237  33.807  1.00  0.00     0.049 A 
ATOM     54  H   UNL A   1      41.993  29.064  32.892  1.00  0.00     0.167 HD
ATOM     55  C   UNL A   1      38.557  30.792  30.732  1.00  0.00     0.037 A 
ATOM     56  C   UNL A   1      43.799  28.855  34.996  1.00  0.00     0.037 A 
ATOM     57  C   UNL A   1      38.592  31.471  31.999  1.00  0.00     0.049 A 
ATOM     58  C   UNL A   1      42.827  29.946  35.368  1.00  0.00     0.074 A 
ATOM     59  C   UNL A   1      37.724  32.427  32.490  1.00  0.00     0.029 A 
ATOM     60  N   UNL A   1      39.562  31.270  32.972  1.00  0.00    -0.354 N 
ATOM     61  N   UNL A   1      41.798  30.404  34.695  1.00  0.00    -0.248 NA
ATOM     62  C   UNL A   1      43.035  30.603  36.665  1.00  0.00     0.031 C 
ATOM     63  C   UNL A   1      38.201  32.848  33.735  1.00  0.00     0.029 A 
ATOM     64  C   UNL A   1      39.325  32.100  34.055  1.00  0.00     0.049 A 
ATOM     65  H   UNL A   1      40.309  30.633  32.901  1.00  0.00     0.167 HD
ATOM     66  C   UNL A   1      41.213  31.375  35.499  1.00  0.00     0.074 A 
ATOM     67  C   UNL A   1      42.003  31.434  36.713  1.00  0.00     0.031 C 
ATOM     68  C   UNL A   1      40.119  32.140  35.259  1.00  0.00     0.037 A 
BRANCH  55  69
ATOM     69  C   UNL A   1      37.454  31.107  29.764  1.00  0.00     0.064 A 
ATOM     70  C   UNL A   1      37.400  32.335  29.087  1.00  0.00     0.173 A 
ATOM     71  C   UNL A   1      36.444  30.170  29.503  1.00  0.00     0.173 A 
ATOM     72  F   UNL A   1      38.328  33.276  29.320  1.00  0.00    -0.203 F 
ATOM     73  C   UNL A   1      36.362  32.623  28.206  1.00  0.00     0.198 A 
ATOM     74  C   UNL A   1      35.426  30.448  28.595  1.00  0.00     0.198 A 
ATOM     75  F   UNL A   1      36.442  28.984  30.129  1.00  0.00    -0.203 F 
ATOM     76  F   UNL A   1      36.301  33.824  27.614  1.00  0.00    -0.200 F 
ATOM     77  C   UNL A   1      35.381  31.676  27.953  1.00  0.00     0.200 A 
ATOM     78  F   UNL A   1      34.486  29.527  28.344  1.00  0.00    -0.200 F 
ATOM     79  F   UNL A   1      34.387  31.951  27.097  1.00  0.00    -0.200 F 
ENDBRANCH  55  69
BRANCH  56  80
ATOM     80  C   UNL A   1      44.876  28.430  35.926  1.00  0.00     0.064 A 
ATOM     81  C   UNL A   1      44.622  27.475  36.919  1.00  0.00     0.173 A 
ATOM     82  C   UNL A   1      46.183  28.927  35.816  1.00  0.00     0.173 A 
ATOM     83  F   UNL A   1      43.382  26.990  37.079  1.00  0.00    -0.203 F 
ATOM     84  C   UNL A   1      45.635  27.028  37.764  1.00  0.00     0.198 A 
ATOM     85  C   UNL A   1      47.202  28.460  36.645  1.00  0.00     0.198 A 
ATOM     86  F   UNL A   1      46.478  29.845  34.885  1.00  0.00    -0.203 F 
ATOM     87  F   UNL A   1      45.360  26.128  38.719  1.00  0.00    -0.200 F 
ATOM     88  C   UNL A   1      46.927  27.512  37.618  1.00  0.00     0.200 A 
ATOM     89  F   UNL A   1      48.451  28.919  36.492  1.00  0.00    -0.200 F 
ATOM     90  F   UNL A   1      47.907  27.062  38.415  1.00  0.00    -0.200 F 
ENDBRANCH  56  80
BRANCH  68  91
ATOM     91  C   UNL A   1      39.670  33.077  36.347  1.00  0.00     0.064 A 
ATOM     92  C   UNL A   1      38.731  32.693  37.315  1.00  0.00     0.173 A 
ATOM     93  C   UNL A   1      40.238  34.356  36.455  1.00  0.00     0.173 A 
ATOM     94  F   UNL A   1      38.151  31.486  37.254  1.00  0.00    -0.203 F 
ATOM     95  C   UNL A   1      38.357  33.567  38.334  1.00  0.00     0.198 A 
ATOM     96  C   UNL A   1      39.890  35.212  37.495  1.00  0.00     0.198 A 
ATOM     97  F   UNL A   1      41.151  34.769  35.562  1.00  0.00    -0.203 F 
ATOM     98  F   UNL A   1      37.420  33.198  39.219  1.00  0.00    -0.200 F 
ATOM     99  C   UNL A   1      38.943  34.820  38.428  1.00  0.00     0.200 A 
ATOM    100  F   UNL A   1      40.474  36.414  37.596  1.00  0.00    -0.200 F 
ATOM    101  F   UNL A   1      38.592  35.654  39.418  1.00  0.00    -0.200 F 
ENDBRANCH  68  91
ENDBRANCH  42  43
ENDBRANCH  35  37
ENDBRANCH  34  35
ENDBRANCH  33  34
ENDBRANCH  32  33
ENDBRANCH  31  32
ENDBRANCH  30  31
ENDBRANCH  29  30
ENDBRANCH  28  29
ENDBRANCH  27  28
ENDBRANCH   1  27
TORSDOF 25
ENDMDL
MODEL 2
REMARK VINA RESULT:      -9.6      4.913      8.516
REMARK SMILES O=C(COCCNC(=O)c1cc(Cl)c2c(c1)OCCO2)OCCOCCOCCOCCOC(=O)c1ccc(-c2c3nc(c(-c4c(F)c(F)c(F)c(F)c4F)c4ccc([nH]4)c(-c4c(F)c(F)c(F)c(F)c4F)c4nc(c(-c5c(F)c(F)c(F)c(F)c5F)c5ccc2[nH]5)C=C4)C=C3)cc1
REMARK SMILES IDX 25 1 24 2 23 3 22 4 21 5 2 6 1 7 3 8 4 9 5 10 6 11 7 12 8 13
REMARK SMILES IDX 9 15 10 16 11 17 16 18 12 19 15 20 13 21 14 22 17 23 20 24
REMARK SMILES IDX 18 25 19 26 26 27 27 28 28 29 29 30 30 31 31 32 32 33 33 34
REMARK SMILES IDX 34 35 35 36 36 37 37 38 98 39 38 40 97 41 39 42 40 43 41 44
REMARK SMILES IDX 91 45 42 46 96 47 90 48 92 49 43 50 95 51 89 52 88 53 44 55
REMARK SMILES IDX 76 56 56 57 75 58 57 59 60 60 74 61 93 62 58 63 59 64 73 66
REMARK SMILES IDX 94 67 61 68 45 69 46 70 54 71 47 72 48 73 52 74 55 75 49 76
REMARK SMILES IDX 50 77 53 78 51 79 77 80 78 81 86 82 79 83 80 84 84 85 87 86
REMARK SMILES IDX 81 87 82 88 85 89 83 90 62 91 63 92 71 93 64 94 65 95 69 96
REMARK SMILES IDX 72 97 66 98 67 99 70 100 68 101
REMARK H PARENT 7 14 92 54 60 65
REMARK Flexibility Score: inf
ROOT
ATOM      1  C   UNL A   1      32.171  22.631  24.382  1.00  0.00     0.188 C 
ENDROOT
BRANCH   1   2
ATOM      2  O   UNL A   1      32.108  23.843  25.127  1.00  0.00    -0.376 OA
BRANCH   2   3
ATOM      3  C   UNL A   1      31.093  24.389  25.951  1.00  0.00     0.202 C 
BRANCH   3   4
ATOM      4  C   UNL A   1      31.273  25.650  26.792  1.00  0.00     0.261 C 
BRANCH   4   5
ATOM      5  O   UNL A   1      31.985  26.689  26.140  1.00  0.00    -0.462 OA
BRANCH   5   6
ATOM      6  C   UNL A   1      31.815  27.971  26.543  1.00  0.00     0.332 C 
ATOM      7  O   UNL A   1      31.337  28.195  27.651  1.00  0.00    -0.250 OA
BRANCH   6   8
ATOM      8  C   UNL A   1      32.126  29.093  25.531  1.00  0.00     0.282 C 
BRANCH   8   9
ATOM      9  O   UNL A   1      32.966  30.134  25.971  1.00  0.00    -0.368 OA
BRANCH   9  10
ATOM     10  C   UNL A   1      32.364  30.991  26.932  1.00  0.00     0.182 C 
BRANCH  10  11
ATOM     11  C   UNL A   1      33.383  31.868  27.668  1.00  0.00     0.144 C 
BRANCH  11  12
ATOM     12  N   UNL A   1      33.000  33.277  27.845  1.00  0.00    -0.350 N 
ATOM     13  C   UNL A   1      33.408  34.224  28.755  1.00  0.00     0.251 C 
ATOM     14  H   UNL A   1      32.333  33.599  27.196  1.00  0.00     0.163 HD
ATOM     15  O   UNL A   1      32.812  35.294  28.838  1.00  0.00    -0.269 OA
BRANCH  13  16
ATOM     16  C   UNL A   1      34.584  33.961  29.604  1.00  0.00     0.045 A 
ATOM     17  C   UNL A   1      35.861  34.132  29.071  1.00  0.00     0.038 A 
ATOM     18  C   UNL A   1      34.425  33.565  30.933  1.00  0.00     0.064 A 
ATOM     19  C   UNL A   1      36.974  33.712  29.783  1.00  0.00     0.087 A 
ATOM     20  C   UNL A   1      35.554  33.226  31.681  1.00  0.00     0.163 A 
ATOM     21  Cl  UNL A   1      38.506  33.751  28.991  1.00  0.00    -0.080 Cl
ATOM     22  C   UNL A   1      36.830  33.263  31.095  1.00  0.00     0.179 A 
ATOM     23  O   UNL A   1      35.339  32.868  32.987  1.00  0.00    -0.486 OA
ATOM     24  O   UNL A   1      37.959  32.873  31.768  1.00  0.00    -0.485 OA
ATOM     25  C   UNL A   1      36.494  32.277  33.595  1.00  0.00     0.271 C 
ATOM     26  C   UNL A   1      37.771  32.984  33.177  1.00  0.00     0.271 C 
ENDBRANCH  13  16
ENDBRANCH  11  12
ENDBRANCH  10  11
ENDBRANCH   9  10
ENDBRANCH   8   9
ENDBRANCH   6   8
ENDBRANCH   5   6
ENDBRANCH   4   5
ENDBRANCH   3   4
ENDBRANCH   2   3
ENDBRANCH   1   2
BRANCH   1  27
ATOM     27  C   UNL A   1      33.328  22.176  23.472  1.00  0.00     0.188 C 
BRANCH  27  28
ATOM     28  O   UNL A   1      34.257  21.226  23.961  1.00  0.00    -0.377 OA
BRANCH  28  29
ATOM     29  C   UNL A   1      35.074  21.711  24.999  1.00  0.00     0.188 C 
BRANCH  29  30
ATOM     30  C   UNL A   1      36.582  21.555  24.703  1.00  0.00     0.188 C 
BRANCH  30  31
ATOM     31  O   UNL A   1      37.455  21.073  25.706  1.00  0.00    -0.376 OA
BRANCH  31  32
ATOM     32  C   UNL A   1      38.834  20.865  25.434  1.00  0.00     0.202 C 
BRANCH  32  33
ATOM     33  C   UNL A   1      39.627  19.598  25.825  1.00  0.00     0.261 C 
BRANCH  33  34
ATOM     34  O   UNL A   1      40.965  19.462  25.340  1.00  0.00    -0.460 OA
BRANCH  34  35
ATOM     35  C   UNL A   1      41.950  19.493  26.263  1.00  0.00     0.338 C 
ATOM     36  O   UNL A   1      42.673  18.574  26.619  1.00  0.00    -0.246 OA
BRANCH  35  37
ATOM     37  C   UNL A   1      42.176  20.908  26.619  1.00  0.00     0.060 A 
ATOM     38  C   UNL A   1      42.263  21.867  25.594  1.00  0.00     0.016 A 
ATOM     39  C   UNL A   1      42.245  21.289  27.958  1.00  0.00     0.016 A 
ATOM     40  C   UNL A   1      42.411  23.213  25.907  1.00  0.00     0.010 A 
ATOM     41  C   UNL A   1      42.469  22.627  28.270  1.00  0.00     0.010 A 
ATOM     42  C   UNL A   1      42.582  23.583  27.245  1.00  0.00    -0.014 A 
BRANCH  42  43
ATOM     43  C   UNL A   1      43.175  24.896  27.563  1.00  0.00     0.031 A 
ATOM     44  C   UNL A   1      42.259  25.939  28.134  1.00  0.00     0.074 A 
ATOM     45  C   UNL A   1      44.466  25.164  27.324  1.00  0.00     0.049 A 
ATOM     46  N   UNL A   1      42.484  27.202  28.377  1.00  0.00    -0.248 NA
ATOM     47  C   UNL A   1      40.897  25.491  28.474  1.00  0.00     0.031 C 
ATOM     48  C   UNL A   1      45.455  24.204  26.841  1.00  0.00     0.029 A 
ATOM     49  N   UNL A   1      45.159  26.341  27.442  1.00  0.00    -0.354 N 
ATOM     50  C   UNL A   1      41.298  27.695  28.901  1.00  0.00     0.074 A 
ATOM     51  C   UNL A   1      40.346  26.609  28.912  1.00  0.00     0.031 C 
ATOM     52  C   UNL A   1      46.629  24.840  26.682  1.00  0.00     0.029 A 
ATOM     53  C   UNL A   1      46.457  26.255  27.012  1.00  0.00     0.049 A 
ATOM     54  H   UNL A   1      44.762  27.167  27.801  1.00  0.00     0.167 HD
ATOM     55  C   UNL A   1      41.029  28.947  29.337  1.00  0.00     0.037 A 
ATOM     56  C   UNL A   1      47.384  27.222  26.878  1.00  0.00     0.037 A 
ATOM     57  C   UNL A   1      41.970  30.032  29.271  1.00  0.00     0.049 A 
ATOM     58  C   UNL A   1      47.027  28.639  27.247  1.00  0.00     0.074 A 
ATOM     59  C   UNL A   1      41.795  31.350  29.646  1.00  0.00     0.029 A 
ATOM     60  N   UNL A   1      43.265  29.921  28.781  1.00  0.00    -0.354 N 
ATOM     61  N   UNL A   1      45.902  29.112  27.729  1.00  0.00    -0.248 NA
ATOM     62  C   UNL A   1      48.069  29.656  27.053  1.00  0.00     0.031 C 
ATOM     63  C   UNL A   1      42.964  32.050  29.330  1.00  0.00     0.029 A 
ATOM     64  C   UNL A   1      43.895  31.153  28.827  1.00  0.00     0.049 A 
ATOM     65  H   UNL A   1      43.674  29.089  28.449  1.00  0.00     0.167 HD
ATOM     66  C   UNL A   1      46.111  30.470  27.933  1.00  0.00     0.074 A 
ATOM     67  C   UNL A   1      47.475  30.743  27.525  1.00  0.00     0.031 C 
ATOM     68  C   UNL A   1      45.257  31.404  28.422  1.00  0.00     0.037 A 
BRANCH  55  69
ATOM     69  C   UNL A   1      39.655  29.203  29.882  1.00  0.00     0.064 A 
ATOM     70  C   UNL A   1      38.624  29.702  29.071  1.00  0.00     0.173 A 
ATOM     71  C   UNL A   1      39.361  28.942  31.228  1.00  0.00     0.173 A 
ATOM     72  F   UNL A   1      38.858  29.992  27.782  1.00  0.00    -0.203 F 
ATOM     73  C   UNL A   1      37.358  29.953  29.593  1.00  0.00     0.198 A 
ATOM     74  C   UNL A   1      38.084  29.162  31.739  1.00  0.00     0.198 A 
ATOM     75  F   UNL A   1      40.312  28.473  32.050  1.00  0.00    -0.203 F 
ATOM     76  F   UNL A   1      36.405  30.482  28.813  1.00  0.00    -0.200 F 
ATOM     77  C   UNL A   1      37.087  29.674  30.924  1.00  0.00     0.200 A 
ATOM     78  F   UNL A   1      37.822  28.881  33.023  1.00  0.00    -0.200 F 
ATOM     79  F   UNL A   1      35.865  29.908  31.423  1.00  0.00    -0.200 F 
ENDBRANCH  55  69
BRANCH  56  80
ATOM     80  C   UNL A   1      48.744  26.868  26.399  1.00  0.00     0.064 A 
ATOM     81  C   UNL A   1      49.678  26.293  27.270  1.00  0.00     0.173 A 
ATOM     82  C   UNL A   1      49.125  27.050  25.060  1.00  0.00     0.173 A 
ATOM     83  F   UNL A   1      49.369  26.123  28.565  1.00  0.00    -0.203 F 
ATOM     84  C   UNL A   1      50.939  25.907  26.822  1.00  0.00     0.198 A 
ATOM     85  C   UNL A   1      50.378  26.639  24.607  1.00  0.00     0.198 A 
ATOM     86  F   UNL A   1      48.270  27.599  24.187  1.00  0.00    -0.203 F 
ATOM     87  F   UNL A   1      51.821  25.377  27.682  1.00  0.00    -0.200 F 
ATOM     88  C   UNL A   1      51.284  26.069  25.488  1.00  0.00     0.200 A 
ATOM     89  F   UNL A   1      50.701  26.785  23.315  1.00  0.00    -0.200 F 
ATOM     90  F   UNL A   1      52.488  25.674  25.052  1.00  0.00    -0.200 F 
ENDBRANCH  56  80
BRANCH  68  91
ATOM     91  C   UNL A   1      45.777  32.805  28.594  1.00  0.00     0.064 A 
ATOM     92  C   UNL A   1      46.301  33.256  29.814  1.00  0.00     0.173 A 
ATOM     93  C   UNL A   1      45.809  33.685  27.500  1.00  0.00     0.173 A 
ATOM     94  F   UNL A   1      46.288  32.460  30.892  1.00  0.00    -0.203 F 
ATOM     95  C   UNL A   1      46.810  34.547  29.939  1.00  0.00     0.198 A 
ATOM     96  C   UNL A   1      46.352  34.960  27.620  1.00  0.00     0.198 A 
ATOM     97  F   UNL A   1      45.333  33.300  26.307  1.00  0.00    -0.203 F 
ATOM     98  F   UNL A   1      47.258  34.975  31.127  1.00  0.00    -0.200 F 
ATOM     99  C   UNL A   1      46.844  35.394  28.841  1.00  0.00     0.200 A 
ATOM    100  F   UNL A   1      46.403  35.768  26.552  1.00  0.00    -0.200 F 
ATOM    101  F   UNL A   1      47.347  36.630  28.961  1.00  0.00    -0.200 F 
ENDBRANCH  68  91
ENDBRANCH  42  43
ENDBRANCH  35  37
ENDBRANCH  34  35
ENDBRANCH  33  34
ENDBRANCH  32  33
ENDBRANCH  31  32
ENDBRANCH  30  31
ENDBRANCH  29  30
ENDBRANCH  28  29
ENDBRANCH  27  28
ENDBRANCH   1  27
TORSDOF 25
ENDMDL
MODEL 3
REMARK VINA RESULT:      -9.3      2.007      4.921
REMARK SMILES O=C(COCCNC(=O)c1cc(Cl)c2c(c1)OCCO2)OCCOCCOCCOCCOC(=O)c1ccc(-c2c3nc(c(-c4c(F)c(F)c(F)c(F)c4F)c4ccc([nH]4)c(-c4c(F)c(F)c(F)c(F)c4F)c4nc(c(-c5c(F)c(F)c(F)c(F)c5F)c5ccc2[nH]5)C=C4)C=C3)cc1
REMARK SMILES IDX 25 1 24 2 23 3 22 4 21 5 2 6 1 7 3 8 4 9 5 10 6 11 7 12 8 13
REMARK SMILES IDX 9 15 10 16 11 17 16 18 12 19 15 20 13 21 14 22 17 23 20 24
REMARK SMILES IDX 18 25 19 26 26 27 27 28 28 29 29 30 30 31 31 32 32 33 33 34
REMARK SMILES IDX 34 35 35 36 36 37 37 38 98 39 38 40 97 41 39 42 40 43 41 44
REMARK SMILES IDX 91 45 42 46 96 47 90 48 92 49 43 50 95 51 89 52 88 53 44 55
REMARK SMILES IDX 76 56 56 57 75 58 57 59 60 60 74 61 93 62 58 63 59 64 73 66
REMARK SMILES IDX 94 67 61 68 45 69 46 70 54 71 47 72 48 73 52 74 55 75 49 76
REMARK SMILES IDX 50 77 53 78 51 79 77 80 78 81 86 82 79 83 80 84 84 85 87 86
REMARK SMILES IDX 81 87 82 88 85 89 83 90 62 91 63 92 71 93 64 94 65 95 69 96
REMARK SMILES IDX 72 97 66 98 67 99 70 100 68 101
REMARK H PARENT 7 14 92 54 60 65
REMARK Flexibility Score: inf
ROOT
ATOM      1  C   UNL A   1      34.056  24.910  25.808  1.00  0.00     0.188 C 
ENDROOT
BRANCH   1   2
ATOM      2  O   UNL A   1      34.050  25.833  24.724  1.00  0.00    -0.376 OA
BRANCH   2   3
ATOM      3  C   UNL A   1      33.658  27.193  24.648  1.00  0.00     0.202 C 
BRANCH   3   4
ATOM      4  C   UNL A   1      32.204  27.654  24.633  1.00  0.00     0.261 C 
BRANCH   4   5
ATOM      5  O   UNL A   1      31.348  26.860  23.828  1.00  0.00    -0.462 OA
BRANCH   5   6
ATOM      6  C   UNL A   1      31.340  27.033  22.485  1.00  0.00     0.332 C 
ATOM      7  O   UNL A   1      30.743  27.994  22.007  1.00  0.00    -0.250 OA
BRANCH   6   8
ATOM      8  C   UNL A   1      31.990  25.942  21.612  1.00  0.00     0.282 C 
BRANCH   8   9
ATOM      9  O   UNL A   1      31.930  24.619  22.092  1.00  0.00    -0.368 OA
BRANCH   9  10
ATOM     10  C   UNL A   1      33.129  23.881  21.893  1.00  0.00     0.182 C 
BRANCH  10  11
ATOM     11  C   UNL A   1      33.244  22.672  22.828  1.00  0.00     0.144 C 
BRANCH  11  12
ATOM     12  N   UNL A   1      32.380  22.703  24.017  1.00  0.00    -0.350 N 
ATOM     13  C   UNL A   1      32.074  21.736  24.946  1.00  0.00     0.251 C 
ATOM     14  H   UNL A   1      31.944  23.571  24.177  1.00  0.00     0.163 HD
ATOM     15  O   UNL A   1      31.173  21.926  25.758  1.00  0.00    -0.269 OA
BRANCH  13  16
ATOM     16  C   UNL A   1      32.854  20.486  24.981  1.00  0.00     0.045 A 
ATOM     17  C   UNL A   1      34.247  20.553  24.990  1.00  0.00     0.038 A 
ATOM     18  C   UNL A   1      32.210  19.248  25.028  1.00  0.00     0.064 A 
ATOM     19  C   UNL A   1      34.999  19.399  24.832  1.00  0.00     0.087 A 
ATOM     20  C   UNL A   1      32.974  18.081  24.958  1.00  0.00     0.163 A 
ATOM     21  Cl  UNL A   1      36.705  19.563  24.636  1.00  0.00    -0.080 Cl
ATOM     22  C   UNL A   1      34.369  18.155  24.822  1.00  0.00     0.179 A 
ATOM     23  O   UNL A   1      32.288  16.896  25.032  1.00  0.00    -0.486 OA
ATOM     24  O   UNL A   1      35.153  17.039  24.681  1.00  0.00    -0.485 OA
ATOM     25  C   UNL A   1      33.098  15.767  24.681  1.00  0.00     0.271 C 
ATOM     26  C   UNL A   1      34.507  15.894  25.233  1.00  0.00     0.271 C 
ENDBRANCH  13  16
ENDBRANCH  11  12
ENDBRANCH  10  11
ENDBRANCH   9  10
ENDBRANCH   8   9
ENDBRANCH   6   8
ENDBRANCH   5   6
ENDBRANCH   4   5
ENDBRANCH   3   4
ENDBRANCH   2   3
ENDBRANCH   1   2
BRANCH   1  27
ATOM     27  C   UNL A   1      35.154  23.876  26.122  1.00  0.00     0.188 C 
BRANCH  27  28
ATOM     28  O   UNL A   1      36.401  23.969  25.458  1.00  0.00    -0.377 OA
BRANCH  28  29
ATOM     29  C   UNL A   1      37.136  22.770  25.457  1.00  0.00     0.188 C 
BRANCH  29  30
ATOM     30  C   UNL A   1      38.522  22.910  26.124  1.00  0.00     0.188 C 
BRANCH  30  31
ATOM     31  O   UNL A   1      39.570  22.028  25.775  1.00  0.00    -0.376 OA
BRANCH  31  32
ATOM     32  C   UNL A   1      40.809  22.056  26.469  1.00  0.00     0.202 C 
BRANCH  32  33
ATOM     33  C   UNL A   1      42.111  22.682  25.921  1.00  0.00     0.261 C 
BRANCH  33  34
ATOM     34  O   UNL A   1      42.028  23.954  25.272  1.00  0.00    -0.460 OA
BRANCH  34  35
ATOM     35  C   UNL A   1      42.990  24.853  25.575  1.00  0.00     0.338 C 
ATOM     36  O   UNL A   1      44.063  25.018  25.016  1.00  0.00    -0.246 OA
BRANCH  35  37
ATOM     37  C   UNL A   1      42.425  25.782  26.573  1.00  0.00     0.060 A 
ATOM     38  C   UNL A   1      43.107  26.979  26.858  1.00  0.00     0.016 A 
ATOM     39  C   UNL A   1      41.203  25.497  27.180  1.00  0.00     0.016 A 
ATOM     40  C   UNL A   1      42.563  27.899  27.745  1.00  0.00     0.010 A 
ATOM     41  C   UNL A   1      40.696  26.384  28.126  1.00  0.00     0.010 A 
ATOM     42  C   UNL A   1      41.390  27.568  28.431  1.00  0.00    -0.014 A 
BRANCH  42  43
ATOM     43  C   UNL A   1      41.044  28.294  29.667  1.00  0.00     0.031 A 
ATOM     44  C   UNL A   1      39.885  29.245  29.600  1.00  0.00     0.074 A 
ATOM     45  C   UNL A   1      41.750  28.141  30.797  1.00  0.00     0.049 A 
ATOM     46  N   UNL A   1      39.455  30.099  30.491  1.00  0.00    -0.248 NA
ATOM     47  C   UNL A   1      39.107  29.234  28.349  1.00  0.00     0.031 C 
ATOM     48  C   UNL A   1      42.843  27.193  30.990  1.00  0.00     0.029 A 
ATOM     49  N   UNL A   1      41.654  28.804  31.992  1.00  0.00    -0.354 N 
ATOM     50  C   UNL A   1      38.358  30.718  29.910  1.00  0.00     0.074 A 
ATOM     51  C   UNL A   1      38.204  30.170  28.582  1.00  0.00     0.031 C 
ATOM     52  C   UNL A   1      43.335  27.351  32.231  1.00  0.00     0.029 A 
ATOM     53  C   UNL A   1      42.617  28.438  32.896  1.00  0.00     0.049 A 
ATOM     54  H   UNL A   1      40.961  29.477  32.183  1.00  0.00     0.167 HD
ATOM     55  C   UNL A   1      37.547  31.661  30.442  1.00  0.00     0.037 A 
ATOM     56  C   UNL A   1      42.895  28.950  34.111  1.00  0.00     0.037 A 
ATOM     57  C   UNL A   1      37.743  32.236  31.745  1.00  0.00     0.049 A 
ATOM     58  C   UNL A   1      42.062  30.091  34.636  1.00  0.00     0.074 A 
ATOM     59  C   UNL A   1      37.009  33.225  32.371  1.00  0.00     0.029 A 
ATOM     60  N   UNL A   1      38.762  31.877  32.618  1.00  0.00    -0.354 N 
ATOM     61  N   UNL A   1      41.032  30.688  34.084  1.00  0.00    -0.248 NA
ATOM     62  C   UNL A   1      42.429  30.627  35.953  1.00  0.00     0.031 C 
ATOM     63  C   UNL A   1      37.618  33.505  33.599  1.00  0.00     0.029 A 
ATOM     64  C   UNL A   1      38.687  32.639  33.771  1.00  0.00     0.049 A 
ATOM     65  H   UNL A   1      39.438  31.183  32.441  1.00  0.00     0.167 HD
ATOM     66  C   UNL A   1      40.604  31.642  35.000  1.00  0.00     0.074 A 
ATOM     67  C   UNL A   1      41.487  31.539  36.145  1.00  0.00     0.031 C 
ATOM     68  C   UNL A   1      39.572  32.517  34.905  1.00  0.00     0.037 A 
BRANCH  55  69
ATOM     69  C   UNL A   1      36.408  32.144  29.593  1.00  0.00     0.064 A 
ATOM     70  C   UNL A   1      36.325  33.479  29.168  1.00  0.00     0.173 A 
ATOM     71  C   UNL A   1      35.391  31.265  29.194  1.00  0.00     0.173 A 
ATOM     72  F   UNL A   1      37.258  34.368  29.542  1.00  0.00    -0.203 F 
ATOM     73  C   UNL A   1      35.253  33.921  28.396  1.00  0.00     0.198 A 
ATOM     74  C   UNL A   1      34.339  31.702  28.393  1.00  0.00     0.198 A 
ATOM     75  F   UNL A   1      35.417  29.981  29.580  1.00  0.00    -0.203 F 
ATOM     76  F   UNL A   1      35.166  35.212  28.049  1.00  0.00    -0.200 F 
ATOM     77  C   UNL A   1      34.266  33.030  28.002  1.00  0.00     0.200 A 
ATOM     78  F   UNL A   1      33.393  30.837  28.005  1.00  0.00    -0.200 F 
ATOM     79  F   UNL A   1      33.240  33.454  27.252  1.00  0.00    -0.200 F 
ENDBRANCH  55  69
BRANCH  56  80
ATOM     80  C   UNL A   1      43.996  28.362  34.916  1.00  0.00     0.064 A 
ATOM     81  C   UNL A   1      45.290  28.892  34.846  1.00  0.00     0.173 A 
ATOM     82  C   UNL A   1      43.773  27.296  35.801  1.00  0.00     0.173 A 
ATOM     83  F   UNL A   1      45.558  29.895  33.995  1.00  0.00    -0.203 F 
ATOM     84  C   UNL A   1      46.320  28.385  35.635  1.00  0.00     0.198 A 
ATOM     85  C   UNL A   1      44.798  26.807  36.609  1.00  0.00     0.198 A 
ATOM     86  F   UNL A   1      42.552  26.751  35.903  1.00  0.00    -0.203 F 
ATOM     87  F   UNL A   1      47.554  28.898  35.534  1.00  0.00    -0.200 F 
ATOM     88  C   UNL A   1      46.070  27.351  36.525  1.00  0.00     0.200 A 
ATOM     89  F   UNL A   1      44.549  25.817  37.477  1.00  0.00    -0.200 F 
ATOM     90  F   UNL A   1      47.056  26.880  37.301  1.00  0.00    -0.200 F 
ENDBRANCH  56  80
BRANCH  68  91
ATOM     91  C   UNL A   1      39.297  33.404  36.088  1.00  0.00     0.064 A 
ATOM     92  C   UNL A   1      38.529  32.971  37.178  1.00  0.00     0.173 A 
ATOM     93  C   UNL A   1      39.868  34.686  36.156  1.00  0.00     0.173 A 
ATOM     94  F   UNL A   1      37.954  31.760  37.161  1.00  0.00    -0.203 F 
ATOM     95  C   UNL A   1      38.318  33.799  38.278  1.00  0.00     0.198 A 
ATOM     96  C   UNL A   1      39.687  35.495  37.273  1.00  0.00     0.198 A 
ATOM     97  F   UNL A   1      40.623  35.145  35.147  1.00  0.00    -0.203 F 
ATOM     98  F   UNL A   1      37.538  33.384  39.286  1.00  0.00    -0.200 F 
ATOM     99  C   UNL A   1      38.904  35.055  38.329  1.00  0.00     0.200 A 
ATOM    100  F   UNL A   1      40.272  36.699  37.328  1.00  0.00    -0.200 F 
ATOM    101  F   UNL A   1      38.711  35.844  39.395  1.00  0.00    -0.200 F 
ENDBRANCH  68  91
ENDBRANCH  42  43
ENDBRANCH  35  37
ENDBRANCH  34  35
ENDBRANCH  33  34
ENDBRANCH  32  33
ENDBRANCH  31  32
ENDBRANCH  30  31
ENDBRANCH  29  30
ENDBRANCH  28  29
ENDBRANCH  27  28
ENDBRANCH   1  27
TORSDOF 25
ENDMDL
