MODEL 1
REMARK VINA RESULT:     -10.1      0.000      0.000
REMARK SMILES CC[NH2+][C@]1(C(=O)OCCOCCOCCOCCOC(=O)c2ccc(-c3c4nc(c(-c5c(F)c(F)c(F)c(F)c5F)c5ccc([nH]5)c(-c5c(F)c(F)c(F)c(F)c5F)c5nc(c(-c6c(F)c(F)c(F)c(F)c6F)c6ccc3[nH]6)C=C5)C=C4)cc2)CCC[C@H]([N@@H+]2CCC[C@@H]2C(C)C)C1
REMARK SMILES IDX 13 1 12 2 11 3 10 4 9 5 8 6 7 7 5 8 6 9 4 10 85 11 97 12
REMARK SMILES IDX 86 13 88 14 87 15 3 16 2 19 1 20 89 21 90 22 93 23 91 25
REMARK SMILES IDX 92 26 94 27 95 28 96 29 14 30 15 31 16 32 17 33 18 34 19 35
REMARK SMILES IDX 20 36 21 37 22 38 23 39 84 40 24 41 83 42 25 43 26 44 27 45
REMARK SMILES IDX 77 46 28 47 82 48 76 49 78 50 29 51 81 52 75 53 74 54 30 56
REMARK SMILES IDX 62 57 42 58 61 59 43 60 46 61 60 62 79 63 44 64 45 65 59 67
REMARK SMILES IDX 80 68 47 69 31 70 32 71 40 72 33 73 34 74 38 75 41 76 35 77
REMARK SMILES IDX 36 78 39 79 37 80 63 81 64 82 72 83 65 84 66 85 70 86 73 87
REMARK SMILES IDX 67 88 68 89 71 90 69 91 48 92 49 93 57 94 50 95 51 96 55 97
REMARK SMILES IDX 58 98 52 99 53 100 56 101 54 102
REMARK H PARENT 3 17 3 18 89 24 78 55 46 66
REMARK Flexibility Score: inf
ROOT
ATOM      1  O   UNL A   1      34.154  32.520  29.114  1.00  0.00    -0.377 OA
ENDROOT
BRANCH   1   2
ATOM      2  C   UNL A   1      34.622  31.462  28.302  1.00  0.00     0.188 C 
BRANCH   2   3
ATOM      3  C   UNL A   1      33.811  31.345  27.013  1.00  0.00     0.188 C 
BRANCH   3   4
ATOM      4  O   UNL A   1      33.323  30.061  26.621  1.00  0.00    -0.376 OA
BRANCH   4   5
ATOM      5  C   UNL A   1      31.939  29.924  26.323  1.00  0.00     0.202 C 
BRANCH   5   6
ATOM      6  C   UNL A   1      31.593  29.247  24.988  1.00  0.00     0.261 C 
BRANCH   6   7
ATOM      7  O   UNL A   1      30.984  27.964  25.172  1.00  0.00    -0.459 OA
BRANCH   7   8
ATOM      8  C   UNL A   1      31.313  27.215  26.271  1.00  0.00     0.368 C 
ATOM      9  O   UNL A   1      31.090  27.539  27.430  1.00  0.00    -0.245 OA
BRANCH   8  10
ATOM     10  C   UNL A   1      31.940  25.857  25.807  1.00  0.00     0.200 C 
ATOM     11  C   UNL A   1      31.620  25.759  24.256  1.00  0.00     0.081 C 
ATOM     12  C   UNL A   1      33.450  25.718  25.945  1.00  0.00     0.146 C 
ATOM     13  C   UNL A   1      32.540  25.055  23.240  1.00  0.00     0.013 C 
ATOM     14  C   UNL A   1      33.986  24.451  25.182  1.00  0.00     0.191 C 
ATOM     15  C   UNL A   1      33.941  24.776  23.702  1.00  0.00     0.065 C 
BRANCH  10  16
ATOM     16  N   UNL A   1      31.395  24.777  26.671  1.00  0.00    -0.332 N 
ATOM     17  H   UNL A   1      32.164  24.143  26.890  1.00  0.00     0.347 HD
ATOM     18  H   UNL A   1      30.988  25.264  27.470  1.00  0.00     0.347 HD
BRANCH  16  19
ATOM     19  C   UNL A   1      30.295  23.963  26.129  1.00  0.00     0.257 C 
ATOM     20  C   UNL A   1      30.255  22.597  26.820  1.00  0.00     0.071 C 
ENDBRANCH  16  19
ENDBRANCH  10  16
BRANCH  14  21
ATOM     21  N   UNL A   1      33.519  23.098  25.656  1.00  0.00    -0.330 N 
ATOM     22  C   UNL A   1      34.376  22.727  26.830  1.00  0.00     0.262 C 
ATOM     23  C   UNL A   1      33.431  21.760  24.921  1.00  0.00     0.187 C 
ATOM     24  H   UNL A   1      32.536  23.368  25.671  1.00  0.00     0.348 HD
ATOM     25  C   UNL A   1      35.456  21.816  26.286  1.00  0.00     0.067 C 
ATOM     26  C   UNL A   1      34.769  21.048  25.188  1.00  0.00     0.071 C 
BRANCH  23  27
ATOM     27  C   UNL A   1      32.820  21.295  23.516  1.00  0.00     0.041 C 
ATOM     28  C   UNL A   1      32.504  19.781  23.439  1.00  0.00     0.014 C 
ATOM     29  C   UNL A   1      31.491  21.939  23.101  1.00  0.00     0.014 C 
ENDBRANCH  23  27
ENDBRANCH  14  21
ENDBRANCH   8  10
ENDBRANCH   7   8
ENDBRANCH   6   7
ENDBRANCH   5   6
ENDBRANCH   4   5
ENDBRANCH   3   4
ENDBRANCH   2   3
ENDBRANCH   1   2
BRANCH   1  30
ATOM     30  C   UNL A   1      34.241  33.784  28.493  1.00  0.00     0.188 C 
BRANCH  30  31
ATOM     31  C   UNL A   1      33.483  34.825  29.320  1.00  0.00     0.188 C 
BRANCH  31  32
ATOM     32  O   UNL A   1      34.053  35.288  30.534  1.00  0.00    -0.376 OA
BRANCH  32  33
ATOM     33  C   UNL A   1      33.579  34.883  31.809  1.00  0.00     0.202 C 
BRANCH  33  34
ATOM     34  C   UNL A   1      34.259  33.794  32.646  1.00  0.00     0.261 C 
BRANCH  34  35
ATOM     35  O   UNL A   1      35.480  33.299  32.086  1.00  0.00    -0.460 OA
BRANCH  35  36
ATOM     36  C   UNL A   1      36.224  32.543  32.936  1.00  0.00     0.338 C 
ATOM     37  O   UNL A   1      36.121  32.453  34.134  1.00  0.00    -0.246 OA
BRANCH  36  38
ATOM     38  C   UNL A   1      37.087  31.658  32.134  1.00  0.00     0.060 A 
ATOM     39  C   UNL A   1      37.879  30.725  32.816  1.00  0.00     0.016 A 
ATOM     40  C   UNL A   1      37.158  31.787  30.748  1.00  0.00     0.016 A 
ATOM     41  C   UNL A   1      38.760  29.914  32.113  1.00  0.00     0.010 A 
ATOM     42  C   UNL A   1      38.085  31.017  30.047  1.00  0.00     0.010 A 
ATOM     43  C   UNL A   1      38.912  30.111  30.737  1.00  0.00    -0.014 A 
BRANCH  43  44
ATOM     44  C   UNL A   1      40.138  29.609  30.086  1.00  0.00     0.031 A 
ATOM     45  C   UNL A   1      41.281  30.575  29.946  1.00  0.00     0.074 A 
ATOM     46  C   UNL A   1      40.237  28.344  29.653  1.00  0.00     0.049 A 
ATOM     47  N   UNL A   1      42.423  30.433  29.330  1.00  0.00    -0.248 NA
ATOM     48  C   UNL A   1      41.105  31.888  30.594  1.00  0.00     0.031 C 
ATOM     49  C   UNL A   1      39.217  27.311  29.810  1.00  0.00     0.029 A 
ATOM     50  N   UNL A   1      41.253  27.719  28.976  1.00  0.00    -0.354 N 
ATOM     51  C   UNL A   1      43.093  31.636  29.507  1.00  0.00     0.074 A 
ATOM     52  C   UNL A   1      42.227  32.506  30.267  1.00  0.00     0.031 C 
ATOM     53  C   UNL A   1      39.647  26.183  29.218  1.00  0.00     0.029 A 
ATOM     54  C   UNL A   1      40.954  26.431  28.611  1.00  0.00     0.049 A 
ATOM     55  H   UNL A   1      42.113  28.153  28.772  1.00  0.00     0.167 HD
ATOM     56  C   UNL A   1      44.326  31.980  29.071  1.00  0.00     0.037 A 
ATOM     57  C   UNL A   1      41.652  25.573  27.842  1.00  0.00     0.037 A 
ATOM     58  C   UNL A   1      45.167  31.108  28.301  1.00  0.00     0.049 A 
ATOM     59  C   UNL A   1      42.983  26.015  27.284  1.00  0.00     0.074 A 
ATOM     60  C   UNL A   1      46.426  31.353  27.787  1.00  0.00     0.029 A 
ATOM     61  N   UNL A   1      44.821  29.818  27.924  1.00  0.00    -0.354 N 
ATOM     62  N   UNL A   1      43.615  27.153  27.447  1.00  0.00    -0.248 NA
ATOM     63  C   UNL A   1      43.697  25.053  26.434  1.00  0.00     0.031 C 
ATOM     64  C   UNL A   1      46.821  30.229  27.056  1.00  0.00     0.029 A 
ATOM     65  C   UNL A   1      45.836  29.261  27.168  1.00  0.00     0.049 A 
ATOM     66  H   UNL A   1      43.979  29.366  28.161  1.00  0.00     0.167 HD
ATOM     67  C   UNL A   1      44.816  27.029  26.759  1.00  0.00     0.074 A 
ATOM     68  C   UNL A   1      44.824  25.703  26.176  1.00  0.00     0.031 C 
ATOM     69  C   UNL A   1      45.825  27.925  26.625  1.00  0.00     0.037 A 
BRANCH  56  70
ATOM     70  C   UNL A   1      44.804  33.369  29.380  1.00  0.00     0.064 A 
ATOM     71  C   UNL A   1      44.518  34.455  28.538  1.00  0.00     0.173 A 
ATOM     72  C   UNL A   1      45.559  33.615  30.536  1.00  0.00     0.173 A 
ATOM     73  F   UNL A   1      43.822  34.267  27.407  1.00  0.00    -0.203 F 
ATOM     74  C   UNL A   1      44.992  35.731  28.831  1.00  0.00     0.198 A 
ATOM     75  C   UNL A   1      46.002  34.898  30.843  1.00  0.00     0.198 A 
ATOM     76  F   UNL A   1      45.866  32.610  31.370  1.00  0.00    -0.203 F 
ATOM     77  F   UNL A   1      44.752  36.743  27.985  1.00  0.00    -0.200 F 
ATOM     78  C   UNL A   1      45.726  35.953  29.986  1.00  0.00     0.200 A 
ATOM     79  F   UNL A   1      46.705  35.112  31.963  1.00  0.00    -0.200 F 
ATOM     80  F   UNL A   1      46.176  37.182  30.270  1.00  0.00    -0.200 F 
ENDBRANCH  56  70
BRANCH  57  81
ATOM     81  C   UNL A   1      41.104  24.226  27.534  1.00  0.00     0.064 A 
ATOM     82  C   UNL A   1      41.661  23.072  28.101  1.00  0.00     0.173 A 
ATOM     83  C   UNL A   1      40.030  24.061  26.646  1.00  0.00     0.173 A 
ATOM     84  F   UNL A   1      42.705  23.173  28.938  1.00  0.00    -0.203 F 
ATOM     85  C   UNL A   1      41.182  21.804  27.775  1.00  0.00     0.198 A 
ATOM     86  C   UNL A   1      39.532  22.796  26.343  1.00  0.00     0.198 A 
ATOM     87  F   UNL A   1      39.461  25.132  26.073  1.00  0.00    -0.203 F 
ATOM     88  F   UNL A   1      41.768  20.716  28.290  1.00  0.00    -0.200 F 
ATOM     89  C   UNL A   1      40.114  21.668  26.900  1.00  0.00     0.200 A 
ATOM     90  F   UNL A   1      38.493  22.670  25.506  1.00  0.00    -0.200 F 
ATOM     91  F   UNL A   1      39.655  20.449  26.585  1.00  0.00    -0.200 F 
ENDBRANCH  57  81
BRANCH  69  92
ATOM     92  C   UNL A   1      47.051  27.483  25.880  1.00  0.00     0.064 A 
ATOM     93  C   UNL A   1      47.181  27.658  24.495  1.00  0.00     0.173 A 
ATOM     94  C   UNL A   1      48.141  26.943  26.582  1.00  0.00     0.173 A 
ATOM     95  F   UNL A   1      46.165  28.160  23.778  1.00  0.00    -0.203 F 
ATOM     96  C   UNL A   1      48.350  27.287  23.837  1.00  0.00     0.198 A 
ATOM     97  C   UNL A   1      49.319  26.605  25.925  1.00  0.00     0.198 A 
ATOM     98  F   UNL A   1      48.070  26.767  27.909  1.00  0.00    -0.203 F 
ATOM     99  F   UNL A   1      48.439  27.422  22.506  1.00  0.00    -0.200 F 
ATOM    100  C   UNL A   1      49.421  26.771  24.553  1.00  0.00     0.200 A 
ATOM    101  F   UNL A   1      50.359  26.125  26.621  1.00  0.00    -0.200 F 
ATOM    102  F   UNL A   1      50.551  26.430  23.918  1.00  0.00    -0.200 F 
ENDBRANCH  69  92
ENDBRANCH  43  44
ENDBRANCH  36  38
ENDBRANCH  35  36
ENDBRANCH  34  35
ENDBRANCH  33  34
ENDBRANCH  32  33
ENDBRANCH  31  32
ENDBRANCH  30  31
ENDBRANCH   1  30
TORSDOF 24
ENDMDL
MODEL 2
REMARK VINA RESULT:     -10.1      4.901      7.387
REMARK SMILES CC[NH2+][C@]1(C(=O)OCCOCCOCCOCCOC(=O)c2ccc(-c3c4nc(c(-c5c(F)c(F)c(F)c(F)c5F)c5ccc([nH]5)c(-c5c(F)c(F)c(F)c(F)c5F)c5nc(c(-c6c(F)c(F)c(F)c(F)c6F)c6ccc3[nH]6)C=C5)C=C4)cc2)CCC[C@H]([N@@H+]2CCC[C@@H]2C(C)C)C1
REMARK SMILES IDX 13 1 12 2 11 3 10 4 9 5 8 6 7 7 5 8 6 9 4 10 85 11 97 12
REMARK SMILES IDX 86 13 88 14 87 15 3 16 2 19 1 20 89 21 90 22 93 23 91 25
REMARK SMILES IDX 92 26 94 27 95 28 96 29 14 30 15 31 16 32 17 33 18 34 19 35
REMARK SMILES IDX 20 36 21 37 22 38 23 39 84 40 24 41 83 42 25 43 26 44 27 45
REMARK SMILES IDX 77 46 28 47 82 48 76 49 78 50 29 51 81 52 75 53 74 54 30 56
REMARK SMILES IDX 62 57 42 58 61 59 43 60 46 61 60 62 79 63 44 64 45 65 59 67
REMARK SMILES IDX 80 68 47 69 31 70 32 71 40 72 33 73 34 74 38 75 41 76 35 77
REMARK SMILES IDX 36 78 39 79 37 80 63 81 64 82 72 83 65 84 66 85 70 86 73 87
REMARK SMILES IDX 67 88 68 89 71 90 69 91 48 92 49 93 57 94 50 95 51 96 55 97
REMARK SMILES IDX 58 98 52 99 53 100 56 101 54 102
REMARK H PARENT 3 17 3 18 89 24 78 55 46 66
REMARK Flexibility Score: inf
ROOT
ATOM      1  O   UNL A   1      34.388  31.292  27.272  1.00  0.00    -0.377 OA
ENDROOT
BRANCH   1   2
ATOM      2  C   UNL A   1      33.774  30.052  27.562  1.00  0.00     0.188 C 
BRANCH   2   3
ATOM      3  C   UNL A   1      32.618  29.762  26.607  1.00  0.00     0.188 C 
BRANCH   3   4
ATOM      4  O   UNL A   1      32.880  29.720  25.203  1.00  0.00    -0.376 OA
BRANCH   4   5
ATOM      5  C   UNL A   1      32.672  28.494  24.512  1.00  0.00     0.202 C 
BRANCH   5   6
ATOM      6  C   UNL A   1      31.272  27.876  24.627  1.00  0.00     0.261 C 
BRANCH   6   7
ATOM      7  O   UNL A   1      31.294  26.596  25.268  1.00  0.00    -0.459 OA
BRANCH   7   8
ATOM      8  C   UNL A   1      30.847  25.495  24.587  1.00  0.00     0.368 C 
ATOM      9  O   UNL A   1      29.780  25.426  23.991  1.00  0.00    -0.245 OA
BRANCH   8  10
ATOM     10  C   UNL A   1      31.945  24.378  24.625  1.00  0.00     0.200 C 
ATOM     11  C   UNL A   1      31.527  23.343  23.497  1.00  0.00     0.081 C 
ATOM     12  C   UNL A   1      33.370  24.808  24.309  1.00  0.00     0.146 C 
ATOM     13  C   UNL A   1      32.541  22.516  22.684  1.00  0.00     0.013 C 
ATOM     14  C   UNL A   1      34.313  23.569  24.088  1.00  0.00     0.191 C 
ATOM     15  C   UNL A   1      33.966  22.985  22.733  1.00  0.00     0.065 C 
BRANCH  10  16
ATOM     16  N   UNL A   1      32.023  23.855  26.015  1.00  0.00    -0.332 N 
ATOM     17  H   UNL A   1      33.007  23.676  26.219  1.00  0.00     0.347 HD
ATOM     18  H   UNL A   1      31.581  24.574  26.588  1.00  0.00     0.347 HD
BRANCH  16  19
ATOM     19  C   UNL A   1      31.279  22.622  26.321  1.00  0.00     0.257 C 
ATOM     20  C   UNL A   1      29.899  22.963  26.888  1.00  0.00     0.071 C 
ENDBRANCH  16  19
ENDBRANCH  10  16
BRANCH  14  21
ATOM     21  N   UNL A   1      34.537  22.642  25.257  1.00  0.00    -0.330 N 
ATOM     22  C   UNL A   1      35.743  23.148  25.992  1.00  0.00     0.262 C 
ATOM     23  C   UNL A   1      34.777  21.133  25.301  1.00  0.00     0.187 C 
ATOM     24  H   UNL A   1      33.565  22.685  25.563  1.00  0.00     0.348 HD
ATOM     25  C   UNL A   1      36.907  22.310  25.508  1.00  0.00     0.067 C 
ATOM     26  C   UNL A   1      36.304  20.952  25.265  1.00  0.00     0.071 C 
BRANCH  23  27
ATOM     27  C   UNL A   1      34.048  19.866  24.649  1.00  0.00     0.041 C 
ATOM     28  C   UNL A   1      34.916  18.583  24.627  1.00  0.00     0.014 C 
ATOM     29  C   UNL A   1      32.759  19.391  25.334  1.00  0.00     0.014 C 
ENDBRANCH  23  27
ENDBRANCH  14  21
ENDBRANCH   8  10
ENDBRANCH   7   8
ENDBRANCH   6   7
ENDBRANCH   5   6
ENDBRANCH   4   5
ENDBRANCH   3   4
ENDBRANCH   2   3
ENDBRANCH   1   2
BRANCH   1  30
ATOM     30  C   UNL A   1      35.648  31.451  27.888  1.00  0.00     0.188 C 
BRANCH  30  31
ATOM     31  C   UNL A   1      35.832  32.903  28.333  1.00  0.00     0.188 C 
BRANCH  31  32
ATOM     32  O   UNL A   1      34.850  33.863  27.972  1.00  0.00    -0.376 OA
BRANCH  32  33
ATOM     33  C   UNL A   1      34.630  35.052  28.713  1.00  0.00     0.202 C 
BRANCH  33  34
ATOM     34  C   UNL A   1      33.267  35.425  29.308  1.00  0.00     0.261 C 
BRANCH  34  35
ATOM     35  O   UNL A   1      33.343  36.195  30.513  1.00  0.00    -0.460 OA
BRANCH  35  36
ATOM     36  C   UNL A   1      32.783  35.598  31.598  1.00  0.00     0.338 C 
ATOM     37  O   UNL A   1      31.612  35.453  31.845  1.00  0.00    -0.246 OA
BRANCH  36  38
ATOM     38  C   UNL A   1      33.855  34.949  32.374  1.00  0.00     0.060 A 
ATOM     39  C   UNL A   1      35.104  35.582  32.418  1.00  0.00     0.016 A 
ATOM     40  C   UNL A   1      33.649  33.717  32.993  1.00  0.00     0.016 A 
ATOM     41  C   UNL A   1      36.167  34.979  33.078  1.00  0.00     0.010 A 
ATOM     42  C   UNL A   1      34.731  33.082  33.603  1.00  0.00     0.010 A 
ATOM     43  C   UNL A   1      35.996  33.698  33.609  1.00  0.00    -0.014 A 
BRANCH  43  44
ATOM     44  C   UNL A   1      37.197  32.882  33.879  1.00  0.00     0.031 A 
ATOM     45  C   UNL A   1      37.938  33.162  35.156  1.00  0.00     0.074 A 
ATOM     46  C   UNL A   1      37.601  31.924  33.033  1.00  0.00     0.049 A 
ATOM     47  N   UNL A   1      39.069  32.672  35.589  1.00  0.00    -0.248 NA
ATOM     48  C   UNL A   1      37.313  34.133  36.072  1.00  0.00     0.031 C 
ATOM     49  C   UNL A   1      36.909  31.526  31.810  1.00  0.00     0.029 A 
ATOM     50  N   UNL A   1      38.709  31.118  33.076  1.00  0.00    -0.354 N 
ATOM     51  C   UNL A   1      39.292  33.282  36.816  1.00  0.00     0.074 A 
ATOM     52  C   UNL A   1      38.197  34.192  37.053  1.00  0.00     0.031 C 
ATOM     53  C   UNL A   1      37.626  30.565  31.199  1.00  0.00     0.029 A 
ATOM     54  C   UNL A   1      38.842  30.313  31.972  1.00  0.00     0.049 A 
ATOM     55  H   UNL A   1      39.347  31.116  33.826  1.00  0.00     0.167 HD
ATOM     56  C   UNL A   1      40.325  33.095  37.668  1.00  0.00     0.037 A 
ATOM     57  C   UNL A   1      39.855  29.497  31.622  1.00  0.00     0.037 A 
ATOM     58  C   UNL A   1      41.415  32.198  37.408  1.00  0.00     0.049 A 
ATOM     59  C   UNL A   1      41.045  29.379  32.544  1.00  0.00     0.074 A 
ATOM     60  C   UNL A   1      42.527  31.939  38.188  1.00  0.00     0.029 A 
ATOM     61  N   UNL A   1      41.533  31.417  36.266  1.00  0.00    -0.354 N 
ATOM     62  N   UNL A   1      41.258  29.958  33.702  1.00  0.00    -0.248 NA
ATOM     63  C   UNL A   1      42.134  28.494  32.109  1.00  0.00     0.031 C 
ATOM     64  C   UNL A   1      43.342  31.041  37.493  1.00  0.00     0.029 A 
ATOM     65  C   UNL A   1      42.708  30.691  36.312  1.00  0.00     0.049 A 
ATOM     66  H   UNL A   1      40.876  31.386  35.533  1.00  0.00     0.167 HD
ATOM     67  C   UNL A   1      42.481  29.475  34.153  1.00  0.00     0.074 A 
ATOM     68  C   UNL A   1      42.962  28.555  33.143  1.00  0.00     0.031 C 
ATOM     69  C   UNL A   1      43.146  29.761  35.301  1.00  0.00     0.037 A 
BRANCH  56  70
ATOM     70  C   UNL A   1      40.337  33.910  38.928  1.00  0.00     0.064 A 
ATOM     71  C   UNL A   1      39.687  33.480  40.095  1.00  0.00     0.173 A 
ATOM     72  C   UNL A   1      41.011  35.140  38.967  1.00  0.00     0.173 A 
ATOM     73  F   UNL A   1      39.007  32.324  40.102  1.00  0.00    -0.203 F 
ATOM     74  C   UNL A   1      39.691  34.264  41.246  1.00  0.00     0.198 A 
ATOM     75  C   UNL A   1      41.040  35.905  40.129  1.00  0.00     0.198 A 
ATOM     76  F   UNL A   1      41.642  35.600  37.876  1.00  0.00    -0.203 F 
ATOM     77  F   UNL A   1      39.018  33.858  42.332  1.00  0.00    -0.200 F 
ATOM     78  C   UNL A   1      40.374  35.470  41.265  1.00  0.00     0.200 A 
ATOM     79  F   UNL A   1      41.707  37.066  40.148  1.00  0.00    -0.200 F 
ATOM     80  F   UNL A   1      40.382  36.220  42.375  1.00  0.00    -0.200 F 
ENDBRANCH  56  70
BRANCH  57  81
ATOM     81  C   UNL A   1      39.806  28.749  30.339  1.00  0.00     0.064 A 
ATOM     82  C   UNL A   1      39.277  27.453  30.277  1.00  0.00     0.173 A 
ATOM     83  C   UNL A   1      40.311  29.303  29.153  1.00  0.00     0.173 A 
ATOM     84  F   UNL A   1      38.803  26.870  31.389  1.00  0.00    -0.203 F 
ATOM     85  C   UNL A   1      39.276  26.730  29.086  1.00  0.00     0.198 A 
ATOM     86  C   UNL A   1      40.282  28.591  27.955  1.00  0.00     0.198 A 
ATOM     87  F   UNL A   1      40.831  30.539  29.155  1.00  0.00    -0.203 F 
ATOM     88  F   UNL A   1      38.813  25.473  29.068  1.00  0.00    -0.200 F 
ATOM     89  C   UNL A   1      39.774  27.302  27.924  1.00  0.00     0.200 A 
ATOM     90  F   UNL A   1      40.754  29.152  26.833  1.00  0.00    -0.200 F 
ATOM     91  F   UNL A   1      39.774  26.606  26.779  1.00  0.00    -0.200 F 
ENDBRANCH  57  81
BRANCH  69  92
ATOM     92  C   UNL A   1      44.426  29.023  35.563  1.00  0.00     0.064 A 
ATOM     93  C   UNL A   1      45.671  29.532  35.166  1.00  0.00     0.173 A 
ATOM     94  C   UNL A   1      44.406  27.821  36.289  1.00  0.00     0.173 A 
ATOM     95  F   UNL A   1      45.742  30.671  34.461  1.00  0.00    -0.203 F 
ATOM     96  C   UNL A   1      46.848  28.852  35.468  1.00  0.00     0.198 A 
ATOM     97  C   UNL A   1      45.587  27.163  36.617  1.00  0.00     0.198 A 
ATOM     98  F   UNL A   1      43.242  27.299  36.701  1.00  0.00    -0.203 F 
ATOM     99  F   UNL A   1      48.024  29.333  35.042  1.00  0.00    -0.200 F 
ATOM    100  C   UNL A   1      46.806  27.674  36.201  1.00  0.00     0.200 A 
ATOM    101  F   UNL A   1      45.545  26.037  37.342  1.00  0.00    -0.200 F 
ATOM    102  F   UNL A   1      47.942  27.032  36.504  1.00  0.00    -0.200 F 
ENDBRANCH  69  92
ENDBRANCH  43  44
ENDBRANCH  36  38
ENDBRANCH  35  36
ENDBRANCH  34  35
ENDBRANCH  33  34
ENDBRANCH  32  33
ENDBRANCH  31  32
ENDBRANCH  30  31
ENDBRANCH   1  30
TORSDOF 24
ENDMDL
MODEL 3
REMARK VINA RESULT:     -10.0      5.441     10.803
REMARK SMILES CC[NH2+][C@]1(C(=O)OCCOCCOCCOCCOC(=O)c2ccc(-c3c4nc(c(-c5c(F)c(F)c(F)c(F)c5F)c5ccc([nH]5)c(-c5c(F)c(F)c(F)c(F)c5F)c5nc(c(-c6c(F)c(F)c(F)c(F)c6F)c6ccc3[nH]6)C=C5)C=C4)cc2)CCC[C@H]([N@@H+]2CCC[C@@H]2C(C)C)C1
REMARK SMILES IDX 13 1 12 2 11 3 10 4 9 5 8 6 7 7 5 8 6 9 4 10 85 11 97 12
REMARK SMILES IDX 86 13 88 14 87 15 3 16 2 19 1 20 89 21 90 22 93 23 91 25
REMARK SMILES IDX 92 26 94 27 95 28 96 29 14 30 15 31 16 32 17 33 18 34 19 35
REMARK SMILES IDX 20 36 21 37 22 38 23 39 84 40 24 41 83 42 25 43 26 44 27 45
REMARK SMILES IDX 77 46 28 47 82 48 76 49 78 50 29 51 81 52 75 53 74 54 30 56
REMARK SMILES IDX 62 57 42 58 61 59 43 60 46 61 60 62 79 63 44 64 45 65 59 67
REMARK SMILES IDX 80 68 47 69 31 70 32 71 40 72 33 73 34 74 38 75 41 76 35 77
REMARK SMILES IDX 36 78 39 79 37 80 63 81 64 82 72 83 65 84 66 85 70 86 73 87
REMARK SMILES IDX 67 88 68 89 71 90 69 91 48 92 49 93 57 94 50 95 51 96 55 97
REMARK SMILES IDX 58 98 52 99 53 100 56 101 54 102
REMARK H PARENT 3 17 3 18 89 24 78 55 46 66
REMARK Flexibility Score: inf
ROOT
ATOM      1  O   UNL A   1      42.107  21.391  26.544  1.00  0.00    -0.377 OA
ENDROOT
BRANCH   1   2
ATOM      2  C   UNL A   1      40.784  21.885  26.474  1.00  0.00     0.188 C 
BRANCH   2   3
ATOM      3  C   UNL A   1      39.790  20.775  26.142  1.00  0.00     0.188 C 
BRANCH   3   4
ATOM      4  O   UNL A   1      38.579  21.116  25.464  1.00  0.00    -0.376 OA
BRANCH   4   5
ATOM      5  C   UNL A   1      37.789  20.066  24.918  1.00  0.00     0.202 C 
BRANCH   5   6
ATOM      6  C   UNL A   1      36.269  20.286  24.920  1.00  0.00     0.261 C 
BRANCH   6   7
ATOM      7  O   UNL A   1      35.922  21.676  24.930  1.00  0.00    -0.459 OA
BRANCH   7   8
ATOM      8  C   UNL A   1      35.018  22.136  25.850  1.00  0.00     0.368 C 
ATOM      9  O   UNL A   1      34.979  21.793  27.024  1.00  0.00    -0.245 OA
BRANCH   8  10
ATOM     10  C   UNL A   1      34.103  23.220  25.185  1.00  0.00     0.200 C 
ATOM     11  C   UNL A   1      33.659  24.176  26.371  1.00  0.00     0.081 C 
ATOM     12  C   UNL A   1      34.750  24.110  24.133  1.00  0.00     0.146 C 
ATOM     13  C   UNL A   1      33.380  25.680  26.192  1.00  0.00     0.013 C 
ATOM     14  C   UNL A   1      33.831  25.330  23.764  1.00  0.00     0.191 C 
ATOM     15  C   UNL A   1      33.895  26.301  24.926  1.00  0.00     0.065 C 
BRANCH  10  16
ATOM     16  N   UNL A   1      33.017  22.519  24.449  1.00  0.00    -0.332 N 
ATOM     17  H   UNL A   1      32.332  23.223  24.174  1.00  0.00     0.347 HD
ATOM     18  H   UNL A   1      33.489  22.043  23.681  1.00  0.00     0.347 HD
BRANCH  16  19
ATOM     19  C   UNL A   1      32.292  21.453  25.161  1.00  0.00     0.257 C 
ATOM     20  C   UNL A   1      30.966  21.988  25.708  1.00  0.00     0.071 C 
ENDBRANCH  16  19
ENDBRANCH  10  16
BRANCH  14  21
ATOM     21  N   UNL A   1      32.499  25.035  23.121  1.00  0.00    -0.330 N 
ATOM     22  C   UNL A   1      32.767  24.738  21.675  1.00  0.00     0.262 C 
ATOM     23  C   UNL A   1      31.231  25.884  23.018  1.00  0.00     0.187 C 
ATOM     24  H   UNL A   1      32.221  24.373  23.845  1.00  0.00     0.348 HD
ATOM     25  C   UNL A   1      32.488  26.024  20.927  1.00  0.00     0.067 C 
ATOM     26  C   UNL A   1      31.351  26.652  21.689  1.00  0.00     0.071 C 
BRANCH  23  27
ATOM     27  C   UNL A   1      30.354  26.715  24.067  1.00  0.00     0.041 C 
ATOM     28  C   UNL A   1      30.822  28.178  24.259  1.00  0.00     0.014 C 
ATOM     29  C   UNL A   1      28.864  26.877  23.736  1.00  0.00     0.014 C 
ENDBRANCH  23  27
ENDBRANCH  14  21
ENDBRANCH   8  10
ENDBRANCH   7   8
ENDBRANCH   6   7
ENDBRANCH   5   6
ENDBRANCH   4   5
ENDBRANCH   3   4
ENDBRANCH   2   3
ENDBRANCH   1   2
BRANCH   1  30
ATOM     30  C   UNL A   1      42.202  20.004  26.305  1.00  0.00     0.188 C 
BRANCH  30  31
ATOM     31  C   UNL A   1      43.338  19.719  25.322  1.00  0.00     0.188 C 
BRANCH  31  32
ATOM     32  O   UNL A   1      44.533  20.479  25.413  1.00  0.00    -0.376 OA
BRANCH  32  33
ATOM     33  C   UNL A   1      44.922  21.422  24.427  1.00  0.00     0.202 C 
BRANCH  33  34
ATOM     34  C   UNL A   1      44.359  22.846  24.366  1.00  0.00     0.261 C 
BRANCH  34  35
ATOM     35  O   UNL A   1      44.448  23.567  25.599  1.00  0.00    -0.460 OA
BRANCH  35  36
ATOM     36  C   UNL A   1      44.762  24.882  25.461  1.00  0.00     0.338 C 
ATOM     37  O   UNL A   1      45.494  25.391  24.649  1.00  0.00    -0.246 OA
BRANCH  36  38
ATOM     38  C   UNL A   1      43.893  25.663  26.359  1.00  0.00     0.060 A 
ATOM     39  C   UNL A   1      44.246  26.994  26.615  1.00  0.00     0.016 A 
ATOM     40  C   UNL A   1      42.791  25.077  26.981  1.00  0.00     0.016 A 
ATOM     41  C   UNL A   1      43.499  27.753  27.508  1.00  0.00     0.010 A 
ATOM     42  C   UNL A   1      42.077  25.818  27.923  1.00  0.00     0.010 A 
ATOM     43  C   UNL A   1      42.458  27.141  28.212  1.00  0.00    -0.014 A 
BRANCH  43  44
ATOM     44  C   UNL A   1      41.986  27.774  29.460  1.00  0.00     0.031 A 
ATOM     45  C   UNL A   1      40.710  28.564  29.382  1.00  0.00     0.074 A 
ATOM     46  C   UNL A   1      42.654  27.638  30.614  1.00  0.00     0.049 A 
ATOM     47  N   UNL A   1      40.128  29.300  30.290  1.00  0.00    -0.248 NA
ATOM     48  C   UNL A   1      39.991  28.515  28.096  1.00  0.00     0.031 C 
ATOM     49  C   UNL A   1      43.856  26.833  30.809  1.00  0.00     0.029 A 
ATOM     50  N   UNL A   1      42.414  28.195  31.844  1.00  0.00    -0.354 N 
ATOM     51  C   UNL A   1      38.987  29.807  29.683  1.00  0.00     0.074 A 
ATOM     52  C   UNL A   1      38.965  29.316  28.326  1.00  0.00     0.031 C 
ATOM     53  C   UNL A   1      44.268  26.969  32.082  1.00  0.00     0.029 A 
ATOM     54  C   UNL A   1      43.378  27.901  32.774  1.00  0.00     0.049 A 
ATOM     55  H   UNL A   1      41.625  28.751  32.040  1.00  0.00     0.167 HD
ATOM     56  C   UNL A   1      38.041  30.613  30.216  1.00  0.00     0.037 A 
ATOM     57  C   UNL A   1      43.531  28.366  34.029  1.00  0.00     0.037 A 
ATOM     58  C   UNL A   1      38.088  31.106  31.563  1.00  0.00     0.049 A 
ATOM     59  C   UNL A   1      42.515  29.343  34.570  1.00  0.00     0.074 A 
ATOM     60  C   UNL A   1      37.198  31.944  32.209  1.00  0.00     0.029 A 
ATOM     61  N   UNL A   1      39.095  30.810  32.472  1.00  0.00    -0.354 N 
ATOM     62  N   UNL A   1      41.438  29.825  33.995  1.00  0.00    -0.248 NA
ATOM     63  C   UNL A   1      42.736  29.840  35.935  1.00  0.00     0.031 C 
ATOM     64  C   UNL A   1      37.695  32.196  33.491  1.00  0.00     0.029 A 
ATOM     65  C   UNL A   1      38.859  31.464  33.666  1.00  0.00     0.049 A 
ATOM     66  H   UNL A   1      39.864  30.221  32.291  1.00  0.00     0.167 HD
ATOM     67  C   UNL A   1      40.833  30.646  34.940  1.00  0.00     0.074 A 
ATOM     68  C   UNL A   1      41.663  30.595  36.126  1.00  0.00     0.031 C 
ATOM     69  C   UNL A   1      39.691  31.371  34.840  1.00  0.00     0.037 A 
BRANCH  56  70
ATOM     70  C   UNL A   1      36.914  31.039  29.323  1.00  0.00     0.064 A 
ATOM     71  C   UNL A   1      36.827  32.344  28.811  1.00  0.00     0.173 A 
ATOM     72  C   UNL A   1      35.907  30.128  28.972  1.00  0.00     0.173 A 
ATOM     73  F   UNL A   1      37.751  33.260  29.138  1.00  0.00    -0.203 F 
ATOM     74  C   UNL A   1      35.760  32.725  28.003  1.00  0.00     0.198 A 
ATOM     75  C   UNL A   1      34.859  30.505  28.137  1.00  0.00     0.198 A 
ATOM     76  F   UNL A   1      35.938  28.871  29.439  1.00  0.00    -0.203 F 
ATOM     77  F   UNL A   1      35.669  33.991  27.571  1.00  0.00    -0.200 F 
ATOM     78  C   UNL A   1      34.782  31.805  27.660  1.00  0.00     0.200 A 
ATOM     79  F   UNL A   1      33.919  29.611  27.800  1.00  0.00    -0.200 F 
ATOM     80  F   UNL A   1      33.758  32.171  26.877  1.00  0.00    -0.200 F 
ENDBRANCH  56  70
BRANCH  57  81
ATOM     81  C   UNL A   1      44.694  27.941  34.850  1.00  0.00     0.064 A 
ATOM     82  C   UNL A   1      44.693  26.714  35.525  1.00  0.00     0.173 A 
ATOM     83  C   UNL A   1      45.821  28.764  34.998  1.00  0.00     0.173 A 
ATOM     84  F   UNL A   1      43.629  25.901  35.435  1.00  0.00    -0.203 F 
ATOM     85  C   UNL A   1      45.761  26.335  36.337  1.00  0.00     0.198 A 
ATOM     86  C   UNL A   1      46.902  28.372  35.786  1.00  0.00     0.198 A 
ATOM     87  F   UNL A   1      45.875  29.951  34.376  1.00  0.00    -0.203 F 
ATOM     88  F   UNL A   1      45.709  25.180  37.014  1.00  0.00    -0.200 F 
ATOM     89  C   UNL A   1      46.867  27.162  36.462  1.00  0.00     0.200 A 
ATOM     90  F   UNL A   1      47.974  29.169  35.894  1.00  0.00    -0.200 F 
ATOM     91  F   UNL A   1      47.893  26.799  37.243  1.00  0.00    -0.200 F 
ENDBRANCH  57  81
BRANCH  69  92
ATOM     92  C   UNL A   1      39.231  32.112  36.062  1.00  0.00     0.064 A 
ATOM     93  C   UNL A   1      39.644  33.424  36.333  1.00  0.00     0.173 A 
ATOM     94  C   UNL A   1      38.303  31.519  36.933  1.00  0.00     0.173 A 
ATOM     95  F   UNL A   1      40.536  34.031  35.537  1.00  0.00    -0.203 F 
ATOM     96  C   UNL A   1      39.161  34.107  37.446  1.00  0.00     0.198 A 
ATOM     97  C   UNL A   1      37.798  32.217  38.025  1.00  0.00     0.198 A 
ATOM     98  F   UNL A   1      37.869  30.269  36.710  1.00  0.00    -0.203 F 
ATOM     99  F   UNL A   1      39.601  35.345  37.713  1.00  0.00    -0.200 F 
ATOM    100  C   UNL A   1      38.232  33.507  38.285  1.00  0.00     0.200 A 
ATOM    101  F   UNL A   1      36.886  31.643  38.821  1.00  0.00    -0.200 F 
ATOM    102  F   UNL A   1      37.757  34.174  39.346  1.00  0.00    -0.200 F 
ENDBRANCH  69  92
ENDBRANCH  43  44
ENDBRANCH  36  38
ENDBRANCH  35  36
ENDBRANCH  34  35
ENDBRANCH  33  34
ENDBRANCH  32  33
ENDBRANCH  31  32
ENDBRANCH  30  31
ENDBRANCH   1  30
TORSDOF 24
ENDMDL
