MODEL 1
REMARK VINA RESULT:      -8.5      0.000      0.000
REMARK SMILES O=C(OCCOCCOCCOCCOC(=O)[C@H]1CC=CC[C@@H]1C(=O)N[C@@H]1CCCN(c2ccccc2F)C1=O)c1ccc(-c2c3nc(c(-c4c(F)c(F)c(F)c(F)c4F)c4ccc([nH]4)c(-c4c(F)c(F)c(F)c(F)c4F)c4nc(c(-c5c(F)c(F)c(F)c(F)c5F)c5ccc2[nH]5)C=C4)C=C3)cc1
REMARK SMILES IDX 10 1 9 2 8 3 7 4 6 5 5 6 4 7 3 8 2 9 1 10 41 11 42 12 103 13
REMARK SMILES IDX 43 14 102 15 44 16 45 17 46 18 96 19 47 20 101 21 95 22
REMARK SMILES IDX 97 23 48 24 100 25 94 26 93 27 49 29 81 30 61 31 80 32 62 33
REMARK SMILES IDX 65 34 79 35 98 36 63 37 64 38 78 40 99 41 66 42 50 43 51 44
REMARK SMILES IDX 59 45 52 46 53 47 57 48 60 49 54 50 55 51 58 52 56 53 82 54
REMARK SMILES IDX 83 55 91 56 84 57 85 58 89 59 92 60 86 61 87 62 90 63 88 64
REMARK SMILES IDX 67 65 68 66 76 67 69 68 70 69 74 70 77 71 71 72 72 73 75 74
REMARK SMILES IDX 73 75 11 76 12 77 13 78 14 79 15 80 16 81 17 82 18 83 19 84
REMARK SMILES IDX 23 85 20 86 22 87 21 88 24 89 25 90 26 91 27 93 28 94 39 95
REMARK SMILES IDX 29 96 31 97 40 98 30 99 32 100 33 101 37 102 34 103 36 104
REMARK SMILES IDX 38 105 35 106
REMARK H PARENT 97 28 65 39 26 92
REMARK Flexibility Score: inf
ROOT
ATOM      1  C   UNL A   1      33.271  37.089  30.529  1.00  0.00     0.188 C 
ENDROOT
BRANCH   1   2
ATOM      2  O   UNL A   1      32.735  36.729  31.804  1.00  0.00    -0.377 OA
BRANCH   2   3
ATOM      3  C   UNL A   1      33.253  35.556  32.438  1.00  0.00     0.188 C 
BRANCH   3   4
ATOM      4  C   UNL A   1      34.717  35.281  32.164  1.00  0.00     0.188 C 
BRANCH   4   5
ATOM      5  O   UNL A   1      35.467  35.570  33.325  1.00  0.00    -0.376 OA
BRANCH   5   6
ATOM      6  C   UNL A   1      36.482  34.652  33.673  1.00  0.00     0.202 C 
BRANCH   6   7
ATOM      7  C   UNL A   1      35.831  33.442  34.340  1.00  0.00     0.261 C 
BRANCH   7   8
ATOM      8  O   UNL A   1      36.790  32.396  34.598  1.00  0.00    -0.460 OA
BRANCH   8   9
ATOM      9  C   UNL A   1      38.089  32.544  34.959  1.00  0.00     0.338 C 
ATOM     10  O   UNL A   1      38.337  32.974  36.090  1.00  0.00    -0.246 OA
BRANCH   9  11
ATOM     11  C   UNL A   1      39.257  32.115  34.114  1.00  0.00     0.060 A 
ATOM     12  C   UNL A   1      39.191  31.486  32.865  1.00  0.00     0.016 A 
ATOM     13  C   UNL A   1      40.536  32.435  34.610  1.00  0.00     0.016 A 
ATOM     14  C   UNL A   1      40.333  31.162  32.146  1.00  0.00     0.010 A 
ATOM     15  C   UNL A   1      41.696  32.089  33.909  1.00  0.00     0.010 A 
ATOM     16  C   UNL A   1      41.588  31.420  32.687  1.00  0.00    -0.014 A 
BRANCH  16  17
ATOM     17  C   UNL A   1      42.729  30.723  32.072  1.00  0.00     0.031 A 
ATOM     18  C   UNL A   1      43.500  31.478  31.028  1.00  0.00     0.074 A 
ATOM     19  C   UNL A   1      43.167  29.557  32.578  1.00  0.00     0.049 A 
ATOM     20  N   UNL A   1      44.545  31.113  30.341  1.00  0.00    -0.248 NA
ATOM     21  C   UNL A   1      43.043  32.852  30.741  1.00  0.00     0.031 C 
ATOM     22  C   UNL A   1      42.563  28.849  33.708  1.00  0.00     0.029 A 
ATOM     23  N   UNL A   1      44.246  28.787  32.236  1.00  0.00    -0.354 N 
ATOM     24  C   UNL A   1      44.857  32.199  29.533  1.00  0.00     0.074 A 
ATOM     25  C   UNL A   1      43.894  33.237  29.804  1.00  0.00     0.031 C 
ATOM     26  C   UNL A   1      43.295  27.754  33.976  1.00  0.00     0.029 A 
ATOM     27  C   UNL A   1      44.377  27.654  33.002  1.00  0.00     0.049 A 
ATOM     28  H   UNL A   1      44.868  29.023  31.511  1.00  0.00     0.167 HD
ATOM     29  C   UNL A   1      45.868  32.307  28.645  1.00  0.00     0.037 A 
ATOM     30  C   UNL A   1      45.264  26.646  32.893  1.00  0.00     0.037 A 
ATOM     31  C   UNL A   1      46.815  31.256  28.407  1.00  0.00     0.049 A 
ATOM     32  C   UNL A   1      46.303  26.740  31.802  1.00  0.00     0.074 A 
ATOM     33  C   UNL A   1      47.834  31.205  27.478  1.00  0.00     0.029 A 
ATOM     34  N   UNL A   1      46.854  30.067  29.123  1.00  0.00    -0.354 N 
ATOM     35  N   UNL A   1      46.543  27.729  30.972  1.00  0.00    -0.248 NA
ATOM     36  C   UNL A   1      47.181  25.579  31.620  1.00  0.00     0.031 C 
ATOM     37  C   UNL A   1      48.462  29.962  27.600  1.00  0.00     0.029 A 
ATOM     38  C   UNL A   1      47.873  29.265  28.646  1.00  0.00     0.049 A 
ATOM     39  H   UNL A   1      46.247  29.830  29.860  1.00  0.00     0.167 HD
ATOM     40  C   UNL A   1      47.609  27.319  30.184  1.00  0.00     0.074 A 
ATOM     41  C   UNL A   1      47.984  26.000  30.653  1.00  0.00     0.031 C 
ATOM     42  C   UNL A   1      48.221  27.964  29.160  1.00  0.00     0.037 A 
BRANCH  29  43
ATOM     43  C   UNL A   1      45.962  33.568  27.840  1.00  0.00     0.064 A 
ATOM     44  C   UNL A   1      45.328  33.654  26.592  1.00  0.00     0.173 A 
ATOM     45  C   UNL A   1      46.696  34.678  28.281  1.00  0.00     0.173 A 
ATOM     46  F   UNL A   1      44.600  32.625  26.131  1.00  0.00    -0.203 F 
ATOM     47  C   UNL A   1      45.446  34.795  25.804  1.00  0.00     0.198 A 
ATOM     48  C   UNL A   1      46.792  35.828  27.502  1.00  0.00     0.198 A 
ATOM     49  F   UNL A   1      47.292  34.660  29.484  1.00  0.00    -0.203 F 
ATOM     50  F   UNL A   1      44.853  34.843  24.603  1.00  0.00    -0.200 F 
ATOM     51  C   UNL A   1      46.177  35.882  26.259  1.00  0.00     0.200 A 
ATOM     52  F   UNL A   1      47.472  36.890  27.957  1.00  0.00    -0.200 F 
ATOM     53  F   UNL A   1      46.282  36.984  25.505  1.00  0.00    -0.200 F 
ENDBRANCH  29  43
BRANCH  30  54
ATOM     54  C   UNL A   1      45.185  25.463  33.795  1.00  0.00     0.064 A 
ATOM     55  C   UNL A   1      45.783  25.475  35.066  1.00  0.00     0.173 A 
ATOM     56  C   UNL A   1      44.493  24.304  33.421  1.00  0.00     0.173 A 
ATOM     57  F   UNL A   1      46.449  26.561  35.486  1.00  0.00    -0.203 F 
ATOM     58  C   UNL A   1      45.704  24.374  35.916  1.00  0.00     0.198 A 
ATOM     59  C   UNL A   1      44.386  23.213  34.286  1.00  0.00     0.198 A 
ATOM     60  F   UNL A   1      43.881  24.244  32.229  1.00  0.00    -0.203 F 
ATOM     61  F   UNL A   1      46.307  24.407  37.112  1.00  0.00    -0.200 F 
ATOM     62  C   UNL A   1      44.997  23.247  35.530  1.00  0.00     0.200 A 
ATOM     63  F   UNL A   1      43.672  22.139  33.920  1.00  0.00    -0.200 F 
ATOM     64  F   UNL A   1      44.896  22.199  36.358  1.00  0.00    -0.200 F 
ENDBRANCH  30  54
BRANCH  42  65
ATOM     65  C   UNL A   1      49.375  27.271  28.501  1.00  0.00     0.064 A 
ATOM     66  C   UNL A   1      50.634  27.256  29.118  1.00  0.00     0.173 A 
ATOM     67  C   UNL A   1      49.256  26.709  27.222  1.00  0.00     0.173 A 
ATOM     68  F   UNL A   1      50.798  27.795  30.335  1.00  0.00    -0.203 F 
ATOM     69  C   UNL A   1      51.740  26.719  28.468  1.00  0.00     0.198 A 
ATOM     70  C   UNL A   1      50.357  26.142  26.590  1.00  0.00     0.198 A 
ATOM     71  F   UNL A   1      48.069  26.694  26.599  1.00  0.00    -0.203 F 
ATOM     72  F   UNL A   1      52.944  26.757  29.056  1.00  0.00    -0.200 F 
ATOM     73  C   UNL A   1      51.600  26.157  27.208  1.00  0.00     0.200 A 
ATOM     74  F   UNL A   1      50.216  25.576  25.384  1.00  0.00    -0.200 F 
ATOM     75  F   UNL A   1      52.664  25.632  26.587  1.00  0.00    -0.200 F 
ENDBRANCH  42  65
ENDBRANCH  16  17
ENDBRANCH   9  11
ENDBRANCH   8   9
ENDBRANCH   7   8
ENDBRANCH   6   7
ENDBRANCH   5   6
ENDBRANCH   4   5
ENDBRANCH   3   4
ENDBRANCH   2   3
ENDBRANCH   1   2
BRANCH   1  76
ATOM     76  C   UNL A   1      33.029  36.006  29.463  1.00  0.00     0.188 C 
BRANCH  76  77
ATOM     77  O   UNL A   1      34.066  35.815  28.508  1.00  0.00    -0.376 OA
BRANCH  77  78
ATOM     78  C   UNL A   1      34.503  34.481  28.267  1.00  0.00     0.202 C 
BRANCH  78  79
ATOM     79  C   UNL A   1      34.029  33.362  29.224  1.00  0.00     0.261 C 
BRANCH  79  80
ATOM     80  O   UNL A   1      34.613  32.045  28.994  1.00  0.00    -0.463 OA
BRANCH  80  81
ATOM     81  C   UNL A   1      35.473  31.618  29.942  1.00  0.00     0.310 C 
ATOM     82  O   UNL A   1      35.392  32.024  31.107  1.00  0.00    -0.252 OA
BRANCH  81  83
ATOM     83  C   UNL A   1      36.550  30.547  29.596  1.00  0.00     0.115 C 
ATOM     84  C   UNL A   1      36.078  29.850  28.285  1.00  0.00     0.043 C 
ATOM     85  C   UNL A   1      37.963  30.102  29.960  1.00  0.00     0.097 C 
ATOM     86  C   UNL A   1      37.136  29.416  27.319  1.00  0.00    -0.030 C 
ATOM     87  C   UNL A   1      38.944  30.250  28.788  1.00  0.00     0.041 C 
ATOM     88  C   UNL A   1      38.439  29.607  27.535  1.00  0.00    -0.030 C 
BRANCH  85  89
ATOM     89  C   UNL A   1      38.151  28.613  30.548  1.00  0.00     0.224 C 
ATOM     90  O   UNL A   1      37.541  28.382  31.611  1.00  0.00    -0.275 OA
ATOM     91  N   UNL A   1      38.860  27.528  30.095  1.00  0.00    -0.344 N 
ATOM     92  H   UNL A   1      38.712  26.760  30.692  1.00  0.00     0.164 HD
BRANCH  91  93
ATOM     93  C   UNL A   1      39.786  27.136  28.979  1.00  0.00     0.172 C 
ATOM     94  C   UNL A   1      39.306  25.889  28.296  1.00  0.00     0.037 C 
ATOM     95  C   UNL A   1      41.322  26.832  29.305  1.00  0.00     0.249 C 
ATOM     96  C   UNL A   1      40.011  25.671  27.000  1.00  0.00     0.025 C 
ATOM     97  N   UNL A   1      42.000  25.961  28.390  1.00  0.00    -0.308 N 
ATOM     98  O   UNL A   1      41.893  27.450  30.207  1.00  0.00    -0.272 OA
ATOM     99  C   UNL A   1      41.299  25.094  27.419  1.00  0.00     0.126 C 
BRANCH  97 100
ATOM    100  C   UNL A   1      43.319  25.455  28.609  1.00  0.00     0.080 A 
ATOM    101  C   UNL A   1      44.393  26.147  28.009  1.00  0.00     0.029 A 
ATOM    102  C   UNL A   1      43.535  24.152  29.061  1.00  0.00     0.146 A 
ATOM    103  C   UNL A   1      45.618  25.525  27.787  1.00  0.00     0.002 A 
ATOM    104  C   UNL A   1      44.774  23.539  28.867  1.00  0.00     0.041 A 
ATOM    105  F   UNL A   1      42.522  23.400  29.511  1.00  0.00    -0.205 F 
ATOM    106  C   UNL A   1      45.806  24.215  28.212  1.00  0.00     0.003 A 
ENDBRANCH  97 100
ENDBRANCH  91  93
ENDBRANCH  85  89
ENDBRANCH  81  83
ENDBRANCH  80  81
ENDBRANCH  79  80
ENDBRANCH  78  79
ENDBRANCH  77  78
ENDBRANCH  76  77
ENDBRANCH   1  76
TORSDOF 23
ENDMDL
MODEL 2
REMARK VINA RESULT:      -8.5      4.361      6.474
REMARK SMILES O=C(OCCOCCOCCOCCOC(=O)[C@H]1CC=CC[C@@H]1C(=O)N[C@@H]1CCCN(c2ccccc2F)C1=O)c1ccc(-c2c3nc(c(-c4c(F)c(F)c(F)c(F)c4F)c4ccc([nH]4)c(-c4c(F)c(F)c(F)c(F)c4F)c4nc(c(-c5c(F)c(F)c(F)c(F)c5F)c5ccc2[nH]5)C=C4)C=C3)cc1
REMARK SMILES IDX 10 1 9 2 8 3 7 4 6 5 5 6 4 7 3 8 2 9 1 10 41 11 42 12 103 13
REMARK SMILES IDX 43 14 102 15 44 16 45 17 46 18 96 19 47 20 101 21 95 22
REMARK SMILES IDX 97 23 48 24 100 25 94 26 93 27 49 29 81 30 61 31 80 32 62 33
REMARK SMILES IDX 65 34 79 35 98 36 63 37 64 38 78 40 99 41 66 42 50 43 51 44
REMARK SMILES IDX 59 45 52 46 53 47 57 48 60 49 54 50 55 51 58 52 56 53 82 54
REMARK SMILES IDX 83 55 91 56 84 57 85 58 89 59 92 60 86 61 87 62 90 63 88 64
REMARK SMILES IDX 67 65 68 66 76 67 69 68 70 69 74 70 77 71 71 72 72 73 75 74
REMARK SMILES IDX 73 75 11 76 12 77 13 78 14 79 15 80 16 81 17 82 18 83 19 84
REMARK SMILES IDX 23 85 20 86 22 87 21 88 24 89 25 90 26 91 27 93 28 94 39 95
REMARK SMILES IDX 29 96 31 97 40 98 30 99 32 100 33 101 37 102 34 103 36 104
REMARK SMILES IDX 38 105 35 106
REMARK H PARENT 97 28 65 39 26 92
REMARK Flexibility Score: inf
ROOT
ATOM      1  C   UNL A   1      36.598  30.762  28.420  1.00  0.00     0.188 C 
ENDROOT
BRANCH   1   2
ATOM      2  O   UNL A   1      37.383  31.032  29.583  1.00  0.00    -0.377 OA
BRANCH   2   3
ATOM      3  C   UNL A   1      38.513  31.898  29.439  1.00  0.00     0.188 C 
BRANCH   3   4
ATOM      4  C   UNL A   1      38.212  33.371  29.624  1.00  0.00     0.188 C 
BRANCH   4   5
ATOM      5  O   UNL A   1      37.963  33.623  30.990  1.00  0.00    -0.376 OA
BRANCH   5   6
ATOM      6  C   UNL A   1      36.626  33.896  31.355  1.00  0.00     0.202 C 
BRANCH   6   7
ATOM      7  C   UNL A   1      36.624  34.541  32.739  1.00  0.00     0.261 C 
BRANCH   7   8
ATOM      8  O   UNL A   1      36.221  33.607  33.761  1.00  0.00    -0.460 OA
BRANCH   8   9
ATOM      9  C   UNL A   1      37.025  32.936  34.624  1.00  0.00     0.338 C 
ATOM     10  O   UNL A   1      36.684  32.867  35.809  1.00  0.00    -0.246 OA
BRANCH   9  11
ATOM     11  C   UNL A   1      38.254  32.172  34.216  1.00  0.00     0.060 A 
ATOM     12  C   UNL A   1      39.557  32.390  34.680  1.00  0.00     0.016 A 
ATOM     13  C   UNL A   1      38.055  31.098  33.327  1.00  0.00     0.016 A 
ATOM     14  C   UNL A   1      40.623  31.602  34.267  1.00  0.00     0.010 A 
ATOM     15  C   UNL A   1      39.124  30.314  32.881  1.00  0.00     0.010 A 
ATOM     16  C   UNL A   1      40.417  30.594  33.332  1.00  0.00    -0.014 A 
BRANCH  16  17
ATOM     17  C   UNL A   1      41.613  30.062  32.659  1.00  0.00     0.031 A 
ATOM     18  C   UNL A   1      42.223  30.918  31.588  1.00  0.00     0.074 A 
ATOM     19  C   UNL A   1      42.230  28.965  33.133  1.00  0.00     0.049 A 
ATOM     20  N   UNL A   1      43.276  30.701  30.849  1.00  0.00    -0.248 NA
ATOM     21  C   UNL A   1      41.570  32.217  31.334  1.00  0.00     0.031 C 
ATOM     22  C   UNL A   1      41.782  28.178  34.283  1.00  0.00     0.029 A 
ATOM     23  N   UNL A   1      43.387  28.351  32.735  1.00  0.00    -0.354 N 
ATOM     24  C   UNL A   1      43.398  31.821  30.038  1.00  0.00     0.074 A 
ATOM     25  C   UNL A   1      42.316  32.718  30.362  1.00  0.00     0.031 C 
ATOM     26  C   UNL A   1      42.668  27.192  34.507  1.00  0.00     0.029 A 
ATOM     27  C   UNL A   1      43.706  27.244  33.483  1.00  0.00     0.049 A 
ATOM     28  H   UNL A   1      43.935  28.671  31.984  1.00  0.00     0.167 HD
ATOM     29  C   UNL A   1      44.342  32.070  29.105  1.00  0.00     0.037 A 
ATOM     30  C   UNL A   1      44.717  26.368  33.324  1.00  0.00     0.037 A 
ATOM     31  C   UNL A   1      45.411  31.159  28.814  1.00  0.00     0.049 A 
ATOM     32  C   UNL A   1      45.681  26.606  32.187  1.00  0.00     0.074 A 
ATOM     33  C   UNL A   1      46.383  31.250  27.838  1.00  0.00     0.029 A 
ATOM     34  N   UNL A   1      45.646  29.985  29.517  1.00  0.00    -0.354 N 
ATOM     35  N   UNL A   1      45.744  27.620  31.356  1.00  0.00    -0.248 NA
ATOM     36  C   UNL A   1      46.700  25.576  31.954  1.00  0.00     0.031 C 
ATOM     37  C   UNL A   1      47.180  30.105  27.920  1.00  0.00     0.029 A 
ATOM     38  C   UNL A   1      46.741  29.331  28.985  1.00  0.00     0.049 A 
ATOM     39  H   UNL A   1      45.112  29.665  30.279  1.00  0.00     0.167 HD
ATOM     40  C   UNL A   1      46.818  27.363  30.516  1.00  0.00     0.074 A 
ATOM     41  C   UNL A   1      47.391  26.106  30.955  1.00  0.00     0.031 C 
ATOM     42  C   UNL A   1      47.287  28.089  29.471  1.00  0.00     0.037 A 
BRANCH  29  43
ATOM     43  C   UNL A   1      44.224  33.334  28.309  1.00  0.00     0.064 A 
ATOM     44  C   UNL A   1      44.542  34.567  28.896  1.00  0.00     0.173 A 
ATOM     45  C   UNL A   1      43.772  33.335  26.981  1.00  0.00     0.173 A 
ATOM     46  F   UNL A   1      44.993  34.618  30.158  1.00  0.00    -0.203 F 
ATOM     47  C   UNL A   1      44.389  35.758  28.192  1.00  0.00     0.198 A 
ATOM     48  C   UNL A   1      43.643  34.527  26.271  1.00  0.00     0.198 A 
ATOM     49  F   UNL A   1      43.488  32.179  26.362  1.00  0.00    -0.203 F 
ATOM     50  F   UNL A   1      44.673  36.926  28.784  1.00  0.00    -0.200 F 
ATOM     51  C   UNL A   1      43.941  35.738  26.880  1.00  0.00     0.200 A 
ATOM     52  F   UNL A   1      43.241  34.503  24.992  1.00  0.00    -0.200 F 
ATOM     53  F   UNL A   1      43.803  36.883  26.200  1.00  0.00    -0.200 F 
ENDBRANCH  29  43
BRANCH  30  54
ATOM     54  C   UNL A   1      44.843  25.183  34.217  1.00  0.00     0.064 A 
ATOM     55  C   UNL A   1      44.365  23.921  33.826  1.00  0.00     0.173 A 
ATOM     56  C   UNL A   1      45.465  25.274  35.470  1.00  0.00     0.173 A 
ATOM     57  F   UNL A   1      43.772  23.767  32.633  1.00  0.00    -0.203 F 
ATOM     58  C   UNL A   1      44.489  22.807  34.655  1.00  0.00     0.198 A 
ATOM     59  C   UNL A   1      45.618  24.152  36.286  1.00  0.00     0.198 A 
ATOM     60  F   UNL A   1      45.963  26.447  35.887  1.00  0.00    -0.203 F 
ATOM     61  F   UNL A   1      43.999  21.624  34.262  1.00  0.00    -0.200 F 
ATOM     62  C   UNL A   1      45.124  22.921  35.881  1.00  0.00     0.200 A 
ATOM     63  F   UNL A   1      46.263  24.260  37.456  1.00  0.00    -0.200 F 
ATOM     64  F   UNL A   1      45.270  21.845  36.666  1.00  0.00    -0.200 F 
ENDBRANCH  30  54
BRANCH  42  65
ATOM     65  C   UNL A   1      48.493  27.562  28.753  1.00  0.00     0.064 A 
ATOM     66  C   UNL A   1      49.780  27.923  29.177  1.00  0.00     0.173 A 
ATOM     67  C   UNL A   1      48.371  26.782  27.594  1.00  0.00     0.173 A 
ATOM     68  F   UNL A   1      49.945  28.680  30.271  1.00  0.00    -0.203 F 
ATOM     69  C   UNL A   1      50.903  27.538  28.453  1.00  0.00     0.198 A 
ATOM     70  C   UNL A   1      49.499  26.369  26.893  1.00  0.00     0.198 A 
ATOM     71  F   UNL A   1      47.159  26.406  27.158  1.00  0.00    -0.203 F 
ATOM     72  F   UNL A   1      52.122  27.933  28.850  1.00  0.00    -0.200 F 
ATOM     73  C   UNL A   1      50.762  26.757  27.316  1.00  0.00     0.200 A 
ATOM     74  F   UNL A   1      49.364  25.594  25.809  1.00  0.00    -0.200 F 
ATOM     75  F   UNL A   1      51.846  26.378  26.625  1.00  0.00    -0.200 F 
ENDBRANCH  42  65
ENDBRANCH  16  17
ENDBRANCH   9  11
ENDBRANCH   8   9
ENDBRANCH   7   8
ENDBRANCH   6   7
ENDBRANCH   5   6
ENDBRANCH   4   5
ENDBRANCH   3   4
ENDBRANCH   2   3
ENDBRANCH   1   2
BRANCH   1  76
ATOM     76  C   UNL A   1      35.264  31.530  28.422  1.00  0.00     0.188 C 
BRANCH  76  77
ATOM     77  O   UNL A   1      34.345  31.204  27.386  1.00  0.00    -0.376 OA
BRANCH  77  78
ATOM     78  C   UNL A   1      33.673  29.951  27.473  1.00  0.00     0.202 C 
BRANCH  78  79
ATOM     79  C   UNL A   1      34.290  28.728  26.754  1.00  0.00     0.261 C 
BRANCH  79  80
ATOM     80  O   UNL A   1      33.521  27.491  26.840  1.00  0.00    -0.463 OA
BRANCH  80  81
ATOM     81  C   UNL A   1      33.582  26.692  25.754  1.00  0.00     0.310 C 
ATOM     82  O   UNL A   1      34.052  27.102  24.686  1.00  0.00    -0.252 OA
BRANCH  81  83
ATOM     83  C   UNL A   1      33.118  25.209  25.847  1.00  0.00     0.115 C 
ATOM     84  C   UNL A   1      34.279  24.343  25.275  1.00  0.00     0.043 C 
ATOM     85  C   UNL A   1      32.047  24.322  26.475  1.00  0.00     0.097 C 
ATOM     86  C   UNL A   1      34.510  23.003  25.902  1.00  0.00    -0.030 C 
ATOM     87  C   UNL A   1      32.634  23.322  27.483  1.00  0.00     0.041 C 
ATOM     88  C   UNL A   1      33.774  22.539  26.915  1.00  0.00    -0.030 C 
BRANCH  85  89
ATOM     89  C   UNL A   1      31.090  23.486  25.484  1.00  0.00     0.224 C 
ATOM     90  O   UNL A   1      30.782  22.345  25.882  1.00  0.00    -0.275 OA
ATOM     91  N   UNL A   1      30.533  23.794  24.267  1.00  0.00    -0.344 N 
ATOM     92  H   UNL A   1      29.961  23.052  23.964  1.00  0.00     0.164 HD
BRANCH  91  93
ATOM     93  C   UNL A   1      30.513  24.899  23.251  1.00  0.00     0.172 C 
ATOM     94  C   UNL A   1      31.858  25.054  22.602  1.00  0.00     0.037 C 
ATOM     95  C   UNL A   1      30.134  26.383  23.713  1.00  0.00     0.249 C 
ATOM     96  C   UNL A   1      31.778  25.903  21.379  1.00  0.00     0.025 C 
ATOM     97  N   UNL A   1      30.651  27.447  22.902  1.00  0.00    -0.308 N 
ATOM     98  O   UNL A   1      29.318  26.554  24.621  1.00  0.00    -0.272 OA
ATOM     99  C   UNL A   1      31.749  27.269  21.928  1.00  0.00     0.126 C 
BRANCH  97 100
ATOM    100  C   UNL A   1      30.548  28.829  23.251  1.00  0.00     0.080 A 
ATOM    101  C   UNL A   1      31.345  29.296  24.318  1.00  0.00     0.029 A 
ATOM    102  C   UNL A   1      29.464  29.606  22.840  1.00  0.00     0.146 A 
ATOM    103  C   UNL A   1      31.017  30.458  25.010  1.00  0.00     0.002 A 
ATOM    104  C   UNL A   1      29.153  30.789  23.514  1.00  0.00     0.041 A 
ATOM    105  F   UNL A   1      28.593  29.152  21.929  1.00  0.00    -0.205 F 
ATOM    106  C   UNL A   1      29.914  31.202  24.610  1.00  0.00     0.003 A 
ENDBRANCH  97 100
ENDBRANCH  91  93
ENDBRANCH  85  89
ENDBRANCH  81  83
ENDBRANCH  80  81
ENDBRANCH  79  80
ENDBRANCH  78  79
ENDBRANCH  77  78
ENDBRANCH  76  77
ENDBRANCH   1  76
TORSDOF 23
ENDMDL
MODEL 3
REMARK VINA RESULT:      -8.5      1.410      2.611
REMARK SMILES O=C(OCCOCCOCCOCCOC(=O)[C@H]1CC=CC[C@@H]1C(=O)N[C@@H]1CCCN(c2ccccc2F)C1=O)c1ccc(-c2c3nc(c(-c4c(F)c(F)c(F)c(F)c4F)c4ccc([nH]4)c(-c4c(F)c(F)c(F)c(F)c4F)c4nc(c(-c5c(F)c(F)c(F)c(F)c5F)c5ccc2[nH]5)C=C4)C=C3)cc1
REMARK SMILES IDX 10 1 9 2 8 3 7 4 6 5 5 6 4 7 3 8 2 9 1 10 41 11 42 12 103 13
REMARK SMILES IDX 43 14 102 15 44 16 45 17 46 18 96 19 47 20 101 21 95 22
REMARK SMILES IDX 97 23 48 24 100 25 94 26 93 27 49 29 81 30 61 31 80 32 62 33
REMARK SMILES IDX 65 34 79 35 98 36 63 37 64 38 78 40 99 41 66 42 50 43 51 44
REMARK SMILES IDX 59 45 52 46 53 47 57 48 60 49 54 50 55 51 58 52 56 53 82 54
REMARK SMILES IDX 83 55 91 56 84 57 85 58 89 59 92 60 86 61 87 62 90 63 88 64
REMARK SMILES IDX 67 65 68 66 76 67 69 68 70 69 74 70 77 71 71 72 72 73 75 74
REMARK SMILES IDX 73 75 11 76 12 77 13 78 14 79 15 80 16 81 17 82 18 83 19 84
REMARK SMILES IDX 23 85 20 86 22 87 21 88 24 89 25 90 26 91 27 93 28 94 39 95
REMARK SMILES IDX 29 96 31 97 40 98 30 99 32 100 33 101 37 102 34 103 36 104
REMARK SMILES IDX 38 105 35 106
REMARK H PARENT 97 28 65 39 26 92
REMARK Flexibility Score: inf
ROOT
ATOM      1  C   UNL A   1      34.390  34.325  27.970  1.00  0.00     0.188 C 
ENDROOT
BRANCH   1   2
ATOM      2  O   UNL A   1      34.323  35.176  29.116  1.00  0.00    -0.377 OA
BRANCH   2   3
ATOM      3  C   UNL A   1      33.749  34.640  30.313  1.00  0.00     0.188 C 
BRANCH   3   4
ATOM      4  C   UNL A   1      34.713  34.503  31.472  1.00  0.00     0.188 C 
BRANCH   4   5
ATOM      5  O   UNL A   1      34.922  33.133  31.740  1.00  0.00    -0.376 OA
BRANCH   5   6
ATOM      6  C   UNL A   1      36.126  32.788  32.394  1.00  0.00     0.202 C 
BRANCH   6   7
ATOM      7  C   UNL A   1      35.984  33.123  33.877  1.00  0.00     0.261 C 
BRANCH   7   8
ATOM      8  O   UNL A   1      37.251  33.056  34.562  1.00  0.00    -0.460 OA
BRANCH   8   9
ATOM      9  C   UNL A   1      37.989  31.946  34.817  1.00  0.00     0.338 C 
ATOM     10  O   UNL A   1      37.606  31.180  35.708  1.00  0.00    -0.246 OA
BRANCH   9  11
ATOM     11  C   UNL A   1      39.188  31.523  34.014  1.00  0.00     0.060 A 
ATOM     12  C   UNL A   1      39.188  30.639  32.928  1.00  0.00     0.016 A 
ATOM     13  C   UNL A   1      40.414  32.124  34.359  1.00  0.00     0.016 A 
ATOM     14  C   UNL A   1      40.348  30.340  32.227  1.00  0.00     0.010 A 
ATOM     15  C   UNL A   1      41.595  31.809  33.680  1.00  0.00     0.010 A 
ATOM     16  C   UNL A   1      41.561  30.887  32.630  1.00  0.00    -0.014 A 
BRANCH  16  17
ATOM     17  C   UNL A   1      42.780  30.250  32.108  1.00  0.00     0.031 A 
ATOM     18  C   UNL A   1      43.564  31.023  31.088  1.00  0.00     0.074 A 
ATOM     19  C   UNL A   1      43.260  29.131  32.678  1.00  0.00     0.049 A 
ATOM     20  N   UNL A   1      44.671  30.707  30.477  1.00  0.00    -0.248 NA
ATOM     21  C   UNL A   1      43.039  32.354  30.728  1.00  0.00     0.031 C 
ATOM     22  C   UNL A   1      42.635  28.418  33.793  1.00  0.00     0.029 A 
ATOM     23  N   UNL A   1      44.406  28.424  32.427  1.00  0.00    -0.354 N 
ATOM     24  C   UNL A   1      44.962  31.787  29.653  1.00  0.00     0.074 A 
ATOM     25  C   UNL A   1      43.919  32.767  29.831  1.00  0.00     0.031 C 
ATOM     26  C   UNL A   1      43.417  27.382  34.141  1.00  0.00     0.029 A 
ATOM     27  C   UNL A   1      44.561  27.325  33.237  1.00  0.00     0.049 A 
ATOM     28  H   UNL A   1      45.055  28.679  31.733  1.00  0.00     0.167 HD
ATOM     29  C   UNL A   1      46.017  31.936  28.823  1.00  0.00     0.037 A 
ATOM     30  C   UNL A   1      45.517  26.375  33.215  1.00  0.00     0.037 A 
ATOM     31  C   UNL A   1      47.043  30.943  28.678  1.00  0.00     0.049 A 
ATOM     32  C   UNL A   1      46.613  26.506  32.186  1.00  0.00     0.074 A 
ATOM     33  C   UNL A   1      48.118  30.932  27.813  1.00  0.00     0.029 A 
ATOM     34  N   UNL A   1      47.114  29.782  29.435  1.00  0.00    -0.354 N 
ATOM     35  N   UNL A   1      46.839  27.483  31.338  1.00  0.00    -0.248 NA
ATOM     36  C   UNL A   1      47.573  25.400  32.095  1.00  0.00     0.031 C 
ATOM     37  C   UNL A   1      48.816  29.738  28.014  1.00  0.00     0.029 A 
ATOM     38  C   UNL A   1      48.209  29.035  29.046  1.00  0.00     0.049 A 
ATOM     39  H   UNL A   1      46.478  29.527  30.142  1.00  0.00     0.167 HD
ATOM     40  C   UNL A   1      47.976  27.122  30.630  1.00  0.00     0.074 A 
ATOM     41  C   UNL A   1      48.406  25.844  31.164  1.00  0.00     0.031 C 
ATOM     42  C   UNL A   1      48.607  27.775  29.623  1.00  0.00     0.037 A 
BRANCH  29  43
ATOM     43  C   UNL A   1      46.079  33.176  27.984  1.00  0.00     0.064 A 
ATOM     44  C   UNL A   1      45.418  33.222  26.747  1.00  0.00     0.173 A 
ATOM     45  C   UNL A   1      46.809  34.305  28.380  1.00  0.00     0.173 A 
ATOM     46  F   UNL A   1      44.694  32.173  26.330  1.00  0.00    -0.203 F 
ATOM     47  C   UNL A   1      45.506  34.343  25.928  1.00  0.00     0.198 A 
ATOM     48  C   UNL A   1      46.875  35.436  27.569  1.00  0.00     0.198 A 
ATOM     49  F   UNL A   1      47.430  34.326  29.570  1.00  0.00    -0.203 F 
ATOM     50  F   UNL A   1      44.889  34.352  24.738  1.00  0.00    -0.200 F 
ATOM     51  C   UNL A   1      46.233  35.449  26.339  1.00  0.00     0.200 A 
ATOM     52  F   UNL A   1      47.551  36.517  27.982  1.00  0.00    -0.200 F 
ATOM     53  F   UNL A   1      46.310  36.532  25.553  1.00  0.00    -0.200 F 
ENDBRANCH  29  43
BRANCH  30  54
ATOM     54  C   UNL A   1      45.459  25.217  34.149  1.00  0.00     0.064 A 
ATOM     55  C   UNL A   1      44.749  24.050  33.820  1.00  0.00     0.173 A 
ATOM     56  C   UNL A   1      46.128  25.236  35.380  1.00  0.00     0.173 A 
ATOM     57  F   UNL A   1      44.098  23.967  32.650  1.00  0.00    -0.203 F 
ATOM     58  C   UNL A   1      44.699  22.960  34.687  1.00  0.00     0.198 A 
ATOM     59  C   UNL A   1      46.105  24.132  36.234  1.00  0.00     0.198 A 
ATOM     60  F   UNL A   1      46.842  26.313  35.738  1.00  0.00    -0.203 F 
ATOM     61  F   UNL A   1      43.992  21.872  34.354  1.00  0.00    -0.200 F 
ATOM     62  C   UNL A   1      45.386  22.998  35.890  1.00  0.00     0.200 A 
ATOM     63  F   UNL A   1      46.799  24.161  37.381  1.00  0.00    -0.200 F 
ATOM     64  F   UNL A   1      45.363  21.939  36.711  1.00  0.00    -0.200 F 
ENDBRANCH  30  54
BRANCH  42  65
ATOM     65  C   UNL A   1      49.842  27.141  29.058  1.00  0.00     0.064 A 
ATOM     66  C   UNL A   1      51.108  27.515  29.532  1.00  0.00     0.173 A 
ATOM     67  C   UNL A   1      49.775  26.239  27.986  1.00  0.00     0.173 A 
ATOM     68  F   UNL A   1      51.221  28.386  30.546  1.00  0.00    -0.203 F 
ATOM     69  C   UNL A   1      52.265  27.022  28.940  1.00  0.00     0.198 A 
ATOM     70  C   UNL A   1      50.935  25.722  27.420  1.00  0.00     0.198 A 
ATOM     71  F   UNL A   1      48.586  25.848  27.506  1.00  0.00    -0.203 F 
ATOM     72  F   UNL A   1      53.465  27.429  29.379  1.00  0.00    -0.200 F 
ATOM     73  C   UNL A   1      52.178  26.122  27.889  1.00  0.00     0.200 A 
ATOM     74  F   UNL A   1      50.851  24.833  26.420  1.00  0.00    -0.200 F 
ATOM     75  F   UNL A   1      53.294  25.641  27.325  1.00  0.00    -0.200 F 
ENDBRANCH  42  65
ENDBRANCH  16  17
ENDBRANCH   9  11
ENDBRANCH   8   9
ENDBRANCH   7   8
ENDBRANCH   6   7
ENDBRANCH   5   6
ENDBRANCH   4   5
ENDBRANCH   3   4
ENDBRANCH   2   3
ENDBRANCH   1   2
BRANCH   1  76
ATOM     76  C   UNL A   1      33.907  32.896  28.272  1.00  0.00     0.188 C 
BRANCH  76  77
ATOM     77  O   UNL A   1      34.914  31.897  28.383  1.00  0.00    -0.376 OA
BRANCH  77  78
ATOM     78  C   UNL A   1      36.257  32.334  28.571  1.00  0.00     0.202 C 
BRANCH  78  79
ATOM     79  C   UNL A   1      37.281  31.342  29.171  1.00  0.00     0.261 C 
BRANCH  79  80
ATOM     80  O   UNL A   1      37.236  29.986  28.634  1.00  0.00    -0.463 OA
BRANCH  80  81
ATOM     81  C   UNL A   1      37.935  29.064  29.327  1.00  0.00     0.310 C 
ATOM     82  O   UNL A   1      37.659  28.805  30.504  1.00  0.00    -0.252 OA
BRANCH  81  83
ATOM     83  C   UNL A   1      39.068  28.255  28.629  1.00  0.00     0.115 C 
ATOM     84  C   UNL A   1      39.297  28.919  27.239  1.00  0.00     0.043 C 
ATOM     85  C   UNL A   1      40.143  27.208  28.905  1.00  0.00     0.097 C 
ATOM     86  C   UNL A   1      40.697  28.941  26.710  1.00  0.00    -0.030 C 
ATOM     87  C   UNL A   1      41.562  27.759  28.704  1.00  0.00     0.041 C 
ATOM     88  C   UNL A   1      41.733  28.427  27.377  1.00  0.00    -0.030 C 
BRANCH  85  89
ATOM     89  C   UNL A   1      40.057  25.815  28.097  1.00  0.00     0.224 C 
ATOM     90  O   UNL A   1      38.907  25.465  27.766  1.00  0.00    -0.275 OA
ATOM     91  N   UNL A   1      41.022  24.928  27.689  1.00  0.00    -0.344 N 
ATOM     92  H   UNL A   1      40.609  24.197  27.176  1.00  0.00     0.164 HD
BRANCH  91  93
ATOM     93  C   UNL A   1      42.507  24.715  27.773  1.00  0.00     0.172 C 
ATOM     94  C   UNL A   1      43.031  25.124  29.119  1.00  0.00     0.037 C 
ATOM     95  C   UNL A   1      43.467  25.468  26.740  1.00  0.00     0.249 C 
ATOM     96  C   UNL A   1      44.418  24.620  29.340  1.00  0.00     0.025 C 
ATOM     97  N   UNL A   1      44.815  25.688  27.178  1.00  0.00    -0.308 N 
ATOM     98  O   UNL A   1      43.080  25.688  25.590  1.00  0.00    -0.272 OA
ATOM     99  C   UNL A   1      45.240  25.584  28.589  1.00  0.00     0.126 C 
BRANCH  97 100
ATOM    100  C   UNL A   1      45.761  26.479  26.456  1.00  0.00     0.080 A 
ATOM    101  C   UNL A   1      45.671  27.882  26.578  1.00  0.00     0.029 A 
ATOM    102  C   UNL A   1      46.495  25.950  25.392  1.00  0.00     0.146 A 
ATOM    103  C   UNL A   1      46.220  28.728  25.620  1.00  0.00     0.002 A 
ATOM    104  C   UNL A   1      47.074  26.799  24.448  1.00  0.00     0.041 A 
ATOM    105  F   UNL A   1      46.502  24.633  25.145  1.00  0.00    -0.205 F 
ATOM    106  C   UNL A   1      46.918  28.184  24.548  1.00  0.00     0.003 A 
ENDBRANCH  97 100
ENDBRANCH  91  93
ENDBRANCH  85  89
ENDBRANCH  81  83
ENDBRANCH  80  81
ENDBRANCH  79  80
ENDBRANCH  78  79
ENDBRANCH  77  78
ENDBRANCH  76  77
ENDBRANCH   1  76
TORSDOF 23
ENDMDL
