MODEL 1
REMARK VINA RESULT:     -11.5      0.000      0.000
REMARK SMILES CC1=C(C(=O)OCCOCCOCCOCCOC(=O)c2ccc(-c3c4nc(c(-c5c(F)c(F)c(F)c(F)c5F)c5ccc([nH]5)c(-c5c(F)c(F)c(F)c(F)c5F)c5nc(c(-c6c(F)c(F)c(F)c(F)c6F)c6ccc3[nH]6)C=C5)C=C4)cc2)[C@H](c2ccc(Cl)cc2)n2ncnc2N1
REMARK SMILES IDX 13 1 12 2 11 3 10 4 9 5 8 6 7 7 6 8 4 9 5 10 3 11 1 12 2 13
REMARK SMILES IDX 97 14 84 15 96 16 92 18 95 19 93 20 94 21 85 22 86 23 91 24
REMARK SMILES IDX 87 25 90 26 88 27 89 28 14 29 15 30 16 31 17 32 18 33 19 34
REMARK SMILES IDX 20 35 21 36 22 37 83 38 23 39 82 40 24 41 25 42 26 43 76 44
REMARK SMILES IDX 27 45 81 46 75 47 77 48 28 49 80 50 74 51 73 52 29 54 61 55
REMARK SMILES IDX 41 56 60 57 42 58 45 59 59 60 78 61 43 62 44 63 58 65 79 66
REMARK SMILES IDX 46 67 30 68 31 69 39 70 32 71 33 72 37 73 40 74 34 75 35 76
REMARK SMILES IDX 38 77 36 78 62 79 63 80 71 81 64 82 65 83 69 84 72 85 66 86
REMARK SMILES IDX 67 87 70 88 68 89 47 90 48 91 56 92 49 93 50 94 54 95 57 96
REMARK SMILES IDX 51 97 52 98 55 99 53 100
REMARK H PARENT 97 17 77 53 45 64
REMARK Flexibility Score: inf
ROOT
ATOM      1  C   UNL A   1      41.384  20.158  26.141  1.00  0.00     0.188 C 
ENDROOT
BRANCH   1   2
ATOM      2  O   UNL A   1      40.775  20.433  27.395  1.00  0.00    -0.377 OA
BRANCH   2   3
ATOM      3  C   UNL A   1      40.839  21.752  27.922  1.00  0.00     0.188 C 
BRANCH   3   4
ATOM      4  C   UNL A   1      40.029  22.911  27.290  1.00  0.00     0.188 C 
BRANCH   4   5
ATOM      5  O   UNL A   1      38.884  22.523  26.540  1.00  0.00    -0.376 OA
BRANCH   5   6
ATOM      6  C   UNL A   1      38.115  23.584  25.989  1.00  0.00     0.202 C 
BRANCH   6   7
ATOM      7  C   UNL A   1      37.054  23.115  24.993  1.00  0.00     0.261 C 
BRANCH   7   8
ATOM      8  O   UNL A   1      35.954  24.034  24.892  1.00  0.00    -0.460 OA
BRANCH   8   9
ATOM      9  C   UNL A   1      35.073  23.829  23.885  1.00  0.00     0.338 C 
ATOM     10  O   UNL A   1      35.352  23.405  22.781  1.00  0.00    -0.246 OA
BRANCH   9  11
ATOM     11  C   UNL A   1      33.701  24.074  24.393  1.00  0.00     0.085 C 
ATOM     12  C   UNL A   1      33.660  26.395  23.369  1.00  0.00     0.065 C 
ATOM     13  C   UNL A   1      33.077  25.258  24.173  1.00  0.00     0.028 C 
ATOM     14  N   UNL A   1      31.838  25.509  24.747  1.00  0.00    -0.328 N 
ATOM     15  C   UNL A   1      33.103  23.016  25.328  1.00  0.00     0.181 C 
ATOM     16  C   UNL A   1      31.218  24.657  25.580  1.00  0.00     0.226 A 
ATOM     17  H   UNL A   1      31.389  26.359  24.532  1.00  0.00     0.169 HD
ATOM     18  N   UNL A   1      31.807  23.457  25.874  1.00  0.00    -0.219 N 
ATOM     19  N   UNL A   1      30.092  24.765  26.236  1.00  0.00    -0.200 NA
ATOM     20  N   UNL A   1      31.106  22.793  26.819  1.00  0.00    -0.157 NA
ATOM     21  C   UNL A   1      30.057  23.609  26.971  1.00  0.00     0.248 A 
BRANCH  15  22
ATOM     22  C   UNL A   1      33.034  21.607  24.747  1.00  0.00    -0.018 A 
ATOM     23  C   UNL A   1      32.315  21.304  23.580  1.00  0.00     0.008 A 
ATOM     24  C   UNL A   1      33.745  20.568  25.382  1.00  0.00     0.008 A 
ATOM     25  C   UNL A   1      32.320  20.007  23.060  1.00  0.00     0.021 A 
ATOM     26  C   UNL A   1      33.777  19.282  24.843  1.00  0.00     0.021 A 
ATOM     27  C   UNL A   1      33.064  19.007  23.682  1.00  0.00     0.041 A 
ATOM     28  Cl  UNL A   1      33.112  17.427  23.005  1.00  0.00    -0.084 Cl
ENDBRANCH  15  22
ENDBRANCH   9  11
ENDBRANCH   8   9
ENDBRANCH   7   8
ENDBRANCH   6   7
ENDBRANCH   5   6
ENDBRANCH   4   5
ENDBRANCH   3   4
ENDBRANCH   2   3
ENDBRANCH   1   2
BRANCH   1  29
ATOM     29  C   UNL A   1      42.881  20.483  25.911  1.00  0.00     0.188 C 
BRANCH  29  30
ATOM     30  O   UNL A   1      43.145  21.663  25.156  1.00  0.00    -0.376 OA
BRANCH  30  31
ATOM     31  C   UNL A   1      43.535  22.837  25.856  1.00  0.00     0.202 C 
BRANCH  31  32
ATOM     32  C   UNL A   1      43.354  24.124  25.052  1.00  0.00     0.261 C 
BRANCH  32  33
ATOM     33  O   UNL A   1      42.424  25.014  25.652  1.00  0.00    -0.460 OA
BRANCH  33  34
ATOM     34  C   UNL A   1      42.715  26.318  25.494  1.00  0.00     0.338 C 
ATOM     35  O   UNL A   1      43.790  26.805  25.192  1.00  0.00    -0.246 OA
BRANCH  34  36
ATOM     36  C   UNL A   1      41.528  27.112  25.833  1.00  0.00     0.060 A 
ATOM     37  C   UNL A   1      41.724  28.490  25.768  1.00  0.00     0.016 A 
ATOM     38  C   UNL A   1      40.539  26.520  26.632  1.00  0.00     0.016 A 
ATOM     39  C   UNL A   1      41.225  29.230  26.804  1.00  0.00     0.010 A 
ATOM     40  C   UNL A   1      40.055  27.256  27.680  1.00  0.00     0.010 A 
ATOM     41  C   UNL A   1      40.529  28.556  27.813  1.00  0.00    -0.014 A 
BRANCH  41  42
ATOM     42  C   UNL A   1      40.439  29.238  29.079  1.00  0.00     0.031 A 
ATOM     43  C   UNL A   1      39.294  30.146  29.202  1.00  0.00     0.074 A 
ATOM     44  C   UNL A   1      41.346  29.041  30.051  1.00  0.00     0.049 A 
ATOM     45  N   UNL A   1      39.317  31.426  29.352  1.00  0.00    -0.248 NA
ATOM     46  C   UNL A   1      37.960  29.565  29.015  1.00  0.00     0.031 C 
ATOM     47  C   UNL A   1      42.359  27.990  30.168  1.00  0.00     0.029 A 
ATOM     48  N   UNL A   1      41.464  29.722  31.220  1.00  0.00    -0.354 N 
ATOM     49  C   UNL A   1      37.987  31.812  29.419  1.00  0.00     0.074 A 
ATOM     50  C   UNL A   1      37.198  30.654  29.080  1.00  0.00     0.031 C 
ATOM     51  C   UNL A   1      42.819  27.970  31.439  1.00  0.00     0.029 A 
ATOM     52  C   UNL A   1      42.216  29.069  32.178  1.00  0.00     0.049 A 
ATOM     53  H   UNL A   1      41.052  30.602  31.370  1.00  0.00     0.167 HD
ATOM     54  C   UNL A   1      37.622  33.012  29.936  1.00  0.00     0.037 A 
ATOM     55  C   UNL A   1      42.217  29.362  33.500  1.00  0.00     0.037 A 
ATOM     56  C   UNL A   1      38.716  33.945  29.964  1.00  0.00     0.049 A 
ATOM     57  C   UNL A   1      41.712  30.756  33.651  1.00  0.00     0.074 A 
ATOM     58  C   UNL A   1      39.523  34.504  28.991  1.00  0.00     0.029 A 
ATOM     59  N   UNL A   1      39.357  34.180  31.156  1.00  0.00    -0.354 N 
ATOM     60  N   UNL A   1      42.367  31.820  33.274  1.00  0.00    -0.248 NA
ATOM     61  C   UNL A   1      40.278  30.946  33.834  1.00  0.00     0.031 C 
ATOM     62  C   UNL A   1      40.811  34.621  29.591  1.00  0.00     0.029 A 
ATOM     63  C   UNL A   1      40.705  34.142  30.897  1.00  0.00     0.049 A 
ATOM     64  H   UNL A   1      38.932  34.343  32.028  1.00  0.00     0.167 HD
ATOM     65  C   UNL A   1      41.396  32.682  32.780  1.00  0.00     0.074 A 
ATOM     66  C   UNL A   1      40.127  32.134  33.243  1.00  0.00     0.031 C 
ATOM     67  C   UNL A   1      41.684  33.595  31.807  1.00  0.00     0.037 A 
BRANCH  54  68
ATOM     68  C   UNL A   1      36.337  33.225  30.675  1.00  0.00     0.064 A 
ATOM     69  C   UNL A   1      35.336  34.033  30.111  1.00  0.00     0.173 A 
ATOM     70  C   UNL A   1      36.160  32.877  32.034  1.00  0.00     0.173 A 
ATOM     71  F   UNL A   1      35.431  34.449  28.840  1.00  0.00    -0.203 F 
ATOM     72  C   UNL A   1      34.257  34.495  30.867  1.00  0.00     0.198 A 
ATOM     73  C   UNL A   1      35.051  33.289  32.767  1.00  0.00     0.198 A 
ATOM     74  F   UNL A   1      37.099  32.221  32.727  1.00  0.00    -0.203 F 
ATOM     75  F   UNL A   1      33.386  35.355  30.322  1.00  0.00    -0.200 F 
ATOM     76  C   UNL A   1      34.115  34.122  32.193  1.00  0.00     0.200 A 
ATOM     77  F   UNL A   1      34.943  32.931  34.054  1.00  0.00    -0.200 F 
ATOM     78  F   UNL A   1      33.107  34.602  32.931  1.00  0.00    -0.200 F 
ENDBRANCH  54  68
BRANCH  55  79
ATOM     79  C   UNL A   1      42.306  28.404  34.628  1.00  0.00     0.064 A 
ATOM     80  C   UNL A   1      41.511  27.247  34.653  1.00  0.00     0.173 A 
ATOM     81  C   UNL A   1      43.340  28.468  35.586  1.00  0.00     0.173 A 
ATOM     82  F   UNL A   1      40.541  27.076  33.745  1.00  0.00    -0.203 F 
ATOM     83  C   UNL A   1      41.745  26.215  35.570  1.00  0.00     0.198 A 
ATOM     84  C   UNL A   1      43.559  27.448  36.512  1.00  0.00     0.198 A 
ATOM     85  F   UNL A   1      44.224  29.474  35.591  1.00  0.00    -0.203 F 
ATOM     86  F   UNL A   1      41.005  25.098  35.519  1.00  0.00    -0.200 F 
ATOM     87  C   UNL A   1      42.770  26.315  36.495  1.00  0.00     0.200 A 
ATOM     88  F   UNL A   1      44.578  27.546  37.378  1.00  0.00    -0.200 F 
ATOM     89  F   UNL A   1      43.025  25.308  37.341  1.00  0.00    -0.200 F 
ENDBRANCH  55  79
BRANCH  67  90
ATOM     90  C   UNL A   1      43.129  33.827  31.464  1.00  0.00     0.064 A 
ATOM     91  C   UNL A   1      43.832  33.059  30.520  1.00  0.00     0.173 A 
ATOM     92  C   UNL A   1      43.776  34.953  31.991  1.00  0.00     0.173 A 
ATOM     93  F   UNL A   1      43.240  32.039  29.886  1.00  0.00    -0.203 F 
ATOM     94  C   UNL A   1      45.141  33.374  30.163  1.00  0.00     0.198 A 
ATOM     95  C   UNL A   1      45.072  35.288  31.603  1.00  0.00     0.198 A 
ATOM     96  F   UNL A   1      43.132  35.762  32.847  1.00  0.00    -0.203 F 
ATOM     97  F   UNL A   1      45.793  32.616  29.269  1.00  0.00    -0.200 F 
ATOM     98  C   UNL A   1      45.758  34.491  30.699  1.00  0.00     0.200 A 
ATOM     99  F   UNL A   1      45.646  36.399  32.083  1.00  0.00    -0.200 F 
ATOM    100  F   UNL A   1      47.002  34.818  30.324  1.00  0.00    -0.200 F 
ENDBRANCH  67  90
ENDBRANCH  41  42
ENDBRANCH  34  36
ENDBRANCH  33  34
ENDBRANCH  32  33
ENDBRANCH  31  32
ENDBRANCH  30  31
ENDBRANCH  29  30
ENDBRANCH   1  29
TORSDOF 21
ENDMDL
MODEL 2
REMARK VINA RESULT:     -11.1      1.832      6.493
REMARK SMILES CC1=C(C(=O)OCCOCCOCCOCCOC(=O)c2ccc(-c3c4nc(c(-c5c(F)c(F)c(F)c(F)c5F)c5ccc([nH]5)c(-c5c(F)c(F)c(F)c(F)c5F)c5nc(c(-c6c(F)c(F)c(F)c(F)c6F)c6ccc3[nH]6)C=C5)C=C4)cc2)[C@H](c2ccc(Cl)cc2)n2ncnc2N1
REMARK SMILES IDX 13 1 12 2 11 3 10 4 9 5 8 6 7 7 6 8 4 9 5 10 3 11 1 12 2 13
REMARK SMILES IDX 97 14 84 15 96 16 92 18 95 19 93 20 94 21 85 22 86 23 91 24
REMARK SMILES IDX 87 25 90 26 88 27 89 28 14 29 15 30 16 31 17 32 18 33 19 34
REMARK SMILES IDX 20 35 21 36 22 37 83 38 23 39 82 40 24 41 25 42 26 43 76 44
REMARK SMILES IDX 27 45 81 46 75 47 77 48 28 49 80 50 74 51 73 52 29 54 61 55
REMARK SMILES IDX 41 56 60 57 42 58 45 59 59 60 78 61 43 62 44 63 58 65 79 66
REMARK SMILES IDX 46 67 30 68 31 69 39 70 32 71 33 72 37 73 40 74 34 75 35 76
REMARK SMILES IDX 38 77 36 78 62 79 63 80 71 81 64 82 65 83 69 84 72 85 66 86
REMARK SMILES IDX 67 87 70 88 68 89 47 90 48 91 56 92 49 93 50 94 54 95 57 96
REMARK SMILES IDX 51 97 52 98 55 99 53 100
REMARK H PARENT 97 17 77 53 45 64
REMARK Flexibility Score: inf
ROOT
ATOM      1  C   UNL A   1      41.804  19.364  26.096  1.00  0.00     0.188 C 
ENDROOT
BRANCH   1   2
ATOM      2  O   UNL A   1      40.722  20.225  26.423  1.00  0.00    -0.377 OA
BRANCH   2   3
ATOM      3  C   UNL A   1      39.532  20.167  25.647  1.00  0.00     0.188 C 
BRANCH   3   4
ATOM      4  C   UNL A   1      38.459  21.280  25.736  1.00  0.00     0.188 C 
BRANCH   4   5
ATOM      5  O   UNL A   1      38.891  22.506  26.313  1.00  0.00    -0.376 OA
BRANCH   5   6
ATOM      6  C   UNL A   1      37.999  23.604  26.177  1.00  0.00     0.202 C 
BRANCH   6   7
ATOM      7  C   UNL A   1      37.312  23.667  24.811  1.00  0.00     0.261 C 
BRANCH   7   8
ATOM      8  O   UNL A   1      35.991  24.225  24.888  1.00  0.00    -0.460 OA
BRANCH   8   9
ATOM      9  C   UNL A   1      35.117  23.870  23.917  1.00  0.00     0.338 C 
ATOM     10  O   UNL A   1      35.416  23.389  22.842  1.00  0.00    -0.246 OA
BRANCH   9  11
ATOM     11  C   UNL A   1      33.736  24.034  24.433  1.00  0.00     0.085 C 
ATOM     12  C   UNL A   1      33.568  26.364  23.442  1.00  0.00     0.065 C 
ATOM     13  C   UNL A   1      33.049  25.187  24.233  1.00  0.00     0.028 C 
ATOM     14  N   UNL A   1      31.802  25.364  24.814  1.00  0.00    -0.328 N 
ATOM     15  C   UNL A   1      33.199  22.934  25.355  1.00  0.00     0.181 C 
ATOM     16  C   UNL A   1      31.231  24.468  25.637  1.00  0.00     0.226 A 
ATOM     17  H   UNL A   1      31.308  26.192  24.613  1.00  0.00     0.169 HD
ATOM     18  N   UNL A   1      31.884  23.298  25.912  1.00  0.00    -0.219 N 
ATOM     19  N   UNL A   1      30.103  24.508  26.298  1.00  0.00    -0.200 NA
ATOM     20  N   UNL A   1      31.223  22.584  26.850  1.00  0.00    -0.157 NA
ATOM     21  C   UNL A   1      30.133  23.341  27.017  1.00  0.00     0.248 A 
BRANCH  15  22
ATOM     22  C   UNL A   1      33.202  21.531  24.755  1.00  0.00    -0.018 A 
ATOM     23  C   UNL A   1      33.994  20.490  25.265  1.00  0.00     0.008 A 
ATOM     24  C   UNL A   1      32.351  21.250  23.666  1.00  0.00     0.008 A 
ATOM     25  C   UNL A   1      33.926  19.209  24.712  1.00  0.00     0.021 A 
ATOM     26  C   UNL A   1      32.259  19.963  23.136  1.00  0.00     0.021 A 
ATOM     27  C   UNL A   1      33.047  18.946  23.663  1.00  0.00     0.041 A 
ATOM     28  Cl  UNL A   1      32.927  17.355  23.023  1.00  0.00    -0.084 Cl
ENDBRANCH  15  22
ENDBRANCH   9  11
ENDBRANCH   8   9
ENDBRANCH   7   8
ENDBRANCH   6   7
ENDBRANCH   5   6
ENDBRANCH   4   5
ENDBRANCH   3   4
ENDBRANCH   2   3
ENDBRANCH   1   2
BRANCH   1  29
ATOM     29  C   UNL A   1      43.255  19.905  26.077  1.00  0.00     0.188 C 
BRANCH  29  30
ATOM     30  O   UNL A   1      43.820  20.102  24.783  1.00  0.00    -0.376 OA
BRANCH  30  31
ATOM     31  C   UNL A   1      44.530  21.308  24.535  1.00  0.00     0.202 C 
BRANCH  31  32
ATOM     32  C   UNL A   1      44.184  22.439  25.504  1.00  0.00     0.261 C 
BRANCH  32  33
ATOM     33  O   UNL A   1      42.982  23.108  25.152  1.00  0.00    -0.460 OA
BRANCH  33  34
ATOM     34  C   UNL A   1      43.005  24.439  25.346  1.00  0.00     0.338 C 
ATOM     35  O   UNL A   1      43.830  25.233  24.931  1.00  0.00    -0.246 OA
BRANCH  34  36
ATOM     36  C   UNL A   1      41.898  24.806  26.237  1.00  0.00     0.060 A 
ATOM     37  C   UNL A   1      40.988  25.702  25.678  1.00  0.00     0.016 A 
ATOM     38  C   UNL A   1      42.086  24.674  27.620  1.00  0.00     0.016 A 
ATOM     39  C   UNL A   1      40.587  26.743  26.470  1.00  0.00     0.010 A 
ATOM     40  C   UNL A   1      41.701  25.725  28.408  1.00  0.00     0.010 A 
ATOM     41  C   UNL A   1      41.084  26.799  27.776  1.00  0.00    -0.014 A 
BRANCH  41  42
ATOM     42  C   UNL A   1      41.049  28.093  28.408  1.00  0.00     0.031 A 
ATOM     43  C   UNL A   1      42.174  28.969  28.066  1.00  0.00     0.074 A 
ATOM     44  C   UNL A   1      40.055  28.443  29.242  1.00  0.00     0.049 A 
ATOM     45  N   UNL A   1      43.084  29.428  28.856  1.00  0.00    -0.248 NA
ATOM     46  C   UNL A   1      42.375  29.272  26.644  1.00  0.00     0.031 C 
ATOM     47  C   UNL A   1      38.760  27.792  29.458  1.00  0.00     0.029 A 
ATOM     48  N   UNL A   1      39.978  29.558  30.012  1.00  0.00    -0.354 N 
ATOM     49  C   UNL A   1      43.910  30.202  28.055  1.00  0.00     0.074 A 
ATOM     50  C   UNL A   1      43.506  29.970  26.691  1.00  0.00     0.031 C 
ATOM     51  C   UNL A   1      37.949  28.650  30.118  1.00  0.00     0.029 A 
ATOM     52  C   UNL A   1      38.703  29.847  30.459  1.00  0.00     0.049 A 
ATOM     53  H   UNL A   1      40.761  30.112  30.233  1.00  0.00     0.167 HD
ATOM     54  C   UNL A   1      44.747  31.128  28.587  1.00  0.00     0.037 A 
ATOM     55  C   UNL A   1      38.302  31.042  30.953  1.00  0.00     0.037 A 
ATOM     56  C   UNL A   1      44.996  30.895  29.984  1.00  0.00     0.049 A 
ATOM     57  C   UNL A   1      39.521  31.776  31.396  1.00  0.00     0.074 A 
ATOM     58  C   UNL A   1      45.551  29.849  30.696  1.00  0.00     0.029 A 
ATOM     59  N   UNL A   1      44.342  31.670  30.912  1.00  0.00    -0.354 N 
ATOM     60  N   UNL A   1      40.248  31.438  32.427  1.00  0.00    -0.248 NA
ATOM     61  C   UNL A   1      40.184  32.645  30.430  1.00  0.00     0.031 C 
ATOM     62  C   UNL A   1      44.815  29.792  31.916  1.00  0.00     0.029 A 
ATOM     63  C   UNL A   1      43.870  30.817  31.879  1.00  0.00     0.049 A 
ATOM     64  H   UNL A   1      44.234  32.647  30.887  1.00  0.00     0.167 HD
ATOM     65  C   UNL A   1      41.557  31.700  32.042  1.00  0.00     0.074 A 
ATOM     66  C   UNL A   1      41.446  32.532  30.850  1.00  0.00     0.031 C 
ATOM     67  C   UNL A   1      42.604  30.988  32.553  1.00  0.00     0.037 A 
BRANCH  54  68
ATOM     68  C   UNL A   1      45.100  32.404  27.887  1.00  0.00     0.064 A 
ATOM     69  C   UNL A   1      46.376  32.554  27.317  1.00  0.00     0.173 A 
ATOM     70  C   UNL A   1      44.324  33.581  27.985  1.00  0.00     0.173 A 
ATOM     71  F   UNL A   1      47.204  31.505  27.214  1.00  0.00    -0.203 F 
ATOM     72  C   UNL A   1      46.855  33.802  26.915  1.00  0.00     0.198 A 
ATOM     73  C   UNL A   1      44.781  34.812  27.527  1.00  0.00     0.198 A 
ATOM     74  F   UNL A   1      43.146  33.603  28.622  1.00  0.00    -0.203 F 
ATOM     75  F   UNL A   1      48.117  33.919  26.482  1.00  0.00    -0.200 F 
ATOM     76  C   UNL A   1      46.057  34.929  27.019  1.00  0.00     0.200 A 
ATOM     77  F   UNL A   1      43.999  35.894  27.654  1.00  0.00    -0.200 F 
ATOM     78  F   UNL A   1      46.533  36.133  26.677  1.00  0.00    -0.200 F 
ENDBRANCH  54  68
BRANCH  55  79
ATOM     79  C   UNL A   1      36.988  31.699  30.749  1.00  0.00     0.064 A 
ATOM     80  C   UNL A   1      36.060  31.791  31.798  1.00  0.00     0.173 A 
ATOM     81  C   UNL A   1      36.704  32.467  29.599  1.00  0.00     0.173 A 
ATOM     82  F   UNL A   1      36.277  31.139  32.949  1.00  0.00    -0.203 F 
ATOM     83  C   UNL A   1      34.927  32.608  31.707  1.00  0.00     0.198 A 
ATOM     84  C   UNL A   1      35.565  33.266  29.502  1.00  0.00     0.198 A 
ATOM     85  F   UNL A   1      37.569  32.539  28.579  1.00  0.00    -0.203 F 
ATOM     86  F   UNL A   1      34.099  32.719  32.755  1.00  0.00    -0.200 F 
ATOM     87  C   UNL A   1      34.683  33.346  30.561  1.00  0.00     0.200 A 
ATOM     88  F   UNL A   1      35.362  34.001  28.400  1.00  0.00    -0.200 F 
ATOM     89  F   UNL A   1      33.625  34.166  30.492  1.00  0.00    -0.200 F 
ENDBRANCH  55  79
BRANCH  67  90
ATOM     90  C   UNL A   1      42.339  30.093  33.730  1.00  0.00     0.064 A 
ATOM     91  C   UNL A   1      41.844  28.783  33.608  1.00  0.00     0.173 A 
ATOM     92  C   UNL A   1      42.741  30.515  35.004  1.00  0.00     0.173 A 
ATOM     93  F   UNL A   1      41.550  28.268  32.408  1.00  0.00    -0.203 F 
ATOM     94  C   UNL A   1      41.708  27.955  34.721  1.00  0.00     0.198 A 
ATOM     95  C   UNL A   1      42.640  29.671  36.109  1.00  0.00     0.198 A 
ATOM     96  F   UNL A   1      43.283  31.731  35.172  1.00  0.00    -0.203 F 
ATOM     97  F   UNL A   1      41.220  26.714  34.578  1.00  0.00    -0.200 F 
ATOM     98  C   UNL A   1      42.112  28.397  35.969  1.00  0.00     0.200 A 
ATOM     99  F   UNL A   1      43.081  30.083  37.306  1.00  0.00    -0.200 F 
ATOM    100  F   UNL A   1      42.020  27.587  37.032  1.00  0.00    -0.200 F 
ENDBRANCH  67  90
ENDBRANCH  41  42
ENDBRANCH  34  36
ENDBRANCH  33  34
ENDBRANCH  32  33
ENDBRANCH  31  32
ENDBRANCH  30  31
ENDBRANCH  29  30
ENDBRANCH   1  29
TORSDOF 21
ENDMDL
MODEL 3
REMARK VINA RESULT:     -11.1      4.039      8.698
REMARK SMILES CC1=C(C(=O)OCCOCCOCCOCCOC(=O)c2ccc(-c3c4nc(c(-c5c(F)c(F)c(F)c(F)c5F)c5ccc([nH]5)c(-c5c(F)c(F)c(F)c(F)c5F)c5nc(c(-c6c(F)c(F)c(F)c(F)c6F)c6ccc3[nH]6)C=C5)C=C4)cc2)[C@H](c2ccc(Cl)cc2)n2ncnc2N1
REMARK SMILES IDX 13 1 12 2 11 3 10 4 9 5 8 6 7 7 6 8 4 9 5 10 3 11 1 12 2 13
REMARK SMILES IDX 97 14 84 15 96 16 92 18 95 19 93 20 94 21 85 22 86 23 91 24
REMARK SMILES IDX 87 25 90 26 88 27 89 28 14 29 15 30 16 31 17 32 18 33 19 34
REMARK SMILES IDX 20 35 21 36 22 37 83 38 23 39 82 40 24 41 25 42 26 43 76 44
REMARK SMILES IDX 27 45 81 46 75 47 77 48 28 49 80 50 74 51 73 52 29 54 61 55
REMARK SMILES IDX 41 56 60 57 42 58 45 59 59 60 78 61 43 62 44 63 58 65 79 66
REMARK SMILES IDX 46 67 30 68 31 69 39 70 32 71 33 72 37 73 40 74 34 75 35 76
REMARK SMILES IDX 38 77 36 78 62 79 63 80 71 81 64 82 65 83 69 84 72 85 66 86
REMARK SMILES IDX 67 87 70 88 68 89 47 90 48 91 56 92 49 93 50 94 54 95 57 96
REMARK SMILES IDX 51 97 52 98 55 99 53 100
REMARK H PARENT 97 17 77 53 45 64
REMARK Flexibility Score: inf
ROOT
ATOM      1  C   UNL A   1      33.665  33.638  28.190  1.00  0.00     0.188 C 
ENDROOT
BRANCH   1   2
ATOM      2  O   UNL A   1      34.026  32.390  28.766  1.00  0.00    -0.377 OA
BRANCH   2   3
ATOM      3  C   UNL A   1      34.431  31.326  27.916  1.00  0.00     0.188 C 
BRANCH   3   4
ATOM      4  C   UNL A   1      33.483  30.141  27.603  1.00  0.00     0.188 C 
BRANCH   4   5
ATOM      5  O   UNL A   1      32.593  30.338  26.511  1.00  0.00    -0.376 OA
BRANCH   5   6
ATOM      6  C   UNL A   1      31.699  29.267  26.240  1.00  0.00     0.202 C 
BRANCH   6   7
ATOM      7  C   UNL A   1      31.865  28.078  27.187  1.00  0.00     0.261 C 
BRANCH   7   8
ATOM      8  O   UNL A   1      32.224  26.872  26.494  1.00  0.00    -0.460 OA
BRANCH   8   9
ATOM      9  C   UNL A   1      33.380  26.891  25.787  1.00  0.00     0.338 C 
ATOM     10  O   UNL A   1      34.376  27.520  26.085  1.00  0.00    -0.246 OA
BRANCH   9  11
ATOM     11  C   UNL A   1      33.276  25.916  24.674  1.00  0.00     0.085 C 
ATOM     12  C   UNL A   1      34.026  24.015  26.178  1.00  0.00     0.065 C 
ATOM     13  C   UNL A   1      33.599  24.611  24.859  1.00  0.00     0.028 C 
ATOM     14  N   UNL A   1      33.600  23.736  23.782  1.00  0.00    -0.328 N 
ATOM     15  C   UNL A   1      32.978  26.478  23.280  1.00  0.00     0.181 C 
ATOM     16  C   UNL A   1      33.352  24.114  22.516  1.00  0.00     0.226 A 
ATOM     17  H   UNL A   1      33.794  22.786  23.954  1.00  0.00     0.169 HD
ATOM     18  N   UNL A   1      33.054  25.423  22.253  1.00  0.00    -0.219 N 
ATOM     19  N   UNL A   1      33.367  23.434  21.399  1.00  0.00    -0.200 NA
ATOM     20  N   UNL A   1      32.961  25.640  20.922  1.00  0.00    -0.157 NA
ATOM     21  C   UNL A   1      33.118  24.395  20.455  1.00  0.00     0.248 A 
BRANCH  15  22
ATOM     22  C   UNL A   1      31.692  27.293  23.174  1.00  0.00    -0.018 A 
ATOM     23  C   UNL A   1      31.667  28.604  22.673  1.00  0.00     0.008 A 
ATOM     24  C   UNL A   1      30.472  26.701  23.558  1.00  0.00     0.008 A 
ATOM     25  C   UNL A   1      30.458  29.294  22.550  1.00  0.00     0.021 A 
ATOM     26  C   UNL A   1      29.262  27.378  23.403  1.00  0.00     0.021 A 
ATOM     27  C   UNL A   1      29.260  28.672  22.898  1.00  0.00     0.041 A 
ATOM     28  Cl  UNL A   1      27.770  29.505  22.691  1.00  0.00    -0.084 Cl
ENDBRANCH  15  22
ENDBRANCH   9  11
ENDBRANCH   8   9
ENDBRANCH   7   8
ENDBRANCH   6   7
ENDBRANCH   5   6
ENDBRANCH   4   5
ENDBRANCH   3   4
ENDBRANCH   2   3
ENDBRANCH   1   2
BRANCH   1  29
ATOM     29  C   UNL A   1      34.680  34.806  28.155  1.00  0.00     0.188 C 
BRANCH  29  30
ATOM     30  O   UNL A   1      34.281  35.988  28.846  1.00  0.00    -0.376 OA
BRANCH  30  31
ATOM     31  C   UNL A   1      32.948  36.066  29.332  1.00  0.00     0.202 C 
BRANCH  31  32
ATOM     32  C   UNL A   1      32.845  36.088  30.857  1.00  0.00     0.261 C 
BRANCH  32  33
ATOM     33  O   UNL A   1      33.522  34.996  31.463  1.00  0.00    -0.460 OA
BRANCH  33  34
ATOM     34  C   UNL A   1      34.335  35.336  32.479  1.00  0.00     0.338 C 
ATOM     35  O   UNL A   1      34.689  36.457  32.799  1.00  0.00    -0.246 OA
BRANCH  34  36
ATOM     36  C   UNL A   1      34.822  34.112  33.126  1.00  0.00     0.060 A 
ATOM     37  C   UNL A   1      35.863  34.318  34.029  1.00  0.00     0.016 A 
ATOM     38  C   UNL A   1      34.606  32.888  32.477  1.00  0.00     0.016 A 
ATOM     39  C   UNL A   1      36.918  33.449  33.957  1.00  0.00     0.010 A 
ATOM     40  C   UNL A   1      35.668  32.028  32.391  1.00  0.00     0.010 A 
ATOM     41  C   UNL A   1      36.846  32.411  33.023  1.00  0.00    -0.014 A 
BRANCH  41  42
ATOM     42  C   UNL A   1      38.104  31.826  32.633  1.00  0.00     0.031 A 
ATOM     43  C   UNL A   1      39.053  31.635  33.735  1.00  0.00     0.074 A 
ATOM     44  C   UNL A   1      38.362  31.495  31.358  1.00  0.00     0.049 A 
ATOM     45  N   UNL A   1      40.204  32.195  33.889  1.00  0.00    -0.248 NA
ATOM     46  C   UNL A   1      38.609  30.806  34.861  1.00  0.00     0.031 C 
ATOM     47  C   UNL A   1      37.435  31.380  30.229  1.00  0.00     0.029 A 
ATOM     48  N   UNL A   1      39.545  31.082  30.834  1.00  0.00    -0.354 N 
ATOM     49  C   UNL A   1      40.705  31.684  35.076  1.00  0.00     0.074 A 
ATOM     50  C   UNL A   1      39.638  30.937  35.694  1.00  0.00     0.031 C 
ATOM     51  C   UNL A   1      38.049  30.707  29.230  1.00  0.00     0.029 A 
ATOM     52  C   UNL A   1      39.430  30.450  29.611  1.00  0.00     0.049 A 
ATOM     53  H   UNL A   1      40.407  31.221  31.287  1.00  0.00     0.167 HD
ATOM     54  C   UNL A   1      42.027  31.753  35.376  1.00  0.00     0.037 A 
ATOM     55  C   UNL A   1      40.382  29.674  29.043  1.00  0.00     0.037 A 
ATOM     56  C   UNL A   1      42.707  32.754  34.599  1.00  0.00     0.049 A 
ATOM     57  C   UNL A   1      41.686  30.029  29.672  1.00  0.00     0.074 A 
ATOM     58  C   UNL A   1      42.569  34.123  34.470  1.00  0.00     0.029 A 
ATOM     59  N   UNL A   1      43.473  32.357  33.530  1.00  0.00    -0.354 N 
ATOM     60  N   UNL A   1      42.305  31.163  29.489  1.00  0.00    -0.248 NA
ATOM     61  C   UNL A   1      42.096  29.285  30.857  1.00  0.00     0.031 C 
ATOM     62  C   UNL A   1      42.850  34.402  33.100  1.00  0.00     0.029 A 
ATOM     63  C   UNL A   1      43.158  33.189  32.484  1.00  0.00     0.049 A 
ATOM     64  H   UNL A   1      44.121  31.617  33.516  1.00  0.00     0.167 HD
ATOM     65  C   UNL A   1      42.868  31.466  30.722  1.00  0.00     0.074 A 
ATOM     66  C   UNL A   1      42.792  30.231  31.492  1.00  0.00     0.031 C 
ATOM     67  C   UNL A   1      43.082  32.759  31.108  1.00  0.00     0.037 A 
BRANCH  54  68
ATOM     68  C   UNL A   1      42.738  30.704  36.174  1.00  0.00     0.064 A 
ATOM     69  C   UNL A   1      43.532  31.083  37.270  1.00  0.00     0.173 A 
ATOM     70  C   UNL A   1      42.878  29.365  35.743  1.00  0.00     0.173 A 
ATOM     71  F   UNL A   1      43.500  32.341  37.731  1.00  0.00    -0.203 F 
ATOM     72  C   UNL A   1      44.433  30.196  37.861  1.00  0.00     0.198 A 
ATOM     73  C   UNL A   1      43.732  28.467  36.374  1.00  0.00     0.198 A 
ATOM     74  F   UNL A   1      42.278  28.911  34.634  1.00  0.00    -0.203 F 
ATOM     75  F   UNL A   1      45.252  30.630  38.828  1.00  0.00    -0.200 F 
ATOM     76  C   UNL A   1      44.531  28.889  37.414  1.00  0.00     0.200 A 
ATOM     77  F   UNL A   1      43.825  27.212  35.913  1.00  0.00    -0.200 F 
ATOM     78  F   UNL A   1      45.428  28.053  37.950  1.00  0.00    -0.200 F 
ENDBRANCH  54  68
BRANCH  55  79
ATOM     79  C   UNL A   1      40.173  28.437  28.251  1.00  0.00     0.064 A 
ATOM     80  C   UNL A   1      40.811  28.260  27.013  1.00  0.00     0.173 A 
ATOM     81  C   UNL A   1      39.542  27.298  28.793  1.00  0.00     0.173 A 
ATOM     82  F   UNL A   1      41.483  29.274  26.450  1.00  0.00    -0.203 F 
ATOM     83  C   UNL A   1      40.826  27.020  26.366  1.00  0.00     0.198 A 
ATOM     84  C   UNL A   1      39.541  26.067  28.138  1.00  0.00     0.198 A 
ATOM     85  F   UNL A   1      38.992  27.321  30.014  1.00  0.00    -0.203 F 
ATOM     86  F   UNL A   1      41.501  26.875  25.216  1.00  0.00    -0.200 F 
ATOM     87  C   UNL A   1      40.194  25.924  26.930  1.00  0.00     0.200 A 
ATOM     88  F   UNL A   1      38.954  25.008  28.715  1.00  0.00    -0.200 F 
ATOM     89  F   UNL A   1      40.250  24.725  26.335  1.00  0.00    -0.200 F 
ENDBRANCH  55  79
BRANCH  67  90
ATOM     90  C   UNL A   1      42.938  33.836  30.070  1.00  0.00     0.064 A 
ATOM     91  C   UNL A   1      43.993  34.256  29.241  1.00  0.00     0.173 A 
ATOM     92  C   UNL A   1      41.662  34.348  29.800  1.00  0.00     0.173 A 
ATOM     93  F   UNL A   1      45.215  33.723  29.362  1.00  0.00    -0.203 F 
ATOM     94  C   UNL A   1      43.787  35.186  28.226  1.00  0.00     0.198 A 
ATOM     95  C   UNL A   1      41.452  35.250  28.759  1.00  0.00     0.198 A 
ATOM     96  F   UNL A   1      40.604  33.934  30.514  1.00  0.00    -0.203 F 
ATOM     97  F   UNL A   1      44.814  35.580  27.459  1.00  0.00    -0.200 F 
ATOM     98  C   UNL A   1      42.517  35.678  27.981  1.00  0.00     0.200 A 
ATOM     99  F   UNL A   1      40.212  35.683  28.490  1.00  0.00    -0.200 F 
ATOM    100  F   UNL A   1      42.311  36.542  26.977  1.00  0.00    -0.200 F 
ENDBRANCH  67  90
ENDBRANCH  41  42
ENDBRANCH  34  36
ENDBRANCH  33  34
ENDBRANCH  32  33
ENDBRANCH  31  32
ENDBRANCH  30  31
ENDBRANCH  29  30
ENDBRANCH   1  29
TORSDOF 21
ENDMDL
