MODEL 1
REMARK VINA RESULT:     -10.1      0.000      0.000
REMARK SMILES Cc1ccccc1C(=O)Nc1ccc(OCC(=O)OCCOCCOCCOCCOC(=O)c2ccc(-c3c4nc(c(-c5c(F)c(F)c(F)c(F)c5F)c5ccc([nH]5)c(-c5c(F)c(F)c(F)c(F)c5F)c5nc(c(-c6c(F)c(F)c(F)c(F)c6F)c6ccc3[nH]6)C=C5)C=C4)cc2)c(-c2nc3ccccc3s2)c1
REMARK SMILES IDX 24 1 23 2 22 3 21 4 20 5 19 6 17 7 18 8 16 9 15 10 14 11
REMARK SMILES IDX 11 12 12 13 107 14 13 15 97 16 10 17 8 18 9 19 7 21 1 22
REMARK SMILES IDX 2 23 3 24 4 25 6 26 5 27 98 28 99 29 106 30 100 31 105 32
REMARK SMILES IDX 101 33 104 34 102 35 103 36 25 37 26 38 27 39 28 40 29 41
REMARK SMILES IDX 30 42 31 43 32 44 33 45 34 46 35 47 96 48 36 49 95 50 37 51
REMARK SMILES IDX 38 52 39 53 89 54 40 55 94 56 88 57 90 58 41 59 93 60 87 61
REMARK SMILES IDX 86 62 42 64 74 65 54 66 73 67 55 68 58 69 72 70 91 71 56 72
REMARK SMILES IDX 57 73 71 75 92 76 59 77 43 78 44 79 52 80 45 81 46 82 50 83
REMARK SMILES IDX 53 84 47 85 48 86 51 87 49 88 75 89 76 90 84 91 77 92 78 93
REMARK SMILES IDX 82 94 85 95 79 96 80 97 83 98 81 99 60 100 61 101 69 102
REMARK SMILES IDX 62 103 63 104 67 105 70 106 64 107 65 108 68 109 66 110
REMARK H PARENT 10 20 90 63 58 74
REMARK Flexibility Score: inf
ROOT
ATOM      1  C   UNL A   1      35.828  32.817  30.203  1.00  0.00     0.188 C 
ENDROOT
BRANCH   1   2
ATOM      2  C   UNL A   1      35.853  33.628  28.928  1.00  0.00     0.188 C 
BRANCH   2   3
ATOM      3  O   UNL A   1      35.633  32.957  27.691  1.00  0.00    -0.376 OA
BRANCH   3   4
ATOM      4  C   UNL A   1      35.059  31.662  27.767  1.00  0.00     0.202 C 
BRANCH   4   5
ATOM      5  C   UNL A   1      33.532  31.740  27.664  1.00  0.00     0.261 C 
BRANCH   5   6
ATOM      6  O   UNL A   1      33.043  30.796  26.716  1.00  0.00    -0.461 OA
BRANCH   6   7
ATOM      7  C   UNL A   1      31.769  30.928  26.282  1.00  0.00     0.344 C 
ATOM      8  O   UNL A   1      31.155  31.984  26.215  1.00  0.00    -0.248 OA
BRANCH   7   9
ATOM      9  C   UNL A   1      31.222  29.566  25.836  1.00  0.00     0.352 C 
BRANCH   9  10
ATOM     10  O   UNL A   1      31.966  28.475  26.345  1.00  0.00    -0.481 OA
BRANCH  10  11
ATOM     11  C   UNL A   1      32.173  27.248  25.782  1.00  0.00     0.130 A 
ATOM     12  C   UNL A   1      33.853  25.410  24.392  1.00  0.00     0.042 A 
ATOM     13  C   UNL A   1      34.196  25.834  25.665  1.00  0.00     0.030 A 
ATOM     14  C   UNL A   1      32.530  25.641  24.006  1.00  0.00     0.041 A 
ATOM     15  C   UNL A   1      33.364  26.729  26.349  1.00  0.00     0.049 A 
ATOM     16  C   UNL A   1      31.683  26.652  24.598  1.00  0.00     0.055 A 
BRANCH  12  17
ATOM     17  N   UNL A   1      34.763  24.609  23.668  1.00  0.00    -0.322 N 
ATOM     18  C   UNL A   1      34.972  23.246  23.414  1.00  0.00     0.255 C 
ATOM     19  O   UNL A   1      35.834  23.034  22.543  1.00  0.00    -0.269 OA
ATOM     20  H   UNL A   1      35.440  25.162  23.214  1.00  0.00     0.170 HD
BRANCH  18  21
ATOM     21  C   UNL A   1      34.242  22.002  23.891  1.00  0.00     0.043 A 
ATOM     22  C   UNL A   1      35.949  21.133  25.524  1.00  0.00     0.045 C 
ATOM     23  C   UNL A   1      34.631  21.084  24.867  1.00  0.00    -0.038 A 
ATOM     24  C   UNL A   1      33.773  20.029  25.277  1.00  0.00     0.004 A 
ATOM     25  C   UNL A   1      32.569  19.784  24.637  1.00  0.00     0.000 A 
ATOM     26  C   UNL A   1      33.043  21.675  23.202  1.00  0.00     0.014 A 
ATOM     27  C   UNL A   1      32.221  20.587  23.564  1.00  0.00     0.001 A 
ENDBRANCH  18  21
ENDBRANCH  12  17
BRANCH  16  28
ATOM     28  C   UNL A   1      30.624  27.131  23.649  1.00  0.00     0.128 A 
ATOM     29  N   UNL A   1      30.894  27.920  22.615  1.00  0.00    -0.236 NA
ATOM     30  S   UNL A   1      28.938  26.850  23.741  1.00  0.00    -0.114 S 
ATOM     31  C   UNL A   1      29.826  28.774  22.394  1.00  0.00     0.082 A 
ATOM     32  C   UNL A   1      28.654  28.403  23.043  1.00  0.00     0.055 A 
ATOM     33  C   UNL A   1      29.845  29.985  21.668  1.00  0.00     0.030 A 
ATOM     34  C   UNL A   1      27.523  29.238  23.067  1.00  0.00     0.021 A 
ATOM     35  C   UNL A   1      28.756  30.857  21.743  1.00  0.00     0.002 A 
ATOM     36  C   UNL A   1      27.617  30.492  22.452  1.00  0.00     0.002 A 
ENDBRANCH  16  28
ENDBRANCH  10  11
ENDBRANCH   9  10
ENDBRANCH   7   9
ENDBRANCH   6   7
ENDBRANCH   5   6
ENDBRANCH   4   5
ENDBRANCH   3   4
ENDBRANCH   2   3
ENDBRANCH   1   2
BRANCH   1  37
ATOM     37  O   UNL A   1      37.039  32.177  30.564  1.00  0.00    -0.377 OA
BRANCH  37  38
ATOM     38  C   UNL A   1      36.817  31.082  31.430  1.00  0.00     0.188 C 
BRANCH  38  39
ATOM     39  C   UNL A   1      36.448  31.589  32.814  1.00  0.00     0.188 C 
BRANCH  39  40
ATOM     40  O   UNL A   1      37.565  31.950  33.609  1.00  0.00    -0.376 OA
BRANCH  40  41
ATOM     41  C   UNL A   1      38.031  30.932  34.485  1.00  0.00     0.202 C 
BRANCH  41  42
ATOM     42  C   UNL A   1      39.569  30.921  34.774  1.00  0.00     0.261 C 
BRANCH  42  43
ATOM     43  O   UNL A   1      40.292  30.200  33.718  1.00  0.00    -0.460 OA
BRANCH  43  44
ATOM     44  C   UNL A   1      40.429  28.859  33.498  1.00  0.00     0.338 C 
ATOM     45  O   UNL A   1      39.590  28.055  33.247  1.00  0.00    -0.246 OA
BRANCH  44  46
ATOM     46  C   UNL A   1      41.913  28.591  33.710  1.00  0.00     0.060 A 
ATOM     47  C   UNL A   1      42.847  29.570  33.375  1.00  0.00     0.016 A 
ATOM     48  C   UNL A   1      42.375  27.291  33.936  1.00  0.00     0.016 A 
ATOM     49  C   UNL A   1      44.172  29.207  33.042  1.00  0.00     0.010 A 
ATOM     50  C   UNL A   1      43.660  26.914  33.491  1.00  0.00     0.010 A 
ATOM     51  C   UNL A   1      44.546  27.854  32.933  1.00  0.00    -0.014 A 
BRANCH  51  52
ATOM     52  C   UNL A   1      45.587  27.409  31.933  1.00  0.00     0.031 A 
ATOM     53  C   UNL A   1      47.042  27.101  32.241  1.00  0.00     0.074 A 
ATOM     54  C   UNL A   1      45.119  26.923  30.747  1.00  0.00     0.049 A 
ATOM     55  N   UNL A   1      47.971  26.844  31.359  1.00  0.00    -0.248 NA
ATOM     56  C   UNL A   1      47.578  27.043  33.588  1.00  0.00     0.031 C 
ATOM     57  C   UNL A   1      45.821  25.975  29.894  1.00  0.00     0.029 A 
ATOM     58  N   UNL A   1      43.862  26.977  30.146  1.00  0.00    -0.354 N 
ATOM     59  C   UNL A   1      49.104  26.338  31.985  1.00  0.00     0.074 A 
ATOM     60  C   UNL A   1      48.823  26.593  33.379  1.00  0.00     0.031 C 
ATOM     61  C   UNL A   1      44.997  25.452  28.982  1.00  0.00     0.029 A 
ATOM     62  C   UNL A   1      43.855  26.309  28.910  1.00  0.00     0.049 A 
ATOM     63  H   UNL A   1      43.079  27.426  30.539  1.00  0.00     0.167 HD
ATOM     64  C   UNL A   1      50.101  25.695  31.271  1.00  0.00     0.037 A 
ATOM     65  C   UNL A   1      43.603  26.982  27.748  1.00  0.00     0.037 A 
ATOM     66  C   UNL A   1      49.816  25.637  29.799  1.00  0.00     0.049 A 
ATOM     67  C   UNL A   1      44.880  27.367  26.990  1.00  0.00     0.074 A 
ATOM     68  C   UNL A   1      49.927  24.674  28.802  1.00  0.00     0.029 A 
ATOM     69  N   UNL A   1      49.219  26.726  29.152  1.00  0.00    -0.354 N 
ATOM     70  N   UNL A   1      46.065  26.833  27.213  1.00  0.00    -0.248 NA
ATOM     71  C   UNL A   1      44.963  28.409  25.974  1.00  0.00     0.031 C 
ATOM     72  C   UNL A   1      49.254  25.134  27.626  1.00  0.00     0.029 A 
ATOM     73  C   UNL A   1      48.836  26.433  27.852  1.00  0.00     0.049 A 
ATOM     74  H   UNL A   1      49.086  27.605  29.573  1.00  0.00     0.167 HD
ATOM     75  C   UNL A   1      47.046  27.585  26.629  1.00  0.00     0.074 A 
ATOM     76  C   UNL A   1      46.293  28.473  25.758  1.00  0.00     0.031 C 
ATOM     77  C   UNL A   1      48.375  27.506  26.970  1.00  0.00     0.037 A 
BRANCH  64  78
ATOM     78  C   UNL A   1      51.334  24.930  31.880  1.00  0.00     0.064 A 
ATOM     79  C   UNL A   1      52.663  25.421  31.743  1.00  0.00     0.173 A 
ATOM     80  C   UNL A   1      51.301  23.695  32.570  1.00  0.00     0.173 A 
ATOM     81  F   UNL A   1      52.912  26.639  31.250  1.00  0.00    -0.203 F 
ATOM     82  C   UNL A   1      53.812  24.705  32.143  1.00  0.00     0.198 A 
ATOM     83  C   UNL A   1      52.442  23.000  33.013  1.00  0.00     0.198 A 
ATOM     84  F   UNL A   1      50.169  23.068  32.869  1.00  0.00    -0.203 F 
ATOM     85  F   UNL A   1      55.030  25.212  31.910  1.00  0.00    -0.200 F 
ATOM     86  C   UNL A   1      53.701  23.489  32.775  1.00  0.00     0.200 A 
ATOM     87  F   UNL A   1      52.292  21.836  33.663  1.00  0.00    -0.200 F 
ATOM     88  F   UNL A   1      54.785  22.800  33.155  1.00  0.00    -0.200 F 
ENDBRANCH  64  78
BRANCH  65  89
ATOM     89  C   UNL A   1      42.199  27.497  27.772  1.00  0.00     0.064 A 
ATOM     90  C   UNL A   1      41.239  26.456  27.722  1.00  0.00     0.173 A 
ATOM     91  C   UNL A   1      41.882  28.605  28.574  1.00  0.00     0.173 A 
ATOM     92  F   UNL A   1      41.449  25.400  26.920  1.00  0.00    -0.203 F 
ATOM     93  C   UNL A   1      40.208  26.378  28.660  1.00  0.00     0.198 A 
ATOM     94  C   UNL A   1      40.830  28.532  29.497  1.00  0.00     0.198 A 
ATOM     95  F   UNL A   1      42.724  29.646  28.645  1.00  0.00    -0.203 F 
ATOM     96  F   UNL A   1      39.463  25.266  28.748  1.00  0.00    -0.200 F 
ATOM     97  C   UNL A   1      40.046  27.389  29.589  1.00  0.00     0.200 A 
ATOM     98  F   UNL A   1      40.669  29.510  30.401  1.00  0.00    -0.200 F 
ATOM     99  F   UNL A   1      39.195  27.233  30.614  1.00  0.00    -0.200 F 
ENDBRANCH  65  89
BRANCH  77 100
ATOM    100  C   UNL A   1      49.443  28.493  26.536  1.00  0.00     0.064 A 
ATOM    101  C   UNL A   1      49.642  29.736  27.150  1.00  0.00     0.173 A 
ATOM    102  C   UNL A   1      50.443  28.109  25.603  1.00  0.00     0.173 A 
ATOM    103  F   UNL A   1      48.853  30.156  28.148  1.00  0.00    -0.203 F 
ATOM    104  C   UNL A   1      50.714  30.565  26.808  1.00  0.00     0.198 A 
ATOM    105  C   UNL A   1      51.552  28.904  25.323  1.00  0.00     0.198 A 
ATOM    106  F   UNL A   1      50.393  26.936  24.956  1.00  0.00    -0.203 F 
ATOM    107  F   UNL A   1      50.829  31.767  27.389  1.00  0.00    -0.200 F 
ATOM    108  C   UNL A   1      51.676  30.144  25.910  1.00  0.00     0.200 A 
ATOM    109  F   UNL A   1      52.509  28.448  24.501  1.00  0.00    -0.200 F 
ATOM    110  F   UNL A   1      52.731  30.919  25.631  1.00  0.00    -0.200 F 
ENDBRANCH  77 100
ENDBRANCH  51  52
ENDBRANCH  44  46
ENDBRANCH  43  44
ENDBRANCH  42  43
ENDBRANCH  41  42
ENDBRANCH  40  41
ENDBRANCH  39  40
ENDBRANCH  38  39
ENDBRANCH  37  38
ENDBRANCH   1  37
TORSDOF 25
ENDMDL
MODEL 2
REMARK VINA RESULT:      -9.9      6.801     12.897
REMARK SMILES Cc1ccccc1C(=O)Nc1ccc(OCC(=O)OCCOCCOCCOCCOC(=O)c2ccc(-c3c4nc(c(-c5c(F)c(F)c(F)c(F)c5F)c5ccc([nH]5)c(-c5c(F)c(F)c(F)c(F)c5F)c5nc(c(-c6c(F)c(F)c(F)c(F)c6F)c6ccc3[nH]6)C=C5)C=C4)cc2)c(-c2nc3ccccc3s2)c1
REMARK SMILES IDX 24 1 23 2 22 3 21 4 20 5 19 6 17 7 18 8 16 9 15 10 14 11
REMARK SMILES IDX 11 12 12 13 107 14 13 15 97 16 10 17 8 18 9 19 7 21 1 22
REMARK SMILES IDX 2 23 3 24 4 25 6 26 5 27 98 28 99 29 106 30 100 31 105 32
REMARK SMILES IDX 101 33 104 34 102 35 103 36 25 37 26 38 27 39 28 40 29 41
REMARK SMILES IDX 30 42 31 43 32 44 33 45 34 46 35 47 96 48 36 49 95 50 37 51
REMARK SMILES IDX 38 52 39 53 89 54 40 55 94 56 88 57 90 58 41 59 93 60 87 61
REMARK SMILES IDX 86 62 42 64 74 65 54 66 73 67 55 68 58 69 72 70 91 71 56 72
REMARK SMILES IDX 57 73 71 75 92 76 59 77 43 78 44 79 52 80 45 81 46 82 50 83
REMARK SMILES IDX 53 84 47 85 48 86 51 87 49 88 75 89 76 90 84 91 77 92 78 93
REMARK SMILES IDX 82 94 85 95 79 96 80 97 83 98 81 99 60 100 61 101 69 102
REMARK SMILES IDX 62 103 63 104 67 105 70 106 64 107 65 108 68 109 66 110
REMARK H PARENT 10 20 90 63 58 74
REMARK Flexibility Score: inf
ROOT
ATOM      1  C   UNL A   1      37.428  28.803  30.908  1.00  0.00     0.188 C 
ENDROOT
BRANCH   1   2
ATOM      2  C   UNL A   1      38.924  28.609  30.996  1.00  0.00     0.188 C 
BRANCH   2   3
ATOM      3  O   UNL A   1      39.608  28.072  29.868  1.00  0.00    -0.376 OA
BRANCH   3   4
ATOM      4  C   UNL A   1      39.000  28.280  28.602  1.00  0.00     0.202 C 
BRANCH   4   5
ATOM      5  C   UNL A   1      39.989  28.930  27.628  1.00  0.00     0.261 C 
BRANCH   5   6
ATOM      6  O   UNL A   1      41.013  28.011  27.263  1.00  0.00    -0.461 OA
BRANCH   6   7
ATOM      7  C   UNL A   1      42.121  28.497  26.658  1.00  0.00     0.344 C 
ATOM      8  O   UNL A   1      42.151  28.984  25.536  1.00  0.00    -0.248 OA
BRANCH   7   9
ATOM      9  C   UNL A   1      43.324  28.396  27.604  1.00  0.00     0.352 C 
BRANCH   9  10
ATOM     10  O   UNL A   1      42.975  27.955  28.901  1.00  0.00    -0.481 OA
BRANCH  10  11
ATOM     11  C   UNL A   1      43.779  27.411  29.863  1.00  0.00     0.130 A 
ATOM     12  C   UNL A   1      44.318  25.370  31.780  1.00  0.00     0.042 A 
ATOM     13  C   UNL A   1      44.271  25.058  30.431  1.00  0.00     0.030 A 
ATOM     14  C   UNL A   1      44.440  26.727  32.090  1.00  0.00     0.041 A 
ATOM     15  C   UNL A   1      44.016  26.064  29.492  1.00  0.00     0.049 A 
ATOM     16  C   UNL A   1      44.058  27.795  31.195  1.00  0.00     0.055 A 
BRANCH  12  17
ATOM     17  N   UNL A   1      44.450  24.325  32.721  1.00  0.00    -0.322 N 
ATOM     18  C   UNL A   1      44.034  24.051  34.032  1.00  0.00     0.255 C 
ATOM     19  O   UNL A   1      44.262  22.880  34.385  1.00  0.00    -0.269 OA
ATOM     20  H   UNL A   1      44.983  23.583  32.355  1.00  0.00     0.170 HD
BRANCH  18  21
ATOM     21  C   UNL A   1      43.231  24.865  35.032  1.00  0.00     0.043 A 
ATOM     22  C   UNL A   1      44.953  26.606  35.611  1.00  0.00     0.045 C 
ATOM     23  C   UNL A   1      43.599  26.033  35.700  1.00  0.00    -0.038 A 
ATOM     24  C   UNL A   1      42.681  26.737  36.524  1.00  0.00     0.004 A 
ATOM     25  C   UNL A   1      41.425  26.227  36.808  1.00  0.00     0.000 A 
ATOM     26  C   UNL A   1      41.970  24.329  35.409  1.00  0.00     0.014 A 
ATOM     27  C   UNL A   1      41.083  24.993  36.281  1.00  0.00     0.001 A 
ENDBRANCH  18  21
ENDBRANCH  12  17
BRANCH  16  28
ATOM     28  C   UNL A   1      43.678  29.045  31.934  1.00  0.00     0.128 A 
ATOM     29  N   UNL A   1      44.252  29.402  33.078  1.00  0.00    -0.236 NA
ATOM     30  S   UNL A   1      42.443  30.160  31.530  1.00  0.00    -0.114 S 
ATOM     31  C   UNL A   1      43.323  30.046  33.879  1.00  0.00     0.082 A 
ATOM     32  C   UNL A   1      42.173  30.451  33.210  1.00  0.00     0.055 A 
ATOM     33  C   UNL A   1      43.400  30.244  35.274  1.00  0.00     0.030 A 
ATOM     34  C   UNL A   1      41.059  30.967  33.894  1.00  0.00     0.021 A 
ATOM     35  C   UNL A   1      42.277  30.687  35.977  1.00  0.00     0.002 A 
ATOM     36  C   UNL A   1      41.115  31.026  35.293  1.00  0.00     0.002 A 
ENDBRANCH  16  28
ENDBRANCH  10  11
ENDBRANCH   9  10
ENDBRANCH   7   9
ENDBRANCH   6   7
ENDBRANCH   5   6
ENDBRANCH   4   5
ENDBRANCH   3   4
ENDBRANCH   2   3
ENDBRANCH   1   2
BRANCH   1  37
ATOM     37  O   UNL A   1      36.774  29.196  32.101  1.00  0.00    -0.377 OA
BRANCH  37  38
ATOM     38  C   UNL A   1      37.453  30.252  32.751  1.00  0.00     0.188 C 
BRANCH  38  39
ATOM     39  C   UNL A   1      36.529  31.451  32.882  1.00  0.00     0.188 C 
BRANCH  39  40
ATOM     40  O   UNL A   1      35.441  31.438  31.973  1.00  0.00    -0.376 OA
BRANCH  40  41
ATOM     41  C   UNL A   1      34.803  32.695  31.785  1.00  0.00     0.202 C 
BRANCH  41  42
ATOM     42  C   UNL A   1      35.699  33.845  31.217  1.00  0.00     0.261 C 
BRANCH  42  43
ATOM     43  O   UNL A   1      35.775  33.771  29.753  1.00  0.00    -0.460 OA
BRANCH  43  44
ATOM     44  C   UNL A   1      36.352  32.834  28.944  1.00  0.00     0.338 C 
ATOM     45  O   UNL A   1      35.828  31.999  28.278  1.00  0.00    -0.246 OA
BRANCH  44  46
ATOM     46  C   UNL A   1      37.849  33.044  29.129  1.00  0.00     0.060 A 
ATOM     47  C   UNL A   1      38.611  32.067  29.766  1.00  0.00     0.016 A 
ATOM     48  C   UNL A   1      38.415  34.312  28.958  1.00  0.00     0.016 A 
ATOM     49  C   UNL A   1      39.813  32.415  30.425  1.00  0.00     0.010 A 
ATOM     50  C   UNL A   1      39.547  34.683  29.712  1.00  0.00     0.010 A 
ATOM     51  C   UNL A   1      40.205  33.763  30.548  1.00  0.00    -0.014 A 
BRANCH  51  52
ATOM     52  C   UNL A   1      40.956  34.249  31.764  1.00  0.00     0.031 A 
ATOM     53  C   UNL A   1      40.342  34.605  33.107  1.00  0.00     0.074 A 
ATOM     54  C   UNL A   1      42.304  34.032  31.770  1.00  0.00     0.049 A 
ATOM     55  N   UNL A   1      40.972  35.148  34.114  1.00  0.00    -0.248 NA
ATOM     56  C   UNL A   1      38.950  34.363  33.437  1.00  0.00     0.031 C 
ATOM     57  C   UNL A   1      43.126  33.899  32.965  1.00  0.00     0.029 A 
ATOM     58  N   UNL A   1      43.196  33.668  30.764  1.00  0.00    -0.354 N 
ATOM     59  C   UNL A   1      40.193  35.080  35.264  1.00  0.00     0.074 A 
ATOM     60  C   UNL A   1      38.908  34.676  34.739  1.00  0.00     0.031 C 
ATOM     61  C   UNL A   1      44.323  33.385  32.666  1.00  0.00     0.029 A 
ATOM     62  C   UNL A   1      44.506  33.545  31.257  1.00  0.00     0.049 A 
ATOM     63  H   UNL A   1      42.940  33.515  29.825  1.00  0.00     0.167 HD
ATOM     64  C   UNL A   1      40.735  35.289  36.521  1.00  0.00     0.037 A 
ATOM     65  C   UNL A   1      45.507  34.358  30.806  1.00  0.00     0.037 A 
ATOM     66  C   UNL A   1      42.201  35.602  36.476  1.00  0.00     0.049 A 
ATOM     67  C   UNL A   1      45.779  35.546  31.738  1.00  0.00     0.074 A 
ATOM     68  C   UNL A   1      43.323  35.218  37.204  1.00  0.00     0.029 A 
ATOM     69  N   UNL A   1      42.721  36.408  35.455  1.00  0.00    -0.354 N 
ATOM     70  N   UNL A   1      45.369  35.617  32.989  1.00  0.00    -0.248 NA
ATOM     71  C   UNL A   1      46.468  36.770  31.348  1.00  0.00     0.031 C 
ATOM     72  C   UNL A   1      44.500  35.660  36.521  1.00  0.00     0.029 A 
ATOM     73  C   UNL A   1      44.107  36.425  35.439  1.00  0.00     0.049 A 
ATOM     74  H   UNL A   1      42.163  36.908  34.818  1.00  0.00     0.167 HD
ATOM     75  C   UNL A   1      45.476  36.897  33.456  1.00  0.00     0.074 A 
ATOM     76  C   UNL A   1      46.292  37.541  32.440  1.00  0.00     0.031 C 
ATOM     77  C   UNL A   1      44.812  37.364  34.565  1.00  0.00     0.037 A 
BRANCH  64  78
ATOM     78  C   UNL A   1      40.003  35.066  37.896  1.00  0.00     0.064 A 
ATOM     79  C   UNL A   1      39.517  33.787  38.288  1.00  0.00     0.173 A 
ATOM     80  C   UNL A   1      39.702  36.058  38.860  1.00  0.00     0.173 A 
ATOM     81  F   UNL A   1      39.814  32.683  37.595  1.00  0.00    -0.203 F 
ATOM     82  C   UNL A   1      38.731  33.562  39.438  1.00  0.00     0.198 A 
ATOM     83  C   UNL A   1      38.958  35.828  40.032  1.00  0.00     0.198 A 
ATOM     84  F   UNL A   1      40.101  37.319  38.743  1.00  0.00    -0.203 F 
ATOM     85  F   UNL A   1      38.254  32.335  39.692  1.00  0.00    -0.200 F 
ATOM     86  C   UNL A   1      38.446  34.587  40.309  1.00  0.00     0.200 A 
ATOM     87  F   UNL A   1      38.736  36.844  40.879  1.00  0.00    -0.200 F 
ATOM     88  F   UNL A   1      37.698  34.385  41.402  1.00  0.00    -0.200 F 
ENDBRANCH  64  78
BRANCH  65  89
ATOM     89  C   UNL A   1      45.750  34.082  29.357  1.00  0.00     0.064 A 
ATOM     90  C   UNL A   1      46.161  32.747  29.121  1.00  0.00     0.173 A 
ATOM     91  C   UNL A   1      44.909  34.659  28.392  1.00  0.00     0.173 A 
ATOM     92  F   UNL A   1      47.021  32.160  29.968  1.00  0.00    -0.203 F 
ATOM     93  C   UNL A   1      45.514  31.946  28.178  1.00  0.00     0.198 A 
ATOM     94  C   UNL A   1      44.279  33.856  27.430  1.00  0.00     0.198 A 
ATOM     95  F   UNL A   1      44.505  35.930  28.526  1.00  0.00    -0.203 F 
ATOM     96  F   UNL A   1      45.750  30.627  28.141  1.00  0.00    -0.200 F 
ATOM     97  C   UNL A   1      44.526  32.490  27.378  1.00  0.00     0.200 A 
ATOM     98  F   UNL A   1      43.321  34.378  26.652  1.00  0.00    -0.200 F 
ATOM     99  F   UNL A   1      43.761  31.694  26.615  1.00  0.00    -0.200 F 
ENDBRANCH  65  89
BRANCH  77 100
ATOM    100  C   UNL A   1      44.701  38.826  34.960  1.00  0.00     0.064 A 
ATOM    101  C   UNL A   1      45.606  39.465  35.817  1.00  0.00     0.173 A 
ATOM    102  C   UNL A   1      43.776  39.681  34.305  1.00  0.00     0.173 A 
ATOM    103  F   UNL A   1      46.618  38.798  36.387  1.00  0.00    -0.203 F 
ATOM    104  C   UNL A   1      45.547  40.840  36.060  1.00  0.00     0.198 A 
ATOM    105  C   UNL A   1      43.771  41.062  34.490  1.00  0.00     0.198 A 
ATOM    106  F   UNL A   1      42.866  39.210  33.441  1.00  0.00    -0.203 F 
ATOM    107  F   UNL A   1      46.404  41.394  36.928  1.00  0.00    -0.200 F 
ATOM    108  C   UNL A   1      44.644  41.639  35.385  1.00  0.00     0.200 A 
ATOM    109  F   UNL A   1      42.933  41.828  33.776  1.00  0.00    -0.200 F 
ATOM    110  F   UNL A   1      44.632  42.965  35.579  1.00  0.00    -0.200 F 
ENDBRANCH  77 100
ENDBRANCH  51  52
ENDBRANCH  44  46
ENDBRANCH  43  44
ENDBRANCH  42  43
ENDBRANCH  41  42
ENDBRANCH  40  41
ENDBRANCH  39  40
ENDBRANCH  38  39
ENDBRANCH  37  38
ENDBRANCH   1  37
TORSDOF 25
ENDMDL
MODEL 3
REMARK VINA RESULT:      -9.7      4.171      9.484
REMARK SMILES Cc1ccccc1C(=O)Nc1ccc(OCC(=O)OCCOCCOCCOCCOC(=O)c2ccc(-c3c4nc(c(-c5c(F)c(F)c(F)c(F)c5F)c5ccc([nH]5)c(-c5c(F)c(F)c(F)c(F)c5F)c5nc(c(-c6c(F)c(F)c(F)c(F)c6F)c6ccc3[nH]6)C=C5)C=C4)cc2)c(-c2nc3ccccc3s2)c1
REMARK SMILES IDX 24 1 23 2 22 3 21 4 20 5 19 6 17 7 18 8 16 9 15 10 14 11
REMARK SMILES IDX 11 12 12 13 107 14 13 15 97 16 10 17 8 18 9 19 7 21 1 22
REMARK SMILES IDX 2 23 3 24 4 25 6 26 5 27 98 28 99 29 106 30 100 31 105 32
REMARK SMILES IDX 101 33 104 34 102 35 103 36 25 37 26 38 27 39 28 40 29 41
REMARK SMILES IDX 30 42 31 43 32 44 33 45 34 46 35 47 96 48 36 49 95 50 37 51
REMARK SMILES IDX 38 52 39 53 89 54 40 55 94 56 88 57 90 58 41 59 93 60 87 61
REMARK SMILES IDX 86 62 42 64 74 65 54 66 73 67 55 68 58 69 72 70 91 71 56 72
REMARK SMILES IDX 57 73 71 75 92 76 59 77 43 78 44 79 52 80 45 81 46 82 50 83
REMARK SMILES IDX 53 84 47 85 48 86 51 87 49 88 75 89 76 90 84 91 77 92 78 93
REMARK SMILES IDX 82 94 85 95 79 96 80 97 83 98 81 99 60 100 61 101 69 102
REMARK SMILES IDX 62 103 63 104 67 105 70 106 64 107 65 108 68 109 66 110
REMARK H PARENT 10 20 90 63 58 74
REMARK Flexibility Score: inf
ROOT
ATOM      1  C   UNL A   1      39.887  26.816  29.197  1.00  0.00     0.188 C 
ENDROOT
BRANCH   1   2
ATOM      2  C   UNL A   1      40.230  25.674  28.270  1.00  0.00     0.188 C 
BRANCH   2   3
ATOM      3  O   UNL A   1      39.312  25.338  27.234  1.00  0.00    -0.376 OA
BRANCH   3   4
ATOM      4  C   UNL A   1      38.701  24.061  27.319  1.00  0.00     0.202 C 
BRANCH   4   5
ATOM      5  C   UNL A   1      38.050  23.682  25.985  1.00  0.00     0.261 C 
BRANCH   5   6
ATOM      6  O   UNL A   1      36.701  24.135  25.937  1.00  0.00    -0.461 OA
BRANCH   6   7
ATOM      7  C   UNL A   1      35.714  23.212  26.004  1.00  0.00     0.344 C 
ATOM      8  O   UNL A   1      34.860  23.160  26.879  1.00  0.00    -0.248 OA
BRANCH   7   9
ATOM      9  C   UNL A   1      35.791  22.272  24.795  1.00  0.00     0.352 C 
BRANCH   9  10
ATOM     10  O   UNL A   1      35.383  22.886  23.588  1.00  0.00    -0.481 OA
BRANCH  10  11
ATOM     11  C   UNL A   1      34.116  23.110  23.130  1.00  0.00     0.130 A 
ATOM     12  C   UNL A   1      31.599  24.433  23.347  1.00  0.00     0.042 A 
ATOM     13  C   UNL A   1      32.744  25.164  23.080  1.00  0.00     0.030 A 
ATOM     14  C   UNL A   1      31.695  23.052  23.152  1.00  0.00     0.041 A 
ATOM     15  C   UNL A   1      33.977  24.511  22.964  1.00  0.00     0.049 A 
ATOM     16  C   UNL A   1      32.942  22.322  23.161  1.00  0.00     0.055 A 
BRANCH  12  17
ATOM     17  N   UNL A   1      30.388  25.118  23.586  1.00  0.00    -0.322 N 
ATOM     18  C   UNL A   1      29.967  26.283  24.245  1.00  0.00     0.255 C 
ATOM     19  O   UNL A   1      28.777  26.570  24.024  1.00  0.00    -0.269 OA
ATOM     20  H   UNL A   1      29.626  24.647  23.177  1.00  0.00     0.170 HD
BRANCH  18  21
ATOM     21  C   UNL A   1      30.727  27.327  25.044  1.00  0.00     0.043 A 
ATOM     22  C   UNL A   1      31.191  28.983  23.207  1.00  0.00     0.045 C 
ATOM     23  C   UNL A   1      31.228  28.556  24.617  1.00  0.00    -0.038 A 
ATOM     24  C   UNL A   1      31.822  29.472  25.526  1.00  0.00     0.004 A 
ATOM     25  C   UNL A   1      32.051  29.133  26.849  1.00  0.00     0.000 A 
ATOM     26  C   UNL A   1      31.050  26.979  26.384  1.00  0.00     0.014 A 
ATOM     27  C   UNL A   1      31.701  27.862  27.271  1.00  0.00     0.001 A 
ENDBRANCH  18  21
ENDBRANCH  12  17
BRANCH  16  28
ATOM     28  C   UNL A   1      32.757  20.891  23.571  1.00  0.00     0.128 A 
ATOM     29  N   UNL A   1      33.362  20.366  24.632  1.00  0.00    -0.236 NA
ATOM     30  S   UNL A   1      31.854  19.683  22.761  1.00  0.00    -0.114 S 
ATOM     31  C   UNL A   1      33.657  19.035  24.384  1.00  0.00     0.082 A 
ATOM     32  C   UNL A   1      32.989  18.496  23.290  1.00  0.00     0.055 A 
ATOM     33  C   UNL A   1      34.600  18.236  25.065  1.00  0.00     0.030 A 
ATOM     34  C   UNL A   1      33.291  17.215  22.794  1.00  0.00     0.021 A 
ATOM     35  C   UNL A   1      34.963  16.992  24.542  1.00  0.00     0.002 A 
ATOM     36  C   UNL A   1      34.327  16.499  23.408  1.00  0.00     0.002 A 
ENDBRANCH  16  28
ENDBRANCH  10  11
ENDBRANCH   9  10
ENDBRANCH   7   9
ENDBRANCH   6   7
ENDBRANCH   5   6
ENDBRANCH   4   5
ENDBRANCH   3   4
ENDBRANCH   2   3
ENDBRANCH   1   2
BRANCH   1  37
ATOM     37  O   UNL A   1      38.519  27.175  29.272  1.00  0.00    -0.377 OA
BRANCH  37  38
ATOM     38  C   UNL A   1      38.302  28.238  30.178  1.00  0.00     0.188 C 
BRANCH  38  39
ATOM     39  C   UNL A   1      37.283  29.204  29.600  1.00  0.00     0.188 C 
BRANCH  39  40
ATOM     40  O   UNL A   1      37.510  29.531  28.239  1.00  0.00    -0.376 OA
BRANCH  40  41
ATOM     41  C   UNL A   1      36.356  29.948  27.522  1.00  0.00     0.202 C 
BRANCH  41  42
ATOM     42  C   UNL A   1      35.312  30.791  28.325  1.00  0.00     0.261 C 
BRANCH  42  43
ATOM     43  O   UNL A   1      35.785  32.170  28.507  1.00  0.00    -0.460 OA
BRANCH  43  44
ATOM     44  C   UNL A   1      35.382  33.135  29.386  1.00  0.00     0.338 C 
ATOM     45  O   UNL A   1      34.320  33.661  29.480  1.00  0.00    -0.246 OA
BRANCH  44  46
ATOM     46  C   UNL A   1      36.630  33.450  30.200  1.00  0.00     0.060 A 
ATOM     47  C   UNL A   1      37.771  33.928  29.558  1.00  0.00     0.016 A 
ATOM     48  C   UNL A   1      36.761  32.983  31.511  1.00  0.00     0.016 A 
ATOM     49  C   UNL A   1      39.049  33.723  30.127  1.00  0.00     0.010 A 
ATOM     50  C   UNL A   1      38.037  32.673  32.024  1.00  0.00     0.010 A 
ATOM     51  C   UNL A   1      39.206  32.940  31.288  1.00  0.00    -0.014 A 
BRANCH  51  52
ATOM     52  C   UNL A   1      40.443  32.100  31.502  1.00  0.00     0.031 A 
ATOM     53  C   UNL A   1      41.007  31.081  30.527  1.00  0.00     0.074 A 
ATOM     54  C   UNL A   1      41.300  32.522  32.476  1.00  0.00     0.049 A 
ATOM     55  N   UNL A   1      41.996  30.263  30.765  1.00  0.00    -0.248 NA
ATOM     56  C   UNL A   1      40.503  30.904  29.177  1.00  0.00     0.031 C 
ATOM     57  C   UNL A   1      42.730  32.247  32.511  1.00  0.00     0.029 A 
ATOM     58  N   UNL A   1      41.159  33.446  33.509  1.00  0.00    -0.354 N 
ATOM     59  C   UNL A   1      42.431  29.673  29.583  1.00  0.00     0.074 A 
ATOM     60  C   UNL A   1      41.385  30.040  28.656  1.00  0.00     0.031 C 
ATOM     61  C   UNL A   1      43.347  33.039  33.393  1.00  0.00     0.029 A 
ATOM     62  C   UNL A   1      42.339  33.561  34.262  1.00  0.00     0.049 A 
ATOM     63  H   UNL A   1      40.335  33.955  33.689  1.00  0.00     0.167 HD
ATOM     64  C   UNL A   1      43.650  29.022  29.503  1.00  0.00     0.037 A 
ATOM     65  C   UNL A   1      42.365  33.222  35.585  1.00  0.00     0.037 A 
ATOM     66  C   UNL A   1      44.395  29.022  30.805  1.00  0.00     0.049 A 
ATOM     67  C   UNL A   1      42.912  31.811  35.832  1.00  0.00     0.074 A 
ATOM     68  C   UNL A   1      45.714  29.228  31.196  1.00  0.00     0.029 A 
ATOM     69  N   UNL A   1      43.705  28.862  32.014  1.00  0.00    -0.354 N 
ATOM     70  N   UNL A   1      43.604  31.118  34.949  1.00  0.00    -0.248 NA
ATOM     71  C   UNL A   1      42.689  31.030  37.044  1.00  0.00     0.031 C 
ATOM     72  C   UNL A   1      45.768  29.350  32.621  1.00  0.00     0.029 A 
ATOM     73  C   UNL A   1      44.505  29.094  33.122  1.00  0.00     0.049 A 
ATOM     74  H   UNL A   1      42.756  28.610  32.070  1.00  0.00     0.167 HD
ATOM     75  C   UNL A   1      43.675  29.804  35.320  1.00  0.00     0.074 A 
ATOM     76  C   UNL A   1      43.207  29.835  36.697  1.00  0.00     0.031 C 
ATOM     77  C   UNL A   1      44.001  28.783  34.460  1.00  0.00     0.037 A 
BRANCH  64  78
ATOM     78  C   UNL A   1      44.326  28.476  28.191  1.00  0.00     0.064 A 
ATOM     79  C   UNL A   1      45.220  29.272  27.421  1.00  0.00     0.173 A 
ATOM     80  C   UNL A   1      44.115  27.207  27.601  1.00  0.00     0.173 A 
ATOM     81  F   UNL A   1      45.669  30.450  27.866  1.00  0.00    -0.203 F 
ATOM     82  C   UNL A   1      45.739  28.885  26.167  1.00  0.00     0.198 A 
ATOM     83  C   UNL A   1      44.668  26.799  26.373  1.00  0.00     0.198 A 
ATOM     84  F   UNL A   1      43.364  26.268  28.164  1.00  0.00    -0.203 F 
ATOM     85  F   UNL A   1      46.518  29.728  25.476  1.00  0.00    -0.200 F 
ATOM     86  C   UNL A   1      45.457  27.647  25.639  1.00  0.00     0.200 A 
ATOM     87  F   UNL A   1      44.404  25.568  25.910  1.00  0.00    -0.200 F 
ATOM     88  F   UNL A   1      45.941  27.271  24.447  1.00  0.00    -0.200 F 
ENDBRANCH  64  78
BRANCH  65  89
ATOM     89  C   UNL A   1      41.480  34.155  36.350  1.00  0.00     0.064 A 
ATOM     90  C   UNL A   1      40.346  33.502  36.893  1.00  0.00     0.173 A 
ATOM     91  C   UNL A   1      42.056  35.168  37.133  1.00  0.00     0.173 A 
ATOM     92  F   UNL A   1      39.707  32.572  36.166  1.00  0.00    -0.203 F 
ATOM     93  C   UNL A   1      40.024  33.619  38.247  1.00  0.00     0.198 A 
ATOM     94  C   UNL A   1      41.711  35.300  38.486  1.00  0.00     0.198 A 
ATOM     95  F   UNL A   1      43.110  35.857  36.673  1.00  0.00    -0.203 F 
ATOM     96  F   UNL A   1      39.103  32.809  38.790  1.00  0.00    -0.200 F 
ATOM     97  C   UNL A   1      40.752  34.473  39.055  1.00  0.00     0.200 A 
ATOM     98  F   UNL A   1      42.414  36.126  39.274  1.00  0.00    -0.200 F 
ATOM     99  F   UNL A   1      40.586  34.445  40.386  1.00  0.00    -0.200 F 
ENDBRANCH  65  89
BRANCH  77 100
ATOM    100  C   UNL A   1      43.839  27.305  34.765  1.00  0.00     0.064 A 
ATOM    101  C   UNL A   1      44.882  26.494  35.232  1.00  0.00     0.173 A 
ATOM    102  C   UNL A   1      42.550  26.710  34.786  1.00  0.00     0.173 A 
ATOM    103  F   UNL A   1      46.121  26.977  35.397  1.00  0.00    -0.203 F 
ATOM    104  C   UNL A   1      44.669  25.169  35.622  1.00  0.00     0.198 A 
ATOM    105  C   UNL A   1      42.330  25.414  35.249  1.00  0.00     0.198 A 
ATOM    106  F   UNL A   1      41.457  27.375  34.388  1.00  0.00    -0.203 F 
ATOM    107  F   UNL A   1      45.709  24.421  36.013  1.00  0.00    -0.200 F 
ATOM    108  C   UNL A   1      43.394  24.636  35.647  1.00  0.00     0.200 A 
ATOM    109  F   UNL A   1      41.079  24.938  35.330  1.00  0.00    -0.200 F 
ATOM    110  F   UNL A   1      43.190  23.384  36.077  1.00  0.00    -0.200 F 
ENDBRANCH  77 100
ENDBRANCH  51  52
ENDBRANCH  44  46
ENDBRANCH  43  44
ENDBRANCH  42  43
ENDBRANCH  41  42
ENDBRANCH  40  41
ENDBRANCH  39  40
ENDBRANCH  38  39
ENDBRANCH  37  38
ENDBRANCH   1  37
TORSDOF 25
ENDMDL
