MODEL 1
REMARK VINA RESULT:     -11.1      0.000      0.000
REMARK SMILES CC1(C)NC(=O)N(CCC(=O)N2CCC[C@H]2C(=O)OCCOCCOCCOCCOC(=O)c2ccc(-c3c4nc(c(-c5c(F)c(F)c(F)c(F)c5F)c5ccc([nH]5)c(-c5c(F)c(F)c(F)c(F)c5F)c5nc(c(-c6c(F)c(F)c(F)c(F)c6F)c6ccc3[nH]6)C=C5)C=C4)cc2)C1=O
REMARK SMILES IDX 24 1 23 2 22 3 21 4 20 5 19 6 17 7 18 8 16 9 12 10 13 11
REMARK SMILES IDX 14 12 15 13 10 14 11 15 9 16 8 17 7 18 1 19 2 20 3 21 4 22
REMARK SMILES IDX 97 23 5 24 98 26 6 27 25 28 26 29 27 30 28 31 29 32 30 33
REMARK SMILES IDX 31 34 32 35 33 36 34 37 35 38 96 39 36 40 95 41 37 42 38 43
REMARK SMILES IDX 39 44 89 45 40 46 94 47 88 48 90 49 41 50 93 51 87 52 86 53
REMARK SMILES IDX 42 55 74 56 54 57 73 58 55 59 58 60 72 61 91 62 56 63 57 64
REMARK SMILES IDX 71 66 92 67 59 68 43 69 44 70 52 71 45 72 46 73 50 74 53 75
REMARK SMILES IDX 47 76 48 77 51 78 49 79 75 80 76 81 84 82 77 83 78 84 82 85
REMARK SMILES IDX 85 86 79 87 80 88 83 89 81 90 60 91 61 92 69 93 62 94 63 95
REMARK SMILES IDX 67 96 70 97 64 98 65 99 68 100 66 101
REMARK H PARENT 4 25 90 54 58 65
REMARK Flexibility Score: inf
ROOT
ATOM      1  C   UNL A   1      42.174  20.195  26.290  1.00  0.00     0.188 C 
ENDROOT
BRANCH   1   2
ATOM      2  C   UNL A   1      40.699  20.470  26.532  1.00  0.00     0.188 C 
BRANCH   2   3
ATOM      3  O   UNL A   1      39.854  19.636  25.748  1.00  0.00    -0.376 OA
BRANCH   3   4
ATOM      4  C   UNL A   1      38.606  20.224  25.403  1.00  0.00     0.202 C 
BRANCH   4   5
ATOM      5  C   UNL A   1      38.507  21.766  25.553  1.00  0.00     0.261 C 
BRANCH   5   6
ATOM      6  O   UNL A   1      37.255  22.487  25.782  1.00  0.00    -0.462 OA
BRANCH   6   7
ATOM      7  C   UNL A   1      36.282  22.461  24.856  1.00  0.00     0.328 C 
ATOM      8  O   UNL A   1      36.512  22.336  23.666  1.00  0.00    -0.250 OA
BRANCH   7   9
ATOM      9  C   UNL A   1      34.840  22.566  25.332  1.00  0.00     0.195 C 
ATOM     10  N   UNL A   1      33.913  21.515  24.951  1.00  0.00    -0.329 N 
ATOM     11  C   UNL A   1      33.648  20.695  26.125  1.00  0.00     0.120 C 
ATOM     12  C   UNL A   1      33.670  21.696  27.266  1.00  0.00     0.024 C 
ATOM     13  C   UNL A   1      34.759  22.680  26.858  1.00  0.00     0.039 C 
BRANCH  10  14
ATOM     14  C   UNL A   1      32.997  21.572  23.919  1.00  0.00     0.225 C 
ATOM     15  O   UNL A   1      32.153  20.668  23.816  1.00  0.00    -0.275 OA
BRANCH  14  16
ATOM     16  C   UNL A   1      33.118  22.530  22.721  1.00  0.00     0.122 C 
BRANCH  16  17
ATOM     17  C   UNL A   1      33.578  23.989  22.526  1.00  0.00     0.140 C 
BRANCH  17  18
ATOM     18  N   UNL A   1      32.701  25.147  22.456  1.00  0.00    -0.262 N 
ATOM     19  C   UNL A   1      32.096  28.433  23.700  1.00  0.00     0.045 C 
ATOM     20  C   UNL A   1      31.550  27.180  23.027  1.00  0.00     0.115 C 
ATOM     21  C   UNL A   1      30.030  27.196  23.206  1.00  0.00     0.045 C 
ATOM     22  N   UNL A   1      31.882  27.058  21.627  1.00  0.00    -0.324 N 
ATOM     23  C   UNL A   1      32.343  25.938  23.529  1.00  0.00     0.255 C 
ATOM     24  C   UNL A   1      32.532  25.882  21.323  1.00  0.00     0.325 C 
ATOM     25  H   UNL A   1      31.665  27.745  20.956  1.00  0.00     0.166 HD
ATOM     26  O   UNL A   1      32.679  25.749  24.693  1.00  0.00    -0.272 OA
ATOM     27  O   UNL A   1      32.904  25.582  20.201  1.00  0.00    -0.248 OA
ENDBRANCH  17  18
ENDBRANCH  16  17
ENDBRANCH  14  16
ENDBRANCH  10  14
ENDBRANCH   7   9
ENDBRANCH   6   7
ENDBRANCH   5   6
ENDBRANCH   4   5
ENDBRANCH   3   4
ENDBRANCH   2   3
ENDBRANCH   1   2
BRANCH   1  28
ATOM     28  O   UNL A   1      42.476  18.967  25.673  1.00  0.00    -0.377 OA
BRANCH  28  29
ATOM     29  C   UNL A   1      43.819  18.771  25.274  1.00  0.00     0.188 C 
BRANCH  29  30
ATOM     30  C   UNL A   1      44.597  19.857  24.494  1.00  0.00     0.188 C 
BRANCH  30  31
ATOM     31  O   UNL A   1      45.452  20.730  25.198  1.00  0.00    -0.376 OA
BRANCH  31  32
ATOM     32  C   UNL A   1      46.236  21.763  24.643  1.00  0.00     0.202 C 
BRANCH  32  33
ATOM     33  C   UNL A   1      45.791  23.190  24.297  1.00  0.00     0.261 C 
BRANCH  33  34
ATOM     34  O   UNL A   1      44.938  23.862  25.210  1.00  0.00    -0.460 OA
BRANCH  34  35
ATOM     35  C   UNL A   1      43.611  23.789  24.963  1.00  0.00     0.338 C 
ATOM     36  O   UNL A   1      43.027  22.969  24.276  1.00  0.00    -0.246 OA
BRANCH  35  37
ATOM     37  C   UNL A   1      42.961  24.734  25.893  1.00  0.00     0.060 A 
ATOM     38  C   UNL A   1      43.451  26.048  25.951  1.00  0.00     0.016 A 
ATOM     39  C   UNL A   1      41.781  24.383  26.562  1.00  0.00     0.016 A 
ATOM     40  C   UNL A   1      42.766  27.014  26.676  1.00  0.00     0.010 A 
ATOM     41  C   UNL A   1      41.128  25.337  27.341  1.00  0.00     0.010 A 
ATOM     42  C   UNL A   1      41.642  26.644  27.424  1.00  0.00    -0.014 A 
BRANCH  42  43
ATOM     43  C   UNL A   1      41.251  27.509  28.554  1.00  0.00     0.031 A 
ATOM     44  C   UNL A   1      42.081  27.387  29.802  1.00  0.00     0.074 A 
ATOM     45  C   UNL A   1      40.240  28.388  28.472  1.00  0.00     0.049 A 
ATOM     46  N   UNL A   1      41.959  27.997  30.950  1.00  0.00    -0.248 NA
ATOM     47  C   UNL A   1      43.212  26.442  29.740  1.00  0.00     0.031 C 
ATOM     48  C   UNL A   1      39.413  28.625  27.292  1.00  0.00     0.029 A 
ATOM     49  N   UNL A   1      39.739  29.246  29.417  1.00  0.00    -0.354 N 
ATOM     50  C   UNL A   1      42.990  27.506  31.740  1.00  0.00     0.074 A 
ATOM     51  C   UNL A   1      43.714  26.534  30.958  1.00  0.00     0.031 C 
ATOM     52  C   UNL A   1      38.488  29.556  27.593  1.00  0.00     0.029 A 
ATOM     53  C   UNL A   1      38.643  29.953  28.992  1.00  0.00     0.049 A 
ATOM     54  H   UNL A   1      40.129  29.345  30.316  1.00  0.00     0.167 HD
ATOM     55  C   UNL A   1      43.306  27.842  33.009  1.00  0.00     0.037 A 
ATOM     56  C   UNL A   1      37.849  30.801  29.675  1.00  0.00     0.037 A 
ATOM     57  C   UNL A   1      42.566  28.796  33.784  1.00  0.00     0.049 A 
ATOM     58  C   UNL A   1      38.172  31.098  31.121  1.00  0.00     0.074 A 
ATOM     59  C   UNL A   1      42.796  29.217  35.080  1.00  0.00     0.029 A 
ATOM     60  N   UNL A   1      41.438  29.466  33.332  1.00  0.00    -0.354 N 
ATOM     61  N   UNL A   1      39.161  30.652  31.859  1.00  0.00    -0.248 NA
ATOM     62  C   UNL A   1      37.272  32.021  31.826  1.00  0.00     0.031 C 
ATOM     63  C   UNL A   1      41.767  30.094  35.436  1.00  0.00     0.029 A 
ATOM     64  C   UNL A   1      40.939  30.275  34.337  1.00  0.00     0.049 A 
ATOM     65  H   UNL A   1      41.050  29.378  32.432  1.00  0.00     0.167 HD
ATOM     66  C   UNL A   1      39.020  31.260  33.101  1.00  0.00     0.074 A 
ATOM     67  C   UNL A   1      37.856  32.118  33.011  1.00  0.00     0.031 C 
ATOM     68  C   UNL A   1      39.782  31.126  34.216  1.00  0.00     0.037 A 
BRANCH  55  69
ATOM     69  C   UNL A   1      44.465  27.131  33.642  1.00  0.00     0.064 A 
ATOM     70  C   UNL A   1      44.290  25.992  34.442  1.00  0.00     0.173 A 
ATOM     71  C   UNL A   1      45.772  27.601  33.443  1.00  0.00     0.173 A 
ATOM     72  F   UNL A   1      43.058  25.520  34.689  1.00  0.00    -0.203 F 
ATOM     73  C   UNL A   1      45.381  25.360  35.035  1.00  0.00     0.198 A 
ATOM     74  C   UNL A   1      46.862  26.947  34.010  1.00  0.00     0.198 A 
ATOM     75  F   UNL A   1      45.992  28.693  32.697  1.00  0.00    -0.203 F 
ATOM     76  F   UNL A   1      45.186  24.305  35.838  1.00  0.00    -0.200 F 
ATOM     77  C   UNL A   1      46.665  25.832  34.811  1.00  0.00     0.200 A 
ATOM     78  F   UNL A   1      48.102  27.401  33.785  1.00  0.00    -0.200 F 
ATOM     79  F   UNL A   1      47.714  25.218  35.375  1.00  0.00    -0.200 F 
ENDBRANCH  55  69
BRANCH  56  80
ATOM     80  C   UNL A   1      36.665  31.413  29.015  1.00  0.00     0.064 A 
ATOM     81  C   UNL A   1      36.624  32.781  28.713  1.00  0.00     0.173 A 
ATOM     82  C   UNL A   1      35.536  30.643  28.694  1.00  0.00     0.173 A 
ATOM     83  F   UNL A   1      37.665  33.567  29.023  1.00  0.00    -0.203 F 
ATOM     84  C   UNL A   1      35.496  33.359  28.132  1.00  0.00     0.198 A 
ATOM     85  C   UNL A   1      34.421  31.216  28.086  1.00  0.00     0.198 A 
ATOM     86  F   UNL A   1      35.518  29.330  28.966  1.00  0.00    -0.203 F 
ATOM     87  F   UNL A   1      35.465  34.678  27.899  1.00  0.00    -0.200 F 
ATOM     88  C   UNL A   1      34.397  32.574  27.813  1.00  0.00     0.200 A 
ATOM     89  F   UNL A   1      33.367  30.451  27.766  1.00  0.00    -0.200 F 
ATOM     90  F   UNL A   1      33.315  33.129  27.250  1.00  0.00    -0.200 F 
ENDBRANCH  56  80
BRANCH  68  91
ATOM     91  C   UNL A   1      39.412  31.955  35.412  1.00  0.00     0.064 A 
ATOM     92  C   UNL A   1      39.862  33.274  35.567  1.00  0.00     0.173 A 
ATOM     93  C   UNL A   1      38.542  31.439  36.387  1.00  0.00     0.173 A 
ATOM     94  F   UNL A   1      40.701  33.811  34.670  1.00  0.00    -0.203 F 
ATOM     95  C   UNL A   1      39.479  34.035  36.669  1.00  0.00     0.198 A 
ATOM     96  C   UNL A   1      38.133  32.215  37.466  1.00  0.00     0.198 A 
ATOM     97  F   UNL A   1      38.071  30.187  36.278  1.00  0.00    -0.203 F 
ATOM     98  F   UNL A   1      39.963  35.275  36.824  1.00  0.00    -0.200 F 
ATOM     99  C   UNL A   1      38.608  33.508  37.612  1.00  0.00     0.200 A 
ATOM    100  F   UNL A   1      37.274  31.711  38.364  1.00  0.00    -0.200 F 
ATOM    101  F   UNL A   1      38.231  34.247  38.664  1.00  0.00    -0.200 F 
ENDBRANCH  68  91
ENDBRANCH  42  43
ENDBRANCH  35  37
ENDBRANCH  34  35
ENDBRANCH  33  34
ENDBRANCH  32  33
ENDBRANCH  31  32
ENDBRANCH  30  31
ENDBRANCH  29  30
ENDBRANCH  28  29
ENDBRANCH   1  28
TORSDOF 24
ENDMDL
MODEL 2
REMARK VINA RESULT:     -10.7      0.723      2.034
REMARK SMILES CC1(C)NC(=O)N(CCC(=O)N2CCC[C@H]2C(=O)OCCOCCOCCOCCOC(=O)c2ccc(-c3c4nc(c(-c5c(F)c(F)c(F)c(F)c5F)c5ccc([nH]5)c(-c5c(F)c(F)c(F)c(F)c5F)c5nc(c(-c6c(F)c(F)c(F)c(F)c6F)c6ccc3[nH]6)C=C5)C=C4)cc2)C1=O
REMARK SMILES IDX 24 1 23 2 22 3 21 4 20 5 19 6 17 7 18 8 16 9 12 10 13 11
REMARK SMILES IDX 14 12 15 13 10 14 11 15 9 16 8 17 7 18 1 19 2 20 3 21 4 22
REMARK SMILES IDX 97 23 5 24 98 26 6 27 25 28 26 29 27 30 28 31 29 32 30 33
REMARK SMILES IDX 31 34 32 35 33 36 34 37 35 38 96 39 36 40 95 41 37 42 38 43
REMARK SMILES IDX 39 44 89 45 40 46 94 47 88 48 90 49 41 50 93 51 87 52 86 53
REMARK SMILES IDX 42 55 74 56 54 57 73 58 55 59 58 60 72 61 91 62 56 63 57 64
REMARK SMILES IDX 71 66 92 67 59 68 43 69 44 70 52 71 45 72 46 73 50 74 53 75
REMARK SMILES IDX 47 76 48 77 51 78 49 79 75 80 76 81 84 82 77 83 78 84 82 85
REMARK SMILES IDX 85 86 79 87 80 88 83 89 81 90 60 91 61 92 69 93 62 94 63 95
REMARK SMILES IDX 67 96 70 97 64 98 65 99 68 100 66 101
REMARK H PARENT 4 25 90 54 58 65
REMARK Flexibility Score: inf
ROOT
ATOM      1  C   UNL A   1      42.206  20.597  26.411  1.00  0.00     0.188 C 
ENDROOT
BRANCH   1   2
ATOM      2  C   UNL A   1      40.776  21.075  26.223  1.00  0.00     0.188 C 
BRANCH   2   3
ATOM      3  O   UNL A   1      39.889  20.017  25.879  1.00  0.00    -0.376 OA
BRANCH   3   4
ATOM      4  C   UNL A   1      38.579  20.442  25.522  1.00  0.00     0.202 C 
BRANCH   4   5
ATOM      5  C   UNL A   1      38.356  21.974  25.425  1.00  0.00     0.261 C 
BRANCH   5   6
ATOM      6  O   UNL A   1      37.105  22.643  25.783  1.00  0.00    -0.462 OA
BRANCH   6   7
ATOM      7  C   UNL A   1      36.183  22.902  24.839  1.00  0.00     0.328 C 
ATOM      8  O   UNL A   1      36.481  23.207  23.698  1.00  0.00    -0.250 OA
BRANCH   7   9
ATOM      9  C   UNL A   1      34.715  22.779  25.221  1.00  0.00     0.195 C 
ATOM     10  N   UNL A   1      33.787  22.275  24.224  1.00  0.00    -0.329 N 
ATOM     11  C   UNL A   1      33.415  20.916  24.594  1.00  0.00     0.120 C 
ATOM     12  C   UNL A   1      33.386  20.960  26.111  1.00  0.00     0.024 C 
ATOM     13  C   UNL A   1      34.531  21.902  26.465  1.00  0.00     0.039 C 
BRANCH  10  14
ATOM     14  C   UNL A   1      32.949  23.037  23.435  1.00  0.00     0.225 C 
ATOM     15  O   UNL A   1      31.849  22.568  23.100  1.00  0.00    -0.275 OA
BRANCH  14  16
ATOM     16  C   UNL A   1      33.389  24.319  22.708  1.00  0.00     0.122 C 
BRANCH  16  17
ATOM     17  C   UNL A   1      33.846  25.726  23.146  1.00  0.00     0.140 C 
BRANCH  17  18
ATOM     18  N   UNL A   1      33.029  26.928  23.106  1.00  0.00    -0.262 N 
ATOM     19  C   UNL A   1      31.469  29.466  25.064  1.00  0.00     0.045 C 
ATOM     20  C   UNL A   1      31.532  28.696  23.751  1.00  0.00     0.115 C 
ATOM     21  C   UNL A   1      30.176  28.866  23.061  1.00  0.00     0.045 C 
ATOM     22  N   UNL A   1      32.593  29.110  22.863  1.00  0.00    -0.324 N 
ATOM     23  C   UNL A   1      32.051  27.254  24.023  1.00  0.00     0.255 C 
ATOM     24  C   UNL A   1      33.431  28.079  22.501  1.00  0.00     0.325 C 
ATOM     25  H   UNL A   1      32.706  30.036  22.547  1.00  0.00     0.166 HD
ATOM     26  O   UNL A   1      31.707  26.557  24.972  1.00  0.00    -0.272 OA
ATOM     27  O   UNL A   1      34.393  28.213  21.762  1.00  0.00    -0.248 OA
ENDBRANCH  17  18
ENDBRANCH  16  17
ENDBRANCH  14  16
ENDBRANCH  10  14
ENDBRANCH   7   9
ENDBRANCH   6   7
ENDBRANCH   5   6
ENDBRANCH   4   5
ENDBRANCH   3   4
ENDBRANCH   2   3
ENDBRANCH   1   2
BRANCH   1  28
ATOM     28  O   UNL A   1      42.453  19.254  26.074  1.00  0.00    -0.377 OA
BRANCH  28  29
ATOM     29  C   UNL A   1      43.666  18.983  25.397  1.00  0.00     0.188 C 
BRANCH  29  30
ATOM     30  C   UNL A   1      44.446  20.098  24.660  1.00  0.00     0.188 C 
BRANCH  30  31
ATOM     31  O   UNL A   1      45.380  20.874  25.377  1.00  0.00    -0.376 OA
BRANCH  31  32
ATOM     32  C   UNL A   1      46.211  21.884  24.848  1.00  0.00     0.202 C 
BRANCH  32  33
ATOM     33  C   UNL A   1      45.815  23.321  24.480  1.00  0.00     0.261 C 
BRANCH  33  34
ATOM     34  O   UNL A   1      44.942  24.017  25.355  1.00  0.00    -0.460 OA
BRANCH  34  35
ATOM     35  C   UNL A   1      43.631  24.010  25.031  1.00  0.00     0.338 C 
ATOM     36  O   UNL A   1      43.053  23.240  24.283  1.00  0.00    -0.246 OA
BRANCH  35  37
ATOM     37  C   UNL A   1      42.967  24.951  25.956  1.00  0.00     0.060 A 
ATOM     38  C   UNL A   1      43.464  26.261  26.035  1.00  0.00     0.016 A 
ATOM     39  C   UNL A   1      41.773  24.602  26.599  1.00  0.00     0.016 A 
ATOM     40  C   UNL A   1      42.770  27.226  26.755  1.00  0.00     0.010 A 
ATOM     41  C   UNL A   1      41.110  25.553  27.372  1.00  0.00     0.010 A 
ATOM     42  C   UNL A   1      41.630  26.856  27.477  1.00  0.00    -0.014 A 
BRANCH  42  43
ATOM     43  C   UNL A   1      41.221  27.714  28.606  1.00  0.00     0.031 A 
ATOM     44  C   UNL A   1      42.060  27.617  29.850  1.00  0.00     0.074 A 
ATOM     45  C   UNL A   1      40.187  28.566  28.527  1.00  0.00     0.049 A 
ATOM     46  N   UNL A   1      41.927  28.228  30.997  1.00  0.00    -0.248 NA
ATOM     47  C   UNL A   1      43.215  26.703  29.785  1.00  0.00     0.031 C 
ATOM     48  C   UNL A   1      39.348  28.777  27.350  1.00  0.00     0.029 A 
ATOM     49  N   UNL A   1      39.668  29.413  29.472  1.00  0.00    -0.354 N 
ATOM     50  C   UNL A   1      42.975  27.767  31.783  1.00  0.00     0.074 A 
ATOM     51  C   UNL A   1      43.721  26.812  31.001  1.00  0.00     0.031 C 
ATOM     52  C   UNL A   1      38.400  29.684  27.652  1.00  0.00     0.029 A 
ATOM     53  C   UNL A   1      38.551  30.090  29.050  1.00  0.00     0.049 A 
ATOM     54  H   UNL A   1      40.059  29.525  30.368  1.00  0.00     0.167 HD
ATOM     55  C   UNL A   1      43.288  28.115  33.050  1.00  0.00     0.037 A 
ATOM     56  C   UNL A   1      37.739  30.918  29.734  1.00  0.00     0.037 A 
ATOM     57  C   UNL A   1      42.527  29.052  33.826  1.00  0.00     0.049 A 
ATOM     58  C   UNL A   1      38.061  31.229  31.177  1.00  0.00     0.074 A 
ATOM     59  C   UNL A   1      42.752  29.483  35.119  1.00  0.00     0.029 A 
ATOM     60  N   UNL A   1      41.379  29.690  33.377  1.00  0.00    -0.354 N 
ATOM     61  N   UNL A   1      39.064  30.811  31.912  1.00  0.00    -0.248 NA
ATOM     62  C   UNL A   1      37.140  32.129  31.884  1.00  0.00     0.031 C 
ATOM     63  C   UNL A   1      41.702  30.333  35.478  1.00  0.00     0.029 A 
ATOM     64  C   UNL A   1      40.864  30.489  34.382  1.00  0.00     0.049 A 
ATOM     65  H   UNL A   1      40.989  29.589  32.479  1.00  0.00     0.167 HD
ATOM     66  C   UNL A   1      38.914  31.419  33.153  1.00  0.00     0.074 A 
ATOM     67  C   UNL A   1      37.727  32.245  33.066  1.00  0.00     0.031 C 
ATOM     68  C   UNL A   1      39.684  31.309  34.264  1.00  0.00     0.037 A 
BRANCH  55  69
ATOM     69  C   UNL A   1      44.469  27.437  33.679  1.00  0.00     0.064 A 
ATOM     70  C   UNL A   1      45.765  27.967  33.588  1.00  0.00     0.173 A 
ATOM     71  C   UNL A   1      44.297  26.238  34.386  1.00  0.00     0.173 A 
ATOM     72  F   UNL A   1      45.988  29.096  32.897  1.00  0.00    -0.203 F 
ATOM     73  C   UNL A   1      46.848  27.309  34.164  1.00  0.00     0.198 A 
ATOM     74  C   UNL A   1      45.377  25.601  34.990  1.00  0.00     0.198 A 
ATOM     75  F   UNL A   1      43.080  25.684  34.493  1.00  0.00    -0.203 F 
ATOM     76  F   UNL A   1      48.085  27.805  34.020  1.00  0.00    -0.200 F 
ATOM     77  C   UNL A   1      46.653  26.133  34.872  1.00  0.00     0.200 A 
ATOM     78  F   UNL A   1      45.184  24.469  35.679  1.00  0.00    -0.200 F 
ATOM     79  F   UNL A   1      47.695  25.505  35.434  1.00  0.00    -0.200 F 
ENDBRANCH  55  69
BRANCH  56  80
ATOM     80  C   UNL A   1      36.536  31.497  29.078  1.00  0.00     0.064 A 
ATOM     81  C   UNL A   1      35.429  30.702  28.752  1.00  0.00     0.173 A 
ATOM     82  C   UNL A   1      36.478  32.859  28.743  1.00  0.00     0.173 A 
ATOM     83  F   UNL A   1      35.443  29.389  29.027  1.00  0.00    -0.203 F 
ATOM     84  C   UNL A   1      34.320  31.239  28.100  1.00  0.00     0.198 A 
ATOM     85  C   UNL A   1      35.356  33.401  28.118  1.00  0.00     0.198 A 
ATOM     86  F   UNL A   1      37.510  33.666  29.026  1.00  0.00    -0.203 F 
ATOM     87  F   UNL A   1      33.297  30.445  27.755  1.00  0.00    -0.200 F 
ATOM     88  C   UNL A   1      34.282  32.591  27.789  1.00  0.00     0.200 A 
ATOM     89  F   UNL A   1      35.318  34.710  27.833  1.00  0.00    -0.200 F 
ATOM     90  F   UNL A   1      33.214  33.108  27.167  1.00  0.00    -0.200 F 
ENDBRANCH  56  80
BRANCH  68  91
ATOM     91  C   UNL A   1      39.298  32.131  35.460  1.00  0.00     0.064 A 
ATOM     92  C   UNL A   1      38.490  31.616  36.483  1.00  0.00     0.173 A 
ATOM     93  C   UNL A   1      39.800  33.435  35.611  1.00  0.00     0.173 A 
ATOM     94  F   UNL A   1      37.979  30.380  36.384  1.00  0.00    -0.203 F 
ATOM     95  C   UNL A   1      38.173  32.387  37.600  1.00  0.00     0.198 A 
ATOM     96  C   UNL A   1      39.511  34.187  36.745  1.00  0.00     0.198 A 
ATOM     97  F   UNL A   1      40.590  33.969  34.668  1.00  0.00    -0.203 F 
ATOM     98  F   UNL A   1      37.357  31.893  38.540  1.00  0.00    -0.200 F 
ATOM     99  C   UNL A   1      38.691  33.667  37.733  1.00  0.00     0.200 A 
ATOM    100  F   UNL A   1      40.030  35.415  36.882  1.00  0.00    -0.200 F 
ATOM    101  F   UNL A   1      38.394  34.401  38.814  1.00  0.00    -0.200 F 
ENDBRANCH  68  91
ENDBRANCH  42  43
ENDBRANCH  35  37
ENDBRANCH  34  35
ENDBRANCH  33  34
ENDBRANCH  32  33
ENDBRANCH  31  32
ENDBRANCH  30  31
ENDBRANCH  29  30
ENDBRANCH  28  29
ENDBRANCH   1  28
TORSDOF 24
ENDMDL
MODEL 3
REMARK VINA RESULT:     -10.6      4.827     10.810
REMARK SMILES CC1(C)NC(=O)N(CCC(=O)N2CCC[C@H]2C(=O)OCCOCCOCCOCCOC(=O)c2ccc(-c3c4nc(c(-c5c(F)c(F)c(F)c(F)c5F)c5ccc([nH]5)c(-c5c(F)c(F)c(F)c(F)c5F)c5nc(c(-c6c(F)c(F)c(F)c(F)c6F)c6ccc3[nH]6)C=C5)C=C4)cc2)C1=O
REMARK SMILES IDX 24 1 23 2 22 3 21 4 20 5 19 6 17 7 18 8 16 9 12 10 13 11
REMARK SMILES IDX 14 12 15 13 10 14 11 15 9 16 8 17 7 18 1 19 2 20 3 21 4 22
REMARK SMILES IDX 97 23 5 24 98 26 6 27 25 28 26 29 27 30 28 31 29 32 30 33
REMARK SMILES IDX 31 34 32 35 33 36 34 37 35 38 96 39 36 40 95 41 37 42 38 43
REMARK SMILES IDX 39 44 89 45 40 46 94 47 88 48 90 49 41 50 93 51 87 52 86 53
REMARK SMILES IDX 42 55 74 56 54 57 73 58 55 59 58 60 72 61 91 62 56 63 57 64
REMARK SMILES IDX 71 66 92 67 59 68 43 69 44 70 52 71 45 72 46 73 50 74 53 75
REMARK SMILES IDX 47 76 48 77 51 78 49 79 75 80 76 81 84 82 77 83 78 84 82 85
REMARK SMILES IDX 85 86 79 87 80 88 83 89 81 90 60 91 61 92 69 93 62 94 63 95
REMARK SMILES IDX 67 96 70 97 64 98 65 99 68 100 66 101
REMARK H PARENT 4 25 90 54 58 65
REMARK Flexibility Score: inf
ROOT
ATOM      1  C   UNL A   1      32.106  32.969  27.347  1.00  0.00     0.188 C 
ENDROOT
BRANCH   1   2
ATOM      2  C   UNL A   1      31.524  31.769  26.620  1.00  0.00     0.188 C 
BRANCH   2   3
ATOM      3  O   UNL A   1      32.079  30.538  27.071  1.00  0.00    -0.376 OA
BRANCH   3   4
ATOM      4  C   UNL A   1      32.939  29.904  26.132  1.00  0.00     0.202 C 
BRANCH   4   5
ATOM      5  C   UNL A   1      32.294  29.480  24.786  1.00  0.00     0.261 C 
BRANCH   5   6
ATOM      6  O   UNL A   1      30.989  28.828  24.673  1.00  0.00    -0.462 OA
BRANCH   6   7
ATOM      7  C   UNL A   1      30.768  27.922  23.706  1.00  0.00     0.328 C 
ATOM      8  O   UNL A   1      30.103  28.168  22.716  1.00  0.00    -0.250 OA
BRANCH   7   9
ATOM      9  C   UNL A   1      31.403  26.547  23.857  1.00  0.00     0.195 C 
ATOM     10  N   UNL A   1      32.779  26.375  23.425  1.00  0.00    -0.329 N 
ATOM     11  C   UNL A   1      33.618  26.271  24.611  1.00  0.00     0.120 C 
ATOM     12  C   UNL A   1      32.740  25.526  25.600  1.00  0.00     0.024 C 
ATOM     13  C   UNL A   1      31.342  26.056  25.308  1.00  0.00     0.039 C 
BRANCH  10  14
ATOM     14  C   UNL A   1      33.193  25.827  22.227  1.00  0.00     0.225 C 
ATOM     15  O   UNL A   1      33.759  26.558  21.398  1.00  0.00    -0.275 OA
BRANCH  14  16
ATOM     16  C   UNL A   1      32.760  24.439  21.727  1.00  0.00     0.122 C 
BRANCH  16  17
ATOM     17  C   UNL A   1      33.171  22.985  22.035  1.00  0.00     0.140 C 
BRANCH  17  18
ATOM     18  N   UNL A   1      33.729  22.515  23.294  1.00  0.00    -0.262 N 
ATOM     19  C   UNL A   1      35.757  23.381  26.094  1.00  0.00     0.045 C 
ATOM     20  C   UNL A   1      35.147  22.291  25.222  1.00  0.00     0.115 C 
ATOM     21  C   UNL A   1      35.969  21.019  25.447  1.00  0.00     0.045 C 
ATOM     22  N   UNL A   1      33.751  22.028  25.478  1.00  0.00    -0.324 N 
ATOM     23  C   UNL A   1      34.987  22.824  23.768  1.00  0.00     0.255 C 
ATOM     24  C   UNL A   1      32.960  22.155  24.357  1.00  0.00     0.325 C 
ATOM     25  H   UNL A   1      33.398  21.784  26.364  1.00  0.00     0.166 HD
ATOM     26  O   UNL A   1      35.823  23.499  23.177  1.00  0.00    -0.272 OA
ATOM     27  O   UNL A   1      31.753  21.980  24.355  1.00  0.00    -0.248 OA
ENDBRANCH  17  18
ENDBRANCH  16  17
ENDBRANCH  14  16
ENDBRANCH  10  14
ENDBRANCH   7   9
ENDBRANCH   6   7
ENDBRANCH   5   6
ENDBRANCH   4   5
ENDBRANCH   3   4
ENDBRANCH   2   3
ENDBRANCH   1   2
BRANCH   1  28
ATOM     28  O   UNL A   1      33.412  32.811  27.846  1.00  0.00    -0.377 OA
BRANCH  28  29
ATOM     29  C   UNL A   1      34.018  33.958  28.410  1.00  0.00     0.188 C 
BRANCH  29  30
ATOM     30  C   UNL A   1      33.184  35.039  29.137  1.00  0.00     0.188 C 
BRANCH  30  31
ATOM     31  O   UNL A   1      33.011  34.949  30.534  1.00  0.00    -0.376 OA
BRANCH  31  32
ATOM     32  C   UNL A   1      33.770  35.621  31.516  1.00  0.00     0.202 C 
BRANCH  32  33
ATOM     33  C   UNL A   1      34.939  35.061  32.338  1.00  0.00     0.261 C 
BRANCH  33  34
ATOM     34  O   UNL A   1      35.742  34.049  31.752  1.00  0.00    -0.460 OA
BRANCH  34  35
ATOM     35  C   UNL A   1      35.873  32.901  32.451  1.00  0.00     0.338 C 
ATOM     36  O   UNL A   1      35.147  32.482  33.336  1.00  0.00    -0.246 OA
BRANCH  35  37
ATOM     37  C   UNL A   1      36.917  32.111  31.765  1.00  0.00     0.060 A 
ATOM     38  C   UNL A   1      37.852  31.425  32.555  1.00  0.00     0.016 A 
ATOM     39  C   UNL A   1      36.867  31.908  30.380  1.00  0.00     0.016 A 
ATOM     40  C   UNL A   1      38.739  30.534  31.965  1.00  0.00     0.010 A 
ATOM     41  C   UNL A   1      37.799  31.062  29.781  1.00  0.00     0.010 A 
ATOM     42  C   UNL A   1      38.756  30.403  30.572  1.00  0.00    -0.014 A 
BRANCH  42  43
ATOM     43  C   UNL A   1      39.988  29.886  29.943  1.00  0.00     0.031 A 
ATOM     44  C   UNL A   1      41.127  30.859  29.820  1.00  0.00     0.074 A 
ATOM     45  C   UNL A   1      40.112  28.612  29.539  1.00  0.00     0.049 A 
ATOM     46  N   UNL A   1      42.312  30.697  29.294  1.00  0.00    -0.248 NA
ATOM     47  C   UNL A   1      40.894  32.207  30.372  1.00  0.00     0.031 C 
ATOM     48  C   UNL A   1      39.089  27.577  29.666  1.00  0.00     0.029 A 
ATOM     49  N   UNL A   1      41.164  27.979  28.930  1.00  0.00    -0.354 N 
ATOM     50  C   UNL A   1      42.955  31.917  29.451  1.00  0.00     0.074 A 
ATOM     51  C   UNL A   1      42.031  32.819  30.094  1.00  0.00     0.031 C 
ATOM     52  C   UNL A   1      39.560  26.436  29.129  1.00  0.00     0.029 A 
ATOM     53  C   UNL A   1      40.902  26.674  28.595  1.00  0.00     0.049 A 
ATOM     54  H   UNL A   1      42.027  28.419  28.751  1.00  0.00     0.167 HD
ATOM     55  C   UNL A   1      44.212  32.255  29.089  1.00  0.00     0.037 A 
ATOM     56  C   UNL A   1      41.658  25.794  27.912  1.00  0.00     0.037 A 
ATOM     57  C   UNL A   1      45.116  31.355  28.431  1.00  0.00     0.049 A 
ATOM     58  C   UNL A   1      43.029  26.220  27.443  1.00  0.00     0.074 A 
ATOM     59  C   UNL A   1      46.415  31.586  28.019  1.00  0.00     0.029 A 
ATOM     60  N   UNL A   1      44.802  30.051  28.074  1.00  0.00    -0.354 N 
ATOM     61  N   UNL A   1      43.646  27.366  27.611  1.00  0.00    -0.248 NA
ATOM     62  C   UNL A   1      43.812  25.228  26.692  1.00  0.00     0.031 C 
ATOM     63  C   UNL A   1      46.865  30.443  27.354  1.00  0.00     0.029 A 
ATOM     64  C   UNL A   1      45.873  29.474  27.417  1.00  0.00     0.049 A 
ATOM     65  H   UNL A   1      43.945  29.604  28.259  1.00  0.00     0.167 HD
ATOM     66  C   UNL A   1      44.895  27.224  27.018  1.00  0.00     0.074 A 
ATOM     67  C   UNL A   1      44.952  25.874  26.496  1.00  0.00     0.031 C 
ATOM     68  C   UNL A   1      45.905  28.123  26.914  1.00  0.00     0.037 A 
BRANCH  55  69
ATOM     69  C   UNL A   1      44.651  33.664  29.353  1.00  0.00     0.064 A 
ATOM     70  C   UNL A   1      44.440  34.694  28.423  1.00  0.00     0.173 A 
ATOM     71  C   UNL A   1      45.292  33.987  30.558  1.00  0.00     0.173 A 
ATOM     72  F   UNL A   1      43.858  34.431  27.243  1.00  0.00    -0.203 F 
ATOM     73  C   UNL A   1      44.874  35.991  28.683  1.00  0.00     0.198 A 
ATOM     74  C   UNL A   1      45.694  35.292  30.827  1.00  0.00     0.198 A 
ATOM     75  F   UNL A   1      45.529  33.037  31.474  1.00  0.00    -0.203 F 
ATOM     76  F   UNL A   1      44.709  36.948  27.758  1.00  0.00    -0.200 F 
ATOM     77  C   UNL A   1      45.491  36.291  29.887  1.00  0.00     0.200 A 
ATOM     78  F   UNL A   1      46.284  35.581  31.996  1.00  0.00    -0.200 F 
ATOM     79  F   UNL A   1      45.900  37.542  30.140  1.00  0.00    -0.200 F 
ENDBRANCH  55  69
BRANCH  56  80
ATOM     80  C   UNL A   1      41.135  24.434  27.610  1.00  0.00     0.064 A 
ATOM     81  C   UNL A   1      41.637  23.298  28.259  1.00  0.00     0.173 A 
ATOM     82  C   UNL A   1      40.135  24.241  26.644  1.00  0.00     0.173 A 
ATOM     83  F   UNL A   1      42.612  23.425  29.171  1.00  0.00    -0.203 F 
ATOM     84  C   UNL A   1      41.174  22.022  27.944  1.00  0.00     0.198 A 
ATOM     85  C   UNL A   1      39.651  22.967  26.351  1.00  0.00     0.198 A 
ATOM     86  F   UNL A   1      39.622  25.291  25.987  1.00  0.00    -0.203 F 
ATOM     87  F   UNL A   1      41.706  20.949  28.545  1.00  0.00    -0.200 F 
ATOM     88  C   UNL A   1      40.176  21.858  26.994  1.00  0.00     0.200 A 
ATOM     89  F   UNL A   1      38.676  22.815  25.443  1.00  0.00    -0.200 F 
ATOM     90  F   UNL A   1      39.727  20.632  26.695  1.00  0.00    -0.200 F 
ENDBRANCH  56  80
BRANCH  68  91
ATOM     91  C   UNL A   1      47.174  27.668  26.252  1.00  0.00     0.064 A 
ATOM     92  C   UNL A   1      48.197  27.033  26.970  1.00  0.00     0.173 A 
ATOM     93  C   UNL A   1      47.338  27.815  24.865  1.00  0.00     0.173 A 
ATOM     94  F   UNL A   1      48.093  26.874  28.298  1.00  0.00    -0.203 F 
ATOM     95  C   UNL A   1      49.351  26.588  26.328  1.00  0.00     0.198 A 
ATOM     96  C   UNL A   1      48.475  27.337  24.223  1.00  0.00     0.198 A 
ATOM     97  F   UNL A   1      46.382  28.403  24.129  1.00  0.00    -0.203 F 
ATOM     98  F   UNL A   1      50.338  26.031  27.042  1.00  0.00    -0.200 F 
ATOM     99  C   UNL A   1      49.485  26.733  24.955  1.00  0.00     0.200 A 
ATOM    100  F   UNL A   1      48.593  27.459  22.893  1.00  0.00    -0.200 F 
ATOM    101  F   UNL A   1      50.591  26.294  24.339  1.00  0.00    -0.200 F 
ENDBRANCH  68  91
ENDBRANCH  42  43
ENDBRANCH  35  37
ENDBRANCH  34  35
ENDBRANCH  33  34
ENDBRANCH  32  33
ENDBRANCH  31  32
ENDBRANCH  30  31
ENDBRANCH  29  30
ENDBRANCH  28  29
ENDBRANCH   1  28
TORSDOF 24
ENDMDL
