MODEL 1
REMARK VINA RESULT:      -9.8      0.000      0.000
REMARK SMILES Cc1nc(CN(CC(=O)OCCOCCOCCOCCOC(=O)c2ccc(-c3c4nc(c(-c5c(F)c(F)c(F)c(F)c5F)c5ccc([nH]5)c(-c5c(F)c(F)c(F)c(F)c5F)c5nc(c(-c6c(F)c(F)c(F)c(F)c6F)c6ccc3[nH]6)C=C5)C=C4)cc2)c2cccc(Cl)c2)sc1C
REMARK SMILES IDX 15 1 14 2 13 3 12 4 11 5 10 6 8 7 9 8 7 9 6 10 5 11 4 12
REMARK SMILES IDX 1 13 2 14 3 15 96 16 95 17 97 18 88 19 89 20 94 21 90 22
REMARK SMILES IDX 92 23 91 24 93 25 16 26 17 27 18 28 19 29 20 30 21 31 22 32
REMARK SMILES IDX 23 33 24 34 25 35 26 36 87 37 27 38 86 39 28 40 29 41 30 42
REMARK SMILES IDX 80 43 31 44 85 45 79 46 81 47 32 48 84 49 78 50 77 51 33 53
REMARK SMILES IDX 65 54 45 55 64 56 46 57 49 58 63 59 82 60 47 61 48 62 62 64
REMARK SMILES IDX 83 65 50 66 34 67 35 68 43 69 36 70 37 71 41 72 44 73 38 74
REMARK SMILES IDX 39 75 42 76 40 77 66 78 67 79 75 80 68 81 69 82 73 83 76 84
REMARK SMILES IDX 70 85 71 86 74 87 72 88 51 89 52 90 60 91 53 92 54 93 58 94
REMARK SMILES IDX 61 95 55 96 56 97 59 98 57 99
REMARK H PARENT 81 52 49 63
REMARK Flexibility Score: inf
ROOT
ATOM      1  C   UNL A   1      38.535  21.885  26.022  1.00  0.00     0.188 C 
ENDROOT
BRANCH   1   2
ATOM      2  C   UNL A   1      37.526  22.886  25.415  1.00  0.00     0.188 C 
BRANCH   2   3
ATOM      3  O   UNL A   1      36.560  23.318  26.355  1.00  0.00    -0.376 OA
BRANCH   3   4
ATOM      4  C   UNL A   1      35.406  23.988  25.884  1.00  0.00     0.202 C 
BRANCH   4   5
ATOM      5  C   UNL A   1      35.217  24.257  24.378  1.00  0.00     0.261 C 
BRANCH   5   6
ATOM      6  O   UNL A   1      34.087  25.068  23.976  1.00  0.00    -0.462 OA
BRANCH   6   7
ATOM      7  C   UNL A   1      33.702  25.056  22.676  1.00  0.00     0.325 C 
ATOM      8  O   UNL A   1      33.999  25.947  21.886  1.00  0.00    -0.250 OA
BRANCH   7   9
ATOM      9  C   UNL A   1      32.822  23.847  22.283  1.00  0.00     0.239 C 
BRANCH   9  10
ATOM     10  N   UNL A   1      32.039  23.175  23.365  1.00  0.00    -0.354 N 
BRANCH  10  11
ATOM     11  C   UNL A   1      30.652  23.708  23.551  1.00  0.00     0.184 C 
BRANCH  11  12
ATOM     12  C   UNL A   1      30.562  25.066  24.233  1.00  0.00     0.112 A 
ATOM     13  C   UNL A   1      31.899  27.079  26.880  1.00  0.00     0.068 C 
ATOM     14  C   UNL A   1      31.239  26.654  25.618  1.00  0.00     0.051 A 
ATOM     15  N   UNL A   1      30.953  25.307  25.469  1.00  0.00    -0.244 NA
ATOM     16  C   UNL A   1      30.945  27.438  24.513  1.00  0.00     0.025 A 
ATOM     17  S   UNL A   1      30.162  26.478  23.323  1.00  0.00    -0.122 S 
ATOM     18  C   UNL A   1      31.243  28.875  24.270  1.00  0.00     0.058 C 
ENDBRANCH  11  12
ENDBRANCH  10  11
BRANCH  10  19
ATOM     19  C   UNL A   1      32.355  21.893  23.841  1.00  0.00     0.039 A 
ATOM     20  C   UNL A   1      32.680  21.640  25.187  1.00  0.00     0.026 A 
ATOM     21  C   UNL A   1      32.268  20.735  23.033  1.00  0.00     0.046 A 
ATOM     22  C   UNL A   1      32.878  20.338  25.687  1.00  0.00     0.004 A 
ATOM     23  C   UNL A   1      32.525  19.443  23.508  1.00  0.00     0.043 A 
ATOM     24  C   UNL A   1      32.812  19.236  24.843  1.00  0.00     0.020 A 
ATOM     25  Cl  UNL A   1      32.456  18.105  22.424  1.00  0.00    -0.084 Cl
ENDBRANCH  10  19
ENDBRANCH   9  10
ENDBRANCH   7   9
ENDBRANCH   6   7
ENDBRANCH   5   6
ENDBRANCH   4   5
ENDBRANCH   3   4
ENDBRANCH   2   3
ENDBRANCH   1   2
BRANCH   1  26
ATOM     26  O   UNL A   1      39.912  22.205  26.128  1.00  0.00    -0.377 OA
BRANCH  26  27
ATOM     27  C   UNL A   1      40.631  21.538  27.131  1.00  0.00     0.188 C 
BRANCH  27  28
ATOM     28  C   UNL A   1      41.629  20.519  26.566  1.00  0.00     0.188 C 
BRANCH  28  29
ATOM     29  O   UNL A   1      42.443  20.825  25.449  1.00  0.00    -0.376 OA
BRANCH  29  30
ATOM     30  C   UNL A   1      43.350  21.917  25.391  1.00  0.00     0.202 C 
BRANCH  30  31
ATOM     31  C   UNL A   1      43.051  23.373  24.991  1.00  0.00     0.261 C 
BRANCH  31  32
ATOM     32  O   UNL A   1      44.130  24.295  24.985  1.00  0.00    -0.460 OA
BRANCH  32  33
ATOM     33  C   UNL A   1      44.855  24.346  26.117  1.00  0.00     0.338 C 
ATOM     34  O   UNL A   1      45.998  23.959  26.299  1.00  0.00    -0.246 OA
BRANCH  33  35
ATOM     35  C   UNL A   1      44.092  25.160  27.071  1.00  0.00     0.060 A 
ATOM     36  C   UNL A   1      44.378  26.529  27.135  1.00  0.00     0.016 A 
ATOM     37  C   UNL A   1      43.081  24.594  27.853  1.00  0.00     0.016 A 
ATOM     38  C   UNL A   1      43.645  27.347  27.979  1.00  0.00     0.010 A 
ATOM     39  C   UNL A   1      42.383  25.404  28.744  1.00  0.00     0.010 A 
ATOM     40  C   UNL A   1      42.686  26.774  28.822  1.00  0.00    -0.014 A 
BRANCH  40  41
ATOM     41  C   UNL A   1      42.214  27.577  29.962  1.00  0.00     0.031 A 
ATOM     42  C   UNL A   1      40.946  28.351  29.777  1.00  0.00     0.074 A 
ATOM     43  C   UNL A   1      42.863  27.558  31.135  1.00  0.00     0.049 A 
ATOM     44  N   UNL A   1      40.305  29.113  30.622  1.00  0.00    -0.248 NA
ATOM     45  C   UNL A   1      40.312  28.247  28.452  1.00  0.00     0.031 C 
ATOM     46  C   UNL A   1      44.075  26.794  31.416  1.00  0.00     0.029 A 
ATOM     47  N   UNL A   1      42.586  28.208  32.307  1.00  0.00    -0.354 N 
ATOM     48  C   UNL A   1      39.195  29.580  29.929  1.00  0.00     0.074 A 
ATOM     49  C   UNL A   1      39.267  29.045  28.589  1.00  0.00     0.031 C 
ATOM     50  C   UNL A   1      44.454  27.036  32.682  1.00  0.00     0.029 A 
ATOM     51  C   UNL A   1      43.524  27.991  33.283  1.00  0.00     0.049 A 
ATOM     52  H   UNL A   1      41.791  28.773  32.437  1.00  0.00     0.167 HD
ATOM     53  C   UNL A   1      38.205  30.380  30.381  1.00  0.00     0.037 A 
ATOM     54  C   UNL A   1      43.622  28.534  34.511  1.00  0.00     0.037 A 
ATOM     55  C   UNL A   1      38.171  30.922  31.713  1.00  0.00     0.049 A 
ATOM     56  C   UNL A   1      42.550  29.486  34.972  1.00  0.00     0.074 A 
ATOM     57  C   UNL A   1      37.216  31.736  32.290  1.00  0.00     0.029 A 
ATOM     58  N   UNL A   1      39.158  30.717  32.669  1.00  0.00    -0.354 N 
ATOM     59  N   UNL A   1      41.482  29.902  34.332  1.00  0.00    -0.248 NA
ATOM     60  C   UNL A   1      42.690  30.036  36.325  1.00  0.00     0.031 C 
ATOM     61  C   UNL A   1      37.662  32.082  33.571  1.00  0.00     0.029 A 
ATOM     62  C   UNL A   1      38.856  31.422  33.822  1.00  0.00     0.049 A 
ATOM     63  H   UNL A   1      39.954  30.152  32.545  1.00  0.00     0.167 HD
ATOM     64  C   UNL A   1      40.811  30.746  35.208  1.00  0.00     0.074 A 
ATOM     65  C   UNL A   1      41.589  30.768  36.432  1.00  0.00     0.031 C 
ATOM     66  C   UNL A   1      39.657  31.434  35.022  1.00  0.00     0.037 A 
BRANCH  53  67
ATOM     67  C   UNL A   1      37.134  30.760  29.399  1.00  0.00     0.064 A 
ATOM     68  C   UNL A   1      37.058  32.045  28.836  1.00  0.00     0.173 A 
ATOM     69  C   UNL A   1      36.138  29.835  29.050  1.00  0.00     0.173 A 
ATOM     70  F   UNL A   1      37.970  32.977  29.154  1.00  0.00    -0.203 F 
ATOM     71  C   UNL A   1      36.001  32.402  28.002  1.00  0.00     0.198 A 
ATOM     72  C   UNL A   1      35.105  30.184  28.185  1.00  0.00     0.198 A 
ATOM     73  F   UNL A   1      36.159  28.594  29.560  1.00  0.00    -0.203 F 
ATOM     74  F   UNL A   1      35.907  33.657  27.541  1.00  0.00    -0.200 F 
ATOM     75  C   UNL A   1      35.029  31.470  27.674  1.00  0.00     0.200 A 
ATOM     76  F   UNL A   1      34.171  29.278  27.862  1.00  0.00    -0.200 F 
ATOM     77  F   UNL A   1      34.008  31.816  26.878  1.00  0.00    -0.200 F 
ENDBRANCH  53  67
BRANCH  54  78
ATOM     78  C   UNL A   1      44.789  28.194  35.364  1.00  0.00     0.064 A 
ATOM     79  C   UNL A   1      44.756  27.107  36.247  1.00  0.00     0.173 A 
ATOM     80  C   UNL A   1      45.981  28.931  35.280  1.00  0.00     0.173 A 
ATOM     81  F   UNL A   1      43.635  26.384  36.378  1.00  0.00    -0.203 F 
ATOM     82  C   UNL A   1      45.871  26.771  37.015  1.00  0.00     0.198 A 
ATOM     83  C   UNL A   1      47.102  28.577  36.027  1.00  0.00     0.198 A 
ATOM     84  F   UNL A   1      46.065  29.980  34.448  1.00  0.00    -0.203 F 
ATOM     85  F   UNL A   1      45.806  25.743  37.872  1.00  0.00    -0.200 F 
ATOM     86  C   UNL A   1      47.045  27.500  36.898  1.00  0.00     0.200 A 
ATOM     87  F   UNL A   1      48.240  29.275  35.895  1.00  0.00    -0.200 F 
ATOM     88  F   UNL A   1      48.121  27.165  37.621  1.00  0.00    -0.200 F 
ENDBRANCH  54  78
BRANCH  66  89
ATOM     89  C   UNL A   1      39.151  32.253  36.176  1.00  0.00     0.064 A 
ATOM     90  C   UNL A   1      38.260  31.725  37.122  1.00  0.00     0.173 A 
ATOM     91  C   UNL A   1      39.608  33.567  36.366  1.00  0.00     0.173 A 
ATOM     92  F   UNL A   1      37.783  30.479  36.981  1.00  0.00    -0.203 F 
ATOM     93  C   UNL A   1      37.825  32.492  38.200  1.00  0.00     0.198 A 
ATOM     94  C   UNL A   1      39.200  34.317  37.465  1.00  0.00     0.198 A 
ATOM     95  F   UNL A   1      40.469  34.116  35.496  1.00  0.00    -0.203 F 
ATOM     96  F   UNL A   1      36.934  31.985  39.064  1.00  0.00    -0.200 F 
ATOM     97  C   UNL A   1      38.302  33.783  38.376  1.00  0.00     0.200 A 
ATOM     98  F   UNL A   1      39.677  35.556  37.642  1.00  0.00    -0.200 F 
ATOM     99  F   UNL A   1      37.892  34.514  39.421  1.00  0.00    -0.200 F 
ENDBRANCH  66  89
ENDBRANCH  40  41
ENDBRANCH  33  35
ENDBRANCH  32  33
ENDBRANCH  31  32
ENDBRANCH  30  31
ENDBRANCH  29  30
ENDBRANCH  28  29
ENDBRANCH  27  28
ENDBRANCH  26  27
ENDBRANCH   1  26
TORSDOF 24
ENDMDL
MODEL 2
REMARK VINA RESULT:      -8.7     11.808     16.419
REMARK SMILES Cc1nc(CN(CC(=O)OCCOCCOCCOCCOC(=O)c2ccc(-c3c4nc(c(-c5c(F)c(F)c(F)c(F)c5F)c5ccc([nH]5)c(-c5c(F)c(F)c(F)c(F)c5F)c5nc(c(-c6c(F)c(F)c(F)c(F)c6F)c6ccc3[nH]6)C=C5)C=C4)cc2)c2cccc(Cl)c2)sc1C
REMARK SMILES IDX 15 1 14 2 13 3 12 4 11 5 10 6 8 7 9 8 7 9 6 10 5 11 4 12
REMARK SMILES IDX 1 13 2 14 3 15 96 16 95 17 97 18 88 19 89 20 94 21 90 22
REMARK SMILES IDX 92 23 91 24 93 25 16 26 17 27 18 28 19 29 20 30 21 31 22 32
REMARK SMILES IDX 23 33 24 34 25 35 26 36 87 37 27 38 86 39 28 40 29 41 30 42
REMARK SMILES IDX 80 43 31 44 85 45 79 46 81 47 32 48 84 49 78 50 77 51 33 53
REMARK SMILES IDX 65 54 45 55 64 56 46 57 49 58 63 59 82 60 47 61 48 62 62 64
REMARK SMILES IDX 83 65 50 66 34 67 35 68 43 69 36 70 37 71 41 72 44 73 38 74
REMARK SMILES IDX 39 75 42 76 40 77 66 78 67 79 75 80 68 81 69 82 73 83 76 84
REMARK SMILES IDX 70 85 71 86 74 87 72 88 51 89 52 90 60 91 53 92 54 93 58 94
REMARK SMILES IDX 61 95 55 96 56 97 59 98 57 99
REMARK H PARENT 81 52 49 63
REMARK Flexibility Score: inf
ROOT
ATOM      1  C   UNL A   1      46.316  42.758  25.092  1.00  0.00     0.188 C 
ENDROOT
BRANCH   1   2
ATOM      2  C   UNL A   1      45.309  43.471  24.161  1.00  0.00     0.188 C 
BRANCH   2   3
ATOM      3  O   UNL A   1      45.948  44.274  23.186  1.00  0.00    -0.376 OA
BRANCH   3   4
ATOM      4  C   UNL A   1      46.112  43.755  21.880  1.00  0.00     0.202 C 
BRANCH   4   5
ATOM      5  C   UNL A   1      44.924  43.110  21.138  1.00  0.00     0.261 C 
BRANCH   5   6
ATOM      6  O   UNL A   1      43.755  43.930  20.899  1.00  0.00    -0.462 OA
BRANCH   6   7
ATOM      7  C   UNL A   1      43.253  44.004  19.641  1.00  0.00     0.325 C 
ATOM      8  O   UNL A   1      42.050  43.971  19.403  1.00  0.00    -0.250 OA
BRANCH   7   9
ATOM      9  C   UNL A   1      44.327  44.090  18.532  1.00  0.00     0.239 C 
BRANCH   9  10
ATOM     10  N   UNL A   1      44.837  45.445  18.161  1.00  0.00    -0.354 N 
BRANCH  10  11
ATOM     11  C   UNL A   1      46.267  45.472  17.719  1.00  0.00     0.184 C 
BRANCH  11  12
ATOM     12  C   UNL A   1      47.296  45.351  18.834  1.00  0.00     0.112 A 
ATOM     13  C   UNL A   1      50.412  43.838  19.755  1.00  0.00     0.068 C 
ATOM     14  C   UNL A   1      49.247  44.759  19.694  1.00  0.00     0.051 A 
ATOM     15  N   UNL A   1      48.148  44.352  18.956  1.00  0.00    -0.244 NA
ATOM     16  C   UNL A   1      49.153  46.037  20.223  1.00  0.00     0.025 A 
ATOM     17  S   UNL A   1      47.592  46.677  19.900  1.00  0.00    -0.122 S 
ATOM     18  C   UNL A   1      50.182  46.841  20.939  1.00  0.00     0.058 C 
ENDBRANCH  11  12
ENDBRANCH  10  11
BRANCH  10  19
ATOM     19  C   UNL A   1      43.983  46.500  17.800  1.00  0.00     0.039 A 
ATOM     20  C   UNL A   1      42.947  46.353  16.860  1.00  0.00     0.026 A 
ATOM     21  C   UNL A   1      44.024  47.765  18.432  1.00  0.00     0.046 A 
ATOM     22  C   UNL A   1      42.018  47.376  16.589  1.00  0.00     0.004 A 
ATOM     23  C   UNL A   1      43.143  48.809  18.123  1.00  0.00     0.043 A 
ATOM     24  C   UNL A   1      42.122  48.613  17.214  1.00  0.00     0.020 A 
ATOM     25  Cl  UNL A   1      43.320  50.335  18.904  1.00  0.00    -0.084 Cl
ENDBRANCH  10  19
ENDBRANCH   9  10
ENDBRANCH   7   9
ENDBRANCH   6   7
ENDBRANCH   5   6
ENDBRANCH   4   5
ENDBRANCH   3   4
ENDBRANCH   2   3
ENDBRANCH   1   2
BRANCH   1  26
ATOM     26  O   UNL A   1      45.999  41.517  25.701  1.00  0.00    -0.377 OA
BRANCH  26  27
ATOM     27  C   UNL A   1      44.678  41.070  25.553  1.00  0.00     0.188 C 
BRANCH  27  28
ATOM     28  C   UNL A   1      44.179  40.285  26.773  1.00  0.00     0.188 C 
BRANCH  28  29
ATOM     29  O   UNL A   1      44.386  40.759  28.090  1.00  0.00    -0.376 OA
BRANCH  29  30
ATOM     30  C   UNL A   1      44.038  40.043  29.267  1.00  0.00     0.202 C 
BRANCH  30  31
ATOM     31  C   UNL A   1      43.612  38.569  29.384  1.00  0.00     0.261 C 
BRANCH  31  32
ATOM     32  O   UNL A   1      44.277  37.759  30.341  1.00  0.00    -0.460 OA
BRANCH  32  33
ATOM     33  C   UNL A   1      45.486  37.299  29.971  1.00  0.00     0.338 C 
ATOM     34  O   UNL A   1      46.569  37.851  30.080  1.00  0.00    -0.246 OA
BRANCH  33  35
ATOM     35  C   UNL A   1      45.306  35.892  29.594  1.00  0.00     0.060 A 
ATOM     36  C   UNL A   1      44.488  35.611  28.493  1.00  0.00     0.016 A 
ATOM     37  C   UNL A   1      45.968  34.872  30.284  1.00  0.00     0.016 A 
ATOM     38  C   UNL A   1      44.335  34.302  28.065  1.00  0.00     0.010 A 
ATOM     39  C   UNL A   1      45.769  33.552  29.892  1.00  0.00     0.010 A 
ATOM     40  C   UNL A   1      44.931  33.270  28.799  1.00  0.00    -0.014 A 
BRANCH  40  41
ATOM     41  C   UNL A   1      44.442  31.901  28.570  1.00  0.00     0.031 A 
ATOM     42  C   UNL A   1      43.111  31.541  29.157  1.00  0.00     0.074 A 
ATOM     43  C   UNL A   1      45.133  31.039  27.811  1.00  0.00     0.049 A 
ATOM     44  N   UNL A   1      42.446  30.420  29.086  1.00  0.00    -0.248 NA
ATOM     45  C   UNL A   1      42.439  32.598  29.932  1.00  0.00     0.031 C 
ATOM     46  C   UNL A   1      46.409  31.323  27.161  1.00  0.00     0.029 A 
ATOM     47  N   UNL A   1      44.850  29.745  27.464  1.00  0.00    -0.354 N 
ATOM     48  C   UNL A   1      41.279  30.637  29.806  1.00  0.00     0.074 A 
ATOM     49  C   UNL A   1      41.342  31.980  30.334  1.00  0.00     0.031 C 
ATOM     50  C   UNL A   1      46.814  30.221  26.507  1.00  0.00     0.029 A 
ATOM     51  C   UNL A   1      45.837  29.154  26.719  1.00  0.00     0.049 A 
ATOM     52  H   UNL A   1      44.019  29.285  27.724  1.00  0.00     0.167 HD
ATOM     53  C   UNL A   1      40.247  29.786  30.002  1.00  0.00     0.037 A 
ATOM     54  C   UNL A   1      45.939  27.883  26.287  1.00  0.00     0.037 A 
ATOM     55  C   UNL A   1      40.222  28.444  29.488  1.00  0.00     0.049 A 
ATOM     56  C   UNL A   1      44.815  26.925  26.580  1.00  0.00     0.074 A 
ATOM     57  C   UNL A   1      39.229  27.490  29.611  1.00  0.00     0.029 A 
ATOM     58  N   UNL A   1      41.256  27.858  28.768  1.00  0.00    -0.354 N 
ATOM     59  N   UNL A   1      43.696  27.137  27.232  1.00  0.00    -0.248 NA
ATOM     60  C   UNL A   1      44.962  25.556  26.072  1.00  0.00     0.031 C 
ATOM     61  C   UNL A   1      39.694  26.306  29.027  1.00  0.00     0.029 A 
ATOM     62  C   UNL A   1      40.944  26.542  28.473  1.00  0.00     0.049 A 
ATOM     63  H   UNL A   1      42.088  28.314  28.506  1.00  0.00     0.167 HD
ATOM     64  C   UNL A   1      42.995  25.938  27.196  1.00  0.00     0.074 A 
ATOM     65  C   UNL A   1      43.813  25.008  26.443  1.00  0.00     0.031 C 
ATOM     66  C   UNL A   1      41.785  25.635  27.731  1.00  0.00     0.037 A 
BRANCH  53  67
ATOM     67  C   UNL A   1      39.115  30.273  30.860  1.00  0.00     0.064 A 
ATOM     68  C   UNL A   1      39.077  30.046  32.246  1.00  0.00     0.173 A 
ATOM     69  C   UNL A   1      38.027  30.940  30.277  1.00  0.00     0.173 A 
ATOM     70  F   UNL A   1      40.080  29.392  32.851  1.00  0.00    -0.203 F 
ATOM     71  C   UNL A   1      37.971  30.424  33.004  1.00  0.00     0.198 A 
ATOM     72  C   UNL A   1      36.941  31.351  31.045  1.00  0.00     0.198 A 
ATOM     73  F   UNL A   1      38.009  31.182  28.957  1.00  0.00    -0.203 F 
ATOM     74  F   UNL A   1      37.922  30.125  34.310  1.00  0.00    -0.200 F 
ATOM     75  C   UNL A   1      36.907  31.080  32.404  1.00  0.00     0.200 A 
ATOM     76  F   UNL A   1      35.918  31.993  30.464  1.00  0.00    -0.200 F 
ATOM     77  F   UNL A   1      35.840  31.436  33.133  1.00  0.00    -0.200 F 
ENDBRANCH  53  67
BRANCH  54  78
ATOM     78  C   UNL A   1      47.159  27.461  25.554  1.00  0.00     0.064 A 
ATOM     79  C   UNL A   1      47.283  27.652  24.171  1.00  0.00     0.173 A 
ATOM     80  C   UNL A   1      48.247  26.892  26.234  1.00  0.00     0.173 A 
ATOM     81  F   UNL A   1      46.265  28.174  23.473  1.00  0.00    -0.203 F 
ATOM     82  C   UNL A   1      48.449  27.289  23.498  1.00  0.00     0.198 A 
ATOM     83  C   UNL A   1      49.420  26.555  25.564  1.00  0.00     0.198 A 
ATOM     84  F   UNL A   1      48.180  26.690  27.559  1.00  0.00    -0.203 F 
ATOM     85  F   UNL A   1      48.533  27.457  22.171  1.00  0.00    -0.200 F 
ATOM     86  C   UNL A   1      49.520  26.750  24.196  1.00  0.00     0.200 A 
ATOM     87  F   UNL A   1      50.459  26.051  26.248  1.00  0.00    -0.200 F 
ATOM     88  F   UNL A   1      50.646  26.420  23.551  1.00  0.00    -0.200 F 
ENDBRANCH  54  78
BRANCH  66  89
ATOM     89  C   UNL A   1      41.261  24.245  27.501  1.00  0.00     0.064 A 
ATOM     90  C   UNL A   1      40.191  23.994  26.629  1.00  0.00     0.173 A 
ATOM     91  C   UNL A   1      41.875  23.146  28.122  1.00  0.00     0.173 A 
ATOM     92  F   UNL A   1      39.562  25.010  26.019  1.00  0.00    -0.203 F 
ATOM     93  C   UNL A   1      39.739  22.695  26.408  1.00  0.00     0.198 A 
ATOM     94  C   UNL A   1      41.443  21.847  27.871  1.00  0.00     0.198 A 
ATOM     95  F   UNL A   1      42.908  23.330  28.957  1.00  0.00    -0.203 F 
ATOM     96  F   UNL A   1      38.683  22.482  25.611  1.00  0.00    -0.200 F 
ATOM     97  C   UNL A   1      40.371  21.623  27.022  1.00  0.00     0.200 A 
ATOM     98  F   UNL A   1      42.068  20.812  28.449  1.00  0.00    -0.200 F 
ATOM     99  F   UNL A   1      39.942  20.374  26.798  1.00  0.00    -0.200 F 
ENDBRANCH  66  89
ENDBRANCH  40  41
ENDBRANCH  33  35
ENDBRANCH  32  33
ENDBRANCH  31  32
ENDBRANCH  30  31
ENDBRANCH  29  30
ENDBRANCH  28  29
ENDBRANCH  27  28
ENDBRANCH  26  27
ENDBRANCH   1  26
TORSDOF 24
ENDMDL
MODEL 3
REMARK VINA RESULT:      -8.5      6.944     11.354
REMARK SMILES Cc1nc(CN(CC(=O)OCCOCCOCCOCCOC(=O)c2ccc(-c3c4nc(c(-c5c(F)c(F)c(F)c(F)c5F)c5ccc([nH]5)c(-c5c(F)c(F)c(F)c(F)c5F)c5nc(c(-c6c(F)c(F)c(F)c(F)c6F)c6ccc3[nH]6)C=C5)C=C4)cc2)c2cccc(Cl)c2)sc1C
REMARK SMILES IDX 15 1 14 2 13 3 12 4 11 5 10 6 8 7 9 8 7 9 6 10 5 11 4 12
REMARK SMILES IDX 1 13 2 14 3 15 96 16 95 17 97 18 88 19 89 20 94 21 90 22
REMARK SMILES IDX 92 23 91 24 93 25 16 26 17 27 18 28 19 29 20 30 21 31 22 32
REMARK SMILES IDX 23 33 24 34 25 35 26 36 87 37 27 38 86 39 28 40 29 41 30 42
REMARK SMILES IDX 80 43 31 44 85 45 79 46 81 47 32 48 84 49 78 50 77 51 33 53
REMARK SMILES IDX 65 54 45 55 64 56 46 57 49 58 63 59 82 60 47 61 48 62 62 64
REMARK SMILES IDX 83 65 50 66 34 67 35 68 43 69 36 70 37 71 41 72 44 73 38 74
REMARK SMILES IDX 39 75 42 76 40 77 66 78 67 79 75 80 68 81 69 82 73 83 76 84
REMARK SMILES IDX 70 85 71 86 74 87 72 88 51 89 52 90 60 91 53 92 54 93 58 94
REMARK SMILES IDX 61 95 55 96 56 97 59 98 57 99
REMARK H PARENT 81 52 49 63
REMARK Flexibility Score: inf
ROOT
ATOM      1  C   UNL A   1      37.146  33.766  29.329  1.00  0.00     0.188 C 
ENDROOT
BRANCH   1   2
ATOM      2  C   UNL A   1      35.728  33.891  29.931  1.00  0.00     0.188 C 
BRANCH   2   3
ATOM      3  O   UNL A   1      34.833  32.924  29.412  1.00  0.00    -0.376 OA
BRANCH   3   4
ATOM      4  C   UNL A   1      34.852  32.659  28.022  1.00  0.00     0.202 C 
BRANCH   4   5
ATOM      5  C   UNL A   1      34.832  31.208  27.501  1.00  0.00     0.261 C 
BRANCH   5   6
ATOM      6  O   UNL A   1      33.852  30.304  28.064  1.00  0.00    -0.462 OA
BRANCH   6   7
ATOM      7  C   UNL A   1      32.983  29.679  27.231  1.00  0.00     0.325 C 
ATOM      8  O   UNL A   1      31.766  29.748  27.366  1.00  0.00    -0.250 OA
BRANCH   7   9
ATOM      9  C   UNL A   1      33.657  28.836  26.124  1.00  0.00     0.239 C 
BRANCH   9  10
ATOM     10  N   UNL A   1      32.806  27.861  25.376  1.00  0.00    -0.354 N 
BRANCH  10  11
ATOM     11  C   UNL A   1      32.483  28.266  23.972  1.00  0.00     0.184 C 
BRANCH  11  12
ATOM     12  C   UNL A   1      31.082  28.824  23.760  1.00  0.00     0.112 A 
ATOM     13  C   UNL A   1      29.070  31.781  24.000  1.00  0.00     0.068 C 
ATOM     14  C   UNL A   1      29.581  30.443  23.603  1.00  0.00     0.051 A 
ATOM     15  N   UNL A   1      30.613  29.904  24.354  1.00  0.00    -0.244 NA
ATOM     16  C   UNL A   1      29.205  29.688  22.503  1.00  0.00     0.025 A 
ATOM     17  S   UNL A   1      30.075  28.206  22.502  1.00  0.00    -0.122 S 
ATOM     18  C   UNL A   1      28.246  30.019  21.415  1.00  0.00     0.058 C 
ENDBRANCH  11  12
ENDBRANCH  10  11
BRANCH  10  19
ATOM     19  C   UNL A   1      32.704  26.510  25.746  1.00  0.00     0.039 A 
ATOM     20  C   UNL A   1      31.472  25.887  26.015  1.00  0.00     0.026 A 
ATOM     21  C   UNL A   1      33.818  25.639  25.772  1.00  0.00     0.046 A 
ATOM     22  C   UNL A   1      31.361  24.505  26.267  1.00  0.00     0.004 A 
ATOM     23  C   UNL A   1      33.724  24.277  26.083  1.00  0.00     0.043 A 
ATOM     24  C   UNL A   1      32.491  23.699  26.313  1.00  0.00     0.020 A 
ATOM     25  Cl  UNL A   1      35.153  23.315  26.151  1.00  0.00    -0.084 Cl
ENDBRANCH  10  19
ENDBRANCH   9  10
ENDBRANCH   7   9
ENDBRANCH   6   7
ENDBRANCH   5   6
ENDBRANCH   4   5
ENDBRANCH   3   4
ENDBRANCH   2   3
ENDBRANCH   1   2
BRANCH   1  26
ATOM     26  O   UNL A   1      38.274  33.528  30.155  1.00  0.00    -0.377 OA
BRANCH  26  27
ATOM     27  C   UNL A   1      38.458  34.414  31.228  1.00  0.00     0.188 C 
BRANCH  27  28
ATOM     28  C   UNL A   1      38.371  33.717  32.592  1.00  0.00     0.188 C 
BRANCH  28  29
ATOM     29  O   UNL A   1      37.124  33.365  33.162  1.00  0.00    -0.376 OA
BRANCH  29  30
ATOM     30  C   UNL A   1      36.725  32.036  33.467  1.00  0.00     0.202 C 
BRANCH  30  31
ATOM     31  C   UNL A   1      36.247  30.946  32.492  1.00  0.00     0.261 C 
BRANCH  31  32
ATOM     32  O   UNL A   1      37.163  30.480  31.514  1.00  0.00    -0.460 OA
BRANCH  32  33
ATOM     33  C   UNL A   1      38.116  29.645  31.965  1.00  0.00     0.338 C 
ATOM     34  O   UNL A   1      37.977  28.627  32.624  1.00  0.00    -0.246 OA
BRANCH  33  35
ATOM     35  C   UNL A   1      39.375  30.060  31.334  1.00  0.00     0.060 A 
ATOM     36  C   UNL A   1      40.480  30.280  32.165  1.00  0.00     0.016 A 
ATOM     37  C   UNL A   1      39.477  30.183  29.945  1.00  0.00     0.016 A 
ATOM     38  C   UNL A   1      41.703  30.617  31.609  1.00  0.00     0.010 A 
ATOM     39  C   UNL A   1      40.690  30.577  29.389  1.00  0.00     0.010 A 
ATOM     40  C   UNL A   1      41.793  30.818  30.227  1.00  0.00    -0.014 A 
BRANCH  40  41
ATOM     41  C   UNL A   1      42.968  31.544  29.719  1.00  0.00     0.031 A 
ATOM     42  C   UNL A   1      44.156  30.728  29.312  1.00  0.00     0.074 A 
ATOM     43  C   UNL A   1      42.944  32.876  29.569  1.00  0.00     0.049 A 
ATOM     44  N   UNL A   1      45.300  31.113  28.816  1.00  0.00    -0.248 NA
ATOM     45  C   UNL A   1      44.030  29.271  29.489  1.00  0.00     0.031 C 
ATOM     46  C   UNL A   1      41.814  33.742  29.893  1.00  0.00     0.029 A 
ATOM     47  N   UNL A   1      43.910  33.729  29.104  1.00  0.00    -0.354 N 
ATOM     48  C   UNL A   1      46.030  29.947  28.623  1.00  0.00     0.074 A 
ATOM     49  C   UNL A   1      45.216  28.847  29.086  1.00  0.00     0.031 C 
ATOM     50  C   UNL A   1      42.158  35.015  29.636  1.00  0.00     0.029 A 
ATOM     51  C   UNL A   1      43.540  35.048  29.158  1.00  0.00     0.049 A 
ATOM     52  H   UNL A   1      44.782  33.425  28.765  1.00  0.00     0.167 HD
ATOM     53  C   UNL A   1      47.269  29.814  28.100  1.00  0.00     0.037 A 
ATOM     54  C   UNL A   1      44.259  36.151  28.875  1.00  0.00     0.037 A 
ATOM     55  C   UNL A   1      48.070  30.928  27.672  1.00  0.00     0.049 A 
ATOM     56  C   UNL A   1      45.666  35.988  28.367  1.00  0.00     0.074 A 
ATOM     57  C   UNL A   1      49.336  30.920  27.117  1.00  0.00     0.029 A 
ATOM     58  N   UNL A   1      47.684  32.259  27.775  1.00  0.00    -0.354 N 
ATOM     59  N   UNL A   1      46.347  34.886  28.151  1.00  0.00    -0.248 NA
ATOM     60  C   UNL A   1      46.404  37.218  28.053  1.00  0.00     0.031 C 
ATOM     61  C   UNL A   1      49.743  32.249  26.952  1.00  0.00     0.029 A 
ATOM     62  C   UNL A   1      48.703  33.085  27.331  1.00  0.00     0.049 A 
ATOM     63  H   UNL A   1      46.813  32.568  28.114  1.00  0.00     0.167 HD
ATOM     64  C   UNL A   1      47.583  35.285  27.659  1.00  0.00     0.074 A 
ATOM     65  C   UNL A   1      47.549  36.733  27.593  1.00  0.00     0.031 C 
ATOM     66  C   UNL A   1      48.645  34.526  27.289  1.00  0.00     0.037 A 
BRANCH  53  67
ATOM     67  C   UNL A   1      47.838  28.425  28.039  1.00  0.00     0.064 A 
ATOM     68  C   UNL A   1      47.626  27.579  26.937  1.00  0.00     0.173 A 
ATOM     69  C   UNL A   1      48.570  27.916  29.122  1.00  0.00     0.173 A 
ATOM     70  F   UNL A   1      46.912  28.008  25.884  1.00  0.00    -0.203 F 
ATOM     71  C   UNL A   1      48.082  26.264  26.944  1.00  0.00     0.198 A 
ATOM     72  C   UNL A   1      49.058  26.612  29.109  1.00  0.00     0.198 A 
ATOM     73  F   UNL A   1      48.800  28.678  30.201  1.00  0.00    -0.203 F 
ATOM     74  F   UNL A   1      47.799  25.452  25.917  1.00  0.00    -0.200 F 
ATOM     75  C   UNL A   1      48.802  25.783  28.028  1.00  0.00     0.200 A 
ATOM     76  F   UNL A   1      49.761  26.153  30.153  1.00  0.00    -0.200 F 
ATOM     77  F   UNL A   1      49.234  24.514  28.038  1.00  0.00    -0.200 F 
ENDBRANCH  53  67
BRANCH  54  78
ATOM     78  C   UNL A   1      43.651  37.488  29.090  1.00  0.00     0.064 A 
ATOM     79  C   UNL A   1      43.892  38.221  30.259  1.00  0.00     0.173 A 
ATOM     80  C   UNL A   1      42.844  38.078  28.105  1.00  0.00     0.173 A 
ATOM     81  F   UNL A   1      44.640  37.693  31.238  1.00  0.00    -0.203 F 
ATOM     82  C   UNL A   1      43.349  39.493  30.434  1.00  0.00     0.198 A 
ATOM     83  C   UNL A   1      42.325  39.360  28.270  1.00  0.00     0.198 A 
ATOM     84  F   UNL A   1      42.584  37.419  26.965  1.00  0.00    -0.203 F 
ATOM     85  F   UNL A   1      43.573  40.164  31.573  1.00  0.00    -0.200 F 
ATOM     86  C   UNL A   1      42.574  40.066  29.436  1.00  0.00     0.200 A 
ATOM     87  F   UNL A   1      41.592  39.915  27.293  1.00  0.00    -0.200 F 
ATOM     88  F   UNL A   1      42.069  41.295  29.598  1.00  0.00    -0.200 F 
ENDBRANCH  54  78
BRANCH  66  89
ATOM     89  C   UNL A   1      49.853  35.246  26.758  1.00  0.00     0.064 A 
ATOM     90  C   UNL A   1      50.937  35.578  27.583  1.00  0.00     0.173 A 
ATOM     91  C   UNL A   1      49.946  35.559  25.393  1.00  0.00     0.173 A 
ATOM     92  F   UNL A   1      50.894  35.312  28.898  1.00  0.00    -0.203 F 
ATOM     93  C   UNL A   1      52.059  36.221  27.065  1.00  0.00     0.198 A 
ATOM     94  C   UNL A   1      51.084  36.168  24.873  1.00  0.00     0.198 A 
ATOM     95  F   UNL A   1      48.942  35.254  24.558  1.00  0.00    -0.203 F 
ATOM     96  F   UNL A   1      53.062  36.575  27.881  1.00  0.00    -0.200 F 
ATOM     97  C   UNL A   1      52.136  36.506  25.710  1.00  0.00     0.200 A 
ATOM     98  F   UNL A   1      51.163  36.425  23.560  1.00  0.00    -0.200 F 
ATOM     99  F   UNL A   1      53.221  37.113  25.212  1.00  0.00    -0.200 F 
ENDBRANCH  66  89
ENDBRANCH  40  41
ENDBRANCH  33  35
ENDBRANCH  32  33
ENDBRANCH  31  32
ENDBRANCH  30  31
ENDBRANCH  29  30
ENDBRANCH  28  29
ENDBRANCH  27  28
ENDBRANCH  26  27
ENDBRANCH   1  26
TORSDOF 24
ENDMDL
