MODEL 1
REMARK VINA RESULT:     -10.3      0.000      0.000
REMARK SMILES CCc1ccnc(C(=O)c2[nH]c3ccc(OC(F)(F)F)cc3c2CC(=O)OCCOCCOCCOCCOC(=O)c2ccc(-c3c4nc(c(-c5c(F)c(F)c(F)c(F)c5F)c5ccc([nH]5)c(-c5c(F)c(F)c(F)c(F)c5F)c5nc(c(-c6c(F)c(F)c(F)c(F)c6F)c6ccc3[nH]6)C=C5)C=C4)cc2)c1
REMARK SMILES IDX 32 1 31 2 30 3 29 4 28 5 27 6 25 7 26 8 24 9 23 10 10 11
REMARK SMILES IDX 11 12 12 13 22 15 13 16 21 17 14 18 15 19 8 20 9 21 7 22
REMARK SMILES IDX 3 23 4 24 105 25 5 26 6 27 2 28 1 29 16 30 17 31 18 32 19 33
REMARK SMILES IDX 20 34 33 35 34 36 35 37 36 38 37 39 38 40 39 41 40 42 41 43
REMARK SMILES IDX 42 44 43 45 104 46 44 47 103 48 45 49 46 50 47 51 97 52
REMARK SMILES IDX 48 53 102 54 96 55 98 56 49 57 101 58 95 59 94 60 50 62
REMARK SMILES IDX 82 63 62 64 81 65 63 66 66 67 80 68 99 69 64 70 65 71 79 73
REMARK SMILES IDX 100 74 67 75 51 76 52 77 60 78 53 79 54 80 58 81 61 82 55 83
REMARK SMILES IDX 56 84 59 85 57 86 83 87 84 88 92 89 85 90 86 91 90 92 93 93
REMARK SMILES IDX 87 94 88 95 91 96 89 97 68 98 69 99 77 100 70 101 71 102
REMARK SMILES IDX 75 103 78 104 72 105 73 106 76 107 74 108
REMARK H PARENT 11 14 98 61 66 72
REMARK Flexibility Score: inf
ROOT
ATOM      1  C   UNL A   1      34.972  29.391  27.107  1.00  0.00     0.188 C 
ENDROOT
BRANCH   1   2
ATOM      2  C   UNL A   1      34.045  28.671  26.129  1.00  0.00     0.188 C 
BRANCH   2   3
ATOM      3  O   UNL A   1      33.525  27.417  26.524  1.00  0.00    -0.376 OA
BRANCH   3   4
ATOM      4  C   UNL A   1      32.134  27.360  26.830  1.00  0.00     0.202 C 
BRANCH   4   5
ATOM      5  C   UNL A   1      31.308  26.115  26.439  1.00  0.00     0.261 C 
BRANCH   5   6
ATOM      6  O   UNL A   1      32.019  24.845  26.489  1.00  0.00    -0.463 OA
BRANCH   6   7
ATOM      7  C   UNL A   1      31.248  23.729  26.504  1.00  0.00     0.310 C 
ATOM      8  O   UNL A   1      30.689  23.324  27.526  1.00  0.00    -0.252 OA
BRANCH   7   9
ATOM      9  C   UNL A   1      31.049  22.973  25.201  1.00  0.00     0.161 C 
BRANCH   9  10
ATOM     10  C   UNL A   1      31.885  23.229  23.964  1.00  0.00     0.000 A 
ATOM     11  C   UNL A   1      33.148  22.697  23.646  1.00  0.00     0.093 A 
ATOM     12  N   UNL A   1      33.466  23.185  22.393  1.00  0.00    -0.352 N 
ATOM     13  C   UNL A   1      32.722  24.311  22.127  1.00  0.00     0.046 A 
ATOM     14  H   UNL A   1      34.126  22.786  21.782  1.00  0.00     0.167 HD
ATOM     15  C   UNL A   1      31.712  24.352  23.082  1.00  0.00     0.008 A 
ATOM     16  C   UNL A   1      32.882  25.299  21.148  1.00  0.00     0.030 A 
ATOM     17  C   UNL A   1      30.841  25.462  23.078  1.00  0.00     0.057 A 
ATOM     18  C   UNL A   1      32.036  26.418  21.206  1.00  0.00     0.049 A 
ATOM     19  C   UNL A   1      31.041  26.518  22.177  1.00  0.00     0.130 A 
BRANCH  11  20
ATOM     20  C   UNL A   1      33.982  21.810  24.462  1.00  0.00     0.227 C 
ATOM     21  O   UNL A   1      33.678  20.637  24.681  1.00  0.00    -0.285 OA
BRANCH  20  22
ATOM     22  C   UNL A   1      35.223  22.288  25.134  1.00  0.00     0.113 A 
ATOM     23  C   UNL A   1      37.559  22.010  25.604  1.00  0.00    -0.044 A 
ATOM     24  C   UNL A   1      37.621  23.386  25.854  1.00  0.00     0.024 A 
ATOM     25  C   UNL A   1      36.321  21.447  25.265  1.00  0.00     0.036 A 
ATOM     26  C   UNL A   1      36.467  24.141  25.730  1.00  0.00     0.112 A 
ATOM     27  N   UNL A   1      35.273  23.622  25.381  1.00  0.00    -0.253 NA
BRANCH  23  28
ATOM     28  C   UNL A   1      38.790  21.137  25.645  1.00  0.00     0.032 C 
ATOM     29  C   UNL A   1      40.006  21.814  26.268  1.00  0.00     0.009 C 
ENDBRANCH  23  28
ENDBRANCH  20  22
ENDBRANCH  11  20
BRANCH  19  30
ATOM     30  O   UNL A   1      30.209  27.583  22.382  1.00  0.00    -0.406 OA
BRANCH  30  31
ATOM     31  C   UNL A   1      30.771  28.779  22.893  1.00  0.00     0.573 C 
ATOM     32  F   UNL A   1      31.746  28.527  23.795  1.00  0.00    -0.132 F 
ATOM     33  F   UNL A   1      31.270  29.538  21.894  1.00  0.00    -0.132 F 
ATOM     34  F   UNL A   1      29.801  29.484  23.515  1.00  0.00    -0.132 F 
ENDBRANCH  30  31
ENDBRANCH  19  30
ENDBRANCH   9  10
ENDBRANCH   7   9
ENDBRANCH   6   7
ENDBRANCH   5   6
ENDBRANCH   4   5
ENDBRANCH   3   4
ENDBRANCH   2   3
ENDBRANCH   1   2
BRANCH   1  35
ATOM     35  O   UNL A   1      34.493  30.544  27.779  1.00  0.00    -0.377 OA
BRANCH  35  36
ATOM     36  C   UNL A   1      33.262  31.133  27.390  1.00  0.00     0.188 C 
BRANCH  36  37
ATOM     37  C   UNL A   1      33.109  32.644  27.541  1.00  0.00     0.188 C 
BRANCH  37  38
ATOM     38  O   UNL A   1      33.984  33.336  28.433  1.00  0.00    -0.376 OA
BRANCH  38  39
ATOM     39  C   UNL A   1      34.122  34.751  28.342  1.00  0.00     0.202 C 
BRANCH  39  40
ATOM     40  C   UNL A   1      33.305  35.537  29.359  1.00  0.00     0.261 C 
BRANCH  40  41
ATOM     41  O   UNL A   1      32.957  34.705  30.472  1.00  0.00    -0.460 OA
BRANCH  41  42
ATOM     42  C   UNL A   1      33.021  35.325  31.667  1.00  0.00     0.338 C 
ATOM     43  O   UNL A   1      32.221  36.119  32.142  1.00  0.00    -0.246 OA
BRANCH  42  44
ATOM     44  C   UNL A   1      34.157  34.792  32.432  1.00  0.00     0.060 A 
ATOM     45  C   UNL A   1      35.378  35.472  32.330  1.00  0.00     0.016 A 
ATOM     46  C   UNL A   1      34.051  33.611  33.172  1.00  0.00     0.016 A 
ATOM     47  C   UNL A   1      36.518  34.928  32.898  1.00  0.00     0.010 A 
ATOM     48  C   UNL A   1      35.201  33.058  33.732  1.00  0.00     0.010 A 
ATOM     49  C   UNL A   1      36.443  33.688  33.541  1.00  0.00    -0.014 A 
BRANCH  49  50
ATOM     50  C   UNL A   1      37.698  32.948  33.774  1.00  0.00     0.031 A 
ATOM     51  C   UNL A   1      38.445  33.213  35.051  1.00  0.00     0.074 A 
ATOM     52  C   UNL A   1      38.105  32.008  32.909  1.00  0.00     0.049 A 
ATOM     53  N   UNL A   1      39.557  32.686  35.490  1.00  0.00    -0.248 NA
ATOM     54  C   UNL A   1      37.854  34.211  35.960  1.00  0.00     0.031 C 
ATOM     55  C   UNL A   1      37.411  31.639  31.678  1.00  0.00     0.029 A 
ATOM     56  N   UNL A   1      39.200  31.189  32.942  1.00  0.00    -0.354 N 
ATOM     57  C   UNL A   1      39.798  33.289  36.718  1.00  0.00     0.074 A 
ATOM     58  C   UNL A   1      38.743  34.250  36.939  1.00  0.00     0.031 C 
ATOM     59  C   UNL A   1      38.102  30.663  31.067  1.00  0.00     0.029 A 
ATOM     60  C   UNL A   1      39.300  30.367  31.849  1.00  0.00     0.049 A 
ATOM     61  H   UNL A   1      39.853  31.189  33.679  1.00  0.00     0.167 HD
ATOM     62  C   UNL A   1      40.808  33.048  37.587  1.00  0.00     0.037 A 
ATOM     63  C   UNL A   1      40.268  29.493  31.517  1.00  0.00     0.037 A 
ATOM     64  C   UNL A   1      41.850  32.087  37.345  1.00  0.00     0.049 A 
ATOM     65  C   UNL A   1      41.427  29.304  32.463  1.00  0.00     0.074 A 
ATOM     66  C   UNL A   1      42.924  31.758  38.150  1.00  0.00     0.029 A 
ATOM     67  N   UNL A   1      41.948  31.305  36.203  1.00  0.00    -0.354 N 
ATOM     68  N   UNL A   1      41.649  29.868  33.627  1.00  0.00    -0.248 NA
ATOM     69  C   UNL A   1      42.464  28.350  32.053  1.00  0.00     0.031 C 
ATOM     70  C   UNL A   1      43.708  30.824  37.466  1.00  0.00     0.029 A 
ATOM     71  C   UNL A   1      43.082  30.513  36.268  1.00  0.00     0.049 A 
ATOM     72  H   UNL A   1      41.306  31.312  35.456  1.00  0.00     0.167 HD
ATOM     73  C   UNL A   1      42.829  29.312  34.104  1.00  0.00     0.074 A 
ATOM     74  C   UNL A   1      43.269  28.358  33.106  1.00  0.00     0.031 C 
ATOM     75  C   UNL A   1      43.490  29.562  35.262  1.00  0.00     0.037 A 
BRANCH  62  76
ATOM     76  C   UNL A   1      40.850  33.864  38.848  1.00  0.00     0.064 A 
ATOM     77  C   UNL A   1      40.221  33.441  40.029  1.00  0.00     0.173 A 
ATOM     78  C   UNL A   1      41.542  35.084  38.877  1.00  0.00     0.173 A 
ATOM     79  F   UNL A   1      39.528  32.292  40.053  1.00  0.00    -0.203 F 
ATOM     80  C   UNL A   1      40.258  34.223  41.181  1.00  0.00     0.198 A 
ATOM     81  C   UNL A   1      41.607  35.846  40.040  1.00  0.00     0.198 A 
ATOM     82  F   UNL A   1      42.160  35.538  37.775  1.00  0.00    -0.203 F 
ATOM     83  F   UNL A   1      39.601  33.828  42.281  1.00  0.00    -0.200 F 
ATOM     84  C   UNL A   1      40.958  35.421  41.189  1.00  0.00     0.200 A 
ATOM     85  F   UNL A   1      42.293  36.997  40.046  1.00  0.00    -0.200 F 
ATOM     86  F   UNL A   1      40.998  36.170  42.298  1.00  0.00    -0.200 F 
ENDBRANCH  62  76
BRANCH  63  87
ATOM     87  C   UNL A   1      40.184  28.740  30.239  1.00  0.00     0.064 A 
ATOM     88  C   UNL A   1      39.516  27.511  30.162  1.00  0.00     0.173 A 
ATOM     89  C   UNL A   1      40.777  29.233  29.067  1.00  0.00     0.173 A 
ATOM     90  F   UNL A   1      38.949  26.987  31.259  1.00  0.00    -0.203 F 
ATOM     91  C   UNL A   1      39.465  26.793  28.969  1.00  0.00     0.198 A 
ATOM     92  C   UNL A   1      40.697  28.531  27.866  1.00  0.00     0.198 A 
ATOM     93  F   UNL A   1      41.427  30.407  29.084  1.00  0.00    -0.203 F 
ATOM     94  F   UNL A   1      38.863  25.596  28.937  1.00  0.00    -0.200 F 
ATOM     95  C   UNL A   1      40.049  27.305  27.821  1.00  0.00     0.200 A 
ATOM     96  F   UNL A   1      41.249  29.039  26.757  1.00  0.00    -0.200 F 
ATOM     97  F   UNL A   1      39.995  26.616  26.674  1.00  0.00    -0.200 F 
ENDBRANCH  63  87
BRANCH  75  98
ATOM     98  C   UNL A   1      44.725  28.754  35.538  1.00  0.00     0.064 A 
ATOM     99  C   UNL A   1      44.670  27.512  36.189  1.00  0.00     0.173 A 
ATOM    100  C   UNL A   1      45.979  29.213  35.104  1.00  0.00     0.173 A 
ATOM    101  F   UNL A   1      43.499  27.033  36.632  1.00  0.00    -0.203 F 
ATOM    102  C   UNL A   1      45.829  26.777  36.425  1.00  0.00     0.198 A 
ATOM    103  C   UNL A   1      47.129  28.458  35.308  1.00  0.00     0.198 A 
ATOM    104  F   UNL A   1      46.086  30.388  34.467  1.00  0.00    -0.203 F 
ATOM    105  F   UNL A   1      45.761  25.622  37.100  1.00  0.00    -0.200 F 
ATOM    106  C   UNL A   1      47.056  27.247  35.977  1.00  0.00     0.200 A 
ATOM    107  F   UNL A   1      48.310  28.903  34.856  1.00  0.00    -0.200 F 
ATOM    108  F   UNL A   1      48.168  26.533  36.198  1.00  0.00    -0.200 F 
ENDBRANCH  75  98
ENDBRANCH  49  50
ENDBRANCH  42  44
ENDBRANCH  41  42
ENDBRANCH  40  41
ENDBRANCH  39  40
ENDBRANCH  38  39
ENDBRANCH  37  38
ENDBRANCH  36  37
ENDBRANCH  35  36
ENDBRANCH   1  35
TORSDOF 26
ENDMDL
MODEL 2
REMARK VINA RESULT:      -9.9      0.739      2.019
REMARK SMILES CCc1ccnc(C(=O)c2[nH]c3ccc(OC(F)(F)F)cc3c2CC(=O)OCCOCCOCCOCCOC(=O)c2ccc(-c3c4nc(c(-c5c(F)c(F)c(F)c(F)c5F)c5ccc([nH]5)c(-c5c(F)c(F)c(F)c(F)c5F)c5nc(c(-c6c(F)c(F)c(F)c(F)c6F)c6ccc3[nH]6)C=C5)C=C4)cc2)c1
REMARK SMILES IDX 32 1 31 2 30 3 29 4 28 5 27 6 25 7 26 8 24 9 23 10 10 11
REMARK SMILES IDX 11 12 12 13 22 15 13 16 21 17 14 18 15 19 8 20 9 21 7 22
REMARK SMILES IDX 3 23 4 24 105 25 5 26 6 27 2 28 1 29 16 30 17 31 18 32 19 33
REMARK SMILES IDX 20 34 33 35 34 36 35 37 36 38 37 39 38 40 39 41 40 42 41 43
REMARK SMILES IDX 42 44 43 45 104 46 44 47 103 48 45 49 46 50 47 51 97 52
REMARK SMILES IDX 48 53 102 54 96 55 98 56 49 57 101 58 95 59 94 60 50 62
REMARK SMILES IDX 82 63 62 64 81 65 63 66 66 67 80 68 99 69 64 70 65 71 79 73
REMARK SMILES IDX 100 74 67 75 51 76 52 77 60 78 53 79 54 80 58 81 61 82 55 83
REMARK SMILES IDX 56 84 59 85 57 86 83 87 84 88 92 89 85 90 86 91 90 92 93 93
REMARK SMILES IDX 87 94 88 95 91 96 89 97 68 98 69 99 77 100 70 101 71 102
REMARK SMILES IDX 75 103 78 104 72 105 73 106 76 107 74 108
REMARK H PARENT 11 14 98 61 66 72
REMARK Flexibility Score: inf
ROOT
ATOM      1  C   UNL A   1      34.837  29.871  27.219  1.00  0.00     0.188 C 
ENDROOT
BRANCH   1   2
ATOM      2  C   UNL A   1      33.785  29.251  26.299  1.00  0.00     0.188 C 
BRANCH   2   3
ATOM      3  O   UNL A   1      33.371  27.928  26.579  1.00  0.00    -0.376 OA
BRANCH   3   4
ATOM      4  C   UNL A   1      32.151  27.770  27.298  1.00  0.00     0.202 C 
BRANCH   4   5
ATOM      5  C   UNL A   1      31.164  26.648  26.907  1.00  0.00     0.261 C 
BRANCH   5   6
ATOM      6  O   UNL A   1      31.742  25.318  26.772  1.00  0.00    -0.463 OA
BRANCH   6   7
ATOM      7  C   UNL A   1      30.896  24.336  26.371  1.00  0.00     0.310 C 
ATOM      8  O   UNL A   1      30.163  23.733  27.158  1.00  0.00    -0.252 OA
BRANCH   7   9
ATOM      9  C   UNL A   1      30.836  23.997  24.891  1.00  0.00     0.161 C 
BRANCH   9  10
ATOM     10  C   UNL A   1      31.831  24.530  23.882  1.00  0.00     0.000 A 
ATOM     11  C   UNL A   1      33.057  23.961  23.491  1.00  0.00     0.093 A 
ATOM     12  N   UNL A   1      33.569  24.790  22.510  1.00  0.00    -0.352 N 
ATOM     13  C   UNL A   1      32.988  26.033  22.599  1.00  0.00     0.046 A 
ATOM     14  H   UNL A   1      34.248  24.529  21.848  1.00  0.00     0.167 HD
ATOM     15  C   UNL A   1      31.884  25.896  23.434  1.00  0.00     0.008 A 
ATOM     16  C   UNL A   1      33.366  27.259  22.036  1.00  0.00     0.030 A 
ATOM     17  C   UNL A   1      31.146  27.055  23.753  1.00  0.00     0.057 A 
ATOM     18  C   UNL A   1      32.645  28.401  22.418  1.00  0.00     0.049 A 
ATOM     19  C   UNL A   1      31.562  28.311  23.290  1.00  0.00     0.130 A 
BRANCH  11  20
ATOM     20  C   UNL A   1      33.691  22.744  24.006  1.00  0.00     0.227 C 
ATOM     21  O   UNL A   1      33.179  21.631  23.880  1.00  0.00    -0.285 OA
BRANCH  20  22
ATOM     22  C   UNL A   1      34.967  22.781  24.774  1.00  0.00     0.113 A 
ATOM     23  C   UNL A   1      37.123  21.841  25.249  1.00  0.00    -0.044 A 
ATOM     24  C   UNL A   1      37.513  23.102  25.715  1.00  0.00     0.024 A 
ATOM     25  C   UNL A   1      35.807  21.674  24.797  1.00  0.00     0.036 A 
ATOM     26  C   UNL A   1      36.598  24.140  25.684  1.00  0.00     0.112 A 
ATOM     27  N   UNL A   1      35.336  24.005  25.230  1.00  0.00    -0.253 NA
BRANCH  23  28
ATOM     28  C   UNL A   1      38.089  20.683  25.180  1.00  0.00     0.032 C 
ATOM     29  C   UNL A   1      37.428  19.346  24.869  1.00  0.00     0.009 C 
ENDBRANCH  23  28
ENDBRANCH  20  22
ENDBRANCH  11  20
BRANCH  19  30
ATOM     30  O   UNL A   1      30.833  29.353  23.791  1.00  0.00    -0.406 OA
BRANCH  30  31
ATOM     31  C   UNL A   1      29.747  29.836  23.020  1.00  0.00     0.573 C 
ATOM     32  F   UNL A   1      28.811  28.881  22.823  1.00  0.00    -0.132 F 
ATOM     33  F   UNL A   1      29.177  30.906  23.615  1.00  0.00    -0.132 F 
ATOM     34  F   UNL A   1      30.210  30.222  21.811  1.00  0.00    -0.132 F 
ENDBRANCH  30  31
ENDBRANCH  19  30
ENDBRANCH   9  10
ENDBRANCH   7   9
ENDBRANCH   6   7
ENDBRANCH   5   6
ENDBRANCH   4   5
ENDBRANCH   3   4
ENDBRANCH   2   3
ENDBRANCH   1   2
BRANCH   1  35
ATOM     35  O   UNL A   1      34.614  31.174  27.731  1.00  0.00    -0.377 OA
BRANCH  35  36
ATOM     36  C   UNL A   1      33.311  31.736  27.700  1.00  0.00     0.188 C 
BRANCH  36  37
ATOM     37  C   UNL A   1      33.185  33.254  27.607  1.00  0.00     0.188 C 
BRANCH  37  38
ATOM     38  O   UNL A   1      34.119  34.064  28.322  1.00  0.00    -0.376 OA
BRANCH  38  39
ATOM     39  C   UNL A   1      33.929  35.473  28.399  1.00  0.00     0.202 C 
BRANCH  39  40
ATOM     40  C   UNL A   1      33.188  35.949  29.641  1.00  0.00     0.261 C 
BRANCH  40  41
ATOM     41  O   UNL A   1      33.064  34.882  30.589  1.00  0.00    -0.460 OA
BRANCH  41  42
ATOM     42  C   UNL A   1      32.981  35.288  31.872  1.00  0.00     0.338 C 
ATOM     43  O   UNL A   1      32.054  35.877  32.411  1.00  0.00    -0.246 OA
BRANCH  42  44
ATOM     44  C   UNL A   1      34.141  34.784  32.619  1.00  0.00     0.060 A 
ATOM     45  C   UNL A   1      35.359  35.451  32.445  1.00  0.00     0.016 A 
ATOM     46  C   UNL A   1      34.056  33.636  33.412  1.00  0.00     0.016 A 
ATOM     47  C   UNL A   1      36.517  34.927  32.996  1.00  0.00     0.010 A 
ATOM     48  C   UNL A   1      35.224  33.102  33.956  1.00  0.00     0.010 A 
ATOM     49  C   UNL A   1      36.460  33.717  33.694  1.00  0.00    -0.014 A 
BRANCH  49  50
ATOM     50  C   UNL A   1      37.719  32.981  33.916  1.00  0.00     0.031 A 
ATOM     51  C   UNL A   1      38.472  33.241  35.190  1.00  0.00     0.074 A 
ATOM     52  C   UNL A   1      38.126  32.049  33.042  1.00  0.00     0.049 A 
ATOM     53  N   UNL A   1      39.589  32.715  35.620  1.00  0.00    -0.248 NA
ATOM     54  C   UNL A   1      37.882  34.230  36.109  1.00  0.00     0.031 C 
ATOM     55  C   UNL A   1      37.428  31.686  31.811  1.00  0.00     0.029 A 
ATOM     56  N   UNL A   1      39.226  31.234  33.064  1.00  0.00    -0.354 N 
ATOM     57  C   UNL A   1      39.834  33.311  36.851  1.00  0.00     0.074 A 
ATOM     58  C   UNL A   1      38.776  34.266  37.084  1.00  0.00     0.031 C 
ATOM     59  C   UNL A   1      38.120  30.717  31.191  1.00  0.00     0.029 A 
ATOM     60  C   UNL A   1      39.324  30.421  31.964  1.00  0.00     0.049 A 
ATOM     61  H   UNL A   1      39.882  31.232  33.797  1.00  0.00     0.167 HD
ATOM     62  C   UNL A   1      40.849  33.069  37.713  1.00  0.00     0.037 A 
ATOM     63  C   UNL A   1      40.294  29.554  31.621  1.00  0.00     0.037 A 
ATOM     64  C   UNL A   1      41.895  32.114  37.459  1.00  0.00     0.049 A 
ATOM     65  C   UNL A   1      41.459  29.364  32.559  1.00  0.00     0.074 A 
ATOM     66  C   UNL A   1      42.975  31.785  38.255  1.00  0.00     0.029 A 
ATOM     67  N   UNL A   1      41.990  31.341  36.310  1.00  0.00    -0.354 N 
ATOM     68  N   UNL A   1      41.684  29.921  33.726  1.00  0.00    -0.248 NA
ATOM     69  C   UNL A   1      42.498  28.418  32.136  1.00  0.00     0.031 C 
ATOM     70  C   UNL A   1      43.760  30.859  37.560  1.00  0.00     0.029 A 
ATOM     71  C   UNL A   1      43.129  30.554  36.363  1.00  0.00     0.049 A 
ATOM     72  H   UNL A   1      41.344  31.350  35.567  1.00  0.00     0.167 HD
ATOM     73  C   UNL A   1      42.870  29.367  34.192  1.00  0.00     0.074 A 
ATOM     74  C   UNL A   1      43.308  28.422  33.185  1.00  0.00     0.031 C 
ATOM     75  C   UNL A   1      43.535  29.612  35.349  1.00  0.00     0.037 A 
BRANCH  62  76
ATOM     76  C   UNL A   1      40.894  33.876  38.979  1.00  0.00     0.064 A 
ATOM     77  C   UNL A   1      41.645  35.057  39.083  1.00  0.00     0.173 A 
ATOM     78  C   UNL A   1      40.163  33.466  40.104  1.00  0.00     0.173 A 
ATOM     79  F   UNL A   1      42.378  35.486  38.043  1.00  0.00    -0.203 F 
ATOM     80  C   UNL A   1      41.685  35.780  40.273  1.00  0.00     0.198 A 
ATOM     81  C   UNL A   1      40.178  34.209  41.281  1.00  0.00     0.198 A 
ATOM     82  F   UNL A   1      39.430  32.342  40.062  1.00  0.00    -0.203 F 
ATOM     83  F   UNL A   1      42.455  36.873  40.367  1.00  0.00    -0.200 F 
ATOM     84  C   UNL A   1      40.946  35.360  41.369  1.00  0.00     0.200 A 
ATOM     85  F   UNL A   1      39.454  33.806  42.334  1.00  0.00    -0.200 F 
ATOM     86  F   UNL A   1      40.981  36.058  42.511  1.00  0.00    -0.200 F 
ENDBRANCH  62  76
BRANCH  63  87
ATOM     87  C   UNL A   1      40.206  28.810  30.338  1.00  0.00     0.064 A 
ATOM     88  C   UNL A   1      40.743  29.336  29.155  1.00  0.00     0.173 A 
ATOM     89  C   UNL A   1      39.577  27.558  30.266  1.00  0.00     0.173 A 
ATOM     90  F   UNL A   1      41.338  30.538  29.166  1.00  0.00    -0.203 F 
ATOM     91  C   UNL A   1      40.632  28.650  27.947  1.00  0.00     0.198 A 
ATOM     92  C   UNL A   1      39.496  26.858  29.065  1.00  0.00     0.198 A 
ATOM     93  F   UNL A   1      39.048  27.007  31.370  1.00  0.00    -0.203 F 
ATOM     94  F   UNL A   1      41.109  29.200  26.822  1.00  0.00    -0.200 F 
ATOM     95  C   UNL A   1      40.015  27.409  27.903  1.00  0.00     0.200 A 
ATOM     96  F   UNL A   1      38.913  25.652  29.033  1.00  0.00    -0.200 F 
ATOM     97  F   UNL A   1      39.913  26.749  26.742  1.00  0.00    -0.200 F 
ENDBRANCH  63  87
BRANCH  75  98
ATOM     98  C   UNL A   1      44.776  28.808  35.613  1.00  0.00     0.064 A 
ATOM     99  C   UNL A   1      46.048  29.254  35.224  1.00  0.00     0.173 A 
ATOM    100  C   UNL A   1      44.691  27.589  36.305  1.00  0.00     0.173 A 
ATOM    101  F   UNL A   1      46.182  30.407  34.550  1.00  0.00    -0.203 F 
ATOM    102  C   UNL A   1      47.183  28.494  35.487  1.00  0.00     0.198 A 
ATOM    103  C   UNL A   1      45.833  26.851  36.601  1.00  0.00     0.198 A 
ATOM    104  F   UNL A   1      43.501  27.122  36.711  1.00  0.00    -0.203 F 
ATOM    105  F   UNL A   1      48.381  28.911  35.054  1.00  0.00    -0.200 F 
ATOM    106  C   UNL A   1      47.076  27.298  36.183  1.00  0.00     0.200 A 
ATOM    107  F   UNL A   1      45.729  25.707  37.291  1.00  0.00    -0.200 F 
ATOM    108  F   UNL A   1      48.172  26.573  36.443  1.00  0.00    -0.200 F 
ENDBRANCH  75  98
ENDBRANCH  49  50
ENDBRANCH  42  44
ENDBRANCH  41  42
ENDBRANCH  40  41
ENDBRANCH  39  40
ENDBRANCH  38  39
ENDBRANCH  37  38
ENDBRANCH  36  37
ENDBRANCH  35  36
ENDBRANCH   1  35
TORSDOF 26
ENDMDL
MODEL 3
REMARK VINA RESULT:      -9.3      5.503     10.634
REMARK SMILES CCc1ccnc(C(=O)c2[nH]c3ccc(OC(F)(F)F)cc3c2CC(=O)OCCOCCOCCOCCOC(=O)c2ccc(-c3c4nc(c(-c5c(F)c(F)c(F)c(F)c5F)c5ccc([nH]5)c(-c5c(F)c(F)c(F)c(F)c5F)c5nc(c(-c6c(F)c(F)c(F)c(F)c6F)c6ccc3[nH]6)C=C5)C=C4)cc2)c1
REMARK SMILES IDX 32 1 31 2 30 3 29 4 28 5 27 6 25 7 26 8 24 9 23 10 10 11
REMARK SMILES IDX 11 12 12 13 22 15 13 16 21 17 14 18 15 19 8 20 9 21 7 22
REMARK SMILES IDX 3 23 4 24 105 25 5 26 6 27 2 28 1 29 16 30 17 31 18 32 19 33
REMARK SMILES IDX 20 34 33 35 34 36 35 37 36 38 37 39 38 40 39 41 40 42 41 43
REMARK SMILES IDX 42 44 43 45 104 46 44 47 103 48 45 49 46 50 47 51 97 52
REMARK SMILES IDX 48 53 102 54 96 55 98 56 49 57 101 58 95 59 94 60 50 62
REMARK SMILES IDX 82 63 62 64 81 65 63 66 66 67 80 68 99 69 64 70 65 71 79 73
REMARK SMILES IDX 100 74 67 75 51 76 52 77 60 78 53 79 54 80 58 81 61 82 55 83
REMARK SMILES IDX 56 84 59 85 57 86 83 87 84 88 92 89 85 90 86 91 90 92 93 93
REMARK SMILES IDX 87 94 88 95 91 96 89 97 68 98 69 99 77 100 70 101 71 102
REMARK SMILES IDX 75 103 78 104 72 105 73 106 76 107 74 108
REMARK H PARENT 11 14 98 61 66 72
REMARK Flexibility Score: inf
ROOT
ATOM      1  C   UNL A   1      39.289  32.470  36.568  1.00  0.00     0.188 C 
ENDROOT
BRANCH   1   2
ATOM      2  C   UNL A   1      39.414  31.549  35.354  1.00  0.00     0.188 C 
BRANCH   2   3
ATOM      3  O   UNL A   1      38.224  30.992  34.832  1.00  0.00    -0.376 OA
BRANCH   3   4
ATOM      4  C   UNL A   1      37.327  31.881  34.172  1.00  0.00     0.202 C 
BRANCH   4   5
ATOM      5  C   UNL A   1      37.477  32.144  32.657  1.00  0.00     0.261 C 
BRANCH   5   6
ATOM      6  O   UNL A   1      37.801  33.514  32.283  1.00  0.00    -0.463 OA
BRANCH   6   7
ATOM      7  C   UNL A   1      38.652  33.663  31.237  1.00  0.00     0.310 C 
ATOM      8  O   UNL A   1      39.871  33.516  31.349  1.00  0.00    -0.252 OA
BRANCH   7   9
ATOM      9  C   UNL A   1      38.066  33.992  29.874  1.00  0.00     0.161 C 
BRANCH   9  10
ATOM     10  C   UNL A   1      37.203  33.025  29.091  1.00  0.00     0.000 A 
ATOM     11  C   UNL A   1      35.808  33.062  28.908  1.00  0.00     0.093 A 
ATOM     12  N   UNL A   1      35.502  32.000  28.078  1.00  0.00    -0.352 N 
ATOM     13  C   UNL A   1      36.516  31.071  28.114  1.00  0.00     0.046 A 
ATOM     14  H   UNL A   1      34.681  31.920  27.541  1.00  0.00     0.167 HD
ATOM     15  C   UNL A   1      37.601  31.692  28.724  1.00  0.00     0.008 A 
ATOM     16  C   UNL A   1      36.547  29.737  27.687  1.00  0.00     0.030 A 
ATOM     17  C   UNL A   1      38.762  30.925  28.953  1.00  0.00     0.057 A 
ATOM     18  C   UNL A   1      37.695  28.985  27.981  1.00  0.00     0.049 A 
ATOM     19  C   UNL A   1      38.784  29.559  28.633  1.00  0.00     0.130 A 
BRANCH  11  20
ATOM     20  C   UNL A   1      34.850  34.014  29.476  1.00  0.00     0.227 C 
ATOM     21  O   UNL A   1      34.182  34.774  28.774  1.00  0.00    -0.285 OA
BRANCH  20  22
ATOM     22  C   UNL A   1      34.668  34.173  30.946  1.00  0.00     0.113 A 
ATOM     23  C   UNL A   1      34.131  35.564  32.825  1.00  0.00    -0.044 A 
ATOM     24  C   UNL A   1      33.778  34.401  33.521  1.00  0.00     0.024 A 
ATOM     25  C   UNL A   1      34.616  35.438  31.517  1.00  0.00     0.036 A 
ATOM     26  C   UNL A   1      33.892  33.178  32.881  1.00  0.00     0.112 A 
ATOM     27  N   UNL A   1      34.333  33.039  31.615  1.00  0.00    -0.253 NA
BRANCH  23  28
ATOM     28  C   UNL A   1      33.960  36.936  33.430  1.00  0.00     0.032 C 
ATOM     29  C   UNL A   1      33.740  38.041  32.403  1.00  0.00     0.009 C 
ENDBRANCH  23  28
ENDBRANCH  20  22
ENDBRANCH  11  20
BRANCH  19  30
ATOM     30  O   UNL A   1      39.921  28.917  29.037  1.00  0.00    -0.406 OA
BRANCH  30  31
ATOM     31  C   UNL A   1      39.962  28.405  30.357  1.00  0.00     0.573 C 
ATOM     32  F   UNL A   1      40.487  29.300  31.223  1.00  0.00    -0.132 F 
ATOM     33  F   UNL A   1      38.728  28.050  30.773  1.00  0.00    -0.132 F 
ATOM     34  F   UNL A   1      40.745  27.303  30.371  1.00  0.00    -0.132 F 
ENDBRANCH  30  31
ENDBRANCH  19  30
ENDBRANCH   9  10
ENDBRANCH   7   9
ENDBRANCH   6   7
ENDBRANCH   5   6
ENDBRANCH   4   5
ENDBRANCH   3   4
ENDBRANCH   2   3
ENDBRANCH   1   2
BRANCH   1  35
ATOM     35  O   UNL A   1      38.626  31.989  37.725  1.00  0.00    -0.377 OA
BRANCH  35  36
ATOM     36  C   UNL A   1      37.633  32.783  38.356  1.00  0.00     0.188 C 
BRANCH  36  37
ATOM     37  C   UNL A   1      37.865  33.205  39.804  1.00  0.00     0.188 C 
BRANCH  37  38
ATOM     38  O   UNL A   1      38.517  34.451  40.059  1.00  0.00    -0.376 OA
BRANCH  38  39
ATOM     39  C   UNL A   1      39.546  34.529  41.041  1.00  0.00     0.202 C 
BRANCH  39  40
ATOM     40  C   UNL A   1      40.612  35.580  40.763  1.00  0.00     0.261 C 
BRANCH  40  41
ATOM     41  O   UNL A   1      40.664  35.883  39.364  1.00  0.00    -0.460 OA
BRANCH  41  42
ATOM     42  C   UNL A   1      41.780  36.534  38.980  1.00  0.00     0.338 C 
ATOM     43  O   UNL A   1      42.469  37.295  39.646  1.00  0.00    -0.246 OA
BRANCH  42  44
ATOM     44  C   UNL A   1      42.170  36.082  37.638  1.00  0.00     0.060 A 
ATOM     45  C   UNL A   1      41.148  35.883  36.702  1.00  0.00     0.016 A 
ATOM     46  C   UNL A   1      43.500  35.786  37.324  1.00  0.00     0.016 A 
ATOM     47  C   UNL A   1      41.437  35.307  35.476  1.00  0.00     0.010 A 
ATOM     48  C   UNL A   1      43.790  35.195  36.095  1.00  0.00     0.010 A 
ATOM     49  C   UNL A   1      42.748  34.902  35.199  1.00  0.00    -0.014 A 
BRANCH  49  50
ATOM     50  C   UNL A   1      42.961  33.948  34.094  1.00  0.00     0.031 A 
ATOM     51  C   UNL A   1      43.179  34.504  32.715  1.00  0.00     0.074 A 
ATOM     52  C   UNL A   1      43.044  32.632  34.337  1.00  0.00     0.049 A 
ATOM     53  N   UNL A   1      43.398  33.878  31.589  1.00  0.00    -0.248 NA
ATOM     54  C   UNL A   1      43.145  35.972  32.589  1.00  0.00     0.031 C 
ATOM     55  C   UNL A   1      42.909  32.008  35.651  1.00  0.00     0.029 A 
ATOM     56  N   UNL A   1      43.269  31.586  33.483  1.00  0.00    -0.354 N 
ATOM     57  C   UNL A   1      43.524  34.872  30.627  1.00  0.00     0.074 A 
ATOM     58  C   UNL A   1      43.317  36.139  31.287  1.00  0.00     0.031 C 
ATOM     59  C   UNL A   1      43.052  30.679  35.516  1.00  0.00     0.029 A 
ATOM     60  C   UNL A   1      43.253  30.363  34.104  1.00  0.00     0.049 A 
ATOM     61  H   UNL A   1      43.426  31.700  32.519  1.00  0.00     0.167 HD
ATOM     62  C   UNL A   1      43.801  34.733  29.309  1.00  0.00     0.037 A 
ATOM     63  C   UNL A   1      43.367  29.130  33.575  1.00  0.00     0.037 A 
ATOM     64  C   UNL A   1      44.002  33.459  28.670  1.00  0.00     0.049 A 
ATOM     65  C   UNL A   1      43.591  28.998  32.090  1.00  0.00     0.074 A 
ATOM     66  C   UNL A   1      44.286  33.194  27.344  1.00  0.00     0.029 A 
ATOM     67  N   UNL A   1      43.930  32.235  29.320  1.00  0.00    -0.354 N 
ATOM     68  N   UNL A   1      43.718  29.939  31.183  1.00  0.00    -0.248 NA
ATOM     69  C   UNL A   1      43.696  27.635  31.557  1.00  0.00     0.031 C 
ATOM     70  C   UNL A   1      44.322  31.806  27.178  1.00  0.00     0.029 A 
ATOM     71  C   UNL A   1      44.137  31.207  28.415  1.00  0.00     0.049 A 
ATOM     72  H   UNL A   1      43.759  32.114  30.282  1.00  0.00     0.167 HD
ATOM     73  C   UNL A   1      43.955  29.283  29.981  1.00  0.00     0.074 A 
ATOM     74  C   UNL A   1      43.963  27.865  30.280  1.00  0.00     0.031 C 
ATOM     75  C   UNL A   1      44.151  29.802  28.744  1.00  0.00     0.037 A 
BRANCH  62  76
ATOM     76  C   UNL A   1      43.860  35.981  28.475  1.00  0.00     0.064 A 
ATOM     77  C   UNL A   1      45.062  36.668  28.247  1.00  0.00     0.173 A 
ATOM     78  C   UNL A   1      42.694  36.490  27.883  1.00  0.00     0.173 A 
ATOM     79  F   UNL A   1      46.204  36.236  28.804  1.00  0.00    -0.203 F 
ATOM     80  C   UNL A   1      45.089  37.834  27.485  1.00  0.00     0.198 A 
ATOM     81  C   UNL A   1      42.730  37.636  27.094  1.00  0.00     0.198 A 
ATOM     82  F   UNL A   1      41.516  35.875  28.070  1.00  0.00    -0.203 F 
ATOM     83  F   UNL A   1      46.238  38.506  27.329  1.00  0.00    -0.200 F 
ATOM     84  C   UNL A   1      43.925  38.312  26.902  1.00  0.00     0.200 A 
ATOM     85  F   UNL A   1      41.605  38.089  26.523  1.00  0.00    -0.200 F 
ATOM     86  F   UNL A   1      43.952  39.430  26.164  1.00  0.00    -0.200 F 
ENDBRANCH  62  76
BRANCH  63  87
ATOM     87  C   UNL A   1      43.267  27.934  34.450  1.00  0.00     0.064 A 
ATOM     88  C   UNL A   1      44.367  27.482  35.191  1.00  0.00     0.173 A 
ATOM     89  C   UNL A   1      42.069  27.212  34.559  1.00  0.00     0.173 A 
ATOM     90  F   UNL A   1      45.541  28.126  35.108  1.00  0.00    -0.203 F 
ATOM     91  C   UNL A   1      44.279  26.342  35.988  1.00  0.00     0.198 A 
ATOM     92  C   UNL A   1      41.972  26.092  35.381  1.00  0.00     0.198 A 
ATOM     93  F   UNL A   1      40.984  27.603  33.872  1.00  0.00    -0.203 F 
ATOM     94  F   UNL A   1      45.361  25.903  36.646  1.00  0.00    -0.200 F 
ATOM     95  C   UNL A   1      43.081  25.652  36.088  1.00  0.00     0.200 A 
ATOM     96  F   UNL A   1      40.807  25.438  35.485  1.00  0.00    -0.200 F 
ATOM     97  F   UNL A   1      42.997  24.558  36.857  1.00  0.00    -0.200 F 
ENDBRANCH  63  87
BRANCH  75  98
ATOM     98  C   UNL A   1      44.447  28.837  27.631  1.00  0.00     0.064 A 
ATOM     99  C   UNL A   1      43.457  28.414  26.732  1.00  0.00     0.173 A 
ATOM    100  C   UNL A   1      45.755  28.363  27.439  1.00  0.00     0.173 A 
ATOM    101  F   UNL A   1      42.190  28.829  26.878  1.00  0.00    -0.203 F 
ATOM    102  C   UNL A   1      43.758  27.525  25.704  1.00  0.00     0.198 A 
ATOM    103  C   UNL A   1      46.059  27.506  26.387  1.00  0.00     0.198 A 
ATOM    104  F   UNL A   1      46.741  28.746  28.263  1.00  0.00    -0.203 F 
ATOM    105  F   UNL A   1      42.785  27.088  24.893  1.00  0.00    -0.200 F 
ATOM    106  C   UNL A   1      45.060  27.079  25.527  1.00  0.00     0.200 A 
ATOM    107  F   UNL A   1      47.322  27.093  26.206  1.00  0.00    -0.200 F 
ATOM    108  F   UNL A   1      45.349  26.231  24.531  1.00  0.00    -0.200 F 
ENDBRANCH  75  98
ENDBRANCH  49  50
ENDBRANCH  42  44
ENDBRANCH  41  42
ENDBRANCH  40  41
ENDBRANCH  39  40
ENDBRANCH  38  39
ENDBRANCH  37  38
ENDBRANCH  36  37
ENDBRANCH  35  36
ENDBRANCH   1  35
TORSDOF 26
ENDMDL
