MODEL 1
REMARK VINA RESULT:     -10.4      0.000      0.000
REMARK SMILES O=C(Cn1c2ccccc2c(=O)c2ccccc21)N[C@@H](Cc1ccccc1)C(=O)OCCOCCOCCOCCOC(=O)c1ccc(-c2c3nc(c(-c4c(F)c(F)c(F)c(F)c4F)c4ccc([nH]4)c(-c4c(F)c(F)c(F)c(F)c4F)c4nc(c(-c5c(F)c(F)c(F)c(F)c5F)c5ccc2[nH]5)C=C4)C=C3)cc1
REMARK SMILES IDX 35 1 34 2 33 3 32 4 31 5 30 6 28 7 29 8 20 9 19 10 1 11 2 12
REMARK SMILES IDX 3 14 4 15 5 16 18 17 6 18 10 19 13 20 17 21 7 22 9 23 11 24
REMARK SMILES IDX 14 25 16 26 8 27 12 28 15 29 21 30 22 31 23 32 27 33 24 34
REMARK SMILES IDX 26 35 25 36 36 37 37 38 38 39 39 40 40 41 41 42 42 43 43 44
REMARK SMILES IDX 44 45 45 46 46 47 107 48 47 49 106 50 48 51 49 52 50 53
REMARK SMILES IDX 100 54 51 55 105 56 99 57 101 58 52 59 104 60 98 61 97 62
REMARK SMILES IDX 53 64 85 65 65 66 84 67 66 68 69 69 83 70 102 71 67 72 68 73
REMARK SMILES IDX 82 75 103 76 70 77 54 78 55 79 63 80 56 81 57 82 61 83 64 84
REMARK SMILES IDX 58 85 59 86 62 87 60 88 86 89 87 90 95 91 88 92 89 93 93 94
REMARK SMILES IDX 96 95 90 96 91 97 94 98 92 99 71 100 72 101 80 102 73 103
REMARK SMILES IDX 74 104 78 105 81 106 75 107 76 108 79 109 77 110
REMARK H PARENT 19 13 101 63 69 74
REMARK Flexibility Score: inf
ROOT
ATOM      1  C   UNL A   1      31.982  26.564  25.353  1.00  0.00     0.188 C 
ENDROOT
BRANCH   1   2
ATOM      2  C   UNL A   1      31.736  26.640  23.853  1.00  0.00     0.188 C 
BRANCH   2   3
ATOM      3  O   UNL A   1      31.662  25.441  23.105  1.00  0.00    -0.376 OA
BRANCH   3   4
ATOM      4  C   UNL A   1      32.769  25.090  22.286  1.00  0.00     0.202 C 
BRANCH   4   5
ATOM      5  C   UNL A   1      33.089  23.591  22.077  1.00  0.00     0.261 C 
BRANCH   5   6
ATOM      6  O   UNL A   1      34.425  23.185  22.490  1.00  0.00    -0.462 OA
BRANCH   6   7
ATOM      7  C   UNL A   1      34.776  23.173  23.807  1.00  0.00     0.329 C 
ATOM      8  O   UNL A   1      34.693  24.167  24.522  1.00  0.00    -0.250 OA
BRANCH   7   9
ATOM      9  C   UNL A   1      35.431  21.799  24.316  1.00  0.00     0.196 C 
BRANCH   9  10
ATOM     10  N   UNL A   1      36.527  21.631  25.386  1.00  0.00    -0.341 N 
ATOM     11  O   UNL A   1      37.817  23.354  24.625  1.00  0.00    -0.273 OA
ATOM     12  C   UNL A   1      37.665  22.450  25.454  1.00  0.00     0.240 C 
ATOM     13  H   UNL A   1      36.425  20.916  26.054  1.00  0.00     0.164 HD
BRANCH  12  14
ATOM     14  C   UNL A   1      38.830  22.113  26.443  1.00  0.00     0.222 C 
BRANCH  14  15
ATOM     15  N   UNL A   1      40.203  22.732  26.346  1.00  0.00    -0.331 N 
ATOM     16  C   UNL A   1      40.308  24.104  26.711  1.00  0.00     0.053 A 
ATOM     17  C   UNL A   1      41.389  21.972  26.137  1.00  0.00     0.053 A 
ATOM     18  C   UNL A   1      39.320  24.787  27.458  1.00  0.00     0.027 A 
ATOM     19  C   UNL A   1      41.475  24.842  26.464  1.00  0.00     0.046 A 
ATOM     20  C   UNL A   1      42.838  22.841  25.506  1.00  0.00     0.046 A 
ATOM     21  C   UNL A   1      41.440  20.223  26.334  1.00  0.00     0.027 A 
ATOM     22  C   UNL A   1      39.474  26.118  27.894  1.00  0.00     0.002 A 
ATOM     23  C   UNL A   1      41.602  26.201  26.852  1.00  0.00     0.014 A 
ATOM     24  C   UNL A   1      42.745  24.197  26.107  1.00  0.00     0.197 A 
ATOM     25  C   UNL A   1      44.310  21.820  24.913  1.00  0.00     0.014 A 
ATOM     26  C   UNL A   1      42.803  19.252  25.773  1.00  0.00     0.002 A 
ATOM     27  C   UNL A   1      40.610  26.836  27.574  1.00  0.00     0.001 A 
ATOM     28  O   UNL A   1      43.680  24.744  26.683  1.00  0.00    -0.288 OA
ATOM     29  C   UNL A   1      44.246  20.002  25.058  1.00  0.00     0.001 A 
ENDBRANCH  14  15
ENDBRANCH  12  14
ENDBRANCH   9  10
BRANCH   9  30
ATOM     30  C   UNL A   1      34.232  20.880  24.631  1.00  0.00     0.072 C 
BRANCH  30  31
ATOM     31  C   UNL A   1      33.223  21.532  25.553  1.00  0.00    -0.045 A 
ATOM     32  C   UNL A   1      33.582  21.850  26.864  1.00  0.00     0.004 A 
ATOM     33  C   UNL A   1      31.945  21.891  25.102  1.00  0.00     0.004 A 
ATOM     34  C   UNL A   1      32.709  22.576  27.675  1.00  0.00     0.000 A 
ATOM     35  C   UNL A   1      31.101  22.676  25.885  1.00  0.00     0.000 A 
ATOM     36  C   UNL A   1      31.486  23.020  27.174  1.00  0.00     0.000 A 
ENDBRANCH  30  31
ENDBRANCH   9  30
ENDBRANCH   7   9
ENDBRANCH   6   7
ENDBRANCH   5   6
ENDBRANCH   4   5
ENDBRANCH   3   4
ENDBRANCH   2   3
ENDBRANCH   1   2
BRANCH   1  37
ATOM     37  O   UNL A   1      33.073  27.234  25.955  1.00  0.00    -0.377 OA
BRANCH  37  38
ATOM     38  C   UNL A   1      32.693  28.031  27.049  1.00  0.00     0.188 C 
BRANCH  38  39
ATOM     39  C   UNL A   1      32.502  29.490  26.671  1.00  0.00     0.188 C 
BRANCH  39  40
ATOM     40  O   UNL A   1      33.872  30.426  26.967  1.00  0.00    -0.376 OA
BRANCH  40  41
ATOM     41  C   UNL A   1      35.679  30.207  27.862  1.00  0.00     0.202 C 
BRANCH  41  42
ATOM     42  C   UNL A   1      36.060  30.567  29.654  1.00  0.00     0.261 C 
BRANCH  42  43
ATOM     43  O   UNL A   1      37.458  30.243  30.280  1.00  0.00    -0.460 OA
BRANCH  43  44
ATOM     44  C   UNL A   1      38.528  31.009  30.694  1.00  0.00     0.338 C 
ATOM     45  O   UNL A   1      38.417  32.040  31.348  1.00  0.00    -0.246 OA
BRANCH  44  46
ATOM     46  C   UNL A   1      39.907  30.263  30.634  1.00  0.00     0.060 A 
ATOM     47  C   UNL A   1      41.127  30.925  30.511  1.00  0.00     0.016 A 
ATOM     48  C   UNL A   1      39.997  28.850  30.699  1.00  0.00     0.016 A 
ATOM     49  C   UNL A   1      42.368  30.236  30.434  1.00  0.00     0.010 A 
ATOM     50  C   UNL A   1      41.253  28.153  30.721  1.00  0.00     0.010 A 
ATOM     51  C   UNL A   1      42.472  28.844  30.638  1.00  0.00    -0.014 A 
BRANCH  51  52
ATOM     52  C   UNL A   1      43.803  28.261  31.095  1.00  0.00     0.031 A 
ATOM     53  C   UNL A   1      44.279  28.115  32.531  1.00  0.00     0.074 A 
ATOM     54  C   UNL A   1      44.653  27.838  30.129  1.00  0.00     0.049 A 
ATOM     55  N   UNL A   1      45.390  27.568  32.983  1.00  0.00    -0.248 NA
ATOM     56  C   UNL A   1      43.420  28.654  33.590  1.00  0.00     0.031 C 
ATOM     57  C   UNL A   1      44.385  27.942  28.694  1.00  0.00     0.029 A 
ATOM     58  N   UNL A   1      45.888  27.227  30.182  1.00  0.00    -0.354 N 
ATOM     59  C   UNL A   1      45.365  27.686  34.371  1.00  0.00     0.074 A 
ATOM     60  C   UNL A   1      44.136  28.396  34.683  1.00  0.00     0.031 C 
ATOM     61  C   UNL A   1      45.376  27.360  28.011  1.00  0.00     0.029 A 
ATOM     62  C   UNL A   1      46.399  26.906  28.945  1.00  0.00     0.049 A 
ATOM     63  H   UNL A   1      46.361  27.039  31.025  1.00  0.00     0.167 HD
ATOM     64  C   UNL A   1      46.264  27.242  35.296  1.00  0.00     0.037 A 
ATOM     65  C   UNL A   1      47.557  26.326  28.567  1.00  0.00     0.037 A 
ATOM     66  C   UNL A   1      47.503  26.547  34.999  1.00  0.00     0.049 A 
ATOM     67  C   UNL A   1      48.552  25.888  29.601  1.00  0.00     0.074 A 
ATOM     68  C   UNL A   1      48.436  26.026  35.887  1.00  0.00     0.029 A 
ATOM     69  N   UNL A   1      47.996  26.289  33.728  1.00  0.00    -0.354 N 
ATOM     70  N   UNL A   1      48.464  25.944  30.905  1.00  0.00    -0.248 NA
ATOM     71  C   UNL A   1      49.810  25.305  29.109  1.00  0.00     0.031 C 
ATOM     72  C   UNL A   1      49.519  25.522  35.159  1.00  0.00     0.029 A 
ATOM     73  C   UNL A   1      49.234  25.656  33.812  1.00  0.00     0.049 A 
ATOM     74  H   UNL A   1      47.537  26.520  32.889  1.00  0.00     0.167 HD
ATOM     75  C   UNL A   1      49.641  25.392  31.391  1.00  0.00     0.074 A 
ATOM     76  C   UNL A   1      50.419  24.982  30.243  1.00  0.00     0.031 C 
ATOM     77  C   UNL A   1      50.030  25.246  32.681  1.00  0.00     0.037 A 
BRANCH  64  78
ATOM     78  C   UNL A   1      45.962  27.483  36.760  1.00  0.00     0.064 A 
ATOM     79  C   UNL A   1      45.308  26.518  37.542  1.00  0.00     0.173 A 
ATOM     80  C   UNL A   1      46.425  28.638  37.415  1.00  0.00     0.173 A 
ATOM     81  F   UNL A   1      44.859  25.384  36.981  1.00  0.00    -0.203 F 
ATOM     82  C   UNL A   1      45.095  26.715  38.906  1.00  0.00     0.198 A 
ATOM     83  C   UNL A   1      46.240  28.816  38.786  1.00  0.00     0.198 A 
ATOM     84  F   UNL A   1      47.087  29.585  36.732  1.00  0.00    -0.203 F 
ATOM     85  F   UNL A   1      44.426  25.796  39.616  1.00  0.00    -0.200 F 
ATOM     86  C   UNL A   1      45.566  27.860  39.529  1.00  0.00     0.200 A 
ATOM     87  F   UNL A   1      46.722  29.913  39.390  1.00  0.00    -0.200 F 
ATOM     88  F   UNL A   1      45.370  28.042  40.842  1.00  0.00    -0.200 F 
ENDBRANCH  64  78
BRANCH  65  89
ATOM     89  C   UNL A   1      47.819  26.109  27.117  1.00  0.00     0.064 A 
ATOM     90  C   UNL A   1      47.274  25.006  26.445  1.00  0.00     0.173 A 
ATOM     91  C   UNL A   1      48.570  27.025  26.364  1.00  0.00     0.173 A 
ATOM     92  F   UNL A   1      46.569  24.089  27.125  1.00  0.00    -0.203 F 
ATOM     93  C   UNL A   1      47.467  24.830  25.076  1.00  0.00     0.198 A 
ATOM     94  C   UNL A   1      48.732  26.867  24.990  1.00  0.00     0.198 A 
ATOM     95  F   UNL A   1      49.111  28.099  26.959  1.00  0.00    -0.203 F 
ATOM     96  F   UNL A   1      46.960  23.752  24.464  1.00  0.00    -0.200 F 
ATOM     97  C   UNL A   1      48.183  25.768  24.348  1.00  0.00     0.200 A 
ATOM     98  F   UNL A   1      49.406  27.787  24.286  1.00  0.00    -0.200 F 
ATOM     99  F   UNL A   1      48.345  25.612  23.027  1.00  0.00    -0.200 F 
ENDBRANCH  65  89
BRANCH  77 100
ATOM    100  C   UNL A   1      51.365  24.602  32.944  1.00  0.00     0.064 A 
ATOM    101  C   UNL A   1      51.496  23.213  33.103  1.00  0.00     0.173 A 
ATOM    102  C   UNL A   1      52.538  25.373  32.979  1.00  0.00     0.173 A 
ATOM    103  F   UNL A   1      50.409  22.428  33.099  1.00  0.00    -0.203 F 
ATOM    104  C   UNL A   1      52.745  22.625  33.299  1.00  0.00     0.198 A 
ATOM    105  C   UNL A   1      53.788  24.778  33.141  1.00  0.00     0.198 A 
ATOM    106  F   UNL A   1      52.477  26.704  32.832  1.00  0.00    -0.203 F 
ATOM    107  F   UNL A   1      52.838  21.301  33.489  1.00  0.00    -0.200 F 
ATOM    108  C   UNL A   1      53.890  23.406  33.306  1.00  0.00     0.200 A 
ATOM    109  F   UNL A   1      54.895  25.534  33.131  1.00  0.00    -0.200 F 
ATOM    110  F   UNL A   1      55.092  22.837  33.474  1.00  0.00    -0.200 F 
ENDBRANCH  77 100
ENDBRANCH  51  52
ENDBRANCH  44  46
ENDBRANCH  43  44
ENDBRANCH  42  43
ENDBRANCH  41  42
ENDBRANCH  40  41
ENDBRANCH  39  40
ENDBRANCH  38  39
ENDBRANCH  37  38
ENDBRANCH   1  37
TORSDOF 25
ENDMDL
MODEL 2
REMARK VINA RESULT:     -10.3      5.666     12.954
REMARK SMILES O=C(Cn1c2ccccc2c(=O)c2ccccc21)N[C@@H](Cc1ccccc1)C(=O)OCCOCCOCCOCCOC(=O)c1ccc(-c2c3nc(c(-c4c(F)c(F)c(F)c(F)c4F)c4ccc([nH]4)c(-c4c(F)c(F)c(F)c(F)c4F)c4nc(c(-c5c(F)c(F)c(F)c(F)c5F)c5ccc2[nH]5)C=C4)C=C3)cc1
REMARK SMILES IDX 35 1 34 2 33 3 32 4 31 5 30 6 28 7 29 8 20 9 19 10 1 11 2 12
REMARK SMILES IDX 3 14 4 15 5 16 18 17 6 18 10 19 13 20 17 21 7 22 9 23 11 24
REMARK SMILES IDX 14 25 16 26 8 27 12 28 15 29 21 30 22 31 23 32 27 33 24 34
REMARK SMILES IDX 26 35 25 36 36 37 37 38 38 39 39 40 40 41 41 42 42 43 43 44
REMARK SMILES IDX 44 45 45 46 46 47 107 48 47 49 106 50 48 51 49 52 50 53
REMARK SMILES IDX 100 54 51 55 105 56 99 57 101 58 52 59 104 60 98 61 97 62
REMARK SMILES IDX 53 64 85 65 65 66 84 67 66 68 69 69 83 70 102 71 67 72 68 73
REMARK SMILES IDX 82 75 103 76 70 77 54 78 55 79 63 80 56 81 57 82 61 83 64 84
REMARK SMILES IDX 58 85 59 86 62 87 60 88 86 89 87 90 95 91 88 92 89 93 93 94
REMARK SMILES IDX 96 95 90 96 91 97 94 98 92 99 71 100 72 101 80 102 73 103
REMARK SMILES IDX 74 104 78 105 81 106 75 107 76 108 79 109 77 110
REMARK H PARENT 19 13 101 63 69 74
REMARK Flexibility Score: inf
ROOT
ATOM      1  C   UNL A   1      42.843  25.354  37.492  1.00  0.00     0.188 C 
ENDROOT
BRANCH   1   2
ATOM      2  C   UNL A   1      42.267  26.376  36.522  1.00  0.00     0.188 C 
BRANCH   2   3
ATOM      3  O   UNL A   1      42.182  27.731  36.919  1.00  0.00    -0.376 OA
BRANCH   3   4
ATOM      4  C   UNL A   1      41.658  28.671  35.991  1.00  0.00     0.202 C 
BRANCH   4   5
ATOM      5  C   UNL A   1      41.660  28.307  34.487  1.00  0.00     0.261 C 
BRANCH   5   6
ATOM      6  O   UNL A   1      41.070  29.310  33.612  1.00  0.00    -0.462 OA
BRANCH   6   7
ATOM      7  C   UNL A   1      39.823  29.135  33.088  1.00  0.00     0.329 C 
ATOM      8  O   UNL A   1      39.146  28.138  33.316  1.00  0.00    -0.250 OA
BRANCH   7   9
ATOM      9  C   UNL A   1      39.367  30.267  32.046  1.00  0.00     0.196 C 
BRANCH   9  10
ATOM     10  N   UNL A   1      38.989  31.726  32.363  1.00  0.00    -0.341 N 
ATOM     11  O   UNL A   1      41.052  32.301  33.156  1.00  0.00    -0.273 OA
ATOM     12  C   UNL A   1      39.892  32.652  32.908  1.00  0.00     0.240 C 
ATOM     13  H   UNL A   1      38.070  32.024  32.175  1.00  0.00     0.164 HD
BRANCH  12  14
ATOM     14  C   UNL A   1      39.401  34.060  33.383  1.00  0.00     0.222 C 
BRANCH  14  15
ATOM     15  N   UNL A   1      40.140  34.896  34.399  1.00  0.00    -0.331 N 
ATOM     16  C   UNL A   1      39.672  34.823  35.742  1.00  0.00     0.053 A 
ATOM     17  C   UNL A   1      41.377  35.545  34.125  1.00  0.00     0.053 A 
ATOM     18  C   UNL A   1      38.824  33.794  36.214  1.00  0.00     0.027 A 
ATOM     19  C   UNL A   1      40.135  35.704  36.730  1.00  0.00     0.046 A 
ATOM     20  C   UNL A   1      41.859  36.913  35.197  1.00  0.00     0.046 A 
ATOM     21  C   UNL A   1      42.359  35.156  32.716  1.00  0.00     0.027 A 
ATOM     22  C   UNL A   1      38.440  33.677  37.565  1.00  0.00     0.002 A 
ATOM     23  C   UNL A   1      39.699  35.619  38.078  1.00  0.00     0.014 A 
ATOM     24  C   UNL A   1      41.327  36.538  36.534  1.00  0.00     0.197 A 
ATOM     25  C   UNL A   1      43.312  37.996  34.673  1.00  0.00     0.014 A 
ATOM     26  C   UNL A   1      43.713  36.165  32.205  1.00  0.00     0.002 A 
ATOM     27  C   UNL A   1      38.862  34.604  38.498  1.00  0.00     0.001 A 
ATOM     28  O   UNL A   1      42.001  36.569  37.559  1.00  0.00    -0.288 OA
ATOM     29  C   UNL A   1      44.219  37.586  33.144  1.00  0.00     0.001 A 
ENDBRANCH  14  15
ENDBRANCH  12  14
ENDBRANCH   9  10
BRANCH   9  30
ATOM     30  C   UNL A   1      40.423  30.220  30.922  1.00  0.00     0.072 C 
BRANCH  30  31
ATOM     31  C   UNL A   1      39.819  29.917  29.566  1.00  0.00    -0.045 A 
ATOM     32  C   UNL A   1      40.376  28.920  28.763  1.00  0.00     0.004 A 
ATOM     33  C   UNL A   1      38.663  30.571  29.117  1.00  0.00     0.004 A 
ATOM     34  C   UNL A   1      39.745  28.537  27.579  1.00  0.00     0.000 A 
ATOM     35  C   UNL A   1      37.994  30.143  27.973  1.00  0.00     0.000 A 
ATOM     36  C   UNL A   1      38.538  29.122  27.203  1.00  0.00     0.000 A 
ENDBRANCH  30  31
ENDBRANCH   9  30
ENDBRANCH   7   9
ENDBRANCH   6   7
ENDBRANCH   5   6
ENDBRANCH   4   5
ENDBRANCH   3   4
ENDBRANCH   2   3
ENDBRANCH   1   2
BRANCH   1  37
ATOM     37  O   UNL A   1      44.068  25.582  38.162  1.00  0.00    -0.377 OA
BRANCH  37  38
ATOM     38  C   UNL A   1      44.827  24.413  38.334  1.00  0.00     0.188 C 
BRANCH  38  39
ATOM     39  C   UNL A   1      45.425  24.304  39.727  1.00  0.00     0.188 C 
BRANCH  39  40
ATOM     40  O   UNL A   1      45.999  22.757  40.072  1.00  0.00    -0.376 OA
BRANCH  40  41
ATOM     41  C   UNL A   1      47.089  21.317  39.150  1.00  0.00     0.202 C 
BRANCH  41  42
ATOM     42  C   UNL A   1      46.398  19.843  38.235  1.00  0.00     0.261 C 
BRANCH  42  43
ATOM     43  O   UNL A   1      46.624  19.648  36.698  1.00  0.00    -0.460 OA
BRANCH  43  44
ATOM     44  C   UNL A   1      45.843  19.844  35.577  1.00  0.00     0.338 C 
ATOM     45  O   UNL A   1      45.088  18.996  35.116  1.00  0.00    -0.246 OA
BRANCH  44  46
ATOM     46  C   UNL A   1      45.670  21.351  35.177  1.00  0.00     0.060 A 
ATOM     47  C   UNL A   1      46.729  22.154  34.758  1.00  0.00     0.016 A 
ATOM     48  C   UNL A   1      44.410  21.998  35.220  1.00  0.00     0.016 A 
ATOM     49  C   UNL A   1      46.564  23.525  34.419  1.00  0.00     0.010 A 
ATOM     50  C   UNL A   1      44.219  23.354  34.786  1.00  0.00     0.010 A 
ATOM     51  C   UNL A   1      45.293  24.132  34.328  1.00  0.00    -0.014 A 
BRANCH  51  52
ATOM     52  C   UNL A   1      45.125  25.368  33.455  1.00  0.00     0.031 A 
ATOM     53  C   UNL A   1      44.791  25.387  31.973  1.00  0.00     0.074 A 
ATOM     54  C   UNL A   1      45.300  26.571  34.053  1.00  0.00     0.049 A 
ATOM     55  N   UNL A   1      44.578  26.424  31.186  1.00  0.00    -0.248 NA
ATOM     56  C   UNL A   1      44.693  24.099  31.280  1.00  0.00     0.031 C 
ATOM     57  C   UNL A   1      45.672  26.746  35.457  1.00  0.00     0.029 A 
ATOM     58  N   UNL A   1      45.179  27.864  33.589  1.00  0.00    -0.354 N 
ATOM     59  C   UNL A   1      44.314  25.921  29.913  1.00  0.00     0.074 A 
ATOM     60  C   UNL A   1      44.432  24.477  30.030  1.00  0.00     0.031 C 
ATOM     61  C   UNL A   1      45.680  28.049  35.759  1.00  0.00     0.029 A 
ATOM     62  C   UNL A   1      45.394  28.820  34.556  1.00  0.00     0.049 A 
ATOM     63  H   UNL A   1      44.959  28.083  32.654  1.00  0.00     0.167 HD
ATOM     64  C   UNL A   1      43.996  26.586  28.766  1.00  0.00     0.037 A 
ATOM     65  C   UNL A   1      45.385  30.169  34.513  1.00  0.00     0.037 A 
ATOM     66  C   UNL A   1      43.890  28.026  28.630  1.00  0.00     0.049 A 
ATOM     67  C   UNL A   1      45.078  30.879  33.227  1.00  0.00     0.074 A 
ATOM     68  C   UNL A   1      43.524  28.765  27.511  1.00  0.00     0.029 A 
ATOM     69  N   UNL A   1      44.165  28.951  29.627  1.00  0.00    -0.354 N 
ATOM     70  N   UNL A   1      44.758  30.374  32.064  1.00  0.00    -0.248 NA
ATOM     71  C   UNL A   1      45.131  32.349  33.249  1.00  0.00     0.031 C 
ATOM     72  C   UNL A   1      43.647  30.127  27.810  1.00  0.00     0.029 A 
ATOM     73  C   UNL A   1      44.017  30.246  29.138  1.00  0.00     0.049 A 
ATOM     74  H   UNL A   1      44.428  28.724  30.549  1.00  0.00     0.167 HD
ATOM     75  C   UNL A   1      44.555  31.458  31.220  1.00  0.00     0.074 A 
ATOM     76  C   UNL A   1      44.763  32.651  32.011  1.00  0.00     0.031 C 
ATOM     77  C   UNL A   1      44.227  31.449  29.906  1.00  0.00     0.037 A 
BRANCH  64  78
ATOM     78  C   UNL A   1      43.723  25.771  27.520  1.00  0.00     0.064 A 
ATOM     79  C   UNL A   1      44.732  25.510  26.579  1.00  0.00     0.173 A 
ATOM     80  C   UNL A   1      42.476  25.155  27.315  1.00  0.00     0.173 A 
ATOM     81  F   UNL A   1      45.951  26.052  26.727  1.00  0.00    -0.203 F 
ATOM     82  C   UNL A   1      44.494  24.701  25.468  1.00  0.00     0.198 A 
ATOM     83  C   UNL A   1      42.251  24.319  26.221  1.00  0.00     0.198 A 
ATOM     84  F   UNL A   1      41.478  25.337  28.193  1.00  0.00    -0.203 F 
ATOM     85  F   UNL A   1      45.464  24.508  24.564  1.00  0.00    -0.200 F 
ATOM     86  C   UNL A   1      43.256  24.100  25.293  1.00  0.00     0.200 A 
ATOM     87  F   UNL A   1      41.061  23.717  26.070  1.00  0.00    -0.200 F 
ATOM     88  F   UNL A   1      43.034  23.314  24.231  1.00  0.00    -0.200 F 
ENDBRANCH  64  78
BRANCH  65  89
ATOM     89  C   UNL A   1      45.661  30.934  35.760  1.00  0.00     0.064 A 
ATOM     90  C   UNL A   1      46.977  31.183  36.175  1.00  0.00     0.173 A 
ATOM     91  C   UNL A   1      44.621  31.476  36.531  1.00  0.00     0.173 A 
ATOM     92  F   UNL A   1      48.005  30.666  35.486  1.00  0.00    -0.203 F 
ATOM     93  C   UNL A   1      47.241  31.949  37.308  1.00  0.00     0.198 A 
ATOM     94  C   UNL A   1      44.887  32.271  37.643  1.00  0.00     0.198 A 
ATOM     95  F   UNL A   1      43.344  31.269  36.176  1.00  0.00    -0.203 F 
ATOM     96  F   UNL A   1      48.507  32.149  37.699  1.00  0.00    -0.200 F 
ATOM     97  C   UNL A   1      46.196  32.503  38.033  1.00  0.00     0.200 A 
ATOM     98  F   UNL A   1      43.875  32.823  38.328  1.00  0.00    -0.200 F 
ATOM     99  F   UNL A   1      46.453  33.262  39.107  1.00  0.00    -0.200 F 
ENDBRANCH  65  89
BRANCH  77 100
ATOM    100  C   UNL A   1      44.056  32.776  29.215  1.00  0.00     0.064 A 
ATOM    101  C   UNL A   1      42.881  33.533  29.350  1.00  0.00     0.173 A 
ATOM    102  C   UNL A   1      45.101  33.328  28.456  1.00  0.00     0.173 A 
ATOM    103  F   UNL A   1      41.843  33.048  30.047  1.00  0.00    -0.203 F 
ATOM    104  C   UNL A   1      42.756  34.781  28.743  1.00  0.00     0.198 A 
ATOM    105  C   UNL A   1      44.984  34.591  27.879  1.00  0.00     0.198 A 
ATOM    106  F   UNL A   1      46.248  32.652  28.291  1.00  0.00    -0.203 F 
ATOM    107  F   UNL A   1      41.608  35.466  28.854  1.00  0.00    -0.200 F 
ATOM    108  C   UNL A   1      43.810  35.315  28.019  1.00  0.00     0.200 A 
ATOM    109  F   UNL A   1      46.011  35.111  27.192  1.00  0.00    -0.200 F 
ATOM    110  F   UNL A   1      43.695  36.524  27.452  1.00  0.00    -0.200 F 
ENDBRANCH  77 100
ENDBRANCH  51  52
ENDBRANCH  44  46
ENDBRANCH  43  44
ENDBRANCH  42  43
ENDBRANCH  41  42
ENDBRANCH  40  41
ENDBRANCH  39  40
ENDBRANCH  38  39
ENDBRANCH  37  38
ENDBRANCH   1  37
TORSDOF 25
ENDMDL
MODEL 3
REMARK VINA RESULT:      -9.9      4.052      7.595
REMARK SMILES O=C(Cn1c2ccccc2c(=O)c2ccccc21)N[C@@H](Cc1ccccc1)C(=O)OCCOCCOCCOCCOC(=O)c1ccc(-c2c3nc(c(-c4c(F)c(F)c(F)c(F)c4F)c4ccc([nH]4)c(-c4c(F)c(F)c(F)c(F)c4F)c4nc(c(-c5c(F)c(F)c(F)c(F)c5F)c5ccc2[nH]5)C=C4)C=C3)cc1
REMARK SMILES IDX 35 1 34 2 33 3 32 4 31 5 30 6 28 7 29 8 20 9 19 10 1 11 2 12
REMARK SMILES IDX 3 14 4 15 5 16 18 17 6 18 10 19 13 20 17 21 7 22 9 23 11 24
REMARK SMILES IDX 14 25 16 26 8 27 12 28 15 29 21 30 22 31 23 32 27 33 24 34
REMARK SMILES IDX 26 35 25 36 36 37 37 38 38 39 39 40 40 41 41 42 42 43 43 44
REMARK SMILES IDX 44 45 45 46 46 47 107 48 47 49 106 50 48 51 49 52 50 53
REMARK SMILES IDX 100 54 51 55 105 56 99 57 101 58 52 59 104 60 98 61 97 62
REMARK SMILES IDX 53 64 85 65 65 66 84 67 66 68 69 69 83 70 102 71 67 72 68 73
REMARK SMILES IDX 82 75 103 76 70 77 54 78 55 79 63 80 56 81 57 82 61 83 64 84
REMARK SMILES IDX 58 85 59 86 62 87 60 88 86 89 87 90 95 91 88 92 89 93 93 94
REMARK SMILES IDX 96 95 90 96 91 97 94 98 92 99 71 100 72 101 80 102 73 103
REMARK SMILES IDX 74 104 78 105 81 106 75 107 76 108 79 109 77 110
REMARK H PARENT 19 13 101 63 69 74
REMARK Flexibility Score: inf
ROOT
ATOM      1  C   UNL A   1      32.867  27.041  25.533  1.00  0.00     0.188 C 
ENDROOT
BRANCH   1   2
ATOM      2  C   UNL A   1      32.492  27.105  24.059  1.00  0.00     0.188 C 
BRANCH   2   3
ATOM      3  O   UNL A   1      32.207  25.904  23.367  1.00  0.00    -0.376 OA
BRANCH   3   4
ATOM      4  C   UNL A   1      33.250  25.297  22.617  1.00  0.00     0.202 C 
BRANCH   4   5
ATOM      5  C   UNL A   1      33.362  23.754  22.618  1.00  0.00     0.261 C 
BRANCH   5   6
ATOM      6  O   UNL A   1      34.542  23.225  23.285  1.00  0.00    -0.462 OA
BRANCH   6   7
ATOM      7  C   UNL A   1      34.526  22.948  24.620  1.00  0.00     0.329 C 
ATOM      8  O   UNL A   1      34.059  23.723  25.450  1.00  0.00    -0.250 OA
BRANCH   7   9
ATOM      9  C   UNL A   1      35.284  21.596  25.037  1.00  0.00     0.196 C 
BRANCH   9  10
ATOM     10  N   UNL A   1      36.539  21.468  25.920  1.00  0.00    -0.341 N 
ATOM     11  O   UNL A   1      37.844  22.811  24.614  1.00  0.00    -0.273 OA
ATOM     12  C   UNL A   1      37.753  22.108  25.628  1.00  0.00     0.240 C 
ATOM     13  H   UNL A   1      36.488  20.911  26.730  1.00  0.00     0.164 HD
BRANCH  12  14
ATOM     14  C   UNL A   1      39.042  21.791  26.457  1.00  0.00     0.222 C 
BRANCH  14  15
ATOM     15  N   UNL A   1      40.333  22.557  26.307  1.00  0.00    -0.331 N 
ATOM     16  C   UNL A   1      40.309  23.924  26.706  1.00  0.00     0.053 A 
ATOM     17  C   UNL A   1      41.581  21.936  26.016  1.00  0.00     0.053 A 
ATOM     18  C   UNL A   1      39.296  24.478  27.522  1.00  0.00     0.027 A 
ATOM     19  C   UNL A   1      41.375  24.791  26.420  1.00  0.00     0.046 A 
ATOM     20  C   UNL A   1      42.892  22.972  25.337  1.00  0.00     0.046 A 
ATOM     21  C   UNL A   1      41.830  20.199  26.160  1.00  0.00     0.027 A 
ATOM     22  C   UNL A   1      39.329  25.808  27.988  1.00  0.00     0.002 A 
ATOM     23  C   UNL A   1      41.376  26.146  26.840  1.00  0.00     0.014 A 
ATOM     24  C   UNL A   1      42.685  24.296  25.980  1.00  0.00     0.197 A 
ATOM     25  C   UNL A   1      44.430  22.132  24.639  1.00  0.00     0.014 A 
ATOM     26  C   UNL A   1      43.257  19.396  25.502  1.00  0.00     0.002 A 
ATOM     27  C   UNL A   1      40.362  26.652  27.630  1.00  0.00     0.001 A 
ATOM     28  O   UNL A   1      43.586  24.928  26.523  1.00  0.00    -0.288 OA
ATOM     29  C   UNL A   1      44.570  20.315  24.735  1.00  0.00     0.001 A 
ENDBRANCH  14  15
ENDBRANCH  12  14
ENDBRANCH   9  10
BRANCH   9  30
ATOM     30  C   UNL A   1      34.171  20.658  25.550  1.00  0.00     0.072 C 
BRANCH  30  31
ATOM     31  C   UNL A   1      33.892  19.511  24.603  1.00  0.00    -0.045 A 
ATOM     32  C   UNL A   1      34.734  18.397  24.590  1.00  0.00     0.004 A 
ATOM     33  C   UNL A   1      32.760  19.503  23.775  1.00  0.00     0.004 A 
ATOM     34  C   UNL A   1      34.408  17.276  23.826  1.00  0.00     0.000 A 
ATOM     35  C   UNL A   1      32.395  18.360  23.067  1.00  0.00     0.000 A 
ATOM     36  C   UNL A   1      33.222  17.244  23.095  1.00  0.00     0.000 A 
ENDBRANCH  30  31
ENDBRANCH   9  30
ENDBRANCH   7   9
ENDBRANCH   6   7
ENDBRANCH   5   6
ENDBRANCH   4   5
ENDBRANCH   3   4
ENDBRANCH   2   3
ENDBRANCH   1   2
BRANCH   1  37
ATOM     37  O   UNL A   1      33.829  27.917  26.087  1.00  0.00    -0.377 OA
BRANCH  37  38
ATOM     38  C   UNL A   1      33.395  28.534  27.272  1.00  0.00     0.188 C 
BRANCH  38  39
ATOM     39  C   UNL A   1      32.750  29.888  27.024  1.00  0.00     0.188 C 
BRANCH  39  40
ATOM     40  O   UNL A   1      33.767  31.176  27.408  1.00  0.00    -0.376 OA
BRANCH  40  41
ATOM     41  C   UNL A   1      35.588  31.454  28.255  1.00  0.00     0.202 C 
BRANCH  41  42
ATOM     42  C   UNL A   1      35.911  31.795  30.062  1.00  0.00     0.261 C 
BRANCH  42  43
ATOM     43  O   UNL A   1      37.344  31.671  30.680  1.00  0.00    -0.460 OA
BRANCH  43  44
ATOM     44  C   UNL A   1      38.242  32.571  31.217  1.00  0.00     0.338 C 
ATOM     45  O   UNL A   1      38.116  33.787  31.144  1.00  0.00    -0.246 OA
BRANCH  44  46
ATOM     46  C   UNL A   1      39.212  31.945  32.279  1.00  0.00     0.060 A 
ATOM     47  C   UNL A   1      40.545  32.329  32.414  1.00  0.00     0.016 A 
ATOM     48  C   UNL A   1      38.788  30.934  33.178  1.00  0.00     0.016 A 
ATOM     49  C   UNL A   1      41.421  31.738  33.366  1.00  0.00     0.010 A 
ATOM     50  C   UNL A   1      39.638  30.402  34.206  1.00  0.00     0.010 A 
ATOM     51  C   UNL A   1      40.966  30.834  34.350  1.00  0.00    -0.014 A 
BRANCH  51  52
ATOM     52  C   UNL A   1      41.768  30.676  35.635  1.00  0.00     0.031 A 
ATOM     53  C   UNL A   1      41.733  31.601  36.840  1.00  0.00     0.074 A 
ATOM     54  C   UNL A   1      42.602  29.612  35.711  1.00  0.00     0.049 A 
ATOM     55  N   UNL A   1      42.360  31.481  37.994  1.00  0.00    -0.248 NA
ATOM     56  C   UNL A   1      40.913  32.813  36.744  1.00  0.00     0.031 C 
ATOM     57  C   UNL A   1      42.802  28.643  34.633  1.00  0.00     0.029 A 
ATOM     58  N   UNL A   1      43.420  29.145  36.719  1.00  0.00    -0.354 N 
ATOM     59  C   UNL A   1      42.007  32.587  38.765  1.00  0.00     0.074 A 
ATOM     60  C   UNL A   1      41.136  33.390  37.924  1.00  0.00     0.031 C 
ATOM     61  C   UNL A   1      43.618  27.670  35.051  1.00  0.00     0.029 A 
ATOM     62  C   UNL A   1      44.073  27.975  36.401  1.00  0.00     0.049 A 
ATOM     63  H   UNL A   1      43.527  29.604  37.583  1.00  0.00     0.167 HD
ATOM     64  C   UNL A   1      42.361  32.902  40.044  1.00  0.00     0.037 A 
ATOM     65  C   UNL A   1      44.954  27.216  37.087  1.00  0.00     0.037 A 
ATOM     66  C   UNL A   1      43.243  32.119  40.890  1.00  0.00     0.049 A 
ATOM     67  C   UNL A   1      45.364  27.608  38.476  1.00  0.00     0.074 A 
ATOM     68  C   UNL A   1      43.606  32.352  42.211  1.00  0.00     0.029 A 
ATOM     69  N   UNL A   1      43.916  30.968  40.504  1.00  0.00    -0.354 N 
ATOM     70  N   UNL A   1      44.954  28.616  39.203  1.00  0.00    -0.248 NA
ATOM     71  C   UNL A   1      46.361  26.755  39.141  1.00  0.00     0.031 C 
ATOM     72  C   UNL A   1      44.546  31.390  42.597  1.00  0.00     0.029 A 
ATOM     73  C   UNL A   1      44.718  30.509  41.545  1.00  0.00     0.049 A 
ATOM     74  H   UNL A   1      43.837  30.539  39.622  1.00  0.00     0.167 HD
ATOM     75  C   UNL A   1      45.627  28.511  40.413  1.00  0.00     0.074 A 
ATOM     76  C   UNL A   1      46.454  27.327  40.335  1.00  0.00     0.031 C 
ATOM     77  C   UNL A   1      45.556  29.335  41.486  1.00  0.00     0.037 A 
BRANCH  64  78
ATOM     78  C   UNL A   1      41.796  34.168  40.652  1.00  0.00     0.064 A 
ATOM     79  C   UNL A   1      40.577  34.166  41.348  1.00  0.00     0.173 A 
ATOM     80  C   UNL A   1      42.527  35.369  40.634  1.00  0.00     0.173 A 
ATOM     81  F   UNL A   1      39.840  33.046  41.417  1.00  0.00    -0.203 F 
ATOM     82  C   UNL A   1      40.094  35.320  41.965  1.00  0.00     0.198 A 
ATOM     83  C   UNL A   1      42.058  36.512  41.283  1.00  0.00     0.198 A 
ATOM     84  F   UNL A   1      43.715  35.430  40.015  1.00  0.00    -0.203 F 
ATOM     85  F   UNL A   1      38.905  35.298  42.582  1.00  0.00    -0.200 F 
ATOM     86  C   UNL A   1      40.838  36.490  41.939  1.00  0.00     0.200 A 
ATOM     87  F   UNL A   1      42.793  37.634  41.279  1.00  0.00    -0.200 F 
ATOM     88  F   UNL A   1      40.377  37.594  42.542  1.00  0.00    -0.200 F 
ENDBRANCH  64  78
BRANCH  65  89
ATOM     89  C   UNL A   1      45.490  25.979  36.454  1.00  0.00     0.064 A 
ATOM     90  C   UNL A   1      44.834  24.750  36.609  1.00  0.00     0.173 A 
ATOM     91  C   UNL A   1      46.632  26.011  35.640  1.00  0.00     0.173 A 
ATOM     92  F   UNL A   1      43.752  24.663  37.397  1.00  0.00    -0.203 F 
ATOM     93  C   UNL A   1      45.298  23.602  35.971  1.00  0.00     0.198 A 
ATOM     94  C   UNL A   1      47.075  24.870  34.973  1.00  0.00     0.198 A 
ATOM     95  F   UNL A   1      47.295  27.162  35.457  1.00  0.00    -0.203 F 
ATOM     96  F   UNL A   1      44.670  22.434  36.158  1.00  0.00    -0.200 F 
ATOM     97  C   UNL A   1      46.409  23.666  35.143  1.00  0.00     0.200 A 
ATOM     98  F   UNL A   1      48.135  24.941  34.158  1.00  0.00    -0.200 F 
ATOM     99  F   UNL A   1      46.838  22.567  34.508  1.00  0.00    -0.200 F 
ENDBRANCH  65  89
BRANCH  77 100
ATOM    100  C   UNL A   1      46.390  28.992  42.692  1.00  0.00     0.064 A 
ATOM    101  C   UNL A   1      45.922  28.123  43.690  1.00  0.00     0.173 A 
ATOM    102  C   UNL A   1      47.696  29.491  42.825  1.00  0.00     0.173 A 
ATOM    103  F   UNL A   1      44.676  27.631  43.627  1.00  0.00    -0.203 F 
ATOM    104  C   UNL A   1      46.723  27.777  44.777  1.00  0.00     0.198 A 
ATOM    105  C   UNL A   1      48.506  29.116  43.895  1.00  0.00     0.198 A 
ATOM    106  F   UNL A   1      48.198  30.325  41.903  1.00  0.00    -0.203 F 
ATOM    107  F   UNL A   1      46.238  26.976  45.737  1.00  0.00    -0.200 F 
ATOM    108  C   UNL A   1      48.018  28.264  44.873  1.00  0.00     0.200 A 
ATOM    109  F   UNL A   1      49.763  29.576  43.977  1.00  0.00    -0.200 F 
ATOM    110  F   UNL A   1      48.794  27.914  45.908  1.00  0.00    -0.200 F 
ENDBRANCH  77 100
ENDBRANCH  51  52
ENDBRANCH  44  46
ENDBRANCH  43  44
ENDBRANCH  42  43
ENDBRANCH  41  42
ENDBRANCH  40  41
ENDBRANCH  39  40
ENDBRANCH  38  39
ENDBRANCH  37  38
ENDBRANCH   1  37
TORSDOF 25
ENDMDL
