MODEL 1
REMARK VINA RESULT:     -10.9      0.000      0.000
REMARK SMILES COc1ccccc1[C@@H]1CN(C(=O)c2cc(C(C)C)nc(N)n2)C[C@H]1C(=O)OCCOCCOCCOCCOC(=O)c1ccc(-c2c3nc(c(-c4c(F)c(F)c(F)c(F)c4F)c4ccc([nH]4)c(-c4c(F)c(F)c(F)c(F)c4F)c4nc(c(-c5c(F)c(F)c(F)c(F)c5F)c5ccc2[nH]5)C=C4)C=C3)cc1
REMARK SMILES IDX 33 1 32 2 31 3 30 4 29 5 28 6 26 7 27 8 25 9 9 10 10 11
REMARK SMILES IDX 11 12 24 13 8 14 3 15 4 16 5 17 7 18 6 19 2 20 1 21 12 22
REMARK SMILES IDX 13 23 14 24 15 25 23 26 16 27 21 28 20 29 17 30 18 31 19 32
REMARK SMILES IDX 22 33 34 36 35 37 36 38 37 39 38 40 39 41 40 42 41 43 42 44
REMARK SMILES IDX 43 45 44 46 105 47 45 48 104 49 46 50 47 51 48 52 98 53
REMARK SMILES IDX 49 54 103 55 97 56 99 57 50 58 102 59 96 60 95 61 51 63
REMARK SMILES IDX 83 64 63 65 82 66 64 67 67 68 81 69 100 70 65 71 66 72 80 74
REMARK SMILES IDX 101 75 68 76 52 77 53 78 61 79 54 80 55 81 59 82 62 83 56 84
REMARK SMILES IDX 57 85 60 86 58 87 84 88 85 89 93 90 86 91 87 92 91 93 94 94
REMARK SMILES IDX 88 95 89 96 92 97 90 98 69 99 70 100 78 101 71 102 72 103
REMARK SMILES IDX 76 104 79 105 73 106 74 107 77 108 75 109
REMARK H PARENT 22 34 22 35 99 62 67 73
REMARK Flexibility Score: inf
ROOT
ATOM      1  C   UNL A   1      41.038  19.770  26.383  1.00  0.00     0.188 C 
ENDROOT
BRANCH   1   2
ATOM      2  C   UNL A   1      40.512  21.166  26.723  1.00  0.00     0.188 C 
BRANCH   2   3
ATOM      3  O   UNL A   1      39.271  21.595  26.208  1.00  0.00    -0.376 OA
BRANCH   3   4
ATOM      4  C   UNL A   1      38.910  22.967  26.217  1.00  0.00     0.202 C 
BRANCH   4   5
ATOM      5  C   UNL A   1      37.578  23.524  25.668  1.00  0.00     0.261 C 
BRANCH   5   6
ATOM      6  O   UNL A   1      36.533  22.585  25.321  1.00  0.00    -0.463 OA
BRANCH   6   7
ATOM      7  C   UNL A   1      35.366  22.762  25.973  1.00  0.00     0.311 C 
ATOM      8  O   UNL A   1      35.295  23.257  27.099  1.00  0.00    -0.252 OA
BRANCH   7   9
ATOM      9  C   UNL A   1      34.096  22.285  25.295  1.00  0.00     0.128 C 
ATOM     10  C   UNL A   1      33.263  20.989  25.544  1.00  0.00     0.058 C 
ATOM     11  C   UNL A   1      31.833  21.452  25.258  1.00  0.00     0.129 C 
ATOM     12  N   UNL A   1      31.821  22.821  25.718  1.00  0.00    -0.336 N 
ATOM     13  C   UNL A   1      33.111  23.432  25.522  1.00  0.00     0.136 C 
BRANCH  10  14
ATOM     14  C   UNL A   1      33.478  19.703  24.734  1.00  0.00    -0.000 A 
ATOM     15  C   UNL A   1      34.650  18.925  24.722  1.00  0.00     0.122 A 
ATOM     16  C   UNL A   1      34.699  17.702  24.032  1.00  0.00     0.047 A 
ATOM     17  C   UNL A   1      33.622  17.292  23.245  1.00  0.00     0.004 A 
ATOM     18  C   UNL A   1      32.438  19.304  23.863  1.00  0.00     0.008 A 
ATOM     19  C   UNL A   1      32.521  18.127  23.111  1.00  0.00     0.001 A 
BRANCH  15  20
ATOM     20  O   UNL A   1      35.854  19.491  25.055  1.00  0.00    -0.496 OA
ATOM     21  C   UNL A   1      37.009  18.725  24.742  1.00  0.00     0.278 C 
ENDBRANCH  15  20
ENDBRANCH  10  14
BRANCH  12  22
ATOM     22  C   UNL A   1      30.740  23.569  26.145  1.00  0.00     0.272 C 
ATOM     23  O   UNL A   1      29.786  23.085  26.747  1.00  0.00    -0.267 OA
BRANCH  22  24
ATOM     24  C   UNL A   1      30.753  25.013  25.821  1.00  0.00     0.134 A 
ATOM     25  C   UNL A   1      30.585  25.400  24.511  1.00  0.00     0.058 A 
ATOM     26  N   UNL A   1      31.034  25.841  26.842  1.00  0.00    -0.208 NA
ATOM     27  C   UNL A   1      30.795  26.734  24.264  1.00  0.00     0.049 A 
ATOM     28  C   UNL A   1      31.161  27.118  26.512  1.00  0.00     0.220 A 
ATOM     29  N   UNL A   1      31.074  27.600  25.265  1.00  0.00    -0.218 NA
BRANCH  27  30
ATOM     30  C   UNL A   1      30.793  27.288  22.854  1.00  0.00     0.032 C 
ATOM     31  C   UNL A   1      31.490  28.652  22.794  1.00  0.00     0.014 C 
ATOM     32  C   UNL A   1      31.421  26.313  21.859  1.00  0.00     0.014 C 
ENDBRANCH  27  30
BRANCH  28  33
ATOM     33  N   UNL A   1      31.403  27.998  27.524  1.00  0.00    -0.368 N 
ATOM     34  H   UNL A   1      30.669  28.283  28.114  1.00  0.00     0.159 HD
ATOM     35  H   UNL A   1      32.313  28.348  27.666  1.00  0.00     0.159 HD
ENDBRANCH  28  33
ENDBRANCH  22  24
ENDBRANCH  12  22
ENDBRANCH   7   9
ENDBRANCH   6   7
ENDBRANCH   5   6
ENDBRANCH   4   5
ENDBRANCH   3   4
ENDBRANCH   2   3
ENDBRANCH   1   2
BRANCH   1  36
ATOM     36  O   UNL A   1      42.421  19.535  26.543  1.00  0.00    -0.377 OA
BRANCH  36  37
ATOM     37  C   UNL A   1      43.041  18.514  25.781  1.00  0.00     0.188 C 
BRANCH  37  38
ATOM     38  C   UNL A   1      44.400  18.780  25.114  1.00  0.00     0.188 C 
BRANCH  38  39
ATOM     39  O   UNL A   1      44.370  19.770  24.099  1.00  0.00    -0.376 OA
BRANCH  39  40
ATOM     40  C   UNL A   1      45.135  20.953  24.275  1.00  0.00     0.202 C 
BRANCH  40  41
ATOM     41  C   UNL A   1      45.033  21.680  25.623  1.00  0.00     0.261 C 
BRANCH  41  42
ATOM     42  O   UNL A   1      43.879  22.505  25.840  1.00  0.00    -0.460 OA
BRANCH  42  43
ATOM     43  C   UNL A   1      43.942  23.799  25.454  1.00  0.00     0.338 C 
ATOM     44  O   UNL A   1      44.001  24.231  24.328  1.00  0.00    -0.246 OA
BRANCH  43  45
ATOM     45  C   UNL A   1      43.719  24.619  26.666  1.00  0.00     0.060 A 
ATOM     46  C   UNL A   1      42.828  24.149  27.638  1.00  0.00     0.016 A 
ATOM     47  C   UNL A   1      44.391  25.831  26.844  1.00  0.00     0.016 A 
ATOM     48  C   UNL A   1      42.571  24.914  28.774  1.00  0.00     0.010 A 
ATOM     49  C   UNL A   1      44.116  26.608  27.972  1.00  0.00     0.010 A 
ATOM     50  C   UNL A   1      43.175  26.169  28.920  1.00  0.00    -0.014 A 
BRANCH  50  51
ATOM     51  C   UNL A   1      42.648  27.111  29.937  1.00  0.00     0.031 A 
ATOM     52  C   UNL A   1      43.342  27.168  31.271  1.00  0.00     0.074 A 
ATOM     53  C   UNL A   1      41.612  27.923  29.672  1.00  0.00     0.049 A 
ATOM     54  N   UNL A   1      43.052  27.874  32.332  1.00  0.00    -0.248 NA
ATOM     55  C   UNL A   1      44.525  26.306  31.427  1.00  0.00     0.031 C 
ATOM     56  C   UNL A   1      40.891  27.988  28.402  1.00  0.00     0.029 A 
ATOM     57  N   UNL A   1      40.980  28.847  30.467  1.00  0.00    -0.354 N 
ATOM     58  C   UNL A   1      44.015  27.544  33.277  1.00  0.00     0.074 A 
ATOM     59  C   UNL A   1      44.871  26.542  32.683  1.00  0.00     0.031 C 
ATOM     60  C   UNL A   1      39.903  28.893  28.509  1.00  0.00     0.029 A 
ATOM     61  C   UNL A   1      39.900  29.444  29.865  1.00  0.00     0.049 A 
ATOM     62  H   UNL A   1      41.273  29.061  31.382  1.00  0.00     0.167 HD
ATOM     63  C   UNL A   1      44.181  28.045  34.523  1.00  0.00     0.037 A 
ATOM     64  C   UNL A   1      39.001  30.313  30.365  1.00  0.00     0.037 A 
ATOM     65  C   UNL A   1      43.319  29.033  35.113  1.00  0.00     0.049 A 
ATOM     66  C   UNL A   1      39.154  30.792  31.788  1.00  0.00     0.074 A 
ATOM     67  C   UNL A   1      43.392  29.604  36.371  1.00  0.00     0.029 A 
ATOM     68  N   UNL A   1      42.217  29.594  34.482  1.00  0.00    -0.354 N 
ATOM     69  N   UNL A   1      40.076  30.488  32.671  1.00  0.00    -0.248 NA
ATOM     70  C   UNL A   1      38.145  31.738  32.284  1.00  0.00     0.031 C 
ATOM     71  C   UNL A   1      42.302  30.465  36.523  1.00  0.00     0.029 A 
ATOM     72  C   UNL A   1      41.588  30.486  35.335  1.00  0.00     0.049 A 
ATOM     73  H   UNL A   1      41.926  29.388  33.565  1.00  0.00     0.167 HD
ATOM     74  C   UNL A   1      39.779  31.229  33.808  1.00  0.00     0.074 A 
ATOM     75  C   UNL A   1      38.599  32.009  33.499  1.00  0.00     0.031 C 
ATOM     76  C   UNL A   1      40.421  31.262  35.004  1.00  0.00     0.037 A 
BRANCH  63  77
ATOM     77  C   UNL A   1      45.323  27.511  35.340  1.00  0.00     0.064 A 
ATOM     78  C   UNL A   1      45.162  26.417  36.205  1.00  0.00     0.173 A 
ATOM     79  C   UNL A   1      46.600  28.081  35.237  1.00  0.00     0.173 A 
ATOM     80  F   UNL A   1      43.957  25.846  36.356  1.00  0.00    -0.203 F 
ATOM     81  C   UNL A   1      46.233  25.931  36.953  1.00  0.00     0.198 A 
ATOM     82  C   UNL A   1      47.675  27.572  35.960  1.00  0.00     0.198 A 
ATOM     83  F   UNL A   1      46.809  29.130  34.425  1.00  0.00    -0.203 F 
ATOM     84  F   UNL A   1      46.043  24.919  37.811  1.00  0.00    -0.200 F 
ATOM     85  C   UNL A   1      47.489  26.503  36.823  1.00  0.00     0.200 A 
ATOM     86  F   UNL A   1      48.892  28.118  35.823  1.00  0.00    -0.200 F 
ATOM     87  F   UNL A   1      48.520  26.029  37.536  1.00  0.00    -0.200 F 
ENDBRANCH  63  77
BRANCH  64  88
ATOM     88  C   UNL A   1      37.856  30.770  29.529  1.00  0.00     0.064 A 
ATOM     89  C   UNL A   1      37.768  32.091  29.069  1.00  0.00     0.173 A 
ATOM     90  C   UNL A   1      36.804  29.899  29.205  1.00  0.00     0.173 A 
ATOM     91  F   UNL A   1      38.733  32.972  29.372  1.00  0.00    -0.203 F 
ATOM     92  C   UNL A   1      36.662  32.530  28.342  1.00  0.00     0.198 A 
ATOM     93  C   UNL A   1      35.716  30.329  28.449  1.00  0.00     0.198 A 
ATOM     94  F   UNL A   1      36.836  28.623  29.621  1.00  0.00    -0.203 F 
ATOM     95  F   UNL A   1      36.576  33.813  27.967  1.00  0.00    -0.200 F 
ATOM     96  C   UNL A   1      35.640  31.646  28.028  1.00  0.00     0.200 A 
ATOM     97  F   UNL A   1      34.739  29.466  28.137  1.00  0.00    -0.200 F 
ATOM     98  F   UNL A   1      34.577  32.069  27.330  1.00  0.00    -0.200 F 
ENDBRANCH  64  88
BRANCH  76  99
ATOM     99  C   UNL A   1      39.894  32.204  36.050  1.00  0.00     0.064 A 
ATOM    100  C   UNL A   1      40.466  33.466  36.265  1.00  0.00     0.173 A 
ATOM    101  C   UNL A   1      38.770  31.855  36.815  1.00  0.00     0.173 A 
ATOM    102  F   UNL A   1      41.547  33.846  35.568  1.00  0.00    -0.203 F 
ATOM    103  C   UNL A   1      39.952  34.330  37.230  1.00  0.00     0.198 A 
ATOM    104  C   UNL A   1      38.236  32.735  37.752  1.00  0.00     0.198 A 
ATOM    105  F   UNL A   1      38.177  30.664  36.641  1.00  0.00    -0.203 F 
ATOM    106  F   UNL A   1      40.549  35.509  37.456  1.00  0.00    -0.200 F 
ATOM    107  C   UNL A   1      38.834  33.968  37.965  1.00  0.00     0.200 A 
ATOM    108  F   UNL A   1      37.144  32.390  38.446  1.00  0.00    -0.200 F 
ATOM    109  F   UNL A   1      38.334  34.804  38.885  1.00  0.00    -0.200 F 
ENDBRANCH  76  99
ENDBRANCH  50  51
ENDBRANCH  43  45
ENDBRANCH  42  43
ENDBRANCH  41  42
ENDBRANCH  40  41
ENDBRANCH  39  40
ENDBRANCH  38  39
ENDBRANCH  37  38
ENDBRANCH  36  37
ENDBRANCH   1  36
TORSDOF 26
ENDMDL
MODEL 2
REMARK VINA RESULT:     -10.7      1.178      6.970
REMARK SMILES COc1ccccc1[C@@H]1CN(C(=O)c2cc(C(C)C)nc(N)n2)C[C@H]1C(=O)OCCOCCOCCOCCOC(=O)c1ccc(-c2c3nc(c(-c4c(F)c(F)c(F)c(F)c4F)c4ccc([nH]4)c(-c4c(F)c(F)c(F)c(F)c4F)c4nc(c(-c5c(F)c(F)c(F)c(F)c5F)c5ccc2[nH]5)C=C4)C=C3)cc1
REMARK SMILES IDX 33 1 32 2 31 3 30 4 29 5 28 6 26 7 27 8 25 9 9 10 10 11
REMARK SMILES IDX 11 12 24 13 8 14 3 15 4 16 5 17 7 18 6 19 2 20 1 21 12 22
REMARK SMILES IDX 13 23 14 24 15 25 23 26 16 27 21 28 20 29 17 30 18 31 19 32
REMARK SMILES IDX 22 33 34 36 35 37 36 38 37 39 38 40 39 41 40 42 41 43 42 44
REMARK SMILES IDX 43 45 44 46 105 47 45 48 104 49 46 50 47 51 48 52 98 53
REMARK SMILES IDX 49 54 103 55 97 56 99 57 50 58 102 59 96 60 95 61 51 63
REMARK SMILES IDX 83 64 63 65 82 66 64 67 67 68 81 69 100 70 65 71 66 72 80 74
REMARK SMILES IDX 101 75 68 76 52 77 53 78 61 79 54 80 55 81 59 82 62 83 56 84
REMARK SMILES IDX 57 85 60 86 58 87 84 88 85 89 93 90 86 91 87 92 91 93 94 94
REMARK SMILES IDX 88 95 89 96 92 97 90 98 69 99 70 100 78 101 71 102 72 103
REMARK SMILES IDX 76 104 79 105 73 106 74 107 77 108 75 109
REMARK H PARENT 22 34 22 35 99 62 67 73
REMARK Flexibility Score: inf
ROOT
ATOM      1  C   UNL A   1      41.196  19.944  27.540  1.00  0.00     0.188 C 
ENDROOT
BRANCH   1   2
ATOM      2  C   UNL A   1      40.815  21.389  27.212  1.00  0.00     0.188 C 
BRANCH   2   3
ATOM      3  O   UNL A   1      40.066  21.673  26.051  1.00  0.00    -0.376 OA
BRANCH   3   4
ATOM      4  C   UNL A   1      38.744  22.179  26.138  1.00  0.00     0.202 C 
BRANCH   4   5
ATOM      5  C   UNL A   1      37.640  21.924  25.089  1.00  0.00     0.261 C 
BRANCH   5   6
ATOM      6  O   UNL A   1      36.432  22.719  25.156  1.00  0.00    -0.463 OA
BRANCH   6   7
ATOM      7  C   UNL A   1      35.331  22.053  25.556  1.00  0.00     0.311 C 
ATOM      8  O   UNL A   1      35.340  21.231  26.473  1.00  0.00    -0.252 OA
BRANCH   7   9
ATOM      9  C   UNL A   1      34.037  22.306  24.805  1.00  0.00     0.128 C 
ATOM     10  C   UNL A   1      32.755  21.423  24.709  1.00  0.00     0.058 C 
ATOM     11  C   UNL A   1      31.641  22.465  24.596  1.00  0.00     0.129 C 
ATOM     12  N   UNL A   1      32.114  23.558  25.415  1.00  0.00    -0.336 N 
ATOM     13  C   UNL A   1      33.550  23.644  25.362  1.00  0.00     0.136 C 
BRANCH  10  14
ATOM     14  C   UNL A   1      32.530  20.416  23.572  1.00  0.00    -0.000 A 
ATOM     15  C   UNL A   1      32.697  19.022  23.663  1.00  0.00     0.122 A 
ATOM     16  C   UNL A   1      32.353  18.181  22.592  1.00  0.00     0.047 A 
ATOM     17  C   UNL A   1      31.950  18.722  21.371  1.00  0.00     0.004 A 
ATOM     18  C   UNL A   1      32.202  20.937  22.299  1.00  0.00     0.008 A 
ATOM     19  C   UNL A   1      31.940  20.101  21.209  1.00  0.00     0.001 A 
BRANCH  15  20
ATOM     20  O   UNL A   1      33.521  18.489  24.622  1.00  0.00    -0.496 OA
ATOM     21  C   UNL A   1      32.908  18.175  25.864  1.00  0.00     0.278 C 
ENDBRANCH  15  20
ENDBRANCH  10  14
BRANCH  12  22
ATOM     22  C   UNL A   1      31.368  24.528  26.057  1.00  0.00     0.272 C 
ATOM     23  O   UNL A   1      31.119  24.496  27.258  1.00  0.00    -0.267 OA
BRANCH  22  24
ATOM     24  C   UNL A   1      30.837  25.628  25.222  1.00  0.00     0.134 A 
ATOM     25  C   UNL A   1      31.650  26.704  24.947  1.00  0.00     0.058 A 
ATOM     26  N   UNL A   1      29.542  25.530  24.877  1.00  0.00    -0.208 NA
ATOM     27  C   UNL A   1      31.030  27.763  24.330  1.00  0.00     0.049 A 
ATOM     28  C   UNL A   1      29.049  26.579  24.234  1.00  0.00     0.220 A 
ATOM     29  N   UNL A   1      29.730  27.700  23.962  1.00  0.00    -0.218 NA
BRANCH  27  30
ATOM     30  C   UNL A   1      31.751  29.074  24.093  1.00  0.00     0.032 C 
ATOM     31  C   UNL A   1      31.804  29.915  25.373  1.00  0.00     0.014 C 
ATOM     32  C   UNL A   1      33.155  28.857  23.526  1.00  0.00     0.014 C 
ENDBRANCH  27  30
BRANCH  28  33
ATOM     33  N   UNL A   1      27.751  26.502  23.828  1.00  0.00    -0.368 N 
ATOM     34  H   UNL A   1      27.422  25.690  23.379  1.00  0.00     0.159 HD
ATOM     35  H   UNL A   1      27.141  27.260  23.982  1.00  0.00     0.159 HD
ENDBRANCH  28  33
ENDBRANCH  22  24
ENDBRANCH  12  22
ENDBRANCH   7   9
ENDBRANCH   6   7
ENDBRANCH   5   6
ENDBRANCH   4   5
ENDBRANCH   3   4
ENDBRANCH   2   3
ENDBRANCH   1   2
BRANCH   1  36
ATOM     36  O   UNL A   1      42.531  19.549  27.301  1.00  0.00    -0.377 OA
BRANCH  36  37
ATOM     37  C   UNL A   1      42.863  18.952  26.060  1.00  0.00     0.188 C 
BRANCH  37  38
ATOM     38  C   UNL A   1      44.026  19.518  25.229  1.00  0.00     0.188 C 
BRANCH  38  39
ATOM     39  O   UNL A   1      43.743  20.753  24.593  1.00  0.00    -0.376 OA
BRANCH  39  40
ATOM     40  C   UNL A   1      43.771  21.943  25.366  1.00  0.00     0.202 C 
BRANCH  40  41
ATOM     41  C   UNL A   1      43.421  23.263  24.665  1.00  0.00     0.261 C 
BRANCH  41  42
ATOM     42  O   UNL A   1      44.310  24.371  24.867  1.00  0.00    -0.460 OA
BRANCH  42  43
ATOM     43  C   UNL A   1      45.016  24.416  26.018  1.00  0.00     0.338 C 
ATOM     44  O   UNL A   1      46.137  24.009  26.213  1.00  0.00    -0.246 OA
BRANCH  43  45
ATOM     45  C   UNL A   1      44.241  25.247  26.966  1.00  0.00     0.060 A 
ATOM     46  C   UNL A   1      44.434  26.634  26.954  1.00  0.00     0.016 A 
ATOM     47  C   UNL A   1      43.325  24.664  27.846  1.00  0.00     0.016 A 
ATOM     48  C   UNL A   1      43.744  27.440  27.858  1.00  0.00     0.010 A 
ATOM     49  C   UNL A   1      42.650  25.471  28.765  1.00  0.00     0.010 A 
ATOM     50  C   UNL A   1      42.888  26.856  28.800  1.00  0.00    -0.014 A 
BRANCH  50  51
ATOM     51  C   UNL A   1      42.429  27.662  29.957  1.00  0.00     0.031 A 
ATOM     52  C   UNL A   1      41.160  28.455  29.803  1.00  0.00     0.074 A 
ATOM     53  C   UNL A   1      43.095  27.658  31.123  1.00  0.00     0.049 A 
ATOM     54  N   UNL A   1      40.575  29.264  30.649  1.00  0.00    -0.248 NA
ATOM     55  C   UNL A   1      40.457  28.317  28.518  1.00  0.00     0.031 C 
ATOM     56  C   UNL A   1      44.309  26.895  31.402  1.00  0.00     0.029 A 
ATOM     57  N   UNL A   1      42.842  28.330  32.294  1.00  0.00    -0.354 N 
ATOM     58  C   UNL A   1      39.437  29.725  29.999  1.00  0.00     0.074 A 
ATOM     59  C   UNL A   1      39.436  29.145  28.674  1.00  0.00     0.031 C 
ATOM     60  C   UNL A   1      44.707  27.154  32.660  1.00  0.00     0.029 A 
ATOM     61  C   UNL A   1      43.795  28.128  33.261  1.00  0.00     0.049 A 
ATOM     62  H   UNL A   1      42.053  28.904  32.426  1.00  0.00     0.167 HD
ATOM     63  C   UNL A   1      38.471  30.547  30.470  1.00  0.00     0.037 A 
ATOM     64  C   UNL A   1      43.926  28.689  34.479  1.00  0.00     0.037 A 
ATOM     65  C   UNL A   1      38.484  31.130  31.784  1.00  0.00     0.049 A 
ATOM     66  C   UNL A   1      42.882  29.672  34.951  1.00  0.00     0.074 A 
ATOM     67  C   UNL A   1      37.559  31.982  32.361  1.00  0.00     0.029 A 
ATOM     68  N   UNL A   1      39.482  30.925  32.728  1.00  0.00    -0.354 N 
ATOM     69  N   UNL A   1      41.800  30.092  34.338  1.00  0.00    -0.248 NA
ATOM     70  C   UNL A   1      43.073  30.254  36.286  1.00  0.00     0.031 C 
ATOM     71  C   UNL A   1      38.026  32.338  33.630  1.00  0.00     0.029 A 
ATOM     72  C   UNL A   1      39.207  31.653  33.872  1.00  0.00     0.049 A 
ATOM     73  H   UNL A   1      40.268  30.347  32.601  1.00  0.00     0.167 HD
ATOM     74  C   UNL A   1      41.168  30.957  35.223  1.00  0.00     0.074 A 
ATOM     75  C   UNL A   1      41.979  30.990  36.422  1.00  0.00     0.031 C 
ATOM     76  C   UNL A   1      40.021  31.664  35.061  1.00  0.00     0.037 A 
BRANCH  63  77
ATOM     77  C   UNL A   1      37.334  30.883  29.549  1.00  0.00     0.064 A 
ATOM     78  C   UNL A   1      37.252  32.126  28.901  1.00  0.00     0.173 A 
ATOM     79  C   UNL A   1      36.327  29.942  29.288  1.00  0.00     0.173 A 
ATOM     80  F   UNL A   1      38.179  33.069  29.130  1.00  0.00    -0.203 F 
ATOM     81  C   UNL A   1      36.193  32.420  28.045  1.00  0.00     0.198 A 
ATOM     82  C   UNL A   1      35.288  30.227  28.406  1.00  0.00     0.198 A 
ATOM     83  F   UNL A   1      36.355  28.739  29.881  1.00  0.00    -0.203 F 
ATOM     84  F   UNL A   1      36.109  33.632  27.478  1.00  0.00    -0.200 F 
ATOM     85  C   UNL A   1      35.217  31.468  27.792  1.00  0.00     0.200 A 
ATOM     86  F   UNL A   1      34.353  29.301  28.153  1.00  0.00    -0.200 F 
ATOM     87  F   UNL A   1      34.204  31.749  26.962  1.00  0.00    -0.200 F 
ENDBRANCH  63  77
BRANCH  64  88
ATOM     88  C   UNL A   1      45.101  28.362  35.332  1.00  0.00     0.064 A 
ATOM     89  C   UNL A   1      45.076  27.288  36.232  1.00  0.00     0.173 A 
ATOM     90  C   UNL A   1      46.266  29.144  35.288  1.00  0.00     0.173 A 
ATOM     91  F   UNL A   1      43.978  26.524  36.332  1.00  0.00    -0.203 F 
ATOM     92  C   UNL A   1      46.156  27.027  37.075  1.00  0.00     0.198 A 
ATOM     93  C   UNL A   1      47.359  28.861  36.106  1.00  0.00     0.198 A 
ATOM     94  F   UNL A   1      46.346  30.185  34.446  1.00  0.00    -0.203 F 
ATOM     95  F   UNL A   1      46.080  26.032  37.968  1.00  0.00    -0.200 F 
ATOM     96  C   UNL A   1      47.299  27.810  37.006  1.00  0.00     0.200 A 
ATOM     97  F   UNL A   1      48.465  29.613  36.024  1.00  0.00    -0.200 F 
ATOM     98  F   UNL A   1      48.335  27.559  37.817  1.00  0.00    -0.200 F 
ENDBRANCH  64  88
BRANCH  76  99
ATOM     99  C   UNL A   1      39.547  32.494  36.221  1.00  0.00     0.064 A 
ATOM    100  C   UNL A   1      40.020  33.795  36.443  1.00  0.00     0.173 A 
ATOM    101  C   UNL A   1      38.569  31.994  37.095  1.00  0.00     0.173 A 
ATOM    102  F   UNL A   1      40.962  34.317  35.644  1.00  0.00    -0.203 F 
ATOM    103  C   UNL A   1      39.556  34.553  37.516  1.00  0.00     0.198 A 
ATOM    104  C   UNL A   1      38.079  32.768  38.144  1.00  0.00     0.198 A 
ATOM    105  F   UNL A   1      38.073  30.759  36.922  1.00  0.00    -0.203 F 
ATOM    106  F   UNL A   1      40.062  35.773  37.740  1.00  0.00    -0.200 F 
ATOM    107  C   UNL A   1      38.580  34.042  38.359  1.00  0.00     0.200 A 
ATOM    108  F   UNL A   1      37.123  32.279  38.944  1.00  0.00    -0.200 F 
ATOM    109  F   UNL A   1      38.127  34.776  39.384  1.00  0.00    -0.200 F 
ENDBRANCH  76  99
ENDBRANCH  50  51
ENDBRANCH  43  45
ENDBRANCH  42  43
ENDBRANCH  41  42
ENDBRANCH  40  41
ENDBRANCH  39  40
ENDBRANCH  38  39
ENDBRANCH  37  38
ENDBRANCH  36  37
ENDBRANCH   1  36
TORSDOF 26
ENDMDL
MODEL 3
REMARK VINA RESULT:     -10.3      1.348      2.190
REMARK SMILES COc1ccccc1[C@@H]1CN(C(=O)c2cc(C(C)C)nc(N)n2)C[C@H]1C(=O)OCCOCCOCCOCCOC(=O)c1ccc(-c2c3nc(c(-c4c(F)c(F)c(F)c(F)c4F)c4ccc([nH]4)c(-c4c(F)c(F)c(F)c(F)c4F)c4nc(c(-c5c(F)c(F)c(F)c(F)c5F)c5ccc2[nH]5)C=C4)C=C3)cc1
REMARK SMILES IDX 33 1 32 2 31 3 30 4 29 5 28 6 26 7 27 8 25 9 9 10 10 11
REMARK SMILES IDX 11 12 24 13 8 14 3 15 4 16 5 17 7 18 6 19 2 20 1 21 12 22
REMARK SMILES IDX 13 23 14 24 15 25 23 26 16 27 21 28 20 29 17 30 18 31 19 32
REMARK SMILES IDX 22 33 34 36 35 37 36 38 37 39 38 40 39 41 40 42 41 43 42 44
REMARK SMILES IDX 43 45 44 46 105 47 45 48 104 49 46 50 47 51 48 52 98 53
REMARK SMILES IDX 49 54 103 55 97 56 99 57 50 58 102 59 96 60 95 61 51 63
REMARK SMILES IDX 83 64 63 65 82 66 64 67 67 68 81 69 100 70 65 71 66 72 80 74
REMARK SMILES IDX 101 75 68 76 52 77 53 78 61 79 54 80 55 81 59 82 62 83 56 84
REMARK SMILES IDX 57 85 60 86 58 87 84 88 85 89 93 90 86 91 87 92 91 93 94 94
REMARK SMILES IDX 88 95 89 96 92 97 90 98 69 99 70 100 78 101 71 102 72 103
REMARK SMILES IDX 76 104 79 105 73 106 74 107 77 108 75 109
REMARK H PARENT 22 34 22 35 99 62 67 73
REMARK Flexibility Score: inf
ROOT
ATOM      1  C   UNL A   1      41.453  19.466  26.176  1.00  0.00     0.188 C 
ENDROOT
BRANCH   1   2
ATOM      2  C   UNL A   1      40.974  20.899  26.412  1.00  0.00     0.188 C 
BRANCH   2   3
ATOM      3  O   UNL A   1      39.995  21.462  25.565  1.00  0.00    -0.376 OA
BRANCH   3   4
ATOM      4  C   UNL A   1      38.728  21.853  26.069  1.00  0.00     0.202 C 
BRANCH   4   5
ATOM      5  C   UNL A   1      37.449  21.982  25.213  1.00  0.00     0.261 C 
BRANCH   5   6
ATOM      6  O   UNL A   1      37.145  23.268  24.624  1.00  0.00    -0.463 OA
BRANCH   6   7
ATOM      7  C   UNL A   1      35.872  23.682  24.780  1.00  0.00     0.311 C 
ATOM      8  O   UNL A   1      35.511  24.411  25.705  1.00  0.00    -0.252 OA
BRANCH   7   9
ATOM      9  C   UNL A   1      34.837  23.183  23.788  1.00  0.00     0.128 C 
ATOM     10  C   UNL A   1      33.375  22.700  24.036  1.00  0.00     0.058 C 
ATOM     11  C   UNL A   1      32.658  23.140  22.758  1.00  0.00     0.129 C 
ATOM     12  N   UNL A   1      33.318  24.375  22.406  1.00  0.00    -0.336 N 
ATOM     13  C   UNL A   1      34.705  24.336  22.792  1.00  0.00     0.136 C 
BRANCH  10  14
ATOM     14  C   UNL A   1      33.020  21.222  24.252  1.00  0.00    -0.000 A 
ATOM     15  C   UNL A   1      33.002  20.553  25.489  1.00  0.00     0.122 A 
ATOM     16  C   UNL A   1      32.551  19.226  25.588  1.00  0.00     0.047 A 
ATOM     17  C   UNL A   1      32.224  18.506  24.439  1.00  0.00     0.004 A 
ATOM     18  C   UNL A   1      32.763  20.442  23.101  1.00  0.00     0.008 A 
ATOM     19  C   UNL A   1      32.395  19.096  23.194  1.00  0.00     0.001 A 
BRANCH  15  20
ATOM     20  O   UNL A   1      33.749  21.027  26.538  1.00  0.00    -0.496 OA
ATOM     21  C   UNL A   1      33.062  21.851  27.469  1.00  0.00     0.278 C 
ENDBRANCH  15  20
ENDBRANCH  10  14
BRANCH  12  22
ATOM     22  C   UNL A   1      32.819  25.428  21.664  1.00  0.00     0.272 C 
ATOM     23  O   UNL A   1      32.794  25.431  20.437  1.00  0.00    -0.267 OA
BRANCH  22  24
ATOM     24  C   UNL A   1      32.325  26.604  22.415  1.00  0.00     0.134 A 
ATOM     25  C   UNL A   1      32.771  26.805  23.701  1.00  0.00     0.058 A 
ATOM     26  N   UNL A   1      31.383  27.340  21.800  1.00  0.00    -0.208 NA
ATOM     27  C   UNL A   1      32.130  27.803  24.393  1.00  0.00     0.049 A 
ATOM     28  C   UNL A   1      30.864  28.316  22.531  1.00  0.00     0.220 A 
ATOM     29  N   UNL A   1      31.181  28.568  23.808  1.00  0.00    -0.218 NA
BRANCH  27  30
ATOM     30  C   UNL A   1      32.404  28.049  25.863  1.00  0.00     0.032 C 
ATOM     31  C   UNL A   1      31.203  27.646  26.725  1.00  0.00     0.014 C 
ATOM     32  C   UNL A   1      33.673  27.336  26.332  1.00  0.00     0.014 C 
ENDBRANCH  27  30
BRANCH  28  33
ATOM     33  N   UNL A   1      29.936  29.113  21.931  1.00  0.00    -0.368 N 
ATOM     34  H   UNL A   1      29.004  28.809  21.849  1.00  0.00     0.159 HD
ATOM     35  H   UNL A   1      30.200  29.994  21.578  1.00  0.00     0.159 HD
ENDBRANCH  28  33
ENDBRANCH  22  24
ENDBRANCH  12  22
ENDBRANCH   7   9
ENDBRANCH   6   7
ENDBRANCH   5   6
ENDBRANCH   4   5
ENDBRANCH   3   4
ENDBRANCH   2   3
ENDBRANCH   1   2
BRANCH   1  36
ATOM     36  O   UNL A   1      42.797  19.166  26.491  1.00  0.00    -0.377 OA
BRANCH  36  37
ATOM     37  C   UNL A   1      43.621  18.568  25.505  1.00  0.00     0.188 C 
BRANCH  37  38
ATOM     38  C   UNL A   1      44.926  19.260  25.080  1.00  0.00     0.188 C 
BRANCH  38  39
ATOM     39  O   UNL A   1      44.811  20.061  23.915  1.00  0.00    -0.376 OA
BRANCH  39  40
ATOM     40  C   UNL A   1      44.698  21.468  24.061  1.00  0.00     0.202 C 
BRANCH  40  41
ATOM     41  C   UNL A   1      45.086  22.083  25.413  1.00  0.00     0.261 C 
BRANCH  41  42
ATOM     42  O   UNL A   1      44.051  22.741  26.158  1.00  0.00    -0.460 OA
BRANCH  42  43
ATOM     43  C   UNL A   1      43.590  23.924  25.694  1.00  0.00     0.338 C 
ATOM     44  O   UNL A   1      43.231  24.187  24.571  1.00  0.00    -0.246 OA
BRANCH  43  45
ATOM     45  C   UNL A   1      43.405  24.803  26.870  1.00  0.00     0.060 A 
ATOM     46  C   UNL A   1      42.577  24.366  27.911  1.00  0.00     0.016 A 
ATOM     47  C   UNL A   1      44.053  26.039  26.948  1.00  0.00     0.016 A 
ATOM     48  C   UNL A   1      42.356  25.186  29.016  1.00  0.00     0.010 A 
ATOM     49  C   UNL A   1      43.814  26.869  28.046  1.00  0.00     0.010 A 
ATOM     50  C   UNL A   1      42.933  26.461  29.063  1.00  0.00    -0.014 A 
BRANCH  50  51
ATOM     51  C   UNL A   1      42.433  27.445  30.054  1.00  0.00     0.031 A 
ATOM     52  C   UNL A   1      43.147  27.539  31.374  1.00  0.00     0.074 A 
ATOM     53  C   UNL A   1      41.402  28.259  29.775  1.00  0.00     0.049 A 
ATOM     54  N   UNL A   1      42.881  28.286  32.415  1.00  0.00    -0.248 NA
ATOM     55  C   UNL A   1      44.322  26.669  31.543  1.00  0.00     0.031 C 
ATOM     56  C   UNL A   1      40.663  28.288  28.515  1.00  0.00     0.029 A 
ATOM     57  N   UNL A   1      40.793  29.218  30.546  1.00  0.00    -0.354 N 
ATOM     58  C   UNL A   1      43.855  27.978  33.356  1.00  0.00     0.074 A 
ATOM     59  C   UNL A   1      44.690  26.945  32.785  1.00  0.00     0.031 C 
ATOM     60  C   UNL A   1      39.687  29.209  28.605  1.00  0.00     0.029 A 
ATOM     61  C   UNL A   1      39.711  29.807  29.940  1.00  0.00     0.049 A 
ATOM     62  H   UNL A   1      41.102  29.460  31.449  1.00  0.00     0.167 HD
ATOM     63  C   UNL A   1      44.045  28.519  34.581  1.00  0.00     0.037 A 
ATOM     64  C   UNL A   1      38.829  30.704  30.422  1.00  0.00     0.037 A 
ATOM     65  C   UNL A   1      43.203  29.538  35.148  1.00  0.00     0.049 A 
ATOM     66  C   UNL A   1      39.010  31.230  31.825  1.00  0.00     0.074 A 
ATOM     67  C   UNL A   1      43.303  30.152  36.385  1.00  0.00     0.029 A 
ATOM     68  N   UNL A   1      42.099  30.090  34.515  1.00  0.00    -0.354 N 
ATOM     69  N   UNL A   1      39.941  30.946  32.705  1.00  0.00    -0.248 NA
ATOM     70  C   UNL A   1      38.019  32.205  32.302  1.00  0.00     0.031 C 
ATOM     71  C   UNL A   1      42.225  31.031  36.522  1.00  0.00     0.029 A 
ATOM     72  C   UNL A   1      41.493  31.019  35.345  1.00  0.00     0.049 A 
ATOM     73  H   UNL A   1      41.791  29.856  33.610  1.00  0.00     0.167 HD
ATOM     74  C   UNL A   1      39.670  31.730  33.819  1.00  0.00     0.074 A 
ATOM     75  C   UNL A   1      38.494  32.513  33.500  1.00  0.00     0.031 C 
ATOM     76  C   UNL A   1      40.330  31.797  35.003  1.00  0.00     0.037 A 
BRANCH  63  77
ATOM     77  C   UNL A   1      45.193  28.001  35.399  1.00  0.00     0.064 A 
ATOM     78  C   UNL A   1      45.080  26.834  36.172  1.00  0.00     0.173 A 
ATOM     79  C   UNL A   1      46.430  28.662  35.391  1.00  0.00     0.173 A 
ATOM     80  F   UNL A   1      43.913  26.174  36.231  1.00  0.00    -0.203 F 
ATOM     81  C   UNL A   1      46.155  26.364  36.922  1.00  0.00     0.198 A 
ATOM     82  C   UNL A   1      47.512  28.171  36.115  1.00  0.00     0.198 A 
ATOM     83  F   UNL A   1      46.592  29.783  34.671  1.00  0.00    -0.203 F 
ATOM     84  F   UNL A   1      46.008  25.276  37.692  1.00  0.00    -0.200 F 
ATOM     85  C   UNL A   1      47.372  27.027  36.886  1.00  0.00     0.200 A 
ATOM     86  F   UNL A   1      48.692  28.807  36.068  1.00  0.00    -0.200 F 
ATOM     87  F   UNL A   1      48.409  26.569  37.601  1.00  0.00    -0.200 F 
ENDBRANCH  63  77
BRANCH  64  88
ATOM     88  C   UNL A   1      37.678  31.145  29.588  1.00  0.00     0.064 A 
ATOM     89  C   UNL A   1      37.628  32.430  29.030  1.00  0.00     0.173 A 
ATOM     90  C   UNL A   1      36.581  30.297  29.363  1.00  0.00     0.173 A 
ATOM     91  F   UNL A   1      38.638  33.288  29.236  1.00  0.00    -0.203 F 
ATOM     92  C   UNL A   1      36.518  32.859  28.304  1.00  0.00     0.198 A 
ATOM     93  C   UNL A   1      35.487  30.715  28.608  1.00  0.00     0.198 A 
ATOM     94  F   UNL A   1      36.574  29.057  29.874  1.00  0.00    -0.203 F 
ATOM     95  F   UNL A   1      36.471  34.113  27.835  1.00  0.00    -0.200 F 
ATOM     96  C   UNL A   1      35.451  31.999  28.089  1.00  0.00     0.200 A 
ATOM     97  F   UNL A   1      34.466  29.874  28.392  1.00  0.00    -0.200 F 
ATOM     98  F   UNL A   1      34.384  32.413  27.393  1.00  0.00    -0.200 F 
ENDBRANCH  64  88
BRANCH  76  99
ATOM     99  C   UNL A   1      39.830  32.782  36.023  1.00  0.00     0.064 A 
ATOM    100  C   UNL A   1      38.909  32.417  37.016  1.00  0.00     0.173 A 
ATOM    101  C   UNL A   1      40.317  34.099  36.032  1.00  0.00     0.173 A 
ATOM    102  F   UNL A   1      38.404  31.175  37.045  1.00  0.00    -0.203 F 
ATOM    103  C   UNL A   1      38.470  33.342  37.960  1.00  0.00     0.198 A 
ATOM    104  C   UNL A   1      39.905  35.010  37.001  1.00  0.00     0.198 A 
ATOM    105  F   UNL A   1      41.208  34.498  35.112  1.00  0.00    -0.203 F 
ATOM    106  F   UNL A   1      37.548  32.986  38.865  1.00  0.00    -0.200 F 
ATOM    107  C   UNL A   1      38.975  34.634  37.957  1.00  0.00     0.200 A 
ATOM    108  F   UNL A   1      40.409  36.251  37.007  1.00  0.00    -0.200 F 
ATOM    109  F   UNL A   1      38.560  35.520  38.873  1.00  0.00    -0.200 F 
ENDBRANCH  76  99
ENDBRANCH  50  51
ENDBRANCH  43  45
ENDBRANCH  42  43
ENDBRANCH  41  42
ENDBRANCH  40  41
ENDBRANCH  39  40
ENDBRANCH  38  39
ENDBRANCH  37  38
ENDBRANCH  36  37
ENDBRANCH   1  36
TORSDOF 26
ENDMDL
