MODEL 1
REMARK VINA RESULT:     -10.4      0.000      0.000
REMARK SMILES O=C(OCCOCCOCCOCCOC(=O)c1cc(-c2cncnc2)cc(S(=O)(=O)N2CCCC2)c1)c1ccc(-c2c3nc(c(-c4c(F)c(F)c(F)c(F)c4F)c4ccc([nH]4)c(-c4c(F)c(F)c(F)c(F)c4F)c4nc(c(-c5c(F)c(F)c(F)c(F)c5F)c5ccc2[nH]5)C=C4)C=C3)cc1
REMARK SMILES IDX 9 1 8 2 7 3 6 4 5 5 4 6 3 7 2 8 1 9 38 10 39 11 100 12 40 13
REMARK SMILES IDX 99 14 41 15 42 16 43 17 93 18 44 19 98 20 92 21 94 22 45 23
REMARK SMILES IDX 97 24 91 25 90 26 46 28 78 29 58 30 77 31 59 32 62 33 76 34
REMARK SMILES IDX 95 35 60 36 61 37 75 39 96 40 63 41 47 42 48 43 56 44 49 45
REMARK SMILES IDX 50 46 54 47 57 48 51 49 52 50 55 51 53 52 79 53 80 54 88 55
REMARK SMILES IDX 81 56 82 57 86 58 89 59 83 60 84 61 87 62 85 63 64 64 65 65
REMARK SMILES IDX 73 66 66 67 67 68 71 69 74 70 68 71 69 72 72 73 70 74 10 75
REMARK SMILES IDX 11 76 12 77 13 78 14 79 15 80 16 81 17 82 18 83 19 84 37 85
REMARK SMILES IDX 20 86 28 87 27 88 21 89 22 90 26 91 23 92 25 93 24 94 29 95
REMARK SMILES IDX 30 96 31 97 32 98 33 99 36 100 34 101 35 102
REMARK H PARENT 94 27 62 38
REMARK Flexibility Score: inf
ROOT
ATOM      1  O   UNL A   1      33.597  23.042  22.038  1.00  0.00    -0.377 OA
ENDROOT
BRANCH   1   2
ATOM      2  C   UNL A   1      34.311  23.654  23.117  1.00  0.00     0.188 C 
BRANCH   2   3
ATOM      3  C   UNL A   1      35.706  23.073  23.358  1.00  0.00     0.188 C 
BRANCH   3   4
ATOM      4  O   UNL A   1      35.581  21.734  23.852  1.00  0.00    -0.376 OA
BRANCH   4   5
ATOM      5  C   UNL A   1      35.508  21.622  25.270  1.00  0.00     0.202 C 
BRANCH   5   6
ATOM      6  C   UNL A   1      36.729  22.219  25.969  1.00  0.00     0.261 C 
BRANCH   6   7
ATOM      7  O   UNL A   1      37.907  21.453  25.677  1.00  0.00    -0.460 OA
BRANCH   7   8
ATOM      8  C   UNL A   1      39.132  21.562  26.249  1.00  0.00     0.338 C 
ATOM      9  O   UNL A   1      39.783  20.535  26.437  1.00  0.00    -0.246 OA
BRANCH   8  10
ATOM     10  C   UNL A   1      39.781  22.864  26.598  1.00  0.00     0.060 A 
ATOM     11  C   UNL A   1      39.433  24.116  26.083  1.00  0.00     0.016 A 
ATOM     12  C   UNL A   1      40.771  22.819  27.596  1.00  0.00     0.016 A 
ATOM     13  C   UNL A   1      40.095  25.277  26.482  1.00  0.00     0.010 A 
ATOM     14  C   UNL A   1      41.415  23.982  28.030  1.00  0.00     0.010 A 
ATOM     15  C   UNL A   1      41.095  25.216  27.453  1.00  0.00    -0.014 A 
BRANCH  15  16
ATOM     16  C   UNL A   1      41.856  26.434  27.789  1.00  0.00     0.031 A 
ATOM     17  C   UNL A   1      41.195  27.482  28.633  1.00  0.00     0.074 A 
ATOM     18  C   UNL A   1      43.134  26.566  27.394  1.00  0.00     0.049 A 
ATOM     19  N   UNL A   1      41.631  28.662  28.984  1.00  0.00    -0.248 NA
ATOM     20  C   UNL A   1      39.863  27.147  29.166  1.00  0.00     0.031 C 
ATOM     21  C   UNL A   1      43.892  25.561  26.646  1.00  0.00     0.029 A 
ATOM     22  N   UNL A   1      44.022  27.594  27.569  1.00  0.00    -0.354 N 
ATOM     23  C   UNL A   1      40.621  29.220  29.755  1.00  0.00     0.074 A 
ATOM     24  C   UNL A   1      39.550  28.250  29.828  1.00  0.00     0.031 C 
ATOM     25  C   UNL A   1      45.134  26.025  26.428  1.00  0.00     0.029 A 
ATOM     26  C   UNL A   1      45.239  27.377  26.969  1.00  0.00     0.049 A 
ATOM     27  H   UNL A   1      43.810  28.411  28.077  1.00  0.00     0.167 HD
ATOM     28  C   UNL A   1      40.592  30.439  30.340  1.00  0.00     0.037 A 
ATOM     29  C   UNL A   1      46.298  28.200  26.844  1.00  0.00     0.037 A 
ATOM     30  C   UNL A   1      41.665  31.389  30.257  1.00  0.00     0.049 A 
ATOM     31  C   UNL A   1      46.205  29.583  27.435  1.00  0.00     0.074 A 
ATOM     32  C   UNL A   1      41.736  32.667  30.782  1.00  0.00     0.029 A 
ATOM     33  N   UNL A   1      42.864  31.158  29.596  1.00  0.00    -0.354 N 
ATOM     34  N   UNL A   1      45.235  30.121  28.135  1.00  0.00    -0.248 NA
ATOM     35  C   UNL A   1      47.342  30.484  27.198  1.00  0.00     0.031 C 
ATOM     36  C   UNL A   1      42.965  33.222  30.407  1.00  0.00     0.029 A 
ATOM     37  C   UNL A   1      43.672  32.277  29.677  1.00  0.00     0.049 A 
ATOM     38  H   UNL A   1      43.103  30.320  29.138  1.00  0.00     0.167 HD
ATOM     39  C   UNL A   1      45.641  31.416  28.422  1.00  0.00     0.074 A 
ATOM     40  C   UNL A   1      46.962  31.575  27.846  1.00  0.00     0.031 C 
ATOM     41  C   UNL A   1      44.980  32.395  29.088  1.00  0.00     0.037 A 
BRANCH  28  42
ATOM     42  C   UNL A   1      39.339  30.822  31.063  1.00  0.00     0.064 A 
ATOM     43  C   UNL A   1      39.167  30.568  32.430  1.00  0.00     0.173 A 
ATOM     44  C   UNL A   1      38.291  31.448  30.370  1.00  0.00     0.173 A 
ATOM     45  F   UNL A   1      40.131  29.948  33.128  1.00  0.00    -0.203 F 
ATOM     46  C   UNL A   1      37.982  30.910  33.076  1.00  0.00     0.198 A 
ATOM     47  C   UNL A   1      37.115  31.805  31.024  1.00  0.00     0.198 A 
ATOM     48  F   UNL A   1      38.406  31.704  29.059  1.00  0.00    -0.203 F 
ATOM     49  F   UNL A   1      37.821  30.620  34.375  1.00  0.00    -0.200 F 
ATOM     50  C   UNL A   1      36.959  31.531  32.374  1.00  0.00     0.200 A 
ATOM     51  F   UNL A   1      36.128  32.403  30.344  1.00  0.00    -0.200 F 
ATOM     52  F   UNL A   1      35.817  31.855  32.996  1.00  0.00    -0.200 F 
ENDBRANCH  28  42
BRANCH  29  53
ATOM     53  C   UNL A   1      47.502  27.770  26.084  1.00  0.00     0.064 A 
ATOM     54  C   UNL A   1      48.665  27.347  26.742  1.00  0.00     0.173 A 
ATOM     55  C   UNL A   1      47.526  27.805  24.681  1.00  0.00     0.173 A 
ATOM     56  F   UNL A   1      48.705  27.322  28.082  1.00  0.00    -0.203 F 
ATOM     57  C   UNL A   1      49.810  26.993  26.027  1.00  0.00     0.198 A 
ATOM     58  C   UNL A   1      48.661  27.422  23.967  1.00  0.00     0.198 A 
ATOM     59  F   UNL A   1      46.443  28.209  24.001  1.00  0.00    -0.203 F 
ATOM     60  F   UNL A   1      50.924  26.639  26.683  1.00  0.00    -0.200 F 
ATOM     61  C   UNL A   1      49.804  27.024  24.641  1.00  0.00     0.200 A 
ATOM     62  F   UNL A   1      48.646  27.445  22.627  1.00  0.00    -0.200 F 
ATOM     63  F   UNL A   1      50.904  26.685  23.956  1.00  0.00    -0.200 F 
ENDBRANCH  29  53
BRANCH  41  64
ATOM     64  C   UNL A   1      45.676  33.714  29.220  1.00  0.00     0.064 A 
ATOM     65  C   UNL A   1      45.563  34.694  28.224  1.00  0.00     0.173 A 
ATOM     66  C   UNL A   1      46.411  34.021  30.373  1.00  0.00     0.173 A 
ATOM     67  F   UNL A   1      44.882  34.435  27.096  1.00  0.00    -0.203 F 
ATOM     68  C   UNL A   1      46.175  35.935  28.371  1.00  0.00     0.198 A 
ATOM     69  C   UNL A   1      47.003  35.271  30.528  1.00  0.00     0.198 A 
ATOM     70  F   UNL A   1      46.541  33.116  31.353  1.00  0.00    -0.203 F 
ATOM     71  F   UNL A   1      46.082  36.846  27.394  1.00  0.00    -0.200 F 
ATOM     72  C   UNL A   1      46.887  36.224  29.526  1.00  0.00     0.200 A 
ATOM     73  F   UNL A   1      47.682  35.555  31.647  1.00  0.00    -0.200 F 
ATOM     74  F   UNL A   1      47.467  37.423  29.672  1.00  0.00    -0.200 F 
ENDBRANCH  41  64
ENDBRANCH  15  16
ENDBRANCH   8  10
ENDBRANCH   7   8
ENDBRANCH   6   7
ENDBRANCH   5   6
ENDBRANCH   4   5
ENDBRANCH   3   4
ENDBRANCH   2   3
ENDBRANCH   1   2
BRANCH   1  75
ATOM     75  C   UNL A   1      32.340  22.456  22.361  1.00  0.00     0.188 C 
BRANCH  75  76
ATOM     76  C   UNL A   1      32.330  21.208  23.269  1.00  0.00     0.188 C 
BRANCH  76  77
ATOM     77  O   UNL A   1      31.920  21.439  24.613  1.00  0.00    -0.376 OA
BRANCH  77  78
ATOM     78  C   UNL A   1      31.160  22.626  24.828  1.00  0.00     0.202 C 
BRANCH  78  79
ATOM     79  C   UNL A   1      31.958  23.741  25.507  1.00  0.00     0.261 C 
BRANCH  79  80
ATOM     80  O   UNL A   1      31.368  25.045  25.389  1.00  0.00    -0.460 OA
BRANCH  80  81
ATOM     81  C   UNL A   1      31.559  25.926  26.395  1.00  0.00     0.338 C 
ATOM     82  O   UNL A   1      31.916  25.686  27.532  1.00  0.00    -0.246 OA
BRANCH  81  83
ATOM     83  C   UNL A   1      31.380  27.286  25.843  1.00  0.00     0.062 A 
ATOM     84  C   UNL A   1      31.811  28.401  26.561  1.00  0.00     0.024 A 
ATOM     85  C   UNL A   1      30.826  27.449  24.578  1.00  0.00     0.037 A 
ATOM     86  C   UNL A   1      31.682  29.689  26.014  1.00  0.00    -0.013 A 
ATOM     87  C   UNL A   1      30.550  28.718  24.093  1.00  0.00     0.084 A 
ATOM     88  C   UNL A   1      30.997  29.844  24.794  1.00  0.00     0.030 A 
BRANCH  86  89
ATOM     89  C   UNL A   1      32.283  30.825  26.701  1.00  0.00     0.018 A 
ATOM     90  C   UNL A   1      33.567  30.815  27.212  1.00  0.00     0.123 A 
ATOM     91  C   UNL A   1      31.625  32.037  26.840  1.00  0.00     0.123 A 
ATOM     92  N   UNL A   1      34.159  31.881  27.792  1.00  0.00    -0.244 NA
ATOM     93  N   UNL A   1      32.163  33.137  27.405  1.00  0.00    -0.244 NA
ATOM     94  C   UNL A   1      33.418  32.998  27.857  1.00  0.00     0.221 A 
ENDBRANCH  86  89
BRANCH  87  95
ATOM     95  S   UNL A   1      29.488  28.928  22.677  1.00  0.00     0.243 S 
ATOM     96  O   UNL A   1      30.380  29.097  21.551  1.00  0.00    -0.207 OA
ATOM     97  O   UNL A   1      28.515  27.858  22.729  1.00  0.00    -0.207 OA
BRANCH  95  98
ATOM     98  N   UNL A   1      28.681  30.392  22.899  1.00  0.00    -0.198 NA
ATOM     99  C   UNL A   1      27.776  30.941  21.878  1.00  0.00     0.102 C 
ATOM    100  C   UNL A   1      29.281  31.460  23.710  1.00  0.00     0.102 C 
ATOM    101  C   UNL A   1      28.137  32.419  21.778  1.00  0.00     0.018 C 
ATOM    102  C   UNL A   1      28.795  32.772  23.102  1.00  0.00     0.018 C 
ENDBRANCH  95  98
ENDBRANCH  87  95
ENDBRANCH  81  83
ENDBRANCH  80  81
ENDBRANCH  79  80
ENDBRANCH  78  79
ENDBRANCH  77  78
ENDBRANCH  76  77
ENDBRANCH  75  76
ENDBRANCH   1  75
TORSDOF 23
ENDMDL
MODEL 2
REMARK VINA RESULT:     -10.4      5.600      9.968
REMARK SMILES O=C(OCCOCCOCCOCCOC(=O)c1cc(-c2cncnc2)cc(S(=O)(=O)N2CCCC2)c1)c1ccc(-c2c3nc(c(-c4c(F)c(F)c(F)c(F)c4F)c4ccc([nH]4)c(-c4c(F)c(F)c(F)c(F)c4F)c4nc(c(-c5c(F)c(F)c(F)c(F)c5F)c5ccc2[nH]5)C=C4)C=C3)cc1
REMARK SMILES IDX 9 1 8 2 7 3 6 4 5 5 4 6 3 7 2 8 1 9 38 10 39 11 100 12 40 13
REMARK SMILES IDX 99 14 41 15 42 16 43 17 93 18 44 19 98 20 92 21 94 22 45 23
REMARK SMILES IDX 97 24 91 25 90 26 46 28 78 29 58 30 77 31 59 32 62 33 76 34
REMARK SMILES IDX 95 35 60 36 61 37 75 39 96 40 63 41 47 42 48 43 56 44 49 45
REMARK SMILES IDX 50 46 54 47 57 48 51 49 52 50 55 51 53 52 79 53 80 54 88 55
REMARK SMILES IDX 81 56 82 57 86 58 89 59 83 60 84 61 87 62 85 63 64 64 65 65
REMARK SMILES IDX 73 66 66 67 67 68 71 69 74 70 68 71 69 72 72 73 70 74 10 75
REMARK SMILES IDX 11 76 12 77 13 78 14 79 15 80 16 81 17 82 18 83 19 84 37 85
REMARK SMILES IDX 20 86 28 87 27 88 21 89 22 90 26 91 23 92 25 93 24 94 29 95
REMARK SMILES IDX 30 96 31 97 32 98 33 99 36 100 34 101 35 102
REMARK H PARENT 94 27 62 38
REMARK Flexibility Score: inf
ROOT
ATOM      1  O   UNL A   1      44.782  21.905  24.224  1.00  0.00    -0.377 OA
ENDROOT
BRANCH   1   2
ATOM      2  C   UNL A   1      45.400  20.883  25.015  1.00  0.00     0.188 C 
BRANCH   2   3
ATOM      3  C   UNL A   1      45.686  19.586  24.255  1.00  0.00     0.188 C 
BRANCH   3   4
ATOM      4  O   UNL A   1      44.764  18.576  24.680  1.00  0.00    -0.376 OA
BRANCH   4   5
ATOM      5  C   UNL A   1      43.574  19.068  25.291  1.00  0.00     0.202 C 
BRANCH   5   6
ATOM      6  C   UNL A   1      42.859  18.004  26.123  1.00  0.00     0.261 C 
BRANCH   6   7
ATOM      7  O   UNL A   1      41.602  18.497  26.607  1.00  0.00    -0.460 OA
BRANCH   7   8
ATOM      8  C   UNL A   1      40.968  19.644  26.258  1.00  0.00     0.338 C 
ATOM      9  O   UNL A   1      39.982  19.568  25.527  1.00  0.00    -0.246 OA
BRANCH   8  10
ATOM     10  C   UNL A   1      41.346  20.999  26.768  1.00  0.00     0.060 A 
ATOM     11  C   UNL A   1      41.524  22.147  25.990  1.00  0.00     0.016 A 
ATOM     12  C   UNL A   1      41.448  21.133  28.164  1.00  0.00     0.016 A 
ATOM     13  C   UNL A   1      41.867  23.370  26.565  1.00  0.00     0.010 A 
ATOM     14  C   UNL A   1      41.756  22.364  28.753  1.00  0.00     0.010 A 
ATOM     15  C   UNL A   1      41.992  23.484  27.949  1.00  0.00    -0.014 A 
BRANCH  15  16
ATOM     16  C   UNL A   1      42.457  24.757  28.534  1.00  0.00     0.031 A 
ATOM     17  C   UNL A   1      41.467  25.870  28.705  1.00  0.00     0.074 A 
ATOM     18  C   UNL A   1      43.727  24.885  28.956  1.00  0.00     0.049 A 
ATOM     19  N   UNL A   1      41.659  27.095  29.114  1.00  0.00    -0.248 NA
ATOM     20  C   UNL A   1      40.065  25.553  28.383  1.00  0.00     0.031 C 
ATOM     21  C   UNL A   1      44.739  23.829  28.914  1.00  0.00     0.029 A 
ATOM     22  N   UNL A   1      44.380  25.956  29.508  1.00  0.00    -0.354 N 
ATOM     23  C   UNL A   1      40.412  27.702  29.075  1.00  0.00     0.074 A 
ATOM     24  C   UNL A   1      39.466  26.712  28.608  1.00  0.00     0.031 C 
ATOM     25  C   UNL A   1      45.888  24.306  29.421  1.00  0.00     0.029 A 
ATOM     26  C   UNL A   1      45.708  25.713  29.769  1.00  0.00     0.049 A 
ATOM     27  H   UNL A   1      43.942  26.816  29.700  1.00  0.00     0.167 HD
ATOM     28  C   UNL A   1      40.092  28.977  29.393  1.00  0.00     0.037 A 
ATOM     29  C   UNL A   1      46.668  26.550  30.203  1.00  0.00     0.037 A 
ATOM     30  C   UNL A   1      41.045  29.947  29.856  1.00  0.00     0.049 A 
ATOM     31  C   UNL A   1      46.300  27.987  30.470  1.00  0.00     0.074 A 
ATOM     32  C   UNL A   1      40.842  31.276  30.178  1.00  0.00     0.029 A 
ATOM     33  N   UNL A   1      42.392  29.683  30.058  1.00  0.00    -0.354 N 
ATOM     34  N   UNL A   1      45.126  28.567  30.400  1.00  0.00    -0.248 NA
ATOM     35  C   UNL A   1      47.393  28.893  30.852  1.00  0.00     0.031 C 
ATOM     36  C   UNL A   1      42.077  31.826  30.542  1.00  0.00     0.029 A 
ATOM     37  C   UNL A   1      43.041  30.830  30.477  1.00  0.00     0.049 A 
ATOM     38  H   UNL A   1      42.822  28.807  29.925  1.00  0.00     0.167 HD
ATOM     39  C   UNL A   1      45.335  29.899  30.727  1.00  0.00     0.074 A 
ATOM     40  C   UNL A   1      46.747  30.037  31.028  1.00  0.00     0.031 C 
ATOM     41  C   UNL A   1      44.448  30.924  30.764  1.00  0.00     0.037 A 
BRANCH  28  42
ATOM     42  C   UNL A   1      38.670  29.397  29.192  1.00  0.00     0.064 A 
ATOM     43  C   UNL A   1      38.133  29.600  27.913  1.00  0.00     0.173 A 
ATOM     44  C   UNL A   1      37.834  29.606  30.300  1.00  0.00     0.173 A 
ATOM     45  F   UNL A   1      38.902  29.439  26.825  1.00  0.00    -0.203 F 
ATOM     46  C   UNL A   1      36.814  30.016  27.751  1.00  0.00     0.198 A 
ATOM     47  C   UNL A   1      36.511  30.003  30.132  1.00  0.00     0.198 A 
ATOM     48  F   UNL A   1      38.305  29.432  31.543  1.00  0.00    -0.203 F 
ATOM     49  F   UNL A   1      36.332  30.246  26.521  1.00  0.00    -0.200 F 
ATOM     50  C   UNL A   1      36.004  30.214  28.859  1.00  0.00     0.200 A 
ATOM     51  F   UNL A   1      35.730  30.195  31.204  1.00  0.00    -0.200 F 
ATOM     52  F   UNL A   1      34.736  30.619  28.701  1.00  0.00    -0.200 F 
ENDBRANCH  28  42
BRANCH  29  53
ATOM     53  C   UNL A   1      48.071  26.078  30.351  1.00  0.00     0.064 A 
ATOM     54  C   UNL A   1      48.588  25.716  31.602  1.00  0.00     0.173 A 
ATOM     55  C   UNL A   1      48.935  26.011  29.247  1.00  0.00     0.173 A 
ATOM     56  F   UNL A   1      47.813  25.788  32.694  1.00  0.00    -0.203 F 
ATOM     57  C   UNL A   1      49.919  25.322  31.746  1.00  0.00     0.198 A 
ATOM     58  C   UNL A   1      50.256  25.589  29.387  1.00  0.00     0.198 A 
ATOM     59  F   UNL A   1      48.495  26.354  28.028  1.00  0.00    -0.203 F 
ATOM     60  F   UNL A   1      50.401  25.028  32.961  1.00  0.00    -0.200 F 
ATOM     61  C   UNL A   1      50.749  25.253  30.638  1.00  0.00     0.200 A 
ATOM     62  F   UNL A   1      51.051  25.514  28.311  1.00  0.00    -0.200 F 
ATOM     63  F   UNL A   1      52.027  24.875  30.777  1.00  0.00    -0.200 F 
ENDBRANCH  29  53
BRANCH  41  64
ATOM     64  C   UNL A   1      44.984  32.271  31.136  1.00  0.00     0.064 A 
ATOM     65  C   UNL A   1      44.969  32.715  32.465  1.00  0.00     0.173 A 
ATOM     66  C   UNL A   1      45.569  33.099  30.167  1.00  0.00     0.173 A 
ATOM     67  F   UNL A   1      44.405  31.962  33.422  1.00  0.00    -0.203 F 
ATOM     68  C   UNL A   1      45.509  33.950  32.811  1.00  0.00     0.198 A 
ATOM     69  C   UNL A   1      46.128  34.323  30.519  1.00  0.00     0.198 A 
ATOM     70  F   UNL A   1      45.610  32.712  28.883  1.00  0.00    -0.203 F 
ATOM     71  F   UNL A   1      45.456  34.370  34.082  1.00  0.00    -0.200 F 
ATOM     72  C   UNL A   1      46.095  34.748  31.840  1.00  0.00     0.200 A 
ATOM     73  F   UNL A   1      46.703  35.090  29.583  1.00  0.00    -0.200 F 
ATOM     74  F   UNL A   1      46.625  35.932  32.176  1.00  0.00    -0.200 F 
ENDBRANCH  41  64
ENDBRANCH  15  16
ENDBRANCH   8  10
ENDBRANCH   7   8
ENDBRANCH   6   7
ENDBRANCH   5   6
ENDBRANCH   4   5
ENDBRANCH   3   4
ENDBRANCH   2   3
ENDBRANCH   1   2
BRANCH   1  75
ATOM     75  C   UNL A   1      45.434  23.171  24.203  1.00  0.00     0.188 C 
BRANCH  75  76
ATOM     76  C   UNL A   1      45.025  24.218  25.261  1.00  0.00     0.188 C 
BRANCH  76  77
ATOM     77  O   UNL A   1      44.608  25.475  24.738  1.00  0.00    -0.376 OA
BRANCH  77  78
ATOM     78  C   UNL A   1      43.238  25.806  24.953  1.00  0.00     0.202 C 
BRANCH  78  79
ATOM     79  C   UNL A   1      43.043  27.144  25.670  1.00  0.00     0.261 C 
BRANCH  79  80
ATOM     80  O   UNL A   1      43.996  27.399  26.713  1.00  0.00    -0.460 OA
BRANCH  80  81
ATOM     81  C   UNL A   1      44.346  28.681  26.958  1.00  0.00     0.338 C 
ATOM     82  O   UNL A   1      43.648  29.566  27.413  1.00  0.00    -0.246 OA
BRANCH  81  83
ATOM     83  C   UNL A   1      45.796  28.809  26.692  1.00  0.00     0.062 A 
ATOM     84  C   UNL A   1      46.515  29.884  27.214  1.00  0.00     0.024 A 
ATOM     85  C   UNL A   1      46.453  27.825  25.963  1.00  0.00     0.037 A 
ATOM     86  C   UNL A   1      47.901  29.979  27.001  1.00  0.00    -0.013 A 
ATOM     87  C   UNL A   1      47.784  27.985  25.612  1.00  0.00     0.084 A 
ATOM     88  C   UNL A   1      48.523  29.047  26.147  1.00  0.00     0.030 A 
BRANCH  86  89
ATOM     89  C   UNL A   1      48.664  31.014  27.686  1.00  0.00     0.018 A 
ATOM     90  C   UNL A   1      48.537  32.362  27.412  1.00  0.00     0.123 A 
ATOM     91  C   UNL A   1      49.539  30.723  28.721  1.00  0.00     0.123 A 
ATOM     92  N   UNL A   1      49.188  33.335  28.084  1.00  0.00    -0.244 NA
ATOM     93  N   UNL A   1      50.215  31.650  29.431  1.00  0.00    -0.244 NA
ATOM     94  C   UNL A   1      50.000  32.924  29.071  1.00  0.00     0.221 A 
ENDBRANCH  86  89
BRANCH  87  95
ATOM     95  S   UNL A   1      48.515  26.951  24.358  1.00  0.00     0.243 S 
ATOM     96  O   UNL A   1      48.307  25.594  24.811  1.00  0.00    -0.207 OA
ATOM     97  O   UNL A   1      48.004  27.422  23.088  1.00  0.00    -0.207 OA
BRANCH  95  98
ATOM     98  N   UNL A   1      50.175  27.244  24.405  1.00  0.00    -0.198 NA
ATOM     99  C   UNL A   1      50.887  27.855  23.273  1.00  0.00     0.102 C 
ATOM    100  C   UNL A   1      51.065  26.378  25.190  1.00  0.00     0.102 C 
ATOM    101  C   UNL A   1      52.154  27.023  23.102  1.00  0.00     0.018 C 
ATOM    102  C   UNL A   1      52.399  26.367  24.452  1.00  0.00     0.018 C 
ENDBRANCH  95  98
ENDBRANCH  87  95
ENDBRANCH  81  83
ENDBRANCH  80  81
ENDBRANCH  79  80
ENDBRANCH  78  79
ENDBRANCH  77  78
ENDBRANCH  76  77
ENDBRANCH  75  76
ENDBRANCH   1  75
TORSDOF 23
ENDMDL
MODEL 3
REMARK VINA RESULT:     -10.2      6.516     11.780
REMARK SMILES O=C(OCCOCCOCCOCCOC(=O)c1cc(-c2cncnc2)cc(S(=O)(=O)N2CCCC2)c1)c1ccc(-c2c3nc(c(-c4c(F)c(F)c(F)c(F)c4F)c4ccc([nH]4)c(-c4c(F)c(F)c(F)c(F)c4F)c4nc(c(-c5c(F)c(F)c(F)c(F)c5F)c5ccc2[nH]5)C=C4)C=C3)cc1
REMARK SMILES IDX 9 1 8 2 7 3 6 4 5 5 4 6 3 7 2 8 1 9 38 10 39 11 100 12 40 13
REMARK SMILES IDX 99 14 41 15 42 16 43 17 93 18 44 19 98 20 92 21 94 22 45 23
REMARK SMILES IDX 97 24 91 25 90 26 46 28 78 29 58 30 77 31 59 32 62 33 76 34
REMARK SMILES IDX 95 35 60 36 61 37 75 39 96 40 63 41 47 42 48 43 56 44 49 45
REMARK SMILES IDX 50 46 54 47 57 48 51 49 52 50 55 51 53 52 79 53 80 54 88 55
REMARK SMILES IDX 81 56 82 57 86 58 89 59 83 60 84 61 87 62 85 63 64 64 65 65
REMARK SMILES IDX 73 66 66 67 67 68 71 69 74 70 68 71 69 72 72 73 70 74 10 75
REMARK SMILES IDX 11 76 12 77 13 78 14 79 15 80 16 81 17 82 18 83 19 84 37 85
REMARK SMILES IDX 20 86 28 87 27 88 21 89 22 90 26 91 23 92 25 93 24 94 29 95
REMARK SMILES IDX 30 96 31 97 32 98 33 99 36 100 34 101 35 102
REMARK H PARENT 94 27 62 38
REMARK Flexibility Score: inf
ROOT
ATOM      1  O   UNL A   1      42.949  21.115  25.355  1.00  0.00    -0.377 OA
ENDROOT
BRANCH   1   2
ATOM      2  C   UNL A   1      42.519  20.005  26.151  1.00  0.00     0.188 C 
BRANCH   2   3
ATOM      3  C   UNL A   1      41.000  19.859  26.258  1.00  0.00     0.188 C 
BRANCH   3   4
ATOM      4  O   UNL A   1      40.445  21.069  26.787  1.00  0.00    -0.376 OA
BRANCH   4   5
ATOM      5  C   UNL A   1      39.256  21.516  26.143  1.00  0.00     0.202 C 
BRANCH   5   6
ATOM      6  C   UNL A   1      38.992  23.005  26.367  1.00  0.00     0.261 C 
BRANCH   6   7
ATOM      7  O   UNL A   1      40.208  23.693  26.697  1.00  0.00    -0.460 OA
BRANCH   7   8
ATOM      8  C   UNL A   1      40.377  24.698  27.591  1.00  0.00     0.338 C 
ATOM      9  O   UNL A   1      39.433  25.456  27.806  1.00  0.00    -0.246 OA
BRANCH   8  10
ATOM     10  C   UNL A   1      41.622  24.901  28.397  1.00  0.00     0.060 A 
ATOM     11  C   UNL A   1      41.952  26.052  29.118  1.00  0.00     0.016 A 
ATOM     12  C   UNL A   1      42.488  23.796  28.495  1.00  0.00     0.016 A 
ATOM     13  C   UNL A   1      43.136  26.137  29.849  1.00  0.00     0.010 A 
ATOM     14  C   UNL A   1      43.660  23.860  29.255  1.00  0.00     0.010 A 
ATOM     15  C   UNL A   1      44.001  25.045  29.916  1.00  0.00    -0.014 A 
BRANCH  15  16
ATOM     16  C   UNL A   1      45.297  25.186  30.607  1.00  0.00     0.031 A 
ATOM     17  C   UNL A   1      46.473  25.691  29.827  1.00  0.00     0.074 A 
ATOM     18  C   UNL A   1      45.397  24.923  31.922  1.00  0.00     0.049 A 
ATOM     19  N   UNL A   1      47.720  25.817  30.193  1.00  0.00    -0.248 NA
ATOM     20  C   UNL A   1      46.202  26.126  28.445  1.00  0.00     0.031 C 
ATOM     21  C   UNL A   1      44.289  24.513  32.785  1.00  0.00     0.029 A 
ATOM     22  N   UNL A   1      46.479  24.966  32.761  1.00  0.00    -0.354 N 
ATOM     23  C   UNL A   1      48.386  26.320  29.085  1.00  0.00     0.074 A 
ATOM     24  C   UNL A   1      47.408  26.483  28.031  1.00  0.00     0.031 C 
ATOM     25  C   UNL A   1      44.750  24.343  34.035  1.00  0.00     0.029 A 
ATOM     26  C   UNL A   1      46.192  24.576  34.047  1.00  0.00     0.049 A 
ATOM     27  H   UNL A   1      47.377  25.250  32.472  1.00  0.00     0.167 HD
ATOM     28  C   UNL A   1      49.702  26.610  28.961  1.00  0.00     0.037 A 
ATOM     29  C   UNL A   1      47.015  24.395  35.097  1.00  0.00     0.037 A 
ATOM     30  C   UNL A   1      50.659  26.442  30.017  1.00  0.00     0.049 A 
ATOM     31  C   UNL A   1      48.488  24.646  34.906  1.00  0.00     0.074 A 
ATOM     32  C   UNL A   1      52.023  26.673  29.997  1.00  0.00     0.029 A 
ATOM     33  N   UNL A   1      50.344  25.994  31.293  1.00  0.00    -0.354 N 
ATOM     34  N   UNL A   1      49.121  25.090  33.846  1.00  0.00    -0.248 NA
ATOM     35  C   UNL A   1      49.366  24.348  36.046  1.00  0.00     0.031 C 
ATOM     36  C   UNL A   1      52.538  26.329  31.253  1.00  0.00     0.029 A 
ATOM     37  C   UNL A   1      51.490  25.916  32.063  1.00  0.00     0.049 A 
ATOM     38  H   UNL A   1      49.437  25.767  31.603  1.00  0.00     0.167 HD
ATOM     39  C   UNL A   1      50.465  25.125  34.188  1.00  0.00     0.074 A 
ATOM     40  C   UNL A   1      50.555  24.687  35.567  1.00  0.00     0.031 C 
ATOM     41  C   UNL A   1      51.535  25.474  33.432  1.00  0.00     0.037 A 
BRANCH  28  42
ATOM     42  C   UNL A   1      50.176  27.078  27.620  1.00  0.00     0.064 A 
ATOM     43  C   UNL A   1      50.561  26.178  26.617  1.00  0.00     0.173 A 
ATOM     44  C   UNL A   1      50.252  28.451  27.341  1.00  0.00     0.173 A 
ATOM     45  F   UNL A   1      50.531  24.857  26.848  1.00  0.00    -0.203 F 
ATOM     46  C   UNL A   1      51.024  26.637  25.386  1.00  0.00     0.198 A 
ATOM     47  C   UNL A   1      50.697  28.905  26.102  1.00  0.00     0.198 A 
ATOM     48  F   UNL A   1      49.902  29.350  28.272  1.00  0.00    -0.203 F 
ATOM     49  F   UNL A   1      51.428  25.761  24.455  1.00  0.00    -0.200 F 
ATOM     50  C   UNL A   1      51.089  27.999  25.129  1.00  0.00     0.200 A 
ATOM     51  F   UNL A   1      50.760  30.221  25.856  1.00  0.00    -0.200 F 
ATOM     52  F   UNL A   1      51.539  28.438  23.946  1.00  0.00    -0.200 F 
ENDBRANCH  28  42
BRANCH  29  53
ATOM     53  C   UNL A   1      46.484  23.896  36.394  1.00  0.00     0.064 A 
ATOM     54  C   UNL A   1      46.028  24.780  37.382  1.00  0.00     0.173 A 
ATOM     55  C   UNL A   1      46.453  22.524  36.687  1.00  0.00     0.173 A 
ATOM     56  F   UNL A   1      46.062  26.103  37.165  1.00  0.00    -0.203 F 
ATOM     57  C   UNL A   1      45.578  24.312  38.618  1.00  0.00     0.198 A 
ATOM     58  C   UNL A   1      45.976  22.055  37.910  1.00  0.00     0.198 A 
ATOM     59  F   UNL A   1      46.885  21.634  35.781  1.00  0.00    -0.203 F 
ATOM     60  F   UNL A   1      45.195  25.181  39.562  1.00  0.00    -0.200 F 
ATOM     61  C   UNL A   1      45.547  22.950  38.877  1.00  0.00     0.200 A 
ATOM     62  F   UNL A   1      45.938  20.738  38.152  1.00  0.00    -0.200 F 
ATOM     63  F   UNL A   1      45.116  22.501  40.063  1.00  0.00    -0.200 F 
ENDBRANCH  29  53
BRANCH  41  64
ATOM     64  C   UNL A   1      52.881  25.387  34.081  1.00  0.00     0.064 A 
ATOM     65  C   UNL A   1      53.664  24.229  33.971  1.00  0.00     0.173 A 
ATOM     66  C   UNL A   1      53.416  26.487  34.766  1.00  0.00     0.173 A 
ATOM     67  F   UNL A   1      53.184  23.147  33.338  1.00  0.00    -0.203 F 
ATOM     68  C   UNL A   1      54.933  24.170  34.538  1.00  0.00     0.198 A 
ATOM     69  C   UNL A   1      54.694  26.432  35.312  1.00  0.00     0.198 A 
ATOM     70  F   UNL A   1      52.704  27.616  34.891  1.00  0.00    -0.203 F 
ATOM     71  F   UNL A   1      55.652  23.043  34.450  1.00  0.00    -0.200 F 
ATOM     72  C   UNL A   1      55.449  25.274  35.201  1.00  0.00     0.200 A 
ATOM     73  F   UNL A   1      55.197  27.502  35.944  1.00  0.00    -0.200 F 
ATOM     74  F   UNL A   1      56.676  25.219  35.738  1.00  0.00    -0.200 F 
ENDBRANCH  41  64
ENDBRANCH  15  16
ENDBRANCH   8  10
ENDBRANCH   7   8
ENDBRANCH   6   7
ENDBRANCH   5   6
ENDBRANCH   4   5
ENDBRANCH   3   4
ENDBRANCH   2   3
ENDBRANCH   1   2
BRANCH   1  75
ATOM     75  C   UNL A   1      44.153  21.758  25.762  1.00  0.00     0.188 C 
BRANCH  75  76
ATOM     76  C   UNL A   1      45.079  22.330  24.667  1.00  0.00     0.188 C 
BRANCH  76  77
ATOM     77  O   UNL A   1      44.666  23.575  24.114  1.00  0.00    -0.376 OA
BRANCH  77  78
ATOM     78  C   UNL A   1      44.666  24.679  25.015  1.00  0.00     0.202 C 
BRANCH  78  79
ATOM     79  C   UNL A   1      43.334  25.431  25.053  1.00  0.00     0.261 C 
BRANCH  79  80
ATOM     80  O   UNL A   1      43.299  26.525  25.981  1.00  0.00    -0.460 OA
BRANCH  80  81
ATOM     81  C   UNL A   1      42.803  27.707  25.556  1.00  0.00     0.338 C 
ATOM     82  O   UNL A   1      42.561  28.042  24.413  1.00  0.00    -0.246 OA
BRANCH  81  83
ATOM     83  C   UNL A   1      42.471  28.512  26.752  1.00  0.00     0.062 A 
ATOM     84  C   UNL A   1      41.145  28.656  27.159  1.00  0.00     0.024 A 
ATOM     85  C   UNL A   1      43.491  29.083  27.504  1.00  0.00     0.037 A 
ATOM     86  C   UNL A   1      40.836  29.382  28.323  1.00  0.00    -0.013 A 
ATOM     87  C   UNL A   1      43.194  29.929  28.560  1.00  0.00     0.084 A 
ATOM     88  C   UNL A   1      41.869  30.065  28.992  1.00  0.00     0.030 A 
BRANCH  86  89
ATOM     89  C   UNL A   1      39.467  29.387  28.824  1.00  0.00     0.018 A 
ATOM     90  C   UNL A   1      38.368  29.666  28.034  1.00  0.00     0.123 A 
ATOM     91  C   UNL A   1      39.158  29.046  30.131  1.00  0.00     0.123 A 
ATOM     92  N   UNL A   1      37.091  29.609  28.470  1.00  0.00    -0.244 NA
ATOM     93  N   UNL A   1      37.905  28.969  30.623  1.00  0.00    -0.244 NA
ATOM     94  C   UNL A   1      36.925  29.258  29.754  1.00  0.00     0.221 A 
ENDBRANCH  86  89
BRANCH  87  95
ATOM     95  S   UNL A   1      44.458  30.971  29.263  1.00  0.00     0.243 S 
ATOM     96  O   UNL A   1      45.642  30.724  28.471  1.00  0.00    -0.207 OA
ATOM     97  O   UNL A   1      43.880  32.293  29.385  1.00  0.00    -0.207 OA
BRANCH  95  98
ATOM     98  N   UNL A   1      44.760  30.377  30.811  1.00  0.00    -0.198 NA
ATOM     99  C   UNL A   1      45.297  29.026  31.033  1.00  0.00     0.102 C 
ATOM    100  C   UNL A   1      43.950  30.823  31.954  1.00  0.00     0.102 C 
ATOM    101  C   UNL A   1      44.460  28.445  32.168  1.00  0.00     0.018 C 
ATOM    102  C   UNL A   1      43.896  29.642  32.917  1.00  0.00     0.018 C 
ENDBRANCH  95  98
ENDBRANCH  87  95
ENDBRANCH  81  83
ENDBRANCH  80  81
ENDBRANCH  79  80
ENDBRANCH  78  79
ENDBRANCH  77  78
ENDBRANCH  76  77
ENDBRANCH  75  76
ENDBRANCH   1  75
TORSDOF 23
ENDMDL
