MODEL 1
REMARK VINA RESULT:     -10.2      0.000      0.000
REMARK SMILES CCOc1ccc(-c2cnc(N)cc2C(=O)OCCOCCOCCOCCOC(=O)c2ccc(-c3c4nc(c(-c5c(F)c(F)c(F)c(F)c5F)c5ccc([nH]5)c(-c5c(F)c(F)c(F)c(F)c5F)c5nc(c(-c6c(F)c(F)c(F)c(F)c6F)c6ccc3[nH]6)C=C5)C=C4)cc2)c(Cl)c1
REMARK SMILES IDX 22 1 21 2 20 3 19 4 18 5 17 6 15 7 16 8 14 9 8 10 9 11 10 12
REMARK SMILES IDX 13 13 11 14 7 15 4 16 5 17 97 18 6 19 95 20 96 21 3 22 2 23
REMARK SMILES IDX 1 24 12 25 23 28 24 29 25 30 26 31 27 32 28 33 29 34 30 35
REMARK SMILES IDX 31 36 32 37 33 38 94 39 34 40 93 41 35 42 36 43 37 44 87 45
REMARK SMILES IDX 38 46 92 47 86 48 88 49 39 50 91 51 85 52 84 53 40 55 72 56
REMARK SMILES IDX 52 57 71 58 53 59 56 60 70 61 89 62 54 63 55 64 69 66 90 67
REMARK SMILES IDX 57 68 41 69 42 70 50 71 43 72 44 73 48 74 51 75 45 76 46 77
REMARK SMILES IDX 49 78 47 79 73 80 74 81 82 82 75 83 76 84 80 85 83 86 77 87
REMARK SMILES IDX 78 88 81 89 79 90 58 91 59 92 67 93 60 94 61 95 65 96 68 97
REMARK SMILES IDX 62 98 63 99 66 100 64 101
REMARK H PARENT 12 26 12 27 88 54 56 65
REMARK Flexibility Score: inf
ROOT
ATOM      1  C   UNL A   1      35.212  23.915  25.446  1.00  0.00     0.188 C 
ENDROOT
BRANCH   1   2
ATOM      2  C   UNL A   1      34.483  23.154  26.583  1.00  0.00     0.188 C 
BRANCH   2   3
ATOM      3  O   UNL A   1      33.241  22.583  26.192  1.00  0.00    -0.376 OA
BRANCH   3   4
ATOM      4  C   UNL A   1      32.185  22.637  27.135  1.00  0.00     0.202 C 
BRANCH   4   5
ATOM      5  C   UNL A   1      30.976  23.462  26.688  1.00  0.00     0.261 C 
BRANCH   5   6
ATOM      6  O   UNL A   1      31.230  24.866  26.520  1.00  0.00    -0.460 OA
BRANCH   6   7
ATOM      7  C   UNL A   1      30.703  25.490  25.437  1.00  0.00     0.339 C 
ATOM      8  O   UNL A   1      29.588  25.968  25.362  1.00  0.00    -0.246 OA
BRANCH   7   9
ATOM      9  C   UNL A   1      31.766  25.556  24.393  1.00  0.00     0.073 A 
ATOM     10  C   UNL A   1      32.682  26.622  24.294  1.00  0.00     0.016 A 
ATOM     11  C   UNL A   1      33.600  26.523  23.250  1.00  0.00     0.123 A 
ATOM     12  N   UNL A   1      33.682  25.490  22.378  1.00  0.00    -0.239 NA
ATOM     13  C   UNL A   1      31.852  24.469  23.510  1.00  0.00     0.062 A 
ATOM     14  C   UNL A   1      32.830  24.470  22.536  1.00  0.00     0.124 A 
BRANCH  10  15
ATOM     15  C   UNL A   1      32.728  27.787  25.196  1.00  0.00     0.003 A 
ATOM     16  C   UNL A   1      33.014  30.016  26.916  1.00  0.00     0.120 A 
ATOM     17  C   UNL A   1      33.738  28.852  27.144  1.00  0.00     0.047 A 
ATOM     18  C   UNL A   1      32.081  30.048  25.886  1.00  0.00     0.067 A 
ATOM     19  C   UNL A   1      33.605  27.757  26.288  1.00  0.00     0.014 A 
ATOM     20  C   UNL A   1      31.915  28.934  25.055  1.00  0.00     0.052 A 
ATOM     21  Cl  UNL A   1      30.638  29.026  23.892  1.00  0.00    -0.084 Cl
BRANCH  16  22
ATOM     22  O   UNL A   1      33.076  31.120  27.717  1.00  0.00    -0.494 OA
BRANCH  22  23
ATOM     23  C   UNL A   1      34.341  31.792  27.748  1.00  0.00     0.226 C 
ATOM     24  C   UNL A   1      34.577  32.486  29.080  1.00  0.00     0.049 C 
ENDBRANCH  22  23
ENDBRANCH  16  22
ENDBRANCH  10  15
BRANCH  14  25
ATOM     25  N   UNL A   1      32.934  23.432  21.635  1.00  0.00    -0.384 N 
ATOM     26  H   UNL A   1      32.602  22.537  21.874  1.00  0.00     0.158 HD
ATOM     27  H   UNL A   1      33.342  23.586  20.752  1.00  0.00     0.158 HD
ENDBRANCH  14  25
ENDBRANCH   7   9
ENDBRANCH   6   7
ENDBRANCH   5   6
ENDBRANCH   4   5
ENDBRANCH   3   4
ENDBRANCH   2   3
ENDBRANCH   1   2
BRANCH   1  28
ATOM     28  O   UNL A   1      36.520  24.460  25.592  1.00  0.00    -0.377 OA
BRANCH  28  29
ATOM     29  C   UNL A   1      37.546  23.629  26.099  1.00  0.00     0.188 C 
BRANCH  29  30
ATOM     30  C   UNL A   1      37.793  22.339  25.293  1.00  0.00     0.188 C 
BRANCH  30  31
ATOM     31  O   UNL A   1      38.843  21.539  25.818  1.00  0.00    -0.376 OA
BRANCH  31  32
ATOM     32  C   UNL A   1      38.952  20.195  25.379  1.00  0.00     0.202 C 
BRANCH  32  33
ATOM     33  C   UNL A   1      39.994  19.277  26.037  1.00  0.00     0.261 C 
BRANCH  33  34
ATOM     34  O   UNL A   1      41.249  19.133  25.357  1.00  0.00    -0.460 OA
BRANCH  34  35
ATOM     35  C   UNL A   1      42.381  19.089  26.089  1.00  0.00     0.338 C 
ATOM     36  O   UNL A   1      43.108  18.132  26.283  1.00  0.00    -0.246 OA
BRANCH  35  37
ATOM     37  C   UNL A   1      42.698  20.488  26.447  1.00  0.00     0.060 A 
ATOM     38  C   UNL A   1      43.066  21.386  25.435  1.00  0.00     0.016 A 
ATOM     39  C   UNL A   1      42.547  20.930  27.764  1.00  0.00     0.016 A 
ATOM     40  C   UNL A   1      43.279  22.731  25.737  1.00  0.00     0.010 A 
ATOM     41  C   UNL A   1      42.797  22.268  28.073  1.00  0.00     0.010 A 
ATOM     42  C   UNL A   1      43.181  23.169  27.065  1.00  0.00    -0.014 A 
BRANCH  42  43
ATOM     43  C   UNL A   1      43.683  24.511  27.435  1.00  0.00     0.031 A 
ATOM     44  C   UNL A   1      42.675  25.546  27.842  1.00  0.00     0.074 A 
ATOM     45  C   UNL A   1      44.993  24.808  27.404  1.00  0.00     0.049 A 
ATOM     46  N   UNL A   1      42.848  26.808  28.139  1.00  0.00    -0.248 NA
ATOM     47  C   UNL A   1      41.277  25.093  27.921  1.00  0.00     0.031 C 
ATOM     48  C   UNL A   1      46.063  23.876  27.061  1.00  0.00     0.029 A 
ATOM     49  N   UNL A   1      45.641  25.993  27.652  1.00  0.00    -0.354 N 
ATOM     50  C   UNL A   1      41.583  27.298  28.432  1.00  0.00     0.074 A 
ATOM     51  C   UNL A   1      40.649  26.210  28.252  1.00  0.00     0.031 C 
ATOM     52  C   UNL A   1      47.237  24.532  27.095  1.00  0.00     0.029 A 
ATOM     53  C   UNL A   1      46.994  25.935  27.430  1.00  0.00     0.049 A 
ATOM     54  H   UNL A   1      45.179  26.806  27.960  1.00  0.00     0.167 HD
ATOM     55  C   UNL A   1      41.234  28.547  28.821  1.00  0.00     0.037 A 
ATOM     56  C   UNL A   1      47.920  26.914  27.461  1.00  0.00     0.037 A 
ATOM     57  C   UNL A   1      42.167  29.628  28.986  1.00  0.00     0.049 A 
ATOM     58  C   UNL A   1      47.496  28.318  27.819  1.00  0.00     0.074 A 
ATOM     59  C   UNL A   1      41.922  30.925  29.401  1.00  0.00     0.029 A 
ATOM     60  N   UNL A   1      43.528  29.540  28.726  1.00  0.00    -0.354 N 
ATOM     61  N   UNL A   1      46.306  28.770  28.134  1.00  0.00    -0.248 NA
ATOM     62  C   UNL A   1      48.546  29.347  27.829  1.00  0.00     0.031 C 
ATOM     63  C   UNL A   1      43.123  31.637  29.331  1.00  0.00     0.029 A 
ATOM     64  C   UNL A   1      44.130  30.770  28.936  1.00  0.00     0.049 A 
ATOM     65  H   UNL A   1      43.996  28.724  28.436  1.00  0.00     0.167 HD
ATOM     66  C   UNL A   1      46.466  30.124  28.401  1.00  0.00     0.074 A 
ATOM     67  C   UNL A   1      47.873  30.418  28.226  1.00  0.00     0.031 C 
ATOM     68  C   UNL A   1      45.534  31.042  28.758  1.00  0.00     0.037 A 
BRANCH  55  69
ATOM     69  C   UNL A   1      39.775  28.816  29.049  1.00  0.00     0.064 A 
ATOM     70  C   UNL A   1      38.934  29.262  28.018  1.00  0.00     0.173 A 
ATOM     71  C   UNL A   1      39.210  28.610  30.316  1.00  0.00     0.173 A 
ATOM     72  F   UNL A   1      39.429  29.492  26.793  1.00  0.00    -0.203 F 
ATOM     73  C   UNL A   1      37.587  29.522  28.257  1.00  0.00     0.198 A 
ATOM     74  C   UNL A   1      37.856  28.841  30.542  1.00  0.00     0.198 A 
ATOM     75  F   UNL A   1      39.969  28.185  31.336  1.00  0.00    -0.203 F 
ATOM     76  F   UNL A   1      36.814  30.001  27.272  1.00  0.00    -0.200 F 
ATOM     77  C   UNL A   1      37.047  29.304  29.516  1.00  0.00     0.200 A 
ATOM     78  F   UNL A   1      37.334  28.619  31.757  1.00  0.00    -0.200 F 
ATOM     79  F   UNL A   1      35.749  29.550  29.742  1.00  0.00    -0.200 F 
ENDBRANCH  55  69
BRANCH  56  80
ATOM     80  C   UNL A   1      49.334  26.611  27.114  1.00  0.00     0.064 A 
ATOM     81  C   UNL A   1      50.271  26.281  28.103  1.00  0.00     0.173 A 
ATOM     82  C   UNL A   1      49.782  26.664  25.785  1.00  0.00     0.173 A 
ATOM     83  F   UNL A   1      49.900  26.245  29.391  1.00  0.00    -0.203 F 
ATOM     84  C   UNL A   1      51.603  26.029  27.778  1.00  0.00     0.198 A 
ATOM     85  C   UNL A   1      51.107  26.382  25.458  1.00  0.00     0.198 A 
ATOM     86  F   UNL A   1      48.929  26.980  24.800  1.00  0.00    -0.203 F 
ATOM     87  F   UNL A   1      52.487  25.759  28.748  1.00  0.00    -0.200 F 
ATOM     88  C   UNL A   1      52.018  26.072  26.456  1.00  0.00     0.200 A 
ATOM     89  F   UNL A   1      51.500  26.413  24.178  1.00  0.00    -0.200 F 
ATOM     90  F   UNL A   1      53.298  25.823  26.143  1.00  0.00    -0.200 F 
ENDBRANCH  56  80
BRANCH  68  91
ATOM     91  C   UNL A   1      46.004  32.447  29.014  1.00  0.00     0.064 A 
ATOM     92  C   UNL A   1      46.042  33.409  27.994  1.00  0.00     0.173 A 
ATOM     93  C   UNL A   1      46.368  32.847  30.308  1.00  0.00     0.173 A 
ATOM     94  F   UNL A   1      45.717  33.074  26.736  1.00  0.00    -0.203 F 
ATOM     95  C   UNL A   1      46.448  34.715  28.257  1.00  0.00     0.198 A 
ATOM     96  C   UNL A   1      46.742  34.162  30.575  1.00  0.00     0.198 A 
ATOM     97  F   UNL A   1      46.342  31.969  31.322  1.00  0.00    -0.203 F 
ATOM     98  F   UNL A   1      46.520  35.607  27.259  1.00  0.00    -0.200 F 
ATOM     99  C   UNL A   1      46.788  35.092  29.548  1.00  0.00     0.200 A 
ATOM    100  F   UNL A   1      47.053  34.529  31.826  1.00  0.00    -0.200 F 
ATOM    101  F   UNL A   1      47.167  36.353  29.801  1.00  0.00    -0.200 F 
ENDBRANCH  68  91
ENDBRANCH  42  43
ENDBRANCH  35  37
ENDBRANCH  34  35
ENDBRANCH  33  34
ENDBRANCH  32  33
ENDBRANCH  31  32
ENDBRANCH  30  31
ENDBRANCH  29  30
ENDBRANCH  28  29
ENDBRANCH   1  28
TORSDOF 24
ENDMDL
MODEL 2
REMARK VINA RESULT:     -10.0      0.893      2.084
REMARK SMILES CCOc1ccc(-c2cnc(N)cc2C(=O)OCCOCCOCCOCCOC(=O)c2ccc(-c3c4nc(c(-c5c(F)c(F)c(F)c(F)c5F)c5ccc([nH]5)c(-c5c(F)c(F)c(F)c(F)c5F)c5nc(c(-c6c(F)c(F)c(F)c(F)c6F)c6ccc3[nH]6)C=C5)C=C4)cc2)c(Cl)c1
REMARK SMILES IDX 22 1 21 2 20 3 19 4 18 5 17 6 15 7 16 8 14 9 8 10 9 11 10 12
REMARK SMILES IDX 13 13 11 14 7 15 4 16 5 17 97 18 6 19 95 20 96 21 3 22 2 23
REMARK SMILES IDX 1 24 12 25 23 28 24 29 25 30 26 31 27 32 28 33 29 34 30 35
REMARK SMILES IDX 31 36 32 37 33 38 94 39 34 40 93 41 35 42 36 43 37 44 87 45
REMARK SMILES IDX 38 46 92 47 86 48 88 49 39 50 91 51 85 52 84 53 40 55 72 56
REMARK SMILES IDX 52 57 71 58 53 59 56 60 70 61 89 62 54 63 55 64 69 66 90 67
REMARK SMILES IDX 57 68 41 69 42 70 50 71 43 72 44 73 48 74 51 75 45 76 46 77
REMARK SMILES IDX 49 78 47 79 73 80 74 81 82 82 75 83 76 84 80 85 83 86 77 87
REMARK SMILES IDX 78 88 81 89 79 90 58 91 59 92 67 93 60 94 61 95 65 96 68 97
REMARK SMILES IDX 62 98 63 99 66 100 64 101
REMARK H PARENT 12 26 12 27 88 54 56 65
REMARK Flexibility Score: inf
ROOT
ATOM      1  C   UNL A   1      33.837  21.567  26.725  1.00  0.00     0.188 C 
ENDROOT
BRANCH   1   2
ATOM      2  C   UNL A   1      33.048  22.607  27.560  1.00  0.00     0.188 C 
BRANCH   2   3
ATOM      3  O   UNL A   1      31.741  22.872  27.067  1.00  0.00    -0.376 OA
BRANCH   3   4
ATOM      4  C   UNL A   1      31.441  22.409  25.762  1.00  0.00     0.202 C 
BRANCH   4   5
ATOM      5  C   UNL A   1      31.282  23.516  24.718  1.00  0.00     0.261 C 
BRANCH   5   6
ATOM      6  O   UNL A   1      31.145  24.842  25.256  1.00  0.00    -0.460 OA
BRANCH   6   7
ATOM      7  C   UNL A   1      30.648  25.815  24.452  1.00  0.00     0.339 C 
ATOM      8  O   UNL A   1      29.584  26.384  24.597  1.00  0.00    -0.246 OA
BRANCH   7   9
ATOM      9  C   UNL A   1      31.677  26.113  23.415  1.00  0.00     0.073 A 
ATOM     10  C   UNL A   1      32.619  27.153  23.544  1.00  0.00     0.016 A 
ATOM     11  C   UNL A   1      33.499  27.294  22.472  1.00  0.00     0.123 A 
ATOM     12  N   UNL A   1      33.523  26.504  21.372  1.00  0.00    -0.239 NA
ATOM     13  C   UNL A   1      31.703  25.273  22.291  1.00  0.00     0.062 A 
ATOM     14  C   UNL A   1      32.649  25.492  21.310  1.00  0.00     0.124 A 
BRANCH  10  15
ATOM     15  C   UNL A   1      32.727  28.061  24.699  1.00  0.00     0.003 A 
ATOM     16  C   UNL A   1      33.132  29.800  26.895  1.00  0.00     0.120 A 
ATOM     17  C   UNL A   1      33.849  28.614  26.793  1.00  0.00     0.047 A 
ATOM     18  C   UNL A   1      32.150  30.085  25.954  1.00  0.00     0.067 A 
ATOM     19  C   UNL A   1      33.658  27.763  25.703  1.00  0.00     0.014 A 
ATOM     20  C   UNL A   1      31.926  29.210  24.885  1.00  0.00     0.052 A 
ATOM     21  Cl  UNL A   1      30.593  29.586  23.848  1.00  0.00    -0.084 Cl
BRANCH  16  22
ATOM     22  O   UNL A   1      33.251  30.674  27.937  1.00  0.00    -0.494 OA
BRANCH  22  23
ATOM     23  C   UNL A   1      34.018  31.854  27.671  1.00  0.00     0.226 C 
ATOM     24  C   UNL A   1      34.694  32.381  28.927  1.00  0.00     0.049 C 
ENDBRANCH  22  23
ENDBRANCH  16  22
ENDBRANCH  10  15
BRANCH  14  25
ATOM     25  N   UNL A   1      32.694  24.704  20.180  1.00  0.00    -0.384 N 
ATOM     26  H   UNL A   1      31.887  24.229  19.878  1.00  0.00     0.158 HD
ATOM     27  H   UNL A   1      33.535  24.616  19.675  1.00  0.00     0.158 HD
ENDBRANCH  14  25
ENDBRANCH   7   9
ENDBRANCH   6   7
ENDBRANCH   5   6
ENDBRANCH   4   5
ENDBRANCH   3   4
ENDBRANCH   2   3
ENDBRANCH   1   2
BRANCH   1  28
ATOM     28  O   UNL A   1      35.183  21.768  26.304  1.00  0.00    -0.377 OA
BRANCH  28  29
ATOM     29  C   UNL A   1      35.677  20.995  25.227  1.00  0.00     0.188 C 
BRANCH  29  30
ATOM     30  C   UNL A   1      36.904  21.592  24.510  1.00  0.00     0.188 C 
BRANCH  30  31
ATOM     31  O   UNL A   1      38.136  21.273  25.141  1.00  0.00    -0.376 OA
BRANCH  31  32
ATOM     32  C   UNL A   1      38.521  19.911  25.221  1.00  0.00     0.202 C 
BRANCH  32  33
ATOM     33  C   UNL A   1      39.718  19.525  26.104  1.00  0.00     0.261 C 
BRANCH  33  34
ATOM     34  O   UNL A   1      40.918  19.123  25.427  1.00  0.00    -0.460 OA
BRANCH  34  35
ATOM     35  C   UNL A   1      42.070  19.074  26.127  1.00  0.00     0.338 C 
ATOM     36  O   UNL A   1      42.791  18.111  26.312  1.00  0.00    -0.246 OA
BRANCH  35  37
ATOM     37  C   UNL A   1      42.415  20.473  26.457  1.00  0.00     0.060 A 
ATOM     38  C   UNL A   1      42.613  21.393  25.417  1.00  0.00     0.016 A 
ATOM     39  C   UNL A   1      42.455  20.893  27.790  1.00  0.00     0.016 A 
ATOM     40  C   UNL A   1      42.848  22.737  25.708  1.00  0.00     0.010 A 
ATOM     41  C   UNL A   1      42.727  22.231  28.081  1.00  0.00     0.010 A 
ATOM     42  C   UNL A   1      42.942  23.153  27.043  1.00  0.00    -0.014 A 
BRANCH  42  43
ATOM     43  C   UNL A   1      43.472  24.499  27.356  1.00  0.00     0.031 A 
ATOM     44  C   UNL A   1      42.509  25.526  27.876  1.00  0.00     0.074 A 
ATOM     45  C   UNL A   1      44.769  24.806  27.179  1.00  0.00     0.049 A 
ATOM     46  N   UNL A   1      42.705  26.789  28.154  1.00  0.00    -0.248 NA
ATOM     47  C   UNL A   1      41.132  25.062  28.110  1.00  0.00     0.031 C 
ATOM     48  C   UNL A   1      45.801  23.882  26.717  1.00  0.00     0.029 A 
ATOM     49  N   UNL A   1      45.432  25.995  27.356  1.00  0.00    -0.354 N 
ATOM     50  C   UNL A   1      41.477  27.269  28.587  1.00  0.00     0.074 A 
ATOM     51  C   UNL A   1      40.536  26.174  28.510  1.00  0.00     0.031 C 
ATOM     52  C   UNL A   1      46.966  24.547  26.621  1.00  0.00     0.029 A 
ATOM     53  C   UNL A   1      46.752  25.948  26.983  1.00  0.00     0.049 A 
ATOM     54  H   UNL A   1      45.001  26.804  27.715  1.00  0.00     0.167 HD
ATOM     55  C   UNL A   1      41.164  28.515  29.015  1.00  0.00     0.037 A 
ATOM     56  C   UNL A   1      47.668  26.934  26.912  1.00  0.00     0.037 A 
ATOM     57  C   UNL A   1      42.102  29.602  29.077  1.00  0.00     0.049 A 
ATOM     58  C   UNL A   1      47.276  28.333  27.319  1.00  0.00     0.074 A 
ATOM     59  C   UNL A   1      41.896  30.897  29.519  1.00  0.00     0.029 A 
ATOM     60  N   UNL A   1      43.426  29.525  28.666  1.00  0.00    -0.354 N 
ATOM     61  N   UNL A   1      46.126  28.777  27.765  1.00  0.00    -0.248 NA
ATOM     62  C   UNL A   1      48.313  29.371  27.213  1.00  0.00     0.031 C 
ATOM     63  C   UNL A   1      43.076  31.619  29.317  1.00  0.00     0.029 A 
ATOM     64  C   UNL A   1      44.038  30.759  28.810  1.00  0.00     0.049 A 
ATOM     65  H   UNL A   1      43.865  28.713  28.324  1.00  0.00     0.167 HD
ATOM     66  C   UNL A   1      46.305  30.132  28.015  1.00  0.00     0.074 A 
ATOM     67  C   UNL A   1      47.681  30.436  27.685  1.00  0.00     0.031 C 
ATOM     68  C   UNL A   1      45.412  31.042  28.476  1.00  0.00     0.037 A 
BRANCH  55  69
ATOM     69  C   UNL A   1      39.738  28.772  29.405  1.00  0.00     0.064 A 
ATOM     70  C   UNL A   1      39.280  28.568  30.715  1.00  0.00     0.173 A 
ATOM     71  C   UNL A   1      38.820  29.243  28.454  1.00  0.00     0.173 A 
ATOM     72  F   UNL A   1      40.113  28.101  31.658  1.00  0.00    -0.203 F 
ATOM     73  C   UNL A   1      37.949  28.796  31.051  1.00  0.00     0.198 A 
ATOM     74  C   UNL A   1      37.497  29.500  28.802  1.00  0.00     0.198 A 
ATOM     75  F   UNL A   1      39.206  29.454  27.187  1.00  0.00    -0.203 F 
ATOM     76  F   UNL A   1      37.519  28.542  32.296  1.00  0.00    -0.200 F 
ATOM     77  C   UNL A   1      37.060  29.269  30.097  1.00  0.00     0.200 A 
ATOM     78  F   UNL A   1      36.643  29.968  27.881  1.00  0.00    -0.200 F 
ATOM     79  F   UNL A   1      35.780  29.493  30.423  1.00  0.00    -0.200 F 
ENDBRANCH  55  69
BRANCH  56  80
ATOM     80  C   UNL A   1      49.037  26.642  26.409  1.00  0.00     0.064 A 
ATOM     81  C   UNL A   1      49.373  26.833  25.063  1.00  0.00     0.173 A 
ATOM     82  C   UNL A   1      50.033  26.146  27.265  1.00  0.00     0.173 A 
ATOM     83  F   UNL A   1      48.450  27.277  24.198  1.00  0.00    -0.203 F 
ATOM     84  C   UNL A   1      50.648  26.527  24.588  1.00  0.00     0.198 A 
ATOM     85  C   UNL A   1      51.316  25.871  26.797  1.00  0.00     0.198 A 
ATOM     86  F   UNL A   1      49.763  25.940  28.562  1.00  0.00    -0.203 F 
ATOM     87  F   UNL A   1      50.930  26.677  23.287  1.00  0.00    -0.200 F 
ATOM     88  C   UNL A   1      51.620  26.054  25.457  1.00  0.00     0.200 A 
ATOM     89  F   UNL A   1      52.254  25.425  27.642  1.00  0.00    -0.200 F 
ATOM     90  F   UNL A   1      52.848  25.767  25.001  1.00  0.00    -0.200 F 
ENDBRANCH  56  80
BRANCH  68  91
ATOM     91  C   UNL A   1      45.897  32.450  28.681  1.00  0.00     0.064 A 
ATOM     92  C   UNL A   1      46.574  32.834  29.847  1.00  0.00     0.173 A 
ATOM     93  C   UNL A   1      45.732  33.410  27.671  1.00  0.00     0.173 A 
ATOM     94  F   UNL A   1      46.746  31.958  30.849  1.00  0.00    -0.203 F 
ATOM     95  C   UNL A   1      47.047  34.135  30.005  1.00  0.00     0.198 A 
ATOM     96  C   UNL A   1      46.236  34.701  27.817  1.00  0.00     0.198 A 
ATOM     97  F   UNL A   1      45.100  33.093  26.531  1.00  0.00    -0.203 F 
ATOM     98  F   UNL A   1      47.650  34.494  31.147  1.00  0.00    -0.200 F 
ATOM     99  C   UNL A   1      46.886  35.063  28.987  1.00  0.00     0.200 A 
ATOM    100  F   UNL A   1      46.094  35.591  26.826  1.00  0.00    -0.200 F 
ATOM    101  F   UNL A   1      47.353  36.311  29.136  1.00  0.00    -0.200 F 
ENDBRANCH  68  91
ENDBRANCH  42  43
ENDBRANCH  35  37
ENDBRANCH  34  35
ENDBRANCH  33  34
ENDBRANCH  32  33
ENDBRANCH  31  32
ENDBRANCH  30  31
ENDBRANCH  29  30
ENDBRANCH  28  29
ENDBRANCH   1  28
TORSDOF 24
ENDMDL
MODEL 3
REMARK VINA RESULT:      -9.9      1.655      7.336
REMARK SMILES CCOc1ccc(-c2cnc(N)cc2C(=O)OCCOCCOCCOCCOC(=O)c2ccc(-c3c4nc(c(-c5c(F)c(F)c(F)c(F)c5F)c5ccc([nH]5)c(-c5c(F)c(F)c(F)c(F)c5F)c5nc(c(-c6c(F)c(F)c(F)c(F)c6F)c6ccc3[nH]6)C=C5)C=C4)cc2)c(Cl)c1
REMARK SMILES IDX 22 1 21 2 20 3 19 4 18 5 17 6 15 7 16 8 14 9 8 10 9 11 10 12
REMARK SMILES IDX 13 13 11 14 7 15 4 16 5 17 97 18 6 19 95 20 96 21 3 22 2 23
REMARK SMILES IDX 1 24 12 25 23 28 24 29 25 30 26 31 27 32 28 33 29 34 30 35
REMARK SMILES IDX 31 36 32 37 33 38 94 39 34 40 93 41 35 42 36 43 37 44 87 45
REMARK SMILES IDX 38 46 92 47 86 48 88 49 39 50 91 51 85 52 84 53 40 55 72 56
REMARK SMILES IDX 52 57 71 58 53 59 56 60 70 61 89 62 54 63 55 64 69 66 90 67
REMARK SMILES IDX 57 68 41 69 42 70 50 71 43 72 44 73 48 74 51 75 45 76 46 77
REMARK SMILES IDX 49 78 47 79 73 80 74 81 82 82 75 83 76 84 80 85 83 86 77 87
REMARK SMILES IDX 78 88 81 89 79 90 58 91 59 92 67 93 60 94 61 95 65 96 68 97
REMARK SMILES IDX 62 98 63 99 66 100 64 101
REMARK H PARENT 12 26 12 27 88 54 56 65
REMARK Flexibility Score: inf
ROOT
ATOM      1  C   UNL A   1      34.396  21.440  26.845  1.00  0.00     0.188 C 
ENDROOT
BRANCH   1   2
ATOM      2  C   UNL A   1      33.913  22.575  27.783  1.00  0.00     0.188 C 
BRANCH   2   3
ATOM      3  O   UNL A   1      32.502  22.621  27.956  1.00  0.00    -0.376 OA
BRANCH   3   4
ATOM      4  C   UNL A   1      31.708  22.431  26.799  1.00  0.00     0.202 C 
BRANCH   4   5
ATOM      5  C   UNL A   1      30.505  23.372  26.693  1.00  0.00     0.261 C 
BRANCH   5   6
ATOM      6  O   UNL A   1      30.612  24.378  25.672  1.00  0.00    -0.460 OA
BRANCH   6   7
ATOM      7  C   UNL A   1      31.602  25.299  25.776  1.00  0.00     0.339 C 
ATOM      8  O   UNL A   1      31.818  26.006  26.741  1.00  0.00    -0.246 OA
BRANCH   7   9
ATOM      9  C   UNL A   1      32.420  25.225  24.532  1.00  0.00     0.073 A 
ATOM     10  C   UNL A   1      32.394  26.219  23.534  1.00  0.00     0.016 A 
ATOM     11  C   UNL A   1      33.215  25.979  22.433  1.00  0.00     0.123 A 
ATOM     12  N   UNL A   1      34.029  24.906  22.285  1.00  0.00    -0.239 NA
ATOM     13  C   UNL A   1      33.274  24.119  24.402  1.00  0.00     0.062 A 
ATOM     14  C   UNL A   1      34.068  24.010  23.279  1.00  0.00     0.124 A 
BRANCH  10  15
ATOM     15  C   UNL A   1      31.584  27.449  23.583  1.00  0.00     0.003 A 
ATOM     16  C   UNL A   1      29.869  29.698  23.692  1.00  0.00     0.120 A 
ATOM     17  C   UNL A   1      29.608  28.654  22.812  1.00  0.00     0.047 A 
ATOM     18  C   UNL A   1      31.028  29.670  24.458  1.00  0.00     0.067 A 
ATOM     19  C   UNL A   1      30.448  27.539  22.768  1.00  0.00     0.014 A 
ATOM     20  C   UNL A   1      31.895  28.573  24.381  1.00  0.00     0.052 A 
ATOM     21  Cl  UNL A   1      33.373  28.698  25.270  1.00  0.00    -0.084 Cl
BRANCH  16  22
ATOM     22  O   UNL A   1      29.105  30.826  23.781  1.00  0.00    -0.494 OA
BRANCH  22  23
ATOM     23  C   UNL A   1      28.830  31.487  22.540  1.00  0.00     0.226 C 
ATOM     24  C   UNL A   1      28.417  32.935  22.753  1.00  0.00     0.049 C 
ENDBRANCH  22  23
ENDBRANCH  16  22
ENDBRANCH  10  15
BRANCH  14  25
ATOM     25  N   UNL A   1      34.904  22.928  23.103  1.00  0.00    -0.384 N 
ATOM     26  H   UNL A   1      35.105  22.333  23.860  1.00  0.00     0.158 HD
ATOM     27  H   UNL A   1      35.300  22.752  22.219  1.00  0.00     0.158 HD
ENDBRANCH  14  25
ENDBRANCH   7   9
ENDBRANCH   6   7
ENDBRANCH   5   6
ENDBRANCH   4   5
ENDBRANCH   3   4
ENDBRANCH   2   3
ENDBRANCH   1   2
BRANCH   1  28
ATOM     28  O   UNL A   1      35.373  21.637  25.827  1.00  0.00    -0.377 OA
BRANCH  28  29
ATOM     29  C   UNL A   1      36.526  22.397  26.136  1.00  0.00     0.188 C 
BRANCH  29  30
ATOM     30  C   UNL A   1      37.825  21.902  25.472  1.00  0.00     0.188 C 
BRANCH  30  31
ATOM     31  O   UNL A   1      37.653  20.716  24.709  1.00  0.00    -0.376 OA
BRANCH  31  32
ATOM     32  C   UNL A   1      38.453  19.589  25.025  1.00  0.00     0.202 C 
BRANCH  32  33
ATOM     33  C   UNL A   1      39.553  19.729  26.089  1.00  0.00     0.261 C 
BRANCH  33  34
ATOM     34  O   UNL A   1      40.883  19.355  25.698  1.00  0.00    -0.460 OA
BRANCH  34  35
ATOM     35  C   UNL A   1      41.883  19.496  26.591  1.00  0.00     0.338 C 
ATOM     36  O   UNL A   1      42.643  18.638  27.001  1.00  0.00    -0.246 OA
BRANCH  35  37
ATOM     37  C   UNL A   1      42.029  20.948  26.826  1.00  0.00     0.060 A 
ATOM     38  C   UNL A   1      41.902  21.833  25.745  1.00  0.00     0.016 A 
ATOM     39  C   UNL A   1      42.202  21.438  28.123  1.00  0.00     0.016 A 
ATOM     40  C   UNL A   1      41.943  23.210  25.960  1.00  0.00     0.010 A 
ATOM     41  C   UNL A   1      42.282  22.815  28.333  1.00  0.00     0.010 A 
ATOM     42  C   UNL A   1      42.171  23.705  27.251  1.00  0.00    -0.014 A 
BRANCH  42  43
ATOM     43  C   UNL A   1      42.503  25.135  27.441  1.00  0.00     0.031 A 
ATOM     44  C   UNL A   1      43.883  25.589  27.064  1.00  0.00     0.074 A 
ATOM     45  C   UNL A   1      41.610  26.007  27.940  1.00  0.00     0.049 A 
ATOM     46  N   UNL A   1      44.442  26.763  27.200  1.00  0.00    -0.248 NA
ATOM     47  C   UNL A   1      44.754  24.573  26.451  1.00  0.00     0.031 C 
ATOM     48  C   UNL A   1      40.233  25.689  28.306  1.00  0.00     0.029 A 
ATOM     49  N   UNL A   1      41.742  27.340  28.239  1.00  0.00    -0.354 N 
ATOM     50  C   UNL A   1      45.729  26.623  26.698  1.00  0.00     0.074 A 
ATOM     51  C   UNL A   1      45.879  25.248  26.279  1.00  0.00     0.031 C 
ATOM     52  C   UNL A   1      39.652  26.794  28.806  1.00  0.00     0.029 A 
ATOM     53  C   UNL A   1      40.627  27.884  28.826  1.00  0.00     0.049 A 
ATOM     54  H   UNL A   1      42.559  27.856  28.051  1.00  0.00     0.167 HD
ATOM     55  C   UNL A   1      46.698  27.563  26.593  1.00  0.00     0.037 A 
ATOM     56  C   UNL A   1      40.434  29.112  29.347  1.00  0.00     0.037 A 
ATOM     57  C   UNL A   1      46.544  28.926  27.022  1.00  0.00     0.049 A 
ATOM     58  C   UNL A   1      41.555  30.121  29.291  1.00  0.00     0.074 A 
ATOM     59  C   UNL A   1      47.454  29.966  26.938  1.00  0.00     0.029 A 
ATOM     60  N   UNL A   1      45.409  29.436  27.637  1.00  0.00    -0.354 N 
ATOM     61  N   UNL A   1      42.756  29.998  28.780  1.00  0.00    -0.248 NA
ATOM     62  C   UNL A   1      41.291  31.440  29.883  1.00  0.00     0.031 C 
ATOM     63  C   UNL A   1      46.892  31.086  27.557  1.00  0.00     0.029 A 
ATOM     64  C   UNL A   1      45.608  30.766  27.970  1.00  0.00     0.049 A 
ATOM     65  H   UNL A   1      44.584  28.928  27.810  1.00  0.00     0.167 HD
ATOM     66  C   UNL A   1      43.381  31.225  28.966  1.00  0.00     0.074 A 
ATOM     67  C   UNL A   1      42.420  32.085  29.624  1.00  0.00     0.031 C 
ATOM     68  C   UNL A   1      44.637  31.607  28.624  1.00  0.00     0.037 A 
BRANCH  55  69
ATOM     69  C   UNL A   1      48.019  27.131  26.030  1.00  0.00     0.064 A 
ATOM     70  C   UNL A   1      48.299  27.201  24.657  1.00  0.00     0.173 A 
ATOM     71  C   UNL A   1      49.026  26.650  26.881  1.00  0.00     0.173 A 
ATOM     72  F   UNL A   1      47.364  27.635  23.798  1.00  0.00    -0.203 F 
ATOM     73  C   UNL A   1      49.526  26.778  24.154  1.00  0.00     0.198 A 
ATOM     74  C   UNL A   1      50.263  26.258  26.378  1.00  0.00     0.198 A 
ATOM     75  F   UNL A   1      48.810  26.561  28.202  1.00  0.00    -0.203 F 
ATOM     76  F   UNL A   1      49.752  26.802  22.832  1.00  0.00    -0.200 F 
ATOM     77  C   UNL A   1      50.509  26.314  25.014  1.00  0.00     0.200 A 
ATOM     78  F   UNL A   1      51.215  25.820  27.213  1.00  0.00    -0.200 F 
ATOM     79  F   UNL A   1      51.692  25.911  24.529  1.00  0.00    -0.200 F 
ENDBRANCH  55  69
BRANCH  56  80
ATOM     80  C   UNL A   1      39.138  29.448  29.995  1.00  0.00     0.064 A 
ATOM     81  C   UNL A   1      38.103  30.062  29.277  1.00  0.00     0.173 A 
ATOM     82  C   UNL A   1      38.916  29.179  31.355  1.00  0.00     0.173 A 
ATOM     83  F   UNL A   1      38.275  30.366  27.983  1.00  0.00    -0.203 F 
ATOM     84  C   UNL A   1      36.901  30.405  29.896  1.00  0.00     0.198 A 
ATOM     85  C   UNL A   1      37.704  29.494  31.965  1.00  0.00     0.198 A 
ATOM     86  F   UNL A   1      39.875  28.598  32.090  1.00  0.00    -0.203 F 
ATOM     87  F   UNL A   1      35.945  31.031  29.197  1.00  0.00    -0.200 F 
ATOM     88  C   UNL A   1      36.700  30.114  31.237  1.00  0.00     0.200 A 
ATOM     89  F   UNL A   1      37.510  29.200  33.257  1.00  0.00    -0.200 F 
ATOM     90  F   UNL A   1      35.542  30.438  31.829  1.00  0.00    -0.200 F 
ENDBRANCH  56  80
BRANCH  68  91
ATOM     91  C   UNL A   1      45.040  33.023  28.926  1.00  0.00     0.064 A 
ATOM     92  C   UNL A   1      45.688  33.366  30.121  1.00  0.00     0.173 A 
ATOM     93  C   UNL A   1      44.823  34.038  27.982  1.00  0.00     0.173 A 
ATOM     94  F   UNL A   1      45.907  32.436  31.063  1.00  0.00    -0.203 F 
ATOM     95  C   UNL A   1      46.084  34.678  30.369  1.00  0.00     0.198 A 
ATOM     96  C   UNL A   1      45.250  35.342  28.218  1.00  0.00     0.198 A 
ATOM     97  F   UNL A   1      44.215  33.762  26.818  1.00  0.00    -0.203 F 
ATOM     98  F   UNL A   1      46.661  34.994  31.537  1.00  0.00    -0.200 F 
ATOM     99  C   UNL A   1      45.873  35.662  29.414  1.00  0.00     0.200 A 
ATOM    100  F   UNL A   1      45.061  36.287  27.287  1.00  0.00    -0.200 F 
ATOM    101  F   UNL A   1      46.267  36.922  29.649  1.00  0.00    -0.200 F 
ENDBRANCH  68  91
ENDBRANCH  42  43
ENDBRANCH  35  37
ENDBRANCH  34  35
ENDBRANCH  33  34
ENDBRANCH  32  33
ENDBRANCH  31  32
ENDBRANCH  30  31
ENDBRANCH  29  30
ENDBRANCH  28  29
ENDBRANCH   1  28
TORSDOF 24
ENDMDL
