MODEL 1
REMARK VINA RESULT:     -11.3      0.000      0.000
REMARK SMILES O=C(CC1(CC(=O)OCCOCCOCCOCCOC(=O)c2ccc(-c3c4nc(c(-c5c(F)c(F)c(F)c(F)c5F)c5ccc([nH]5)c(-c5c(F)c(F)c(F)c(F)c5F)c5nc(c(-c6c(F)c(F)c(F)c(F)c6F)c6ccc3[nH]6)C=C5)C=C4)cc2)CCCCC1)Nc1ccc2ccccc2n1
REMARK SMILES IDX 13 1 12 2 11 3 10 4 9 5 8 6 6 7 7 8 5 9 4 10 86 11 90 12
REMARK SMILES IDX 87 13 89 14 88 15 3 16 2 17 1 18 91 19 92 21 93 22 101 23
REMARK SMILES IDX 94 24 100 25 95 26 99 27 96 28 98 29 97 30 14 31 15 32 16 33
REMARK SMILES IDX 17 34 18 35 19 36 20 37 21 38 22 39 23 40 24 41 85 42 25 43
REMARK SMILES IDX 84 44 26 45 27 46 28 47 78 48 29 49 83 50 77 51 79 52 30 53
REMARK SMILES IDX 82 54 76 55 75 56 31 58 63 59 43 60 62 61 44 62 47 63 61 64
REMARK SMILES IDX 80 65 45 66 46 67 60 69 81 70 48 71 32 72 33 73 41 74 34 75
REMARK SMILES IDX 35 76 39 77 42 78 36 79 37 80 40 81 38 82 64 83 65 84 73 85
REMARK SMILES IDX 66 86 67 87 71 88 74 89 68 90 69 91 72 92 70 93 49 94 50 95
REMARK SMILES IDX 58 96 51 97 52 98 56 99 59 100 53 101 54 102 57 103 55 104
REMARK H PARENT 91 20 79 57 47 68
REMARK Flexibility Score: inf
ROOT
ATOM      1  C   UNL A   1      34.223  31.490  28.000  1.00  0.00     0.188 C 
ENDROOT
BRANCH   1   2
ATOM      2  C   UNL A   1      32.890  31.442  27.289  1.00  0.00     0.188 C 
BRANCH   2   3
ATOM      3  O   UNL A   1      32.481  30.086  27.146  1.00  0.00    -0.376 OA
BRANCH   3   4
ATOM      4  C   UNL A   1      31.764  29.846  25.941  1.00  0.00     0.202 C 
BRANCH   4   5
ATOM      5  C   UNL A   1      31.763  28.352  25.586  1.00  0.00     0.261 C 
BRANCH   5   6
ATOM      6  O   UNL A   1      32.322  27.974  24.304  1.00  0.00    -0.463 OA
BRANCH   6   7
ATOM      7  C   UNL A   1      32.285  26.674  23.933  1.00  0.00     0.306 C 
ATOM      8  O   UNL A   1      31.334  26.137  23.383  1.00  0.00    -0.252 OA
BRANCH   7   9
ATOM      9  C   UNL A   1      33.564  25.924  24.257  1.00  0.00     0.130 C 
BRANCH   9  10
ATOM     10  C   UNL A   1      33.472  24.419  24.621  1.00  0.00    -0.010 C 
ATOM     11  C   UNL A   1      34.619  24.051  25.619  1.00  0.00     0.008 C 
ATOM     12  C   UNL A   1      33.705  23.523  23.365  1.00  0.00     0.008 C 
ATOM     13  C   UNL A   1      36.035  24.059  25.018  1.00  0.00     0.001 C 
ATOM     14  C   UNL A   1      35.100  23.579  22.750  1.00  0.00     0.001 C 
ATOM     15  C   UNL A   1      36.148  23.187  23.773  1.00  0.00     0.000 C 
BRANCH  10  16
ATOM     16  C   UNL A   1      32.097  23.996  25.257  1.00  0.00     0.108 C 
BRANCH  16  17
ATOM     17  C   UNL A   1      31.798  22.678  26.011  1.00  0.00     0.226 C 
ATOM     18  O   UNL A   1      31.763  22.663  27.240  1.00  0.00    -0.275 OA
ATOM     19  N   UNL A   1      31.823  21.541  25.229  1.00  0.00    -0.311 N 
ATOM     20  H   UNL A   1      31.125  21.445  24.541  1.00  0.00     0.171 HD
BRANCH  19  21
ATOM     21  C   UNL A   1      32.774  20.503  25.339  1.00  0.00     0.133 A 
ATOM     22  C   UNL A   1      34.085  20.626  24.919  1.00  0.00     0.048 A 
ATOM     23  N   UNL A   1      32.231  19.307  25.665  1.00  0.00    -0.231 NA
ATOM     24  C   UNL A   1      34.807  19.462  24.655  1.00  0.00     0.014 A 
ATOM     25  C   UNL A   1      32.900  18.178  25.336  1.00  0.00     0.073 A 
ATOM     26  C   UNL A   1      34.186  18.213  24.769  1.00  0.00     0.000 A 
ATOM     27  C   UNL A   1      32.269  16.938  25.433  1.00  0.00     0.029 A 
ATOM     28  C   UNL A   1      34.775  17.038  24.260  1.00  0.00     0.010 A 
ATOM     29  C   UNL A   1      32.834  15.773  24.897  1.00  0.00     0.002 A 
ATOM     30  C   UNL A   1      34.082  15.828  24.291  1.00  0.00     0.001 A 
ENDBRANCH  19  21
ENDBRANCH  16  17
ENDBRANCH  10  16
ENDBRANCH   9  10
ENDBRANCH   7   9
ENDBRANCH   6   7
ENDBRANCH   5   6
ENDBRANCH   4   5
ENDBRANCH   3   4
ENDBRANCH   2   3
ENDBRANCH   1   2
BRANCH   1  31
ATOM     31  O   UNL A   1      34.744  32.796  27.931  1.00  0.00    -0.377 OA
BRANCH  31  32
ATOM     32  C   UNL A   1      33.760  33.804  28.008  1.00  0.00     0.188 C 
BRANCH  32  33
ATOM     33  C   UNL A   1      33.810  34.769  29.201  1.00  0.00     0.188 C 
BRANCH  33  34
ATOM     34  O   UNL A   1      33.620  34.210  30.499  1.00  0.00    -0.376 OA
BRANCH  34  35
ATOM     35  C   UNL A   1      34.168  34.843  31.652  1.00  0.00     0.202 C 
BRANCH  35  36
ATOM     36  C   UNL A   1      35.529  34.371  32.186  1.00  0.00     0.261 C 
BRANCH  36  37
ATOM     37  O   UNL A   1      35.629  32.941  32.105  1.00  0.00    -0.460 OA
BRANCH  37  38
ATOM     38  C   UNL A   1      36.526  32.349  32.928  1.00  0.00     0.338 C 
ATOM     39  O   UNL A   1      36.475  32.268  34.144  1.00  0.00    -0.246 OA
BRANCH  38  40
ATOM     40  C   UNL A   1      37.429  31.533  32.085  1.00  0.00     0.060 A 
ATOM     41  C   UNL A   1      38.367  30.720  32.745  1.00  0.00     0.016 A 
ATOM     42  C   UNL A   1      37.243  31.423  30.699  1.00  0.00     0.016 A 
ATOM     43  C   UNL A   1      39.124  29.801  32.020  1.00  0.00     0.010 A 
ATOM     44  C   UNL A   1      38.029  30.533  29.966  1.00  0.00     0.010 A 
ATOM     45  C   UNL A   1      39.000  29.755  30.622  1.00  0.00    -0.014 A 
BRANCH  45  46
ATOM     46  C   UNL A   1      40.162  29.273  29.846  1.00  0.00     0.031 A 
ATOM     47  C   UNL A   1      41.250  30.292  29.632  1.00  0.00     0.074 A 
ATOM     48  C   UNL A   1      40.264  28.024  29.368  1.00  0.00     0.049 A 
ATOM     49  N   UNL A   1      42.401  30.178  29.027  1.00  0.00    -0.248 NA
ATOM     50  C   UNL A   1      40.999  31.635  30.191  1.00  0.00     0.031 C 
ATOM     51  C   UNL A   1      39.283  26.956  29.544  1.00  0.00     0.029 A 
ATOM     52  N   UNL A   1      41.261  27.449  28.622  1.00  0.00    -0.354 N 
ATOM     53  C   UNL A   1      43.011  31.418  29.167  1.00  0.00     0.074 A 
ATOM     54  C   UNL A   1      42.100  32.284  29.869  1.00  0.00     0.031 C 
ATOM     55  C   UNL A   1      39.728  25.850  28.914  1.00  0.00     0.029 A 
ATOM     56  C   UNL A   1      41.013  26.143  28.281  1.00  0.00     0.049 A 
ATOM     57  H   UNL A   1      42.079  27.929  28.357  1.00  0.00     0.167 HD
ATOM     58  C   UNL A   1      44.235  31.807  28.748  1.00  0.00     0.037 A 
ATOM     59  C   UNL A   1      41.753  25.299  27.535  1.00  0.00     0.037 A 
ATOM     60  C   UNL A   1      45.103  30.969  27.980  1.00  0.00     0.049 A 
ATOM     61  C   UNL A   1      43.070  25.788  26.979  1.00  0.00     0.074 A 
ATOM     62  C   UNL A   1      46.339  31.262  27.442  1.00  0.00     0.029 A 
ATOM     63  N   UNL A   1      44.796  29.663  27.620  1.00  0.00    -0.354 N 
ATOM     64  N   UNL A   1      43.658  26.951  27.137  1.00  0.00    -0.248 NA
ATOM     65  C   UNL A   1      43.827  24.845  26.144  1.00  0.00     0.031 C 
ATOM     66  C   UNL A   1      46.766  30.143  26.719  1.00  0.00     0.029 A 
ATOM     67  C   UNL A   1      45.816  29.139  26.851  1.00  0.00     0.049 A 
ATOM     68  H   UNL A   1      43.976  29.183  27.876  1.00  0.00     0.167 HD
ATOM     69  C   UNL A   1      44.866  26.868  26.455  1.00  0.00     0.074 A 
ATOM     70  C   UNL A   1      44.926  25.539  25.882  1.00  0.00     0.031 C 
ATOM     71  C   UNL A   1      45.842  27.801  26.317  1.00  0.00     0.037 A 
BRANCH  58  72
ATOM     72  C   UNL A   1      44.638  33.210  29.082  1.00  0.00     0.064 A 
ATOM     73  C   UNL A   1      45.398  33.498  30.228  1.00  0.00     0.173 A 
ATOM     74  C   UNL A   1      44.188  34.285  28.304  1.00  0.00     0.173 A 
ATOM     75  F   UNL A   1      45.812  32.505  31.030  1.00  0.00    -0.203 F 
ATOM     76  C   UNL A   1      45.664  34.813  30.599  1.00  0.00     0.198 A 
ATOM     77  C   UNL A   1      44.480  35.598  28.663  1.00  0.00     0.198 A 
ATOM     78  F   UNL A   1      43.438  34.063  27.214  1.00  0.00    -0.203 F 
ATOM     79  F   UNL A   1      46.327  35.067  31.736  1.00  0.00    -0.200 F 
ATOM     80  C   UNL A   1      45.207  35.862  29.814  1.00  0.00     0.200 A 
ATOM     81  F   UNL A   1      44.033  36.611  27.908  1.00  0.00    -0.200 F 
ATOM     82  F   UNL A   1      45.449  37.127  30.181  1.00  0.00    -0.200 F 
ENDBRANCH  58  72
BRANCH  59  83
ATOM     83  C   UNL A   1      41.286  23.911  27.280  1.00  0.00     0.064 A 
ATOM     84  C   UNL A   1      40.148  23.664  26.499  1.00  0.00     0.173 A 
ATOM     85  C   UNL A   1      41.951  22.803  27.826  1.00  0.00     0.173 A 
ATOM     86  F   UNL A   1      39.459  24.690  25.980  1.00  0.00    -0.203 F 
ATOM     87  C   UNL A   1      39.687  22.366  26.283  1.00  0.00     0.198 A 
ATOM     88  C   UNL A   1      41.501  21.503  27.591  1.00  0.00     0.198 A 
ATOM     89  F   UNL A   1      43.038  22.981  28.591  1.00  0.00    -0.203 F 
ATOM     90  F   UNL A   1      38.573  22.163  25.566  1.00  0.00    -0.200 F 
ATOM     91  C   UNL A   1      40.367  21.286  26.824  1.00  0.00     0.200 A 
ATOM     92  F   UNL A   1      42.164  20.461  28.115  1.00  0.00    -0.200 F 
ATOM     93  F   UNL A   1      39.924  20.038  26.616  1.00  0.00    -0.200 F 
ENDBRANCH  59  83
BRANCH  71  94
ATOM     94  C   UNL A   1      47.074  27.401  25.564  1.00  0.00     0.064 A 
ATOM     95  C   UNL A   1      47.215  27.656  24.194  1.00  0.00     0.173 A 
ATOM     96  C   UNL A   1      48.154  26.820  26.246  1.00  0.00     0.173 A 
ATOM     97  F   UNL A   1      46.205  28.203  23.500  1.00  0.00    -0.203 F 
ATOM     98  C   UNL A   1      48.391  27.326  23.526  1.00  0.00     0.198 A 
ATOM     99  C   UNL A   1      49.338  26.518  25.581  1.00  0.00     0.198 A 
ATOM    100  F   UNL A   1      48.068  26.570  27.561  1.00  0.00    -0.203 F 
ATOM    101  F   UNL A   1      48.495  27.544  22.209  1.00  0.00    -0.200 F 
ATOM    102  C   UNL A   1      49.453  26.765  24.221  1.00  0.00     0.200 A 
ATOM    103  F   UNL A   1      50.368  25.992  26.257  1.00  0.00    -0.200 F 
ATOM    104  F   UNL A   1      50.589  26.459  23.579  1.00  0.00    -0.200 F 
ENDBRANCH  71  94
ENDBRANCH  45  46
ENDBRANCH  38  40
ENDBRANCH  37  38
ENDBRANCH  36  37
ENDBRANCH  35  36
ENDBRANCH  34  35
ENDBRANCH  33  34
ENDBRANCH  32  33
ENDBRANCH  31  32
ENDBRANCH   1  31
TORSDOF 24
ENDMDL
MODEL 2
REMARK VINA RESULT:     -11.0      5.009      7.783
REMARK SMILES O=C(CC1(CC(=O)OCCOCCOCCOCCOC(=O)c2ccc(-c3c4nc(c(-c5c(F)c(F)c(F)c(F)c5F)c5ccc([nH]5)c(-c5c(F)c(F)c(F)c(F)c5F)c5nc(c(-c6c(F)c(F)c(F)c(F)c6F)c6ccc3[nH]6)C=C5)C=C4)cc2)CCCCC1)Nc1ccc2ccccc2n1
REMARK SMILES IDX 13 1 12 2 11 3 10 4 9 5 8 6 6 7 7 8 5 9 4 10 86 11 90 12
REMARK SMILES IDX 87 13 89 14 88 15 3 16 2 17 1 18 91 19 92 21 93 22 101 23
REMARK SMILES IDX 94 24 100 25 95 26 99 27 96 28 98 29 97 30 14 31 15 32 16 33
REMARK SMILES IDX 17 34 18 35 19 36 20 37 21 38 22 39 23 40 24 41 85 42 25 43
REMARK SMILES IDX 84 44 26 45 27 46 28 47 78 48 29 49 83 50 77 51 79 52 30 53
REMARK SMILES IDX 82 54 76 55 75 56 31 58 63 59 43 60 62 61 44 62 47 63 61 64
REMARK SMILES IDX 80 65 45 66 46 67 60 69 81 70 48 71 32 72 33 73 41 74 34 75
REMARK SMILES IDX 35 76 39 77 42 78 36 79 37 80 40 81 38 82 64 83 65 84 73 85
REMARK SMILES IDX 66 86 67 87 71 88 74 89 68 90 69 91 72 92 70 93 49 94 50 95
REMARK SMILES IDX 58 96 51 97 52 98 56 99 59 100 53 101 54 102 57 103 55 104
REMARK H PARENT 91 20 79 57 47 68
REMARK Flexibility Score: inf
ROOT
ATOM      1  C   UNL A   1      34.459  30.923  27.845  1.00  0.00     0.188 C 
ENDROOT
BRANCH   1   2
ATOM      2  C   UNL A   1      34.762  29.465  27.590  1.00  0.00     0.188 C 
BRANCH   2   3
ATOM      3  O   UNL A   1      34.454  29.149  26.237  1.00  0.00    -0.376 OA
BRANCH   3   4
ATOM      4  C   UNL A   1      33.995  27.813  26.068  1.00  0.00     0.202 C 
BRANCH   4   5
ATOM      5  C   UNL A   1      32.569  27.644  26.613  1.00  0.00     0.261 C 
BRANCH   5   6
ATOM      6  O   UNL A   1      31.850  26.446  26.230  1.00  0.00    -0.463 OA
BRANCH   6   7
ATOM      7  C   UNL A   1      30.637  26.571  25.645  1.00  0.00     0.306 C 
ATOM      8  O   UNL A   1      29.695  25.815  25.835  1.00  0.00    -0.252 OA
BRANCH   7   9
ATOM      9  C   UNL A   1      30.543  27.769  24.718  1.00  0.00     0.130 C 
BRANCH   9  10
ATOM     10  C   UNL A   1      30.113  27.538  23.246  1.00  0.00    -0.010 C 
ATOM     11  C   UNL A   1      30.549  28.762  22.375  1.00  0.00     0.008 C 
ATOM     12  C   UNL A   1      28.558  27.468  23.120  1.00  0.00     0.008 C 
ATOM     13  C   UNL A   1      29.775  30.064  22.642  1.00  0.00     0.001 C 
ATOM     14  C   UNL A   1      27.801  28.753  23.437  1.00  0.00     0.001 C 
ATOM     15  C   UNL A   1      28.265  29.881  22.537  1.00  0.00     0.000 C 
BRANCH  10  16
ATOM     16  C   UNL A   1      30.700  26.229  22.604  1.00  0.00     0.108 C 
BRANCH  16  17
ATOM     17  C   UNL A   1      32.198  25.897  22.394  1.00  0.00     0.226 C 
ATOM     18  O   UNL A   1      32.696  25.976  21.273  1.00  0.00    -0.275 OA
ATOM     19  N   UNL A   1      32.818  25.297  23.471  1.00  0.00    -0.311 N 
ATOM     20  H   UNL A   1      32.930  25.833  24.290  1.00  0.00     0.171 HD
BRANCH  19  21
ATOM     21  C   UNL A   1      33.306  23.973  23.490  1.00  0.00     0.133 A 
ATOM     22  C   UNL A   1      32.565  22.895  23.938  1.00  0.00     0.048 A 
ATOM     23  N   UNL A   1      34.638  23.886  23.261  1.00  0.00    -0.231 NA
ATOM     24  C   UNL A   1      33.244  21.743  24.334  1.00  0.00     0.014 A 
ATOM     25  C   UNL A   1      35.306  22.802  23.717  1.00  0.00     0.073 A 
ATOM     26  C   UNL A   1      34.644  21.717  24.318  1.00  0.00     0.000 A 
ATOM     27  C   UNL A   1      36.701  22.789  23.718  1.00  0.00     0.029 A 
ATOM     28  C   UNL A   1      35.377  20.695  24.955  1.00  0.00     0.010 A 
ATOM     29  C   UNL A   1      37.434  21.795  24.379  1.00  0.00     0.002 A 
ATOM     30  C   UNL A   1      36.769  20.756  25.016  1.00  0.00     0.001 A 
ENDBRANCH  19  21
ENDBRANCH  16  17
ENDBRANCH  10  16
ENDBRANCH   9  10
ENDBRANCH   7   9
ENDBRANCH   6   7
ENDBRANCH   5   6
ENDBRANCH   4   5
ENDBRANCH   3   4
ENDBRANCH   2   3
ENDBRANCH   1   2
BRANCH   1  31
ATOM     31  O   UNL A   1      35.213  31.373  28.946  1.00  0.00    -0.377 OA
BRANCH  31  32
ATOM     32  C   UNL A   1      34.779  32.611  29.463  1.00  0.00     0.188 C 
BRANCH  32  33
ATOM     33  C   UNL A   1      35.531  33.876  29.029  1.00  0.00     0.188 C 
BRANCH  33  34
ATOM     34  O   UNL A   1      34.745  34.981  28.589  1.00  0.00    -0.376 OA
BRANCH  34  35
ATOM     35  C   UNL A   1      33.339  35.014  28.820  1.00  0.00     0.202 C 
BRANCH  35  36
ATOM     36  C   UNL A   1      32.751  36.140  29.683  1.00  0.00     0.261 C 
BRANCH  36  37
ATOM     37  O   UNL A   1      33.470  36.249  30.920  1.00  0.00    -0.460 OA
BRANCH  37  38
ATOM     38  C   UNL A   1      33.042  35.469  31.941  1.00  0.00     0.338 C 
ATOM     39  O   UNL A   1      31.892  35.163  32.207  1.00  0.00    -0.246 OA
BRANCH  38  40
ATOM     40  C   UNL A   1      34.227  34.784  32.502  1.00  0.00     0.060 A 
ATOM     41  C   UNL A   1      35.462  35.450  32.406  1.00  0.00     0.016 A 
ATOM     42  C   UNL A   1      34.110  33.611  33.263  1.00  0.00     0.016 A 
ATOM     43  C   UNL A   1      36.580  34.943  33.066  1.00  0.00     0.010 A 
ATOM     44  C   UNL A   1      35.237  33.079  33.890  1.00  0.00     0.010 A 
ATOM     45  C   UNL A   1      36.481  33.722  33.753  1.00  0.00    -0.014 A 
BRANCH  45  46
ATOM     46  C   UNL A   1      37.712  32.919  33.905  1.00  0.00     0.031 A 
ATOM     47  C   UNL A   1      38.491  33.181  35.167  1.00  0.00     0.074 A 
ATOM     48  C   UNL A   1      38.119  32.012  33.004  1.00  0.00     0.049 A 
ATOM     49  N   UNL A   1      39.586  32.626  35.610  1.00  0.00    -0.248 NA
ATOM     50  C   UNL A   1      37.944  34.222  36.061  1.00  0.00     0.031 C 
ATOM     51  C   UNL A   1      37.424  31.662  31.767  1.00  0.00     0.029 A 
ATOM     52  N   UNL A   1      39.237  31.217  33.002  1.00  0.00    -0.354 N 
ATOM     53  C   UNL A   1      39.829  33.228  36.838  1.00  0.00     0.074 A 
ATOM     54  C   UNL A   1      38.805  34.216  37.058  1.00  0.00     0.031 C 
ATOM     55  C   UNL A   1      38.140  30.722  31.119  1.00  0.00     0.029 A 
ATOM     56  C   UNL A   1      39.346  30.420  31.890  1.00  0.00     0.049 A 
ATOM     57  H   UNL A   1      39.899  31.218  33.730  1.00  0.00     0.167 HD
ATOM     58  C   UNL A   1      40.823  32.977  37.718  1.00  0.00     0.037 A 
ATOM     59  C   UNL A   1      40.322  29.556  31.551  1.00  0.00     0.037 A 
ATOM     60  C   UNL A   1      41.883  32.052  37.458  1.00  0.00     0.049 A 
ATOM     61  C   UNL A   1      41.487  29.370  32.496  1.00  0.00     0.074 A 
ATOM     62  C   UNL A   1      42.982  31.752  38.236  1.00  0.00     0.029 A 
ATOM     63  N   UNL A   1      41.980  31.293  36.299  1.00  0.00    -0.354 N 
ATOM     64  N   UNL A   1      41.700  29.919  33.669  1.00  0.00    -0.248 NA
ATOM     65  C   UNL A   1      42.544  28.443  32.069  1.00  0.00     0.031 C 
ATOM     66  C   UNL A   1      43.769  30.837  37.528  1.00  0.00     0.029 A 
ATOM     67  C   UNL A   1      43.132  30.532  36.333  1.00  0.00     0.049 A 
ATOM     68  H   UNL A   1      41.325  31.296  35.564  1.00  0.00     0.167 HD
ATOM     69  C   UNL A   1      42.891  29.378  34.137  1.00  0.00     0.074 A 
ATOM     70  C   UNL A   1      43.354  28.457  33.119  1.00  0.00     0.031 C 
ATOM     71  C   UNL A   1      43.544  29.613  35.303  1.00  0.00     0.037 A 
BRANCH  58  72
ATOM     72  C   UNL A   1      40.803  33.767  38.990  1.00  0.00     0.064 A 
ATOM     73  C   UNL A   1      39.972  33.402  40.062  1.00  0.00     0.173 A 
ATOM     74  C   UNL A   1      41.548  34.947  39.107  1.00  0.00     0.173 A 
ATOM     75  F   UNL A   1      39.203  32.305  39.977  1.00  0.00    -0.203 F 
ATOM     76  C   UNL A   1      39.865  34.208  41.191  1.00  0.00     0.198 A 
ATOM     77  C   UNL A   1      41.460  35.737  40.250  1.00  0.00     0.198 A 
ATOM     78  F   UNL A   1      42.337  35.351  38.100  1.00  0.00    -0.203 F 
ATOM     79  F   UNL A   1      39.011  33.880  42.170  1.00  0.00    -0.200 F 
ATOM     80  C   UNL A   1      40.612  35.373  41.286  1.00  0.00     0.200 A 
ATOM     81  F   UNL A   1      42.177  36.865  40.338  1.00  0.00    -0.200 F 
ATOM     82  F   UNL A   1      40.496  36.158  42.366  1.00  0.00    -0.200 F 
ENDBRANCH  58  72
BRANCH  59  83
ATOM     83  C   UNL A   1      40.243  28.790  30.278  1.00  0.00     0.064 A 
ATOM     84  C   UNL A   1      40.793  29.301  29.094  1.00  0.00     0.173 A 
ATOM     85  C   UNL A   1      39.600  27.545  30.211  1.00  0.00     0.173 A 
ATOM     86  F   UNL A   1      41.392  30.501  29.098  1.00  0.00    -0.203 F 
ATOM     87  C   UNL A   1      40.695  28.603  27.891  1.00  0.00     0.198 A 
ATOM     88  C   UNL A   1      39.521  26.837  29.011  1.00  0.00     0.198 A 
ATOM     89  F   UNL A   1      39.046  27.015  31.311  1.00  0.00    -0.203 F 
ATOM     90  F   UNL A   1      41.194  29.134  26.766  1.00  0.00    -0.200 F 
ATOM     91  C   UNL A   1      40.064  27.368  27.852  1.00  0.00     0.200 A 
ATOM     92  F   UNL A   1      38.912  25.643  28.979  1.00  0.00    -0.200 F 
ATOM     93  F   UNL A   1      39.969  26.697  26.696  1.00  0.00    -0.200 F 
ENDBRANCH  59  83
BRANCH  71  94
ATOM     94  C   UNL A   1      44.794  28.829  35.562  1.00  0.00     0.064 A 
ATOM     95  C   UNL A   1      44.759  27.573  36.182  1.00  0.00     0.173 A 
ATOM     96  C   UNL A   1      46.031  29.314  35.113  1.00  0.00     0.173 A 
ATOM     97  F   UNL A   1      43.599  27.074  36.635  1.00  0.00    -0.203 F 
ATOM     98  C   UNL A   1      45.927  26.837  36.363  1.00  0.00     0.198 A 
ATOM     99  C   UNL A   1      47.191  28.563  35.270  1.00  0.00     0.198 A 
ATOM    100  F   UNL A   1      46.110  30.505  34.502  1.00  0.00    -0.203 F 
ATOM    101  F   UNL A   1      45.881  25.655  36.991  1.00  0.00    -0.200 F 
ATOM    102  C   UNL A   1      47.139  27.328  35.900  1.00  0.00     0.200 A 
ATOM    103  F   UNL A   1      48.358  29.031  34.806  1.00  0.00    -0.200 F 
ATOM    104  F   UNL A   1      48.260  26.612  36.063  1.00  0.00    -0.200 F 
ENDBRANCH  71  94
ENDBRANCH  45  46
ENDBRANCH  38  40
ENDBRANCH  37  38
ENDBRANCH  36  37
ENDBRANCH  35  36
ENDBRANCH  34  35
ENDBRANCH  33  34
ENDBRANCH  32  33
ENDBRANCH  31  32
ENDBRANCH   1  31
TORSDOF 24
ENDMDL
MODEL 3
REMARK VINA RESULT:     -11.0      2.999      8.570
REMARK SMILES O=C(CC1(CC(=O)OCCOCCOCCOCCOC(=O)c2ccc(-c3c4nc(c(-c5c(F)c(F)c(F)c(F)c5F)c5ccc([nH]5)c(-c5c(F)c(F)c(F)c(F)c5F)c5nc(c(-c6c(F)c(F)c(F)c(F)c6F)c6ccc3[nH]6)C=C5)C=C4)cc2)CCCCC1)Nc1ccc2ccccc2n1
REMARK SMILES IDX 13 1 12 2 11 3 10 4 9 5 8 6 6 7 7 8 5 9 4 10 86 11 90 12
REMARK SMILES IDX 87 13 89 14 88 15 3 16 2 17 1 18 91 19 92 21 93 22 101 23
REMARK SMILES IDX 94 24 100 25 95 26 99 27 96 28 98 29 97 30 14 31 15 32 16 33
REMARK SMILES IDX 17 34 18 35 19 36 20 37 21 38 22 39 23 40 24 41 85 42 25 43
REMARK SMILES IDX 84 44 26 45 27 46 28 47 78 48 29 49 83 50 77 51 79 52 30 53
REMARK SMILES IDX 82 54 76 55 75 56 31 58 63 59 43 60 62 61 44 62 47 63 61 64
REMARK SMILES IDX 80 65 45 66 46 67 60 69 81 70 48 71 32 72 33 73 41 74 34 75
REMARK SMILES IDX 35 76 39 77 42 78 36 79 37 80 40 81 38 82 64 83 65 84 73 85
REMARK SMILES IDX 66 86 67 87 71 88 74 89 68 90 69 91 72 92 70 93 49 94 50 95
REMARK SMILES IDX 58 96 51 97 52 98 56 99 59 100 53 101 54 102 57 103 55 104
REMARK H PARENT 91 20 79 57 47 68
REMARK Flexibility Score: inf
ROOT
ATOM      1  C   UNL A   1      32.253  20.806  24.435  1.00  0.00     0.188 C 
ENDROOT
BRANCH   1   2
ATOM      2  C   UNL A   1      32.163  21.117  22.959  1.00  0.00     0.188 C 
BRANCH   2   3
ATOM      3  O   UNL A   1      31.900  22.505  22.785  1.00  0.00    -0.376 OA
BRANCH   3   4
ATOM      4  C   UNL A   1      33.072  23.306  22.853  1.00  0.00     0.202 C 
BRANCH   4   5
ATOM      5  C   UNL A   1      32.903  24.606  22.052  1.00  0.00     0.261 C 
BRANCH   5   6
ATOM      6  O   UNL A   1      31.859  25.516  22.477  1.00  0.00    -0.463 OA
BRANCH   6   7
ATOM      7  C   UNL A   1      31.994  26.835  22.210  1.00  0.00     0.306 C 
ATOM      8  O   UNL A   1      33.064  27.407  22.064  1.00  0.00    -0.252 OA
BRANCH   7   9
ATOM      9  C   UNL A   1      30.664  27.559  22.095  1.00  0.00     0.130 C 
BRANCH   9  10
ATOM     10  C   UNL A   1      30.337  28.679  23.117  1.00  0.00    -0.010 C 
ATOM     11  C   UNL A   1      28.944  28.399  23.772  1.00  0.00     0.008 C 
ATOM     12  C   UNL A   1      30.195  30.062  22.407  1.00  0.00     0.008 C 
ATOM     13  C   UNL A   1      27.735  28.575  22.837  1.00  0.00     0.001 C 
ATOM     14  C   UNL A   1      29.020  30.205  21.445  1.00  0.00     0.001 C 
ATOM     15  C   UNL A   1      27.711  29.942  22.161  1.00  0.00     0.000 C 
BRANCH  10  16
ATOM     16  C   UNL A   1      31.406  28.839  24.258  1.00  0.00     0.108 C 
BRANCH  16  17
ATOM     17  C   UNL A   1      31.427  28.091  25.613  1.00  0.00     0.226 C 
ATOM     18  O   UNL A   1      31.545  28.718  26.664  1.00  0.00    -0.275 OA
ATOM     19  N   UNL A   1      31.548  26.719  25.519  1.00  0.00    -0.311 N 
ATOM     20  H   UNL A   1      30.798  26.222  25.121  1.00  0.00     0.171 HD
BRANCH  19  21
ATOM     21  C   UNL A   1      32.667  25.974  25.952  1.00  0.00     0.133 A 
ATOM     22  C   UNL A   1      33.918  26.076  25.374  1.00  0.00     0.048 A 
ATOM     23  N   UNL A   1      32.351  24.980  26.815  1.00  0.00    -0.231 NA
ATOM     24  C   UNL A   1      34.817  25.024  25.550  1.00  0.00     0.014 A 
ATOM     25  C   UNL A   1      33.188  23.923  26.923  1.00  0.00     0.073 A 
ATOM     26  C   UNL A   1      34.423  23.880  26.253  1.00  0.00     0.000 A 
ATOM     27  C   UNL A   1      32.784  22.778  27.609  1.00  0.00     0.029 A 
ATOM     28  C   UNL A   1      35.182  22.692  26.229  1.00  0.00     0.010 A 
ATOM     29  C   UNL A   1      33.516  21.584  27.558  1.00  0.00     0.002 A 
ATOM     30  C   UNL A   1      34.709  21.537  26.850  1.00  0.00     0.001 A 
ENDBRANCH  19  21
ENDBRANCH  16  17
ENDBRANCH  10  16
ENDBRANCH   9  10
ENDBRANCH   7   9
ENDBRANCH   6   7
ENDBRANCH   5   6
ENDBRANCH   4   5
ENDBRANCH   3   4
ENDBRANCH   2   3
ENDBRANCH   1   2
BRANCH   1  31
ATOM     31  O   UNL A   1      32.189  19.412  24.624  1.00  0.00    -0.377 OA
BRANCH  31  32
ATOM     32  C   UNL A   1      33.211  18.702  23.962  1.00  0.00     0.188 C 
BRANCH  32  33
ATOM     33  C   UNL A   1      34.560  18.546  24.678  1.00  0.00     0.188 C 
BRANCH  33  34
ATOM     34  O   UNL A   1      35.540  19.556  24.448  1.00  0.00    -0.376 OA
BRANCH  34  35
ATOM     35  C   UNL A   1      36.835  19.462  25.035  1.00  0.00     0.202 C 
BRANCH  35  36
ATOM     36  C   UNL A   1      37.890  20.523  24.688  1.00  0.00     0.261 C 
BRANCH  36  37
ATOM     37  O   UNL A   1      38.307  21.219  25.873  1.00  0.00    -0.460 OA
BRANCH  37  38
ATOM     38  C   UNL A   1      39.565  20.972  26.309  1.00  0.00     0.338 C 
ATOM     39  O   UNL A   1      40.228  19.965  26.127  1.00  0.00    -0.246 OA
BRANCH  38  40
ATOM     40  C   UNL A   1      40.130  22.257  26.778  1.00  0.00     0.060 A 
ATOM     41  C   UNL A   1      39.493  23.436  26.351  1.00  0.00     0.016 A 
ATOM     42  C   UNL A   1      41.138  22.307  27.753  1.00  0.00     0.016 A 
ATOM     43  C   UNL A   1      39.866  24.664  26.893  1.00  0.00     0.010 A 
ATOM     44  C   UNL A   1      41.541  23.540  28.267  1.00  0.00     0.010 A 
ATOM     45  C   UNL A   1      40.934  24.722  27.803  1.00  0.00    -0.014 A 
BRANCH  45  46
ATOM     46  C   UNL A   1      41.693  25.987  27.891  1.00  0.00     0.031 A 
ATOM     47  C   UNL A   1      40.984  27.105  28.608  1.00  0.00     0.074 A 
ATOM     48  C   UNL A   1      42.926  26.146  27.385  1.00  0.00     0.049 A 
ATOM     49  N   UNL A   1      41.385  28.318  28.879  1.00  0.00    -0.248 NA
ATOM     50  C   UNL A   1      39.623  26.803  29.094  1.00  0.00     0.031 C 
ATOM     51  C   UNL A   1      43.710  25.121  26.700  1.00  0.00     0.029 A 
ATOM     52  N   UNL A   1      43.733  27.254  27.373  1.00  0.00    -0.354 N 
ATOM     53  C   UNL A   1      40.342  28.896  29.590  1.00  0.00     0.074 A 
ATOM     54  C   UNL A   1      39.275  27.932  29.676  1.00  0.00     0.031 C 
ATOM     55  C   UNL A   1      44.889  25.654  26.327  1.00  0.00     0.029 A 
ATOM     56  C   UNL A   1      44.931  27.058  26.734  1.00  0.00     0.049 A 
ATOM     57  H   UNL A   1      43.476  28.111  27.785  1.00  0.00     0.167 HD
ATOM     58  C   UNL A   1      40.275  30.131  30.135  1.00  0.00     0.037 A 
ATOM     59  C   UNL A   1      45.933  27.931  26.510  1.00  0.00     0.037 A 
ATOM     60  C   UNL A   1      41.304  31.112  29.977  1.00  0.00     0.049 A 
ATOM     61  C   UNL A   1      45.794  29.344  27.029  1.00  0.00     0.074 A 
ATOM     62  C   UNL A   1      41.334  32.417  30.424  1.00  0.00     0.029 A 
ATOM     63  N   UNL A   1      42.488  30.886  29.287  1.00  0.00    -0.354 N 
ATOM     64  N   UNL A   1      44.819  29.880  27.726  1.00  0.00    -0.248 NA
ATOM     65  C   UNL A   1      46.895  30.270  26.732  1.00  0.00     0.031 C 
ATOM     66  C   UNL A   1      42.522  32.997  29.967  1.00  0.00     0.029 A 
ATOM     67  C   UNL A   1      43.252  32.037  29.281  1.00  0.00     0.049 A 
ATOM     68  H   UNL A   1      42.744  30.034  28.865  1.00  0.00     0.167 HD
ATOM     69  C   UNL A   1      45.204  31.190  27.982  1.00  0.00     0.074 A 
ATOM     70  C   UNL A   1      46.503  31.367  27.365  1.00  0.00     0.031 C 
ATOM     71  C   UNL A   1      44.550  32.161  28.669  1.00  0.00     0.037 A 
BRANCH  58  72
ATOM     72  C   UNL A   1      39.022  30.462  30.885  1.00  0.00     0.064 A 
ATOM     73  C   UNL A   1      37.962  31.148  30.268  1.00  0.00     0.173 A 
ATOM     74  C   UNL A   1      38.914  30.174  32.252  1.00  0.00     0.173 A 
ATOM     75  F   UNL A   1      38.041  31.487  28.973  1.00  0.00    -0.203 F 
ATOM     76  C   UNL A   1      36.855  31.562  31.002  1.00  0.00     0.198 A 
ATOM     77  C   UNL A   1      37.791  30.565  32.977  1.00  0.00     0.198 A 
ATOM     78  F   UNL A   1      39.910  29.544  32.891  1.00  0.00    -0.203 F 
ATOM     79  F   UNL A   1      35.889  32.278  30.411  1.00  0.00    -0.200 F 
ATOM     80  C   UNL A   1      36.768  31.266  32.355  1.00  0.00     0.200 A 
ATOM     81  F   UNL A   1      37.711  30.286  34.284  1.00  0.00    -0.200 F 
ATOM     82  F   UNL A   1      35.709  31.679  33.064  1.00  0.00    -0.200 F 
ENDBRANCH  58  72
BRANCH  59  83
ATOM     83  C   UNL A   1      47.156  27.504  25.780  1.00  0.00     0.064 A 
ATOM     84  C   UNL A   1      47.254  27.650  24.389  1.00  0.00     0.173 A 
ATOM     85  C   UNL A   1      48.244  26.924  26.450  1.00  0.00     0.173 A 
ATOM     86  F   UNL A   1      46.230  28.171  23.698  1.00  0.00    -0.203 F 
ATOM     87  C   UNL A   1      48.385  27.222  23.695  1.00  0.00     0.198 A 
ATOM     88  C   UNL A   1      49.385  26.516  25.757  1.00  0.00     0.198 A 
ATOM     89  F   UNL A   1      48.199  26.749  27.778  1.00  0.00    -0.203 F 
ATOM     90  F   UNL A   1      48.434  27.337  22.360  1.00  0.00    -0.200 F 
ATOM     91  C   UNL A   1      49.452  26.661  24.380  1.00  0.00     0.200 A 
ATOM     92  F   UNL A   1      50.414  25.976  26.424  1.00  0.00    -0.200 F 
ATOM     93  F   UNL A   1      50.540  26.250  23.713  1.00  0.00    -0.200 F 
ENDBRANCH  59  83
BRANCH  71  94
ATOM     94  C   UNL A   1      45.248  33.476  28.833  1.00  0.00     0.064 A 
ATOM     95  C   UNL A   1      45.167  34.480  27.859  1.00  0.00     0.173 A 
ATOM     96  C   UNL A   1      45.945  33.756  30.018  1.00  0.00     0.173 A 
ATOM     97  F   UNL A   1      44.517  34.253  26.707  1.00  0.00    -0.203 F 
ATOM     98  C   UNL A   1      45.777  35.715  28.057  1.00  0.00     0.198 A 
ATOM     99  C   UNL A   1      46.530  35.002  30.224  1.00  0.00     0.198 A 
ATOM    100  F   UNL A   1      46.038  32.830  30.984  1.00  0.00    -0.203 F 
ATOM    101  F   UNL A   1      45.720  36.650  27.100  1.00  0.00    -0.200 F 
ATOM    102  C   UNL A   1      46.451  35.977  29.242  1.00  0.00     0.200 A 
ATOM    103  F   UNL A   1      47.165  35.259  31.376  1.00  0.00    -0.200 F 
ATOM    104  F   UNL A   1      47.027  37.171  29.436  1.00  0.00    -0.200 F 
ENDBRANCH  71  94
ENDBRANCH  45  46
ENDBRANCH  38  40
ENDBRANCH  37  38
ENDBRANCH  36  37
ENDBRANCH  35  36
ENDBRANCH  34  35
ENDBRANCH  33  34
ENDBRANCH  32  33
ENDBRANCH  31  32
ENDBRANCH   1  31
TORSDOF 24
ENDMDL
