MODEL 1
REMARK VINA RESULT:      -8.1      0.000      0.000
REMARK SMILES O=C(OCCOCCOCCOCCOC(=O)c1ccc2c(=O)n(Cc3cccnc3)c(=O)[nH]c2c1)c1ccc(-c2c3nc(c(-c4c(F)c(F)c(F)c(F)c4F)c4ccc([nH]4)c(-c4c(F)c(F)c(F)c(F)c4F)c4nc(c(-c5c(F)c(F)c(F)c(F)c5F)c5ccc2[nH]5)C=C4)C=C3)cc1
REMARK SMILES IDX 9 1 8 2 7 3 6 4 5 5 4 6 3 7 2 8 1 9 37 10 38 11 99 12 39 13
REMARK SMILES IDX 98 14 40 15 41 16 42 17 92 18 43 19 97 20 91 21 93 22 44 23
REMARK SMILES IDX 96 24 90 25 89 26 45 28 77 29 57 30 76 31 58 32 61 33 75 34
REMARK SMILES IDX 94 35 59 36 60 37 74 39 95 40 62 41 46 42 47 43 55 44 48 45
REMARK SMILES IDX 49 46 53 47 56 48 50 49 51 50 54 51 52 52 78 53 79 54 87 55
REMARK SMILES IDX 80 56 81 57 85 58 88 59 82 60 83 61 86 62 84 63 63 64 64 65
REMARK SMILES IDX 72 66 65 67 66 68 70 69 73 70 67 71 68 72 71 73 69 74 10 75
REMARK SMILES IDX 11 76 12 77 13 78 14 79 15 80 16 81 17 82 18 83 19 84 36 85
REMARK SMILES IDX 20 86 35 87 21 88 34 89 22 90 32 91 23 93 24 94 33 95 25 96
REMARK SMILES IDX 26 97 27 98 31 99 28 100 30 101 29 102
REMARK H PARENT 93 27 61 38 34 92
REMARK Flexibility Score: inf
ROOT
ATOM      1  O   UNL A   1      49.649  24.438  27.587  1.00  0.00    -0.377 OA
ENDROOT
BRANCH   1   2
ATOM      2  C   UNL A   1      50.668  25.383  27.373  1.00  0.00     0.188 C 
BRANCH   2   3
ATOM      3  C   UNL A   1      50.816  25.780  25.909  1.00  0.00     0.188 C 
BRANCH   3   4
ATOM      4  O   UNL A   1      50.171  26.968  25.452  1.00  0.00    -0.376 OA
BRANCH   4   5
ATOM      5  C   UNL A   1      49.925  27.165  24.064  1.00  0.00     0.202 C 
BRANCH   5   6
ATOM      6  C   UNL A   1      48.824  26.342  23.404  1.00  0.00     0.261 C 
BRANCH   6   7
ATOM      7  O   UNL A   1      47.541  26.451  24.019  1.00  0.00    -0.460 OA
BRANCH   7   8
ATOM      8  C   UNL A   1      46.791  27.581  24.058  1.00  0.00     0.338 C 
ATOM      9  O   UNL A   1      46.806  28.346  23.097  1.00  0.00    -0.246 OA
BRANCH   8  10
ATOM     10  C   UNL A   1      46.170  28.059  25.336  1.00  0.00     0.060 A 
ATOM     11  C   UNL A   1      47.070  28.437  26.350  1.00  0.00     0.016 A 
ATOM     12  C   UNL A   1      44.800  28.135  25.603  1.00  0.00     0.016 A 
ATOM     13  C   UNL A   1      46.609  28.863  27.596  1.00  0.00     0.010 A 
ATOM     14  C   UNL A   1      44.332  28.498  26.865  1.00  0.00     0.010 A 
ATOM     15  C   UNL A   1      45.233  28.903  27.852  1.00  0.00    -0.014 A 
BRANCH  15  16
ATOM     16  C   UNL A   1      44.714  29.667  29.001  1.00  0.00     0.031 A 
ATOM     17  C   UNL A   1      44.370  29.029  30.302  1.00  0.00     0.074 A 
ATOM     18  C   UNL A   1      44.499  30.976  28.776  1.00  0.00     0.049 A 
ATOM     19  N   UNL A   1      44.021  29.609  31.422  1.00  0.00    -0.248 NA
ATOM     20  C   UNL A   1      44.396  27.562  30.359  1.00  0.00     0.031 C 
ATOM     21  C   UNL A   1      44.724  31.642  27.488  1.00  0.00     0.029 A 
ATOM     22  N   UNL A   1      44.047  31.973  29.593  1.00  0.00    -0.354 N 
ATOM     23  C   UNL A   1      43.818  28.583  32.332  1.00  0.00     0.074 A 
ATOM     24  C   UNL A   1      44.023  27.339  31.616  1.00  0.00     0.031 C 
ATOM     25  C   UNL A   1      44.432  32.942  27.610  1.00  0.00     0.029 A 
ATOM     26  C   UNL A   1      44.003  33.198  28.978  1.00  0.00     0.049 A 
ATOM     27  H   UNL A   1      43.781  31.827  30.530  1.00  0.00     0.167 HD
ATOM     28  C   UNL A   1      43.508  28.694  33.646  1.00  0.00     0.037 A 
ATOM     29  C   UNL A   1      43.678  34.405  29.473  1.00  0.00     0.037 A 
ATOM     30  C   UNL A   1      43.276  29.958  34.303  1.00  0.00     0.049 A 
ATOM     31  C   UNL A   1      43.342  34.501  30.930  1.00  0.00     0.074 A 
ATOM     32  C   UNL A   1      43.032  30.207  35.642  1.00  0.00     0.029 A 
ATOM     33  N   UNL A   1      43.232  31.188  33.654  1.00  0.00    -0.354 N 
ATOM     34  N   UNL A   1      43.308  33.546  31.827  1.00  0.00    -0.248 NA
ATOM     35  C   UNL A   1      43.015  35.833  31.448  1.00  0.00     0.031 C 
ATOM     36  C   UNL A   1      42.779  31.574  35.791  1.00  0.00     0.029 A 
ATOM     37  C   UNL A   1      42.918  32.192  34.558  1.00  0.00     0.049 A 
ATOM     38  H   UNL A   1      43.399  31.327  32.693  1.00  0.00     0.167 HD
ATOM     39  C   UNL A   1      42.959  34.155  33.020  1.00  0.00     0.074 A 
ATOM     40  C   UNL A   1      42.820  35.571  32.735  1.00  0.00     0.031 C 
ATOM     41  C   UNL A   1      42.765  33.592  34.237  1.00  0.00     0.037 A 
BRANCH  28  42
ATOM     42  C   UNL A   1      43.419  27.436  34.465  1.00  0.00     0.064 A 
ATOM     43  C   UNL A   1      42.199  26.761  34.635  1.00  0.00     0.173 A 
ATOM     44  C   UNL A   1      44.568  26.849  35.017  1.00  0.00     0.173 A 
ATOM     45  F   UNL A   1      41.067  27.270  34.126  1.00  0.00    -0.203 F 
ATOM     46  C   UNL A   1      42.130  25.564  35.346  1.00  0.00     0.198 A 
ATOM     47  C   UNL A   1      44.500  25.636  35.703  1.00  0.00     0.198 A 
ATOM     48  F   UNL A   1      45.764  27.439  34.876  1.00  0.00    -0.203 F 
ATOM     49  F   UNL A   1      40.947  24.959  35.525  1.00  0.00    -0.200 F 
ATOM     50  C   UNL A   1      43.281  24.998  35.871  1.00  0.00     0.200 A 
ATOM     51  F   UNL A   1      45.618  25.082  36.193  1.00  0.00    -0.200 F 
ATOM     52  F   UNL A   1      43.215  23.840  36.541  1.00  0.00    -0.200 F 
ENDBRANCH  28  42
BRANCH  29  53
ATOM     53  C   UNL A   1      43.762  35.587  28.582  1.00  0.00     0.064 A 
ATOM     54  C   UNL A   1      42.612  36.099  27.969  1.00  0.00     0.173 A 
ATOM     55  C   UNL A   1      44.959  36.305  28.433  1.00  0.00     0.173 A 
ATOM     56  F   UNL A   1      41.445  35.448  28.085  1.00  0.00    -0.203 F 
ATOM     57  C   UNL A   1      42.653  37.287  27.242  1.00  0.00     0.198 A 
ATOM     58  C   UNL A   1      44.993  37.507  27.728  1.00  0.00     0.198 A 
ATOM     59  F   UNL A   1      46.082  35.871  29.024  1.00  0.00    -0.203 F 
ATOM     60  F   UNL A   1      41.539  37.752  26.660  1.00  0.00    -0.200 F 
ATOM     61  C   UNL A   1      43.841  37.996  27.133  1.00  0.00     0.200 A 
ATOM     62  F   UNL A   1      46.136  38.204  27.651  1.00  0.00    -0.200 F 
ATOM     63  F   UNL A   1      43.872  39.156  26.462  1.00  0.00    -0.200 F 
ENDBRANCH  29  53
BRANCH  41  64
ATOM     64  C   UNL A   1      42.342  34.502  35.351  1.00  0.00     0.064 A 
ATOM     65  C   UNL A   1      43.291  35.194  36.116  1.00  0.00     0.173 A 
ATOM     66  C   UNL A   1      40.984  34.766  35.584  1.00  0.00     0.173 A 
ATOM     67  F   UNL A   1      44.601  34.962  35.939  1.00  0.00    -0.203 F 
ATOM     68  C   UNL A   1      42.896  36.122  37.075  1.00  0.00     0.198 A 
ATOM     69  C   UNL A   1      40.594  35.715  36.524  1.00  0.00     0.198 A 
ATOM     70  F   UNL A   1      40.039  34.131  34.875  1.00  0.00    -0.203 F 
ATOM     71  F   UNL A   1      43.818  36.758  37.809  1.00  0.00    -0.200 F 
ATOM     72  C   UNL A   1      41.549  36.393  37.267  1.00  0.00     0.200 A 
ATOM     73  F   UNL A   1      39.294  35.989  36.697  1.00  0.00    -0.200 F 
ATOM     74  F   UNL A   1      41.172  37.309  38.168  1.00  0.00    -0.200 F 
ENDBRANCH  41  64
ENDBRANCH  15  16
ENDBRANCH   8  10
ENDBRANCH   7   8
ENDBRANCH   6   7
ENDBRANCH   5   6
ENDBRANCH   4   5
ENDBRANCH   3   4
ENDBRANCH   2   3
ENDBRANCH   1   2
BRANCH   1  75
ATOM     75  C   UNL A   1      48.358  24.989  27.793  1.00  0.00     0.188 C 
BRANCH  75  76
ATOM     76  C   UNL A   1      47.152  24.498  26.952  1.00  0.00     0.188 C 
BRANCH  76  77
ATOM     77  O   UNL A   1      46.144  23.701  27.550  1.00  0.00    -0.376 OA
BRANCH  77  78
ATOM     78  C   UNL A   1      44.775  23.899  27.247  1.00  0.00     0.202 C 
BRANCH  78  79
ATOM     79  C   UNL A   1      43.912  24.996  27.904  1.00  0.00     0.261 C 
BRANCH  79  80
ATOM     80  O   UNL A   1      42.496  24.760  27.945  1.00  0.00    -0.460 OA
BRANCH  80  81
ATOM     81  C   UNL A   1      41.782  25.215  26.880  1.00  0.00     0.338 C 
ATOM     82  O   UNL A   1      41.649  24.683  25.803  1.00  0.00    -0.246 OA
BRANCH  81  83
ATOM     83  C   UNL A   1      40.982  26.386  27.316  1.00  0.00     0.062 A 
ATOM     84  C   UNL A   1      40.971  27.550  26.548  1.00  0.00     0.016 A 
ATOM     85  C   UNL A   1      40.256  26.313  28.524  1.00  0.00     0.042 A 
ATOM     86  C   UNL A   1      40.140  28.602  26.928  1.00  0.00     0.017 A 
ATOM     87  C   UNL A   1      39.553  27.428  28.967  1.00  0.00     0.056 A 
ATOM     88  C   UNL A   1      39.415  28.511  28.121  1.00  0.00     0.064 A 
ATOM     89  N   UNL A   1      39.028  27.511  30.259  1.00  0.00    -0.307 N 
ATOM     90  C   UNL A   1      38.408  29.507  28.485  1.00  0.00     0.264 A 
ATOM     91  C   UNL A   1      38.394  28.631  30.751  1.00  0.00     0.329 A 
ATOM     92  H   UNL A   1      39.113  26.727  30.849  1.00  0.00     0.171 HD
ATOM     93  O   UNL A   1      37.835  30.093  27.572  1.00  0.00    -0.268 OA
ATOM     94  N   UNL A   1      38.121  29.637  29.836  1.00  0.00    -0.255 N 
ATOM     95  O   UNL A   1      38.076  28.664  31.938  1.00  0.00    -0.248 OA
BRANCH  94  96
ATOM     96  C   UNL A   1      37.296  30.772  30.249  1.00  0.00     0.168 C 
BRANCH  96  97
ATOM     97  C   UNL A   1      38.076  32.061  30.397  1.00  0.00    -0.010 A 
ATOM     98  C   UNL A   1      37.973  33.107  29.471  1.00  0.00     0.009 A 
ATOM     99  C   UNL A   1      38.924  32.272  31.478  1.00  0.00     0.116 A 
ATOM    100  C   UNL A   1      38.733  34.261  29.616  1.00  0.00     0.020 A 
ATOM    101  N   UNL A   1      39.658  33.395  31.662  1.00  0.00    -0.264 NA
ATOM    102  C   UNL A   1      39.555  34.358  30.721  1.00  0.00     0.111 A 
ENDBRANCH  96  97
ENDBRANCH  94  96
ENDBRANCH  81  83
ENDBRANCH  80  81
ENDBRANCH  79  80
ENDBRANCH  78  79
ENDBRANCH  77  78
ENDBRANCH  76  77
ENDBRANCH  75  76
ENDBRANCH   1  75
TORSDOF 22
ENDMDL
MODEL 2
REMARK VINA RESULT:      -7.9      4.983      8.247
REMARK SMILES O=C(OCCOCCOCCOCCOC(=O)c1ccc2c(=O)n(Cc3cccnc3)c(=O)[nH]c2c1)c1ccc(-c2c3nc(c(-c4c(F)c(F)c(F)c(F)c4F)c4ccc([nH]4)c(-c4c(F)c(F)c(F)c(F)c4F)c4nc(c(-c5c(F)c(F)c(F)c(F)c5F)c5ccc2[nH]5)C=C4)C=C3)cc1
REMARK SMILES IDX 9 1 8 2 7 3 6 4 5 5 4 6 3 7 2 8 1 9 37 10 38 11 99 12 39 13
REMARK SMILES IDX 98 14 40 15 41 16 42 17 92 18 43 19 97 20 91 21 93 22 44 23
REMARK SMILES IDX 96 24 90 25 89 26 45 28 77 29 57 30 76 31 58 32 61 33 75 34
REMARK SMILES IDX 94 35 59 36 60 37 74 39 95 40 62 41 46 42 47 43 55 44 48 45
REMARK SMILES IDX 49 46 53 47 56 48 50 49 51 50 54 51 52 52 78 53 79 54 87 55
REMARK SMILES IDX 80 56 81 57 85 58 88 59 82 60 83 61 86 62 84 63 63 64 64 65
REMARK SMILES IDX 72 66 65 67 66 68 70 69 73 70 67 71 68 72 71 73 69 74 10 75
REMARK SMILES IDX 11 76 12 77 13 78 14 79 15 80 16 81 17 82 18 83 19 84 36 85
REMARK SMILES IDX 20 86 35 87 21 88 34 89 22 90 32 91 23 93 24 94 33 95 25 96
REMARK SMILES IDX 26 97 27 98 31 99 28 100 30 101 29 102
REMARK H PARENT 93 27 61 38 34 92
REMARK Flexibility Score: inf
ROOT
ATOM      1  O   UNL A   1      42.618  26.567  25.266  1.00  0.00    -0.377 OA
ENDROOT
BRANCH   1   2
ATOM      2  C   UNL A   1      43.781  25.793  25.108  1.00  0.00     0.188 C 
BRANCH   2   3
ATOM      3  C   UNL A   1      45.046  26.635  24.987  1.00  0.00     0.188 C 
BRANCH   3   4
ATOM      4  O   UNL A   1      46.244  26.011  24.525  1.00  0.00    -0.376 OA
BRANCH   4   5
ATOM      5  C   UNL A   1      46.686  24.787  25.102  1.00  0.00     0.202 C 
BRANCH   5   6
ATOM      6  C   UNL A   1      47.511  24.850  26.382  1.00  0.00     0.261 C 
BRANCH   6   7
ATOM      7  O   UNL A   1      47.011  24.058  27.458  1.00  0.00    -0.460 OA
BRANCH   7   8
ATOM      8  C   UNL A   1      45.703  23.959  27.809  1.00  0.00     0.338 C 
ATOM      9  O   UNL A   1      45.039  23.013  27.393  1.00  0.00    -0.246 OA
BRANCH   8  10
ATOM     10  C   UNL A   1      44.981  25.105  28.450  1.00  0.00     0.060 A 
ATOM     11  C   UNL A   1      43.838  24.768  29.197  1.00  0.00     0.016 A 
ATOM     12  C   UNL A   1      45.333  26.455  28.346  1.00  0.00     0.016 A 
ATOM     13  C   UNL A   1      43.063  25.755  29.808  1.00  0.00     0.010 A 
ATOM     14  C   UNL A   1      44.530  27.452  28.901  1.00  0.00     0.010 A 
ATOM     15  C   UNL A   1      43.416  27.103  29.667  1.00  0.00    -0.014 A 
BRANCH  15  16
ATOM     16  C   UNL A   1      42.844  28.118  30.571  1.00  0.00     0.031 A 
ATOM     17  C   UNL A   1      41.566  28.825  30.281  1.00  0.00     0.074 A 
ATOM     18  C   UNL A   1      43.593  28.422  31.647  1.00  0.00     0.049 A 
ATOM     19  N   UNL A   1      40.901  29.646  31.052  1.00  0.00    -0.248 NA
ATOM     20  C   UNL A   1      40.963  28.609  28.959  1.00  0.00     0.031 C 
ATOM     21  C   UNL A   1      44.905  27.833  31.936  1.00  0.00     0.029 A 
ATOM     22  N   UNL A   1      43.379  29.286  32.684  1.00  0.00    -0.354 N 
ATOM     23  C   UNL A   1      39.781  30.022  30.326  1.00  0.00     0.074 A 
ATOM     24  C   UNL A   1      39.887  29.386  29.028  1.00  0.00     0.031 C 
ATOM     25  C   UNL A   1      45.368  28.336  33.086  1.00  0.00     0.029 A 
ATOM     26  C   UNL A   1      44.388  29.276  33.613  1.00  0.00     0.049 A 
ATOM     27  H   UNL A   1      42.581  29.857  32.757  1.00  0.00     0.167 HD
ATOM     28  C   UNL A   1      38.759  30.812  30.736  1.00  0.00     0.037 A 
ATOM     29  C   UNL A   1      44.498  29.934  34.779  1.00  0.00     0.037 A 
ATOM     30  C   UNL A   1      38.720  31.454  32.029  1.00  0.00     0.049 A 
ATOM     31  C   UNL A   1      43.353  30.798  35.211  1.00  0.00     0.074 A 
ATOM     32  C   UNL A   1      37.708  32.212  32.589  1.00  0.00     0.029 A 
ATOM     33  N   UNL A   1      39.760  31.432  32.952  1.00  0.00    -0.354 N 
ATOM     34  N   UNL A   1      42.219  31.025  34.592  1.00  0.00    -0.248 NA
ATOM     35  C   UNL A   1      43.489  31.485  36.499  1.00  0.00     0.031 C 
ATOM     36  C   UNL A   1      38.160  32.699  33.820  1.00  0.00     0.029 A 
ATOM     37  C   UNL A   1      39.432  32.202  34.057  1.00  0.00     0.049 A 
ATOM     38  H   UNL A   1      40.607  30.941  32.838  1.00  0.00     0.167 HD
ATOM     39  C   UNL A   1      41.501  31.878  35.412  1.00  0.00     0.074 A 
ATOM     40  C   UNL A   1      42.319  32.106  36.589  1.00  0.00     0.031 C 
ATOM     41  C   UNL A   1      40.279  32.427  35.205  1.00  0.00     0.037 A 
BRANCH  28  42
ATOM     42  C   UNL A   1      37.598  31.016  29.802  1.00  0.00     0.064 A 
ATOM     43  C   UNL A   1      37.447  32.207  29.074  1.00  0.00     0.173 A 
ATOM     44  C   UNL A   1      36.672  29.988  29.564  1.00  0.00     0.173 A 
ATOM     45  F   UNL A   1      38.304  33.224  29.255  1.00  0.00    -0.203 F 
ATOM     46  C   UNL A   1      36.403  32.370  28.165  1.00  0.00     0.198 A 
ATOM     47  C   UNL A   1      35.646  30.144  28.632  1.00  0.00     0.198 A 
ATOM     48  F   UNL A   1      36.773  28.821  30.218  1.00  0.00    -0.203 F 
ATOM     49  F   UNL A   1      36.261  33.532  27.511  1.00  0.00    -0.200 F 
ATOM     50  C   UNL A   1      35.509  31.335  27.939  1.00  0.00     0.200 A 
ATOM     51  F   UNL A   1      34.795  29.134  28.400  1.00  0.00    -0.200 F 
ATOM     52  F   UNL A   1      34.515  31.489  27.053  1.00  0.00    -0.200 F 
ENDBRANCH  28  42
BRANCH  29  53
ATOM     53  C   UNL A   1      45.695  29.698  35.622  1.00  0.00     0.064 A 
ATOM     54  C   UNL A   1      45.733  28.624  36.519  1.00  0.00     0.173 A 
ATOM     55  C   UNL A   1      46.867  30.452  35.452  1.00  0.00     0.173 A 
ATOM     56  F   UNL A   1      44.638  27.874  36.712  1.00  0.00    -0.203 F 
ATOM     57  C   UNL A   1      46.898  28.308  37.214  1.00  0.00     0.198 A 
ATOM     58  C   UNL A   1      48.040  30.119  36.129  1.00  0.00     0.198 A 
ATOM     59  F   UNL A   1      46.890  31.474  34.583  1.00  0.00    -0.203 F 
ATOM     60  F   UNL A   1      46.907  27.279  38.071  1.00  0.00    -0.200 F 
ATOM     61  C   UNL A   1      48.054  29.049  37.009  1.00  0.00     0.200 A 
ATOM     62  F   UNL A   1      49.161  30.819  35.904  1.00  0.00    -0.200 F 
ATOM     63  F   UNL A   1      49.184  28.724  37.653  1.00  0.00    -0.200 F 
ENDBRANCH  29  53
BRANCH  41  64
ATOM     64  C   UNL A   1      39.764  33.363  36.258  1.00  0.00     0.064 A 
ATOM     65  C   UNL A   1      38.940  32.899  37.293  1.00  0.00     0.173 A 
ATOM     66  C   UNL A   1      40.181  34.701  36.293  1.00  0.00     0.173 A 
ATOM     67  F   UNL A   1      38.503  31.631  37.292  1.00  0.00    -0.203 F 
ATOM     68  C   UNL A   1      38.554  33.743  38.329  1.00  0.00     0.198 A 
ATOM     69  C   UNL A   1      39.816  35.534  37.345  1.00  0.00     0.198 A 
ATOM     70  F   UNL A   1      40.973  35.190  35.326  1.00  0.00    -0.203 F 
ATOM     71  F   UNL A   1      37.750  33.286  39.299  1.00  0.00    -0.200 F 
ATOM     72  C   UNL A   1      39.004  35.055  38.363  1.00  0.00     0.200 A 
ATOM     73  F   UNL A   1      40.265  36.796  37.386  1.00  0.00    -0.200 F 
ATOM     74  F   UNL A   1      38.657  35.856  39.378  1.00  0.00    -0.200 F 
ENDBRANCH  41  64
ENDBRANCH  15  16
ENDBRANCH   8  10
ENDBRANCH   7   8
ENDBRANCH   6   7
ENDBRANCH   5   6
ENDBRANCH   4   5
ENDBRANCH   3   4
ENDBRANCH   2   3
ENDBRANCH   1   2
BRANCH   1  75
ATOM     75  C   UNL A   1      41.751  26.136  26.302  1.00  0.00     0.188 C 
BRANCH  75  76
ATOM     76  C   UNL A   1      40.384  25.489  25.964  1.00  0.00     0.188 C 
BRANCH  76  77
ATOM     77  O   UNL A   1      39.876  24.435  26.764  1.00  0.00    -0.376 OA
BRANCH  77  78
ATOM     78  C   UNL A   1      38.496  24.119  26.773  1.00  0.00     0.202 C 
BRANCH  78  79
ATOM     79  C   UNL A   1      37.850  23.112  25.800  1.00  0.00     0.261 C 
BRANCH  79  80
ATOM     80  O   UNL A   1      36.606  22.526  26.213  1.00  0.00    -0.460 OA
BRANCH  80  81
ATOM     81  C   UNL A   1      35.933  21.819  25.264  1.00  0.00     0.338 C 
ATOM     82  O   UNL A   1      36.150  20.689  24.899  1.00  0.00    -0.246 OA
BRANCH  81  83
ATOM     83  C   UNL A   1      34.716  22.580  24.888  1.00  0.00     0.062 A 
ATOM     84  C   UNL A   1      34.293  22.607  23.558  1.00  0.00     0.016 A 
ATOM     85  C   UNL A   1      34.011  23.290  25.882  1.00  0.00     0.042 A 
ATOM     86  C   UNL A   1      33.096  23.250  23.244  1.00  0.00     0.017 A 
ATOM     87  C   UNL A   1      32.905  24.052  25.524  1.00  0.00     0.056 A 
ATOM     88  C   UNL A   1      32.400  23.938  24.243  1.00  0.00     0.064 A 
ATOM     89  N   UNL A   1      32.319  24.970  26.400  1.00  0.00    -0.307 N 
ATOM     90  C   UNL A   1      31.066  24.487  24.010  1.00  0.00     0.264 A 
ATOM     91  C   UNL A   1      31.272  25.793  26.048  1.00  0.00     0.329 A 
ATOM     92  H   UNL A   1      32.672  25.031  27.317  1.00  0.00     0.171 HD
ATOM     93  O   UNL A   1      30.360  23.927  23.177  1.00  0.00    -0.268 OA
ATOM     94  N   UNL A   1      30.677  25.545  24.820  1.00  0.00    -0.255 N 
ATOM     95  O   UNL A   1      30.901  26.659  26.838  1.00  0.00    -0.248 OA
BRANCH  94  96
ATOM     96  C   UNL A   1      29.452  26.260  24.462  1.00  0.00     0.168 C 
BRANCH  96  97
ATOM     97  C   UNL A   1      29.700  27.495  23.622  1.00  0.00    -0.010 A 
ATOM     98  C   UNL A   1      28.655  28.254  23.083  1.00  0.00     0.009 A 
ATOM     99  C   UNL A   1      30.990  27.944  23.362  1.00  0.00     0.116 A 
ATOM    100  C   UNL A   1      28.918  29.360  22.284  1.00  0.00     0.020 A 
ATOM    101  N   UNL A   1      31.280  29.032  22.609  1.00  0.00    -0.264 NA
ATOM    102  C   UNL A   1      30.238  29.707  22.078  1.00  0.00     0.111 A 
ENDBRANCH  96  97
ENDBRANCH  94  96
ENDBRANCH  81  83
ENDBRANCH  80  81
ENDBRANCH  79  80
ENDBRANCH  78  79
ENDBRANCH  77  78
ENDBRANCH  76  77
ENDBRANCH  75  76
ENDBRANCH   1  75
TORSDOF 22
ENDMDL
MODEL 3
REMARK VINA RESULT:      -7.7      5.331     12.156
REMARK SMILES O=C(OCCOCCOCCOCCOC(=O)c1ccc2c(=O)n(Cc3cccnc3)c(=O)[nH]c2c1)c1ccc(-c2c3nc(c(-c4c(F)c(F)c(F)c(F)c4F)c4ccc([nH]4)c(-c4c(F)c(F)c(F)c(F)c4F)c4nc(c(-c5c(F)c(F)c(F)c(F)c5F)c5ccc2[nH]5)C=C4)C=C3)cc1
REMARK SMILES IDX 9 1 8 2 7 3 6 4 5 5 4 6 3 7 2 8 1 9 37 10 38 11 99 12 39 13
REMARK SMILES IDX 98 14 40 15 41 16 42 17 92 18 43 19 97 20 91 21 93 22 44 23
REMARK SMILES IDX 96 24 90 25 89 26 45 28 77 29 57 30 76 31 58 32 61 33 75 34
REMARK SMILES IDX 94 35 59 36 60 37 74 39 95 40 62 41 46 42 47 43 55 44 48 45
REMARK SMILES IDX 49 46 53 47 56 48 50 49 51 50 54 51 52 52 78 53 79 54 87 55
REMARK SMILES IDX 80 56 81 57 85 58 88 59 82 60 83 61 86 62 84 63 63 64 64 65
REMARK SMILES IDX 72 66 65 67 66 68 70 69 73 70 67 71 68 72 71 73 69 74 10 75
REMARK SMILES IDX 11 76 12 77 13 78 14 79 15 80 16 81 17 82 18 83 19 84 36 85
REMARK SMILES IDX 20 86 35 87 21 88 34 89 22 90 32 91 23 93 24 94 33 95 25 96
REMARK SMILES IDX 26 97 27 98 31 99 28 100 30 101 29 102
REMARK H PARENT 93 27 61 38 34 92
REMARK Flexibility Score: inf
ROOT
ATOM      1  O   UNL A   1      37.695  34.018  31.748  1.00  0.00    -0.377 OA
ENDROOT
BRANCH   1   2
ATOM      2  C   UNL A   1      36.333  34.276  31.976  1.00  0.00     0.188 C 
BRANCH   2   3
ATOM      3  C   UNL A   1      35.664  33.223  32.852  1.00  0.00     0.188 C 
BRANCH   3   4
ATOM      4  O   UNL A   1      35.395  33.538  34.218  1.00  0.00    -0.376 OA
BRANCH   4   5
ATOM      5  C   UNL A   1      36.454  33.909  35.094  1.00  0.00     0.202 C 
BRANCH   5   6
ATOM      6  C   UNL A   1      37.164  32.808  35.873  1.00  0.00     0.261 C 
BRANCH   6   7
ATOM      7  O   UNL A   1      37.473  31.639  35.116  1.00  0.00    -0.460 OA
BRANCH   7   8
ATOM      8  C   UNL A   1      38.607  30.904  35.249  1.00  0.00     0.338 C 
ATOM      9  O   UNL A   1      38.909  30.459  36.353  1.00  0.00    -0.246 OA
BRANCH   8  10
ATOM     10  C   UNL A   1      39.635  30.857  34.159  1.00  0.00     0.060 A 
ATOM     11  C   UNL A   1      40.804  30.131  34.452  1.00  0.00     0.016 A 
ATOM     12  C   UNL A   1      39.537  31.484  32.913  1.00  0.00     0.016 A 
ATOM     13  C   UNL A   1      41.847  30.048  33.528  1.00  0.00     0.010 A 
ATOM     14  C   UNL A   1      40.600  31.459  32.010  1.00  0.00     0.010 A 
ATOM     15  C   UNL A   1      41.740  30.708  32.298  1.00  0.00    -0.014 A 
BRANCH  15  16
ATOM     16  C   UNL A   1      42.644  30.356  31.187  1.00  0.00     0.031 A 
ATOM     17  C   UNL A   1      43.805  31.202  30.795  1.00  0.00     0.074 A 
ATOM     18  C   UNL A   1      42.308  29.252  30.495  1.00  0.00     0.049 A 
ATOM     19  N   UNL A   1      44.741  30.940  29.919  1.00  0.00    -0.248 NA
ATOM     20  C   UNL A   1      43.931  32.514  31.445  1.00  0.00     0.031 C 
ATOM     21  C   UNL A   1      41.122  28.433  30.769  1.00  0.00     0.029 A 
ATOM     22  N   UNL A   1      42.906  28.630  29.436  1.00  0.00    -0.354 N 
ATOM     23  C   UNL A   1      45.589  32.037  29.931  1.00  0.00     0.074 A 
ATOM     24  C   UNL A   1      45.023  32.996  30.860  1.00  0.00     0.031 C 
ATOM     25  C   UNL A   1      41.093  27.404  29.915  1.00  0.00     0.029 A 
ATOM     26  C   UNL A   1      42.254  27.490  29.039  1.00  0.00     0.049 A 
ATOM     27  H   UNL A   1      43.723  28.966  29.001  1.00  0.00     0.167 HD
ATOM     28  C   UNL A   1      46.741  32.197  29.236  1.00  0.00     0.037 A 
ATOM     29  C   UNL A   1      42.574  26.595  28.090  1.00  0.00     0.037 A 
ATOM     30  C   UNL A   1      47.241  31.225  28.293  1.00  0.00     0.049 A 
ATOM     31  C   UNL A   1      43.855  26.793  27.338  1.00  0.00     0.074 A 
ATOM     32  C   UNL A   1      48.430  31.236  27.587  1.00  0.00     0.029 A 
ATOM     33  N   UNL A   1      46.557  30.078  27.905  1.00  0.00    -0.354 N 
ATOM     34  N   UNL A   1      44.740  27.753  27.467  1.00  0.00    -0.248 NA
ATOM     35  C   UNL A   1      44.192  25.789  26.325  1.00  0.00     0.031 C 
ATOM     36  C   UNL A   1      48.437  30.132  26.729  1.00  0.00     0.029 A 
ATOM     37  C   UNL A   1      47.279  29.399  26.935  1.00  0.00     0.049 A 
ATOM     38  H   UNL A   1      45.688  29.789  28.266  1.00  0.00     0.167 HD
ATOM     39  C   UNL A   1      45.743  27.471  26.556  1.00  0.00     0.074 A 
ATOM     40  C   UNL A   1      45.368  26.232  25.899  1.00  0.00     0.031 C 
ATOM     41  C   UNL A   1      46.867  28.177  26.284  1.00  0.00     0.037 A 
BRANCH  28  42
ATOM     42  C   UNL A   1      47.548  33.444  29.474  1.00  0.00     0.064 A 
ATOM     43  C   UNL A   1      48.539  33.492  30.467  1.00  0.00     0.173 A 
ATOM     44  C   UNL A   1      47.393  34.573  28.655  1.00  0.00     0.173 A 
ATOM     45  F   UNL A   1      48.738  32.441  31.278  1.00  0.00    -0.203 F 
ATOM     46  C   UNL A   1      49.326  34.629  30.646  1.00  0.00     0.198 A 
ATOM     47  C   UNL A   1      48.202  35.698  28.819  1.00  0.00     0.198 A 
ATOM     48  F   UNL A   1      46.473  34.581  27.680  1.00  0.00    -0.203 F 
ATOM     49  F   UNL A   1      50.241  34.661  31.626  1.00  0.00    -0.200 F 
ATOM     50  C   UNL A   1      49.162  35.727  29.817  1.00  0.00     0.200 A 
ATOM     51  F   UNL A   1      48.055  36.751  28.002  1.00  0.00    -0.200 F 
ATOM     52  F   UNL A   1      49.929  36.813  29.981  1.00  0.00    -0.200 F 
ENDBRANCH  28  42
BRANCH  29  53
ATOM     53  C   UNL A   1      41.701  25.411  27.902  1.00  0.00     0.064 A 
ATOM     54  C   UNL A   1      40.569  25.486  27.081  1.00  0.00     0.173 A 
ATOM     55  C   UNL A   1      42.050  24.156  28.425  1.00  0.00     0.173 A 
ATOM     56  F   UNL A   1      40.198  26.663  26.557  1.00  0.00    -0.203 F 
ATOM     57  C   UNL A   1      39.819  24.350  26.786  1.00  0.00     0.198 A 
ATOM     58  C   UNL A   1      41.314  23.016  28.108  1.00  0.00     0.198 A 
ATOM     59  F   UNL A   1      43.141  24.028  29.194  1.00  0.00    -0.203 F 
ATOM     60  F   UNL A   1      38.737  24.449  26.003  1.00  0.00    -0.200 F 
ATOM     61  C   UNL A   1      40.199  23.113  27.290  1.00  0.00     0.200 A 
ATOM     62  F   UNL A   1      41.703  21.820  28.572  1.00  0.00    -0.200 F 
ATOM     63  F   UNL A   1      39.496  22.016  26.979  1.00  0.00    -0.200 F 
ENDBRANCH  29  53
BRANCH  41  64
ATOM     64  C   UNL A   1      47.759  27.650  25.200  1.00  0.00     0.064 A 
ATOM     65  C   UNL A   1      47.480  27.902  23.850  1.00  0.00     0.173 A 
ATOM     66  C   UNL A   1      48.952  26.982  25.516  1.00  0.00     0.173 A 
ATOM     67  F   UNL A   1      46.343  28.523  23.500  1.00  0.00    -0.203 F 
ATOM     68  C   UNL A   1      48.366  27.507  22.852  1.00  0.00     0.198 A 
ATOM     69  C   UNL A   1      49.848  26.615  24.517  1.00  0.00     0.198 A 
ATOM     70  F   UNL A   1      49.264  26.721  26.794  1.00  0.00    -0.203 F 
ATOM     71  F   UNL A   1      48.071  27.741  21.566  1.00  0.00    -0.200 F 
ATOM     72  C   UNL A   1      49.555  26.878  23.187  1.00  0.00     0.200 A 
ATOM     73  F   UNL A   1      51.005  26.022  24.843  1.00  0.00    -0.200 F 
ATOM     74  F   UNL A   1      50.421  26.527  22.228  1.00  0.00    -0.200 F 
ENDBRANCH  41  64
ENDBRANCH  15  16
ENDBRANCH   8  10
ENDBRANCH   7   8
ENDBRANCH   6   7
ENDBRANCH   5   6
ENDBRANCH   4   5
ENDBRANCH   3   4
ENDBRANCH   2   3
ENDBRANCH   1   2
BRANCH   1  75
ATOM     75  C   UNL A   1      38.107  34.128  30.395  1.00  0.00     0.188 C 
BRANCH  75  76
ATOM     76  C   UNL A   1      37.469  33.230  29.305  1.00  0.00     0.188 C 
BRANCH  76  77
ATOM     77  O   UNL A   1      37.514  31.819  29.427  1.00  0.00    -0.376 OA
BRANCH  77  78
ATOM     78  C   UNL A   1      36.334  31.038  29.369  1.00  0.00     0.202 C 
BRANCH  78  79
ATOM     79  C   UNL A   1      35.001  31.559  28.797  1.00  0.00     0.261 C 
BRANCH  79  80
ATOM     80  O   UNL A   1      34.639  31.096  27.487  1.00  0.00    -0.460 OA
BRANCH  80  81
ATOM     81  C   UNL A   1      33.308  31.093  27.199  1.00  0.00     0.338 C 
ATOM     82  O   UNL A   1      32.554  32.036  27.206  1.00  0.00    -0.246 OA
BRANCH  81  83
ATOM     83  C   UNL A   1      32.952  29.765  26.641  1.00  0.00     0.062 A 
ATOM     84  C   UNL A   1      32.307  28.822  27.442  1.00  0.00     0.016 A 
ATOM     85  C   UNL A   1      33.294  29.464  25.306  1.00  0.00     0.042 A 
ATOM     86  C   UNL A   1      31.899  27.618  26.870  1.00  0.00     0.017 A 
ATOM     87  C   UNL A   1      33.015  28.200  24.798  1.00  0.00     0.056 A 
ATOM     88  C   UNL A   1      32.232  27.338  25.541  1.00  0.00     0.064 A 
ATOM     89  N   UNL A   1      33.545  27.753  23.585  1.00  0.00    -0.307 N 
ATOM     90  C   UNL A   1      31.693  26.172  24.844  1.00  0.00     0.264 A 
ATOM     91  C   UNL A   1      33.349  26.481  23.094  1.00  0.00     0.329 A 
ATOM     92  H   UNL A   1      34.086  28.380  23.052  1.00  0.00     0.171 HD
ATOM     93  O   UNL A   1      30.598  25.752  25.204  1.00  0.00    -0.268 OA
ATOM     94  N   UNL A   1      32.429  25.693  23.769  1.00  0.00    -0.255 N 
ATOM     95  O   UNL A   1      33.956  26.131  22.083  1.00  0.00    -0.248 OA
BRANCH  94  96
ATOM     96  C   UNL A   1      32.042  24.402  23.201  1.00  0.00     0.168 C 
BRANCH  96  97
ATOM     97  C   UNL A   1      32.688  23.222  23.893  1.00  0.00    -0.010 A 
ATOM     98  C   UNL A   1      31.982  22.392  24.773  1.00  0.00     0.009 A 
ATOM     99  C   UNL A   1      34.020  22.895  23.669  1.00  0.00     0.116 A 
ATOM    100  C   UNL A   1      32.616  21.340  25.422  1.00  0.00     0.020 A 
ATOM    101  N   UNL A   1      34.662  21.860  24.265  1.00  0.00    -0.264 NA
ATOM    102  C   UNL A   1      33.948  21.116  25.136  1.00  0.00     0.111 A 
ENDBRANCH  96  97
ENDBRANCH  94  96
ENDBRANCH  81  83
ENDBRANCH  80  81
ENDBRANCH  79  80
ENDBRANCH  78  79
ENDBRANCH  77  78
ENDBRANCH  76  77
ENDBRANCH  75  76
ENDBRANCH   1  75
TORSDOF 22
ENDMDL
