MODEL 1
REMARK VINA RESULT:      -7.3      0.000      0.000
REMARK SMILES CCC1(C(=O)NCCc2ccc(C(=O)OCCOCCOCCOCCOC(=O)c3ccc(-c4c5nc(c(-c6c(F)c(F)c(F)c(F)c6F)c6ccc([nH]6)c(-c6c(F)c(F)c(F)c(F)c6F)c6nc(c(-c7c(F)c(F)c(F)c(F)c7F)c7ccc4[nH]7)C=C6)C=C5)cc3)cc2)CCCC1
REMARK SMILES IDX 19 1 18 2 17 3 16 4 15 5 13 6 14 7 12 8 9 9 10 10 94 11
REMARK SMILES IDX 11 12 93 13 8 14 7 15 6 16 4 17 5 18 3 20 95 21 98 22 96 23
REMARK SMILES IDX 97 24 2 25 1 26 20 27 21 28 22 29 23 30 24 31 25 32 26 33
REMARK SMILES IDX 27 34 28 35 29 36 30 37 31 38 92 39 32 40 91 41 33 42 34 43
REMARK SMILES IDX 35 44 85 45 36 46 90 47 84 48 86 49 37 50 89 51 83 52 82 53
REMARK SMILES IDX 38 55 70 56 50 57 69 58 51 59 54 60 68 61 87 62 52 63 53 64
REMARK SMILES IDX 67 66 88 67 55 68 39 69 40 70 48 71 41 72 42 73 46 74 49 75
REMARK SMILES IDX 43 76 44 77 47 78 45 79 71 80 72 81 80 82 73 83 74 84 78 85
REMARK SMILES IDX 81 86 75 87 76 88 79 89 77 90 56 91 57 92 65 93 58 94 59 95
REMARK SMILES IDX 63 96 66 97 60 98 61 99 64 100 62 101
REMARK H PARENT 6 19 86 54 54 65
REMARK Flexibility Score: inf
ROOT
ATOM      1  C   UNL A   1      41.909  23.529  27.045  1.00  0.00     0.188 C 
ENDROOT
BRANCH   1   2
ATOM      2  O   UNL A   1      40.631  23.176  26.539  1.00  0.00    -0.376 OA
BRANCH   2   3
ATOM      3  C   UNL A   1      39.510  23.943  26.940  1.00  0.00     0.202 C 
BRANCH   3   4
ATOM      4  C   UNL A   1      39.723  24.989  28.047  1.00  0.00     0.261 C 
BRANCH   4   5
ATOM      5  O   UNL A   1      39.663  26.351  27.609  1.00  0.00    -0.460 OA
BRANCH   5   6
ATOM      6  C   UNL A   1      40.291  27.242  28.404  1.00  0.00     0.338 C 
ATOM      7  O   UNL A   1      41.445  27.622  28.305  1.00  0.00    -0.246 OA
BRANCH   6   8
ATOM      8  C   UNL A   1      39.283  27.891  29.263  1.00  0.00     0.060 A 
ATOM      9  C   UNL A   1      37.303  29.206  30.744  1.00  0.00    -0.046 A 
ATOM     10  C   UNL A   1      37.297  29.254  29.343  1.00  0.00     0.004 A 
ATOM     11  C   UNL A   1      38.251  28.392  31.387  1.00  0.00     0.004 A 
ATOM     12  C   UNL A   1      38.298  28.633  28.611  1.00  0.00     0.016 A 
ATOM     13  C   UNL A   1      39.236  27.728  30.650  1.00  0.00     0.016 A 
BRANCH   9  14
ATOM     14  C   UNL A   1      36.356  30.041  31.578  1.00  0.00     0.056 C 
BRANCH  14  15
ATOM     15  C   UNL A   1      36.630  31.554  31.516  1.00  0.00     0.120 C 
BRANCH  15  16
ATOM     16  N   UNL A   1      37.595  31.950  32.520  1.00  0.00    -0.355 N 
ATOM     17  C   UNL A   1      38.906  32.271  32.470  1.00  0.00     0.226 C 
ATOM     18  O   UNL A   1      39.457  32.292  33.578  1.00  0.00    -0.274 OA
ATOM     19  H   UNL A   1      37.217  31.995  33.427  1.00  0.00     0.163 HD
BRANCH  17  20
ATOM     20  C   UNL A   1      39.698  32.540  31.166  1.00  0.00     0.049 C 
ATOM     21  C   UNL A   1      40.306  33.949  31.042  1.00  0.00     0.017 C 
ATOM     22  C   UNL A   1      38.790  32.375  29.929  1.00  0.00     0.017 C 
ATOM     23  C   UNL A   1      39.584  34.693  29.921  1.00  0.00     0.001 C 
ATOM     24  C   UNL A   1      38.549  33.752  29.328  1.00  0.00     0.001 C 
BRANCH  20  25
ATOM     25  C   UNL A   1      40.839  31.471  31.086  1.00  0.00     0.013 C 
ATOM     26  C   UNL A   1      41.114  30.905  29.690  1.00  0.00     0.005 C 
ENDBRANCH  20  25
ENDBRANCH  17  20
ENDBRANCH  15  16
ENDBRANCH  14  15
ENDBRANCH   9  14
ENDBRANCH   6   8
ENDBRANCH   5   6
ENDBRANCH   4   5
ENDBRANCH   3   4
ENDBRANCH   2   3
ENDBRANCH   1   2
BRANCH   1  27
ATOM     27  C   UNL A   1      43.026  22.521  26.699  1.00  0.00     0.188 C 
BRANCH  27  28
ATOM     28  O   UNL A   1      43.412  22.373  25.340  1.00  0.00    -0.377 OA
BRANCH  28  29
ATOM     29  C   UNL A   1      44.628  21.697  25.024  1.00  0.00     0.188 C 
BRANCH  29  30
ATOM     30  C   UNL A   1      45.902  22.463  24.589  1.00  0.00     0.188 C 
BRANCH  30  31
ATOM     31  O   UNL A   1      46.635  23.044  25.653  1.00  0.00    -0.376 OA
BRANCH  31  32
ATOM     32  C   UNL A   1      46.733  24.456  25.686  1.00  0.00     0.202 C 
BRANCH  32  33
ATOM     33  C   UNL A   1      47.494  25.127  24.533  1.00  0.00     0.261 C 
BRANCH  33  34
ATOM     34  O   UNL A   1      47.948  26.469  24.767  1.00  0.00    -0.460 OA
BRANCH  34  35
ATOM     35  C   UNL A   1      47.101  27.477  24.472  1.00  0.00     0.338 C 
ATOM     36  O   UNL A   1      46.736  27.838  23.364  1.00  0.00    -0.246 OA
BRANCH  35  37
ATOM     37  C   UNL A   1      46.527  27.963  25.743  1.00  0.00     0.060 A 
ATOM     38  C   UNL A   1      45.138  28.112  25.861  1.00  0.00     0.016 A 
ATOM     39  C   UNL A   1      47.365  28.254  26.821  1.00  0.00     0.016 A 
ATOM     40  C   UNL A   1      44.586  28.586  27.052  1.00  0.00     0.010 A 
ATOM     41  C   UNL A   1      46.813  28.753  28.003  1.00  0.00     0.010 A 
ATOM     42  C   UNL A   1      45.425  28.955  28.111  1.00  0.00    -0.014 A 
BRANCH  42  43
ATOM     43  C   UNL A   1      44.887  29.753  29.239  1.00  0.00     0.031 A 
ATOM     44  C   UNL A   1      44.808  31.245  29.072  1.00  0.00     0.074 A 
ATOM     45  C   UNL A   1      44.474  29.176  30.381  1.00  0.00     0.049 A 
ATOM     46  N   UNL A   1      44.456  32.165  29.933  1.00  0.00    -0.248 NA
ATOM     47  C   UNL A   1      45.186  31.771  27.750  1.00  0.00     0.031 C 
ATOM     48  C   UNL A   1      44.457  27.740  30.645  1.00  0.00     0.029 A 
ATOM     49  N   UNL A   1      44.001  29.740  31.540  1.00  0.00    -0.354 N 
ATOM     50  C   UNL A   1      44.581  33.374  29.261  1.00  0.00     0.074 A 
ATOM     51  C   UNL A   1      45.072  33.076  27.934  1.00  0.00     0.031 C 
ATOM     52  C   UNL A   1      44.010  27.535  31.897  1.00  0.00     0.029 A 
ATOM     53  C   UNL A   1      43.748  28.826  32.532  1.00  0.00     0.049 A 
ATOM     54  H   UNL A   1      43.856  30.708  31.648  1.00  0.00     0.167 HD
ATOM     55  C   UNL A   1      44.303  34.621  29.709  1.00  0.00     0.037 A 
ATOM     56  C   UNL A   1      43.376  29.018  33.814  1.00  0.00     0.037 A 
ATOM     57  C   UNL A   1      43.820  34.913  31.033  1.00  0.00     0.049 A 
ATOM     58  C   UNL A   1      43.154  30.424  34.316  1.00  0.00     0.074 A 
ATOM     59  C   UNL A   1      43.493  36.141  31.581  1.00  0.00     0.029 A 
ATOM     60  N   UNL A   1      43.604  33.963  32.021  1.00  0.00    -0.354 N 
ATOM     61  N   UNL A   1      43.249  31.562  33.671  1.00  0.00    -0.248 NA
ATOM     62  C   UNL A   1      42.767  30.570  35.728  1.00  0.00     0.031 C 
ATOM     63  C   UNL A   1      43.142  35.941  32.919  1.00  0.00     0.029 A 
ATOM     64  C   UNL A   1      43.178  34.582  33.185  1.00  0.00     0.049 A 
ATOM     65  H   UNL A   1      43.734  32.993  31.911  1.00  0.00     0.167 HD
ATOM     66  C   UNL A   1      42.903  32.552  34.584  1.00  0.00     0.074 A 
ATOM     67  C   UNL A   1      42.582  31.879  35.825  1.00  0.00     0.031 C 
ATOM     68  C   UNL A   1      42.851  33.897  34.411  1.00  0.00     0.037 A 
BRANCH  55  69
ATOM     69  C   UNL A   1      44.553  35.767  28.770  1.00  0.00     0.064 A 
ATOM     70  C   UNL A   1      43.525  36.329  27.997  1.00  0.00     0.173 A 
ATOM     71  C   UNL A   1      45.835  36.324  28.660  1.00  0.00     0.173 A 
ATOM     72  F   UNL A   1      42.283  35.823  28.052  1.00  0.00    -0.203 F 
ATOM     73  C   UNL A   1      43.780  37.385  27.126  1.00  0.00     0.198 A 
ATOM     74  C   UNL A   1      46.078  37.404  27.815  1.00  0.00     0.198 A 
ATOM     75  F   UNL A   1      46.854  35.827  29.378  1.00  0.00    -0.203 F 
ATOM     76  F   UNL A   1      42.795  37.869  26.356  1.00  0.00    -0.200 F 
ATOM     77  C   UNL A   1      45.054  37.927  27.041  1.00  0.00     0.200 A 
ATOM     78  F   UNL A   1      47.307  37.935  27.746  1.00  0.00    -0.200 F 
ATOM     79  F   UNL A   1      45.295  38.949  26.210  1.00  0.00    -0.200 F 
ENDBRANCH  55  69
BRANCH  56  80
ATOM     80  C   UNL A   1      43.203  27.854  34.723  1.00  0.00     0.064 A 
ATOM     81  C   UNL A   1      42.015  27.109  34.731  1.00  0.00     0.173 A 
ATOM     82  C   UNL A   1      44.209  27.480  35.628  1.00  0.00     0.173 A 
ATOM     83  F   UNL A   1      41.011  27.442  33.906  1.00  0.00    -0.203 F 
ATOM     84  C   UNL A   1      41.833  26.051  35.620  1.00  0.00     0.198 A 
ATOM     85  C   UNL A   1      44.038  26.402  36.494  1.00  0.00     0.198 A 
ATOM     86  F   UNL A   1      45.364  28.162  35.667  1.00  0.00    -0.203 F 
ATOM     87  F   UNL A   1      40.665  25.392  35.643  1.00  0.00    -0.200 F 
ATOM     88  C   UNL A   1      42.846  25.695  36.496  1.00  0.00     0.200 A 
ATOM     89  F   UNL A   1      45.026  26.053  37.329  1.00  0.00    -0.200 F 
ATOM     90  F   UNL A   1      42.671  24.677  37.350  1.00  0.00    -0.200 F 
ENDBRANCH  56  80
BRANCH  68  91
ATOM     91  C   UNL A   1      42.383  34.731  35.570  1.00  0.00     0.064 A 
ATOM     92  C   UNL A   1      41.051  35.151  35.694  1.00  0.00     0.173 A 
ATOM     93  C   UNL A   1      43.275  35.075  36.599  1.00  0.00     0.173 A 
ATOM     94  F   UNL A   1      40.159  34.861  34.735  1.00  0.00    -0.203 F 
ATOM     95  C   UNL A   1      40.636  35.909  36.787  1.00  0.00     0.198 A 
ATOM     96  C   UNL A   1      42.850  35.800  37.708  1.00  0.00     0.198 A 
ATOM     97  F   UNL A   1      44.559  34.691  36.538  1.00  0.00    -0.203 F 
ATOM     98  F   UNL A   1      39.371  36.344  36.857  1.00  0.00    -0.200 F 
ATOM     99  C   UNL A   1      41.533  36.224  37.797  1.00  0.00     0.200 A 
ATOM    100  F   UNL A   1      43.714  36.088  38.692  1.00  0.00    -0.200 F 
ATOM    101  F   UNL A   1      41.129  36.944  38.853  1.00  0.00    -0.200 F 
ENDBRANCH  68  91
ENDBRANCH  42  43
ENDBRANCH  35  37
ENDBRANCH  34  35
ENDBRANCH  33  34
ENDBRANCH  32  33
ENDBRANCH  31  32
ENDBRANCH  30  31
ENDBRANCH  29  30
ENDBRANCH  28  29
ENDBRANCH  27  28
ENDBRANCH   1  27
TORSDOF 25
ENDMDL
MODEL 2
REMARK VINA RESULT:      -7.1      6.744     11.769
REMARK SMILES CCC1(C(=O)NCCc2ccc(C(=O)OCCOCCOCCOCCOC(=O)c3ccc(-c4c5nc(c(-c6c(F)c(F)c(F)c(F)c6F)c6ccc([nH]6)c(-c6c(F)c(F)c(F)c(F)c6F)c6nc(c(-c7c(F)c(F)c(F)c(F)c7F)c7ccc4[nH]7)C=C6)C=C5)cc3)cc2)CCCC1
REMARK SMILES IDX 19 1 18 2 17 3 16 4 15 5 13 6 14 7 12 8 9 9 10 10 94 11
REMARK SMILES IDX 11 12 93 13 8 14 7 15 6 16 4 17 5 18 3 20 95 21 98 22 96 23
REMARK SMILES IDX 97 24 2 25 1 26 20 27 21 28 22 29 23 30 24 31 25 32 26 33
REMARK SMILES IDX 27 34 28 35 29 36 30 37 31 38 92 39 32 40 91 41 33 42 34 43
REMARK SMILES IDX 35 44 85 45 36 46 90 47 84 48 86 49 37 50 89 51 83 52 82 53
REMARK SMILES IDX 38 55 70 56 50 57 69 58 51 59 54 60 68 61 87 62 52 63 53 64
REMARK SMILES IDX 67 66 88 67 55 68 39 69 40 70 48 71 41 72 42 73 46 74 49 75
REMARK SMILES IDX 43 76 44 77 47 78 45 79 71 80 72 81 80 82 73 83 74 84 78 85
REMARK SMILES IDX 81 86 75 87 76 88 79 89 77 90 56 91 57 92 65 93 58 94 59 95
REMARK SMILES IDX 63 96 66 97 60 98 61 99 64 100 62 101
REMARK H PARENT 6 19 86 54 54 65
REMARK Flexibility Score: inf
ROOT
ATOM      1  C   UNL A   1      41.918  21.772  27.116  1.00  0.00     0.188 C 
ENDROOT
BRANCH   1   2
ATOM      2  O   UNL A   1      40.688  21.144  26.796  1.00  0.00    -0.376 OA
BRANCH   2   3
ATOM      3  C   UNL A   1      39.578  21.959  26.466  1.00  0.00     0.202 C 
BRANCH   3   4
ATOM      4  C   UNL A   1      38.492  21.350  25.563  1.00  0.00     0.261 C 
BRANCH   4   5
ATOM      5  O   UNL A   1      37.154  21.756  25.871  1.00  0.00    -0.460 OA
BRANCH   5   6
ATOM      6  C   UNL A   1      36.181  20.968  25.369  1.00  0.00     0.338 C 
ATOM      7  O   UNL A   1      36.325  19.880  24.837  1.00  0.00    -0.246 OA
BRANCH   6   8
ATOM      8  C   UNL A   1      34.877  21.505  25.801  1.00  0.00     0.060 A 
ATOM      9  C   UNL A   1      32.332  22.467  26.464  1.00  0.00    -0.046 A 
ATOM     10  C   UNL A   1      32.520  21.669  25.327  1.00  0.00     0.004 A 
ATOM     11  C   UNL A   1      33.421  22.679  27.328  1.00  0.00     0.004 A 
ATOM     12  C   UNL A   1      33.786  21.223  24.979  1.00  0.00     0.016 A 
ATOM     13  C   UNL A   1      34.691  22.194  27.003  1.00  0.00     0.016 A 
BRANCH   9  14
ATOM     14  C   UNL A   1      31.011  23.144  26.758  1.00  0.00     0.056 C 
BRANCH  14  15
ATOM     15  C   UNL A   1      30.664  24.291  25.794  1.00  0.00     0.120 C 
BRANCH  15  16
ATOM     16  N   UNL A   1      30.600  25.559  26.493  1.00  0.00    -0.355 N 
ATOM     17  C   UNL A   1      31.354  26.679  26.451  1.00  0.00     0.226 C 
ATOM     18  O   UNL A   1      31.150  27.452  27.395  1.00  0.00    -0.274 OA
ATOM     19  H   UNL A   1      29.853  25.615  27.130  1.00  0.00     0.163 HD
BRANCH  17  20
ATOM     20  C   UNL A   1      32.424  26.980  25.374  1.00  0.00     0.049 C 
ATOM     21  C   UNL A   1      32.270  26.202  24.054  1.00  0.00     0.017 C 
ATOM     22  C   UNL A   1      33.836  26.634  25.891  1.00  0.00     0.017 C 
ATOM     23  C   UNL A   1      33.435  25.224  23.927  1.00  0.00     0.001 C 
ATOM     24  C   UNL A   1      34.329  25.403  25.143  1.00  0.00     0.001 C 
BRANCH  20  25
ATOM     25  C   UNL A   1      32.370  28.517  25.080  1.00  0.00     0.013 C 
ATOM     26  C   UNL A   1      31.674  28.915  23.776  1.00  0.00     0.005 C 
ENDBRANCH  20  25
ENDBRANCH  17  20
ENDBRANCH  15  16
ENDBRANCH  14  15
ENDBRANCH   9  14
ENDBRANCH   6   8
ENDBRANCH   5   6
ENDBRANCH   4   5
ENDBRANCH   3   4
ENDBRANCH   2   3
ENDBRANCH   1   2
BRANCH   1  27
ATOM     27  C   UNL A   1      42.993  21.656  26.013  1.00  0.00     0.188 C 
BRANCH  27  28
ATOM     28  O   UNL A   1      43.735  22.816  25.662  1.00  0.00    -0.377 OA
BRANCH  28  29
ATOM     29  C   UNL A   1      43.045  24.003  25.279  1.00  0.00     0.188 C 
BRANCH  29  30
ATOM     30  C   UNL A   1      43.766  25.369  25.157  1.00  0.00     0.188 C 
BRANCH  30  31
ATOM     31  O   UNL A   1      42.954  26.427  24.681  1.00  0.00    -0.376 OA
BRANCH  31  32
ATOM     32  C   UNL A   1      42.073  27.042  25.602  1.00  0.00     0.202 C 
BRANCH  32  33
ATOM     33  C   UNL A   1      40.785  26.281  25.946  1.00  0.00     0.261 C 
BRANCH  33  34
ATOM     34  O   UNL A   1      40.734  25.673  27.247  1.00  0.00    -0.460 OA
BRANCH  34  35
ATOM     35  C   UNL A   1      40.740  26.491  28.320  1.00  0.00     0.338 C 
ATOM     36  O   UNL A   1      39.832  27.209  28.710  1.00  0.00    -0.246 OA
BRANCH  35  37
ATOM     37  C   UNL A   1      41.984  26.232  29.072  1.00  0.00     0.060 A 
ATOM     38  C   UNL A   1      42.510  27.232  29.904  1.00  0.00     0.016 A 
ATOM     39  C   UNL A   1      42.619  24.993  28.966  1.00  0.00     0.016 A 
ATOM     40  C   UNL A   1      43.694  27.004  30.606  1.00  0.00     0.010 A 
ATOM     41  C   UNL A   1      43.818  24.776  29.650  1.00  0.00     0.010 A 
ATOM     42  C   UNL A   1      44.378  25.792  30.444  1.00  0.00    -0.014 A 
BRANCH  42  43
ATOM     43  C   UNL A   1      45.778  25.663  30.916  1.00  0.00     0.031 A 
ATOM     44  C   UNL A   1      46.005  25.219  32.335  1.00  0.00     0.074 A 
ATOM     45  C   UNL A   1      46.824  25.927  30.113  1.00  0.00     0.049 A 
ATOM     46  N   UNL A   1      47.121  25.108  33.008  1.00  0.00    -0.248 NA
ATOM     47  C   UNL A   1      44.802  24.855  33.101  1.00  0.00     0.031 C 
ATOM     48  C   UNL A   1      46.734  26.319  28.710  1.00  0.00     0.029 A 
ATOM     49  N   UNL A   1      48.171  25.915  30.378  1.00  0.00    -0.354 N 
ATOM     50  C   UNL A   1      46.754  24.674  34.275  1.00  0.00     0.074 A 
ATOM     51  C   UNL A   1      45.311  24.574  34.289  1.00  0.00     0.031 C 
ATOM     52  C   UNL A   1      47.977  26.527  28.237  1.00  0.00     0.029 A 
ATOM     53  C   UNL A   1      48.942  26.319  29.317  1.00  0.00     0.049 A 
ATOM     54  H   UNL A   1      48.547  25.641  31.245  1.00  0.00     0.167 HD
ATOM     55  C   UNL A   1      47.549  24.380  35.330  1.00  0.00     0.037 A 
ATOM     56  C   UNL A   1      50.273  26.525  29.240  1.00  0.00     0.037 A 
ATOM     57  C   UNL A   1      48.984  24.487  35.312  1.00  0.00     0.049 A 
ATOM     58  C   UNL A   1      51.131  26.271  30.456  1.00  0.00     0.074 A 
ATOM     59  C   UNL A   1      49.883  24.198  36.323  1.00  0.00     0.029 A 
ATOM     60  N   UNL A   1      49.728  24.929  34.228  1.00  0.00    -0.354 N 
ATOM     61  N   UNL A   1      50.783  25.838  31.644  1.00  0.00    -0.248 NA
ATOM     62  C   UNL A   1      52.572  26.532  30.316  1.00  0.00     0.031 C 
ATOM     63  C   UNL A   1      51.165  24.526  35.873  1.00  0.00     0.029 A 
ATOM     64  C   UNL A   1      51.074  24.950  34.557  1.00  0.00     0.049 A 
ATOM     65  H   UNL A   1      49.356  25.190  33.355  1.00  0.00     0.167 HD
ATOM     66  C   UNL A   1      51.959  25.742  32.379  1.00  0.00     0.074 A 
ATOM     67  C   UNL A   1      53.033  26.149  31.498  1.00  0.00     0.031 C 
ATOM     68  C   UNL A   1      52.135  25.348  33.665  1.00  0.00     0.037 A 
BRANCH  55  69
ATOM     69  C   UNL A   1      46.880  23.949  36.604  1.00  0.00     0.064 A 
ATOM     70  C   UNL A   1      46.713  22.595  36.932  1.00  0.00     0.173 A 
ATOM     71  C   UNL A   1      46.419  24.906  37.519  1.00  0.00     0.173 A 
ATOM     72  F   UNL A   1      47.122  21.638  36.084  1.00  0.00    -0.203 F 
ATOM     73  C   UNL A   1      46.082  22.217  38.115  1.00  0.00     0.198 A 
ATOM     74  C   UNL A   1      45.821  24.525  38.717  1.00  0.00     0.198 A 
ATOM     75  F   UNL A   1      46.554  26.215  37.256  1.00  0.00    -0.203 F 
ATOM     76  F   UNL A   1      45.884  20.918  38.382  1.00  0.00    -0.200 F 
ATOM     77  C   UNL A   1      45.644  23.181  39.010  1.00  0.00     0.200 A 
ATOM     78  F   UNL A   1      45.411  25.459  39.586  1.00  0.00    -0.200 F 
ATOM     79  F   UNL A   1      45.045  22.816  40.151  1.00  0.00    -0.200 F 
ENDBRANCH  55  69
BRANCH  56  80
ATOM     80  C   UNL A   1      50.881  27.014  27.974  1.00  0.00     0.064 A 
ATOM     81  C   UNL A   1      51.100  28.382  27.755  1.00  0.00     0.173 A 
ATOM     82  C   UNL A   1      51.227  26.128  26.942  1.00  0.00     0.173 A 
ATOM     83  F   UNL A   1      50.760  29.273  28.698  1.00  0.00    -0.203 F 
ATOM     84  C   UNL A   1      51.620  28.845  26.548  1.00  0.00     0.198 A 
ATOM     85  C   UNL A   1      51.777  26.590  25.748  1.00  0.00     0.198 A 
ATOM     86  F   UNL A   1      51.033  24.810  27.095  1.00  0.00    -0.203 F 
ATOM     87  F   UNL A   1      51.767  30.162  26.346  1.00  0.00    -0.200 F 
ATOM     88  C   UNL A   1      51.964  27.948  25.548  1.00  0.00     0.200 A 
ATOM     89  F   UNL A   1      52.121  25.719  24.790  1.00  0.00    -0.200 F 
ATOM     90  F   UNL A   1      52.466  28.394  24.388  1.00  0.00    -0.200 F 
ENDBRANCH  56  80
BRANCH  68  91
ATOM     91  C   UNL A   1      53.543  25.287  34.188  1.00  0.00     0.064 A 
ATOM     92  C   UNL A   1      54.170  26.400  34.766  1.00  0.00     0.173 A 
ATOM     93  C   UNL A   1      54.257  24.079  34.154  1.00  0.00     0.173 A 
ATOM     94  F   UNL A   1      53.538  27.582  34.813  1.00  0.00    -0.203 F 
ATOM     95  C   UNL A   1      55.470  26.315  35.260  1.00  0.00     0.198 A 
ATOM     96  C   UNL A   1      55.542  23.986  34.682  1.00  0.00     0.198 A 
ATOM     97  F   UNL A   1      53.703  22.978  33.623  1.00  0.00    -0.203 F 
ATOM     98  F   UNL A   1      56.068  27.406  35.759  1.00  0.00    -0.200 F 
ATOM     99  C   UNL A   1      56.150  25.107  35.227  1.00  0.00     0.200 A 
ATOM    100  F   UNL A   1      56.190  22.813  34.666  1.00  0.00    -0.200 F 
ATOM    101  F   UNL A   1      57.396  25.024  35.714  1.00  0.00    -0.200 F 
ENDBRANCH  68  91
ENDBRANCH  42  43
ENDBRANCH  35  37
ENDBRANCH  34  35
ENDBRANCH  33  34
ENDBRANCH  32  33
ENDBRANCH  31  32
ENDBRANCH  30  31
ENDBRANCH  29  30
ENDBRANCH  28  29
ENDBRANCH  27  28
ENDBRANCH   1  27
TORSDOF 25
ENDMDL
MODEL 3
REMARK VINA RESULT:      -7.0      5.305     11.638
REMARK SMILES CCC1(C(=O)NCCc2ccc(C(=O)OCCOCCOCCOCCOC(=O)c3ccc(-c4c5nc(c(-c6c(F)c(F)c(F)c(F)c6F)c6ccc([nH]6)c(-c6c(F)c(F)c(F)c(F)c6F)c6nc(c(-c7c(F)c(F)c(F)c(F)c7F)c7ccc4[nH]7)C=C6)C=C5)cc3)cc2)CCCC1
REMARK SMILES IDX 19 1 18 2 17 3 16 4 15 5 13 6 14 7 12 8 9 9 10 10 94 11
REMARK SMILES IDX 11 12 93 13 8 14 7 15 6 16 4 17 5 18 3 20 95 21 98 22 96 23
REMARK SMILES IDX 97 24 2 25 1 26 20 27 21 28 22 29 23 30 24 31 25 32 26 33
REMARK SMILES IDX 27 34 28 35 29 36 30 37 31 38 92 39 32 40 91 41 33 42 34 43
REMARK SMILES IDX 35 44 85 45 36 46 90 47 84 48 86 49 37 50 89 51 83 52 82 53
REMARK SMILES IDX 38 55 70 56 50 57 69 58 51 59 54 60 68 61 87 62 52 63 53 64
REMARK SMILES IDX 67 66 88 67 55 68 39 69 40 70 48 71 41 72 42 73 46 74 49 75
REMARK SMILES IDX 43 76 44 77 47 78 45 79 71 80 72 81 80 82 73 83 74 84 78 85
REMARK SMILES IDX 81 86 75 87 76 88 79 89 77 90 56 91 57 92 65 93 58 94 59 95
REMARK SMILES IDX 63 96 66 97 60 98 61 99 64 100 62 101
REMARK H PARENT 6 19 86 54 54 65
REMARK Flexibility Score: inf
ROOT
ATOM      1  C   UNL A   1      35.194  33.804  30.608  1.00  0.00     0.188 C 
ENDROOT
BRANCH   1   2
ATOM      2  O   UNL A   1      34.340  33.093  29.727  1.00  0.00    -0.376 OA
BRANCH   2   3
ATOM      3  C   UNL A   1      34.837  31.924  29.100  1.00  0.00     0.202 C 
BRANCH   3   4
ATOM      4  C   UNL A   1      34.416  31.666  27.643  1.00  0.00     0.261 C 
BRANCH   4   5
ATOM      5  O   UNL A   1      33.577  30.521  27.452  1.00  0.00    -0.460 OA
BRANCH   5   6
ATOM      6  C   UNL A   1      32.357  30.779  26.938  1.00  0.00     0.338 C 
ATOM      7  O   UNL A   1      31.834  31.874  26.813  1.00  0.00    -0.246 OA
BRANCH   6   8
ATOM      8  C   UNL A   1      31.851  29.549  26.300  1.00  0.00     0.060 A 
ATOM      9  C   UNL A   1      30.923  27.127  25.244  1.00  0.00    -0.046 A 
ATOM     10  C   UNL A   1      31.227  27.243  26.608  1.00  0.00     0.004 A 
ATOM     11  C   UNL A   1      30.982  28.279  24.440  1.00  0.00     0.004 A 
ATOM     12  C   UNL A   1      31.720  28.431  27.124  1.00  0.00     0.016 A 
ATOM     13  C   UNL A   1      31.438  29.491  24.966  1.00  0.00     0.016 A 
BRANCH   9  14
ATOM     14  C   UNL A   1      30.586  25.796  24.608  1.00  0.00     0.056 C 
BRANCH  14  15
ATOM     15  C   UNL A   1      30.705  24.595  25.561  1.00  0.00     0.120 C 
BRANCH  15  16
ATOM     16  N   UNL A   1      31.022  23.382  24.836  1.00  0.00    -0.355 N 
ATOM     17  C   UNL A   1      32.181  22.766  24.520  1.00  0.00     0.226 C 
ATOM     18  O   UNL A   1      32.061  21.891  23.654  1.00  0.00    -0.274 OA
ATOM     19  H   UNL A   1      30.225  22.909  24.503  1.00  0.00     0.163 HD
BRANCH  17  20
ATOM     20  C   UNL A   1      33.562  23.127  25.121  1.00  0.00     0.049 C 
ATOM     21  C   UNL A   1      34.658  22.060  24.943  1.00  0.00     0.017 C 
ATOM     22  C   UNL A   1      33.455  23.356  26.643  1.00  0.00     0.017 C 
ATOM     23  C   UNL A   1      35.001  21.483  26.315  1.00  0.00     0.001 C 
ATOM     24  C   UNL A   1      34.148  22.199  27.349  1.00  0.00     0.001 C 
BRANCH  20  25
ATOM     25  C   UNL A   1      34.025  24.465  24.453  1.00  0.00     0.013 C 
ATOM     26  C   UNL A   1      34.288  25.625  25.415  1.00  0.00     0.005 C 
ENDBRANCH  20  25
ENDBRANCH  17  20
ENDBRANCH  15  16
ENDBRANCH  14  15
ENDBRANCH   9  14
ENDBRANCH   6   8
ENDBRANCH   5   6
ENDBRANCH   4   5
ENDBRANCH   3   4
ENDBRANCH   2   3
ENDBRANCH   1   2
BRANCH   1  27
ATOM     27  C   UNL A   1      34.451  34.616  31.691  1.00  0.00     0.188 C 
BRANCH  27  28
ATOM     28  O   UNL A   1      35.180  35.069  32.823  1.00  0.00    -0.377 OA
BRANCH  28  29
ATOM     29  C   UNL A   1      36.503  34.585  33.047  1.00  0.00     0.188 C 
BRANCH  29  30
ATOM     30  C   UNL A   1      36.819  33.541  34.146  1.00  0.00     0.188 C 
BRANCH  30  31
ATOM     31  O   UNL A   1      38.081  33.701  34.770  1.00  0.00    -0.376 OA
BRANCH  31  32
ATOM     32  C   UNL A   1      38.602  32.599  35.489  1.00  0.00     0.202 C 
BRANCH  32  33
ATOM     33  C   UNL A   1      37.963  31.229  35.217  1.00  0.00     0.261 C 
BRANCH  33  34
ATOM     34  O   UNL A   1      38.755  30.297  34.463  1.00  0.00    -0.460 OA
BRANCH  34  35
ATOM     35  C   UNL A   1      38.517  30.203  33.138  1.00  0.00     0.338 C 
ATOM     36  O   UNL A   1      37.448  29.986  32.591  1.00  0.00    -0.246 OA
BRANCH  35  37
ATOM     37  C   UNL A   1      39.753  30.602  32.434  1.00  0.00     0.060 A 
ATOM     38  C   UNL A   1      40.838  31.099  33.171  1.00  0.00     0.016 A 
ATOM     39  C   UNL A   1      39.842  30.466  31.047  1.00  0.00     0.016 A 
ATOM     40  C   UNL A   1      42.005  31.495  32.516  1.00  0.00     0.010 A 
ATOM     41  C   UNL A   1      41.001  30.886  30.391  1.00  0.00     0.010 A 
ATOM     42  C   UNL A   1      42.073  31.435  31.118  1.00  0.00    -0.014 A 
BRANCH  42  43
ATOM     43  C   UNL A   1      43.158  32.144  30.398  1.00  0.00     0.031 A 
ATOM     44  C   UNL A   1      44.481  31.444  30.252  1.00  0.00     0.074 A 
ATOM     45  C   UNL A   1      42.981  33.372  29.881  1.00  0.00     0.049 A 
ATOM     46  N   UNL A   1      45.605  31.879  29.742  1.00  0.00    -0.248 NA
ATOM     47  C   UNL A   1      44.544  30.063  30.759  1.00  0.00     0.031 C 
ATOM     48  C   UNL A   1      41.735  34.132  29.917  1.00  0.00     0.029 A 
ATOM     49  N   UNL A   1      43.866  34.200  29.236  1.00  0.00    -0.354 N 
ATOM     50  C   UNL A   1      46.507  30.832  29.877  1.00  0.00     0.074 A 
ATOM     51  C   UNL A   1      45.813  29.754  30.546  1.00  0.00     0.031 C 
ATOM     52  C   UNL A   1      41.938  35.327  29.331  1.00  0.00     0.029 A 
ATOM     53  C   UNL A   1      43.338  35.426  28.916  1.00  0.00     0.049 A 
ATOM     54  H   UNL A   1      44.790  33.938  29.021  1.00  0.00     0.167 HD
ATOM     55  C   UNL A   1      47.798  30.773  29.472  1.00  0.00     0.037 A 
ATOM     56  C   UNL A   1      43.929  36.512  28.377  1.00  0.00     0.037 A 
ATOM     57  C   UNL A   1      48.486  31.850  28.812  1.00  0.00     0.049 A 
ATOM     58  C   UNL A   1      45.393  36.451  28.012  1.00  0.00     0.074 A 
ATOM     59  C   UNL A   1      49.789  31.886  28.349  1.00  0.00     0.029 A 
ATOM     60  N   UNL A   1      47.926  33.089  28.532  1.00  0.00    -0.354 N 
ATOM     61  N   UNL A   1      46.236  35.451  28.119  1.00  0.00    -0.248 NA
ATOM     62  C   UNL A   1      45.986  37.672  27.445  1.00  0.00     0.031 C 
ATOM     63  C   UNL A   1      50.037  33.166  27.846  1.00  0.00     0.029 A 
ATOM     64  C   UNL A   1      48.869  33.906  27.930  1.00  0.00     0.049 A 
ATOM     65  H   UNL A   1      46.998  33.348  28.732  1.00  0.00     0.167 HD
ATOM     66  C   UNL A   1      47.443  35.910  27.604  1.00  0.00     0.074 A 
ATOM     67  C   UNL A   1      47.220  37.273  27.173  1.00  0.00     0.031 C 
ATOM     68  C   UNL A   1      48.629  35.260  27.494  1.00  0.00     0.037 A 
BRANCH  55  69
ATOM     69  C   UNL A   1      48.560  29.512  29.768  1.00  0.00     0.064 A 
ATOM     70  C   UNL A   1      49.321  29.363  30.938  1.00  0.00     0.173 A 
ATOM     71  C   UNL A   1      48.507  28.429  28.879  1.00  0.00     0.173 A 
ATOM     72  F   UNL A   1      49.418  30.375  31.815  1.00  0.00    -0.203 F 
ATOM     73  C   UNL A   1      50.027  28.189  31.189  1.00  0.00     0.198 A 
ATOM     74  C   UNL A   1      49.184  27.243  29.150  1.00  0.00     0.198 A 
ATOM     75  F   UNL A   1      47.792  28.516  27.746  1.00  0.00    -0.203 F 
ATOM     76  F   UNL A   1      50.792  28.090  32.284  1.00  0.00    -0.200 F 
ATOM     77  C   UNL A   1      49.951  27.127  30.299  1.00  0.00     0.200 A 
ATOM     78  F   UNL A   1      49.098  26.214  28.296  1.00  0.00    -0.200 F 
ATOM     79  F   UNL A   1      50.623  25.995  30.547  1.00  0.00    -0.200 F 
ENDBRANCH  55  69
BRANCH  56  80
ATOM     80  C   UNL A   1      43.147  37.759  28.163  1.00  0.00     0.064 A 
ATOM     81  C   UNL A   1      43.145  38.786  29.117  1.00  0.00     0.173 A 
ATOM     82  C   UNL A   1      42.360  37.937  27.015  1.00  0.00     0.173 A 
ATOM     83  F   UNL A   1      43.858  38.653  30.245  1.00  0.00    -0.203 F 
ATOM     84  C   UNL A   1      42.371  39.932  28.941  1.00  0.00     0.198 A 
ATOM     85  C   UNL A   1      41.612  39.097  26.825  1.00  0.00     0.198 A 
ATOM     86  F   UNL A   1      42.320  36.983  26.073  1.00  0.00    -0.203 F 
ATOM     87  F   UNL A   1      42.345  40.873  29.896  1.00  0.00    -0.200 F 
ATOM     88  C   UNL A   1      41.610  40.089  27.793  1.00  0.00     0.200 A 
ATOM     89  F   UNL A   1      40.889  39.251  25.708  1.00  0.00    -0.200 F 
ATOM     90  F   UNL A   1      40.867  41.192  27.624  1.00  0.00    -0.200 F 
ENDBRANCH  56  80
BRANCH  68  91
ATOM     91  C   UNL A   1      49.766  35.991  26.838  1.00  0.00     0.064 A 
ATOM     92  C   UNL A   1      50.016  35.895  25.461  1.00  0.00     0.173 A 
ATOM     93  C   UNL A   1      50.589  36.841  27.594  1.00  0.00     0.173 A 
ATOM     94  F   UNL A   1      49.268  35.088  24.694  1.00  0.00    -0.203 F 
ATOM     95  C   UNL A   1      51.066  36.596  24.872  1.00  0.00     0.198 A 
ATOM     96  C   UNL A   1      51.614  37.570  26.996  1.00  0.00     0.198 A 
ATOM     97  F   UNL A   1      50.390  36.980  28.914  1.00  0.00    -0.203 F 
ATOM     98  F   UNL A   1      51.318  36.446  23.564  1.00  0.00    -0.200 F 
ATOM     99  C   UNL A   1      51.856  37.440  25.637  1.00  0.00     0.200 A 
ATOM    100  F   UNL A   1      52.365  38.399  27.735  1.00  0.00    -0.200 F 
ATOM    101  F   UNL A   1      52.858  38.123  25.066  1.00  0.00    -0.200 F 
ENDBRANCH  68  91
ENDBRANCH  42  43
ENDBRANCH  35  37
ENDBRANCH  34  35
ENDBRANCH  33  34
ENDBRANCH  32  33
ENDBRANCH  31  32
ENDBRANCH  30  31
ENDBRANCH  29  30
ENDBRANCH  28  29
ENDBRANCH  27  28
ENDBRANCH   1  27
TORSDOF 25
ENDMDL
