MODEL 1
REMARK VINA RESULT:      -9.6      0.000      0.000
REMARK SMILES CN(CC(=O)NCC(=O)OCCOCCOCCOCCOC(=O)c1ccc(-c2c3nc(c(-c4c(F)c(F)c(F)c(F)c4F)c4ccc([nH]4)c(-c4c(F)c(F)c(F)c(F)c4F)c4nc(c(-c5c(F)c(F)c(F)c(F)c5F)c5ccc2[nH]5)C=C4)C=C3)cc1)c1ncccn1
REMARK SMILES IDX 15 1 14 2 13 3 12 4 11 5 10 6 8 7 9 8 7 9 6 10 4 11 5 12
REMARK SMILES IDX 3 14 2 15 1 16 88 17 89 18 93 19 90 20 92 21 91 22 16 23
REMARK SMILES IDX 17 24 18 25 19 26 20 27 21 28 22 29 23 30 24 31 25 32 26 33
REMARK SMILES IDX 87 34 27 35 86 36 28 37 29 38 30 39 80 40 31 41 85 42 79 43
REMARK SMILES IDX 81 44 32 45 84 46 78 47 77 48 33 50 65 51 45 52 64 53 46 54
REMARK SMILES IDX 49 55 63 56 82 57 47 58 48 59 62 61 83 62 50 63 34 64 35 65
REMARK SMILES IDX 43 66 36 67 37 68 41 69 44 70 38 71 39 72 42 73 40 74 66 75
REMARK SMILES IDX 67 76 75 77 68 78 69 79 73 80 76 81 70 82 71 83 74 84 72 85
REMARK SMILES IDX 51 86 52 87 60 88 53 89 54 90 58 91 61 92 55 93 56 94 59 95
REMARK SMILES IDX 57 96
REMARK H PARENT 6 13 81 49 49 60
REMARK Flexibility Score: inf
ROOT
ATOM      1  C   UNL A   1      40.216  21.753  27.041  1.00  0.00     0.188 C 
ENDROOT
BRANCH   1   2
ATOM      2  C   UNL A   1      39.023  22.390  26.309  1.00  0.00     0.188 C 
BRANCH   2   3
ATOM      3  O   UNL A   1      38.458  21.761  25.168  1.00  0.00    -0.376 OA
BRANCH   3   4
ATOM      4  C   UNL A   1      37.128  21.259  25.201  1.00  0.00     0.202 C 
BRANCH   4   5
ATOM      5  C   UNL A   1      35.939  22.101  25.708  1.00  0.00     0.261 C 
BRANCH   5   6
ATOM      6  O   UNL A   1      34.715  21.972  24.967  1.00  0.00    -0.462 OA
BRANCH   6   7
ATOM      7  C   UNL A   1      34.092  23.117  24.608  1.00  0.00     0.325 C 
ATOM      8  O   UNL A   1      33.628  23.333  23.490  1.00  0.00    -0.250 OA
BRANCH   7   9
ATOM      9  C   UNL A   1      33.855  24.098  25.768  1.00  0.00     0.238 C 
BRANCH   9  10
ATOM     10  N   UNL A   1      32.555  24.342  26.378  1.00  0.00    -0.344 N 
ATOM     11  C   UNL A   1      31.872  25.517  26.488  1.00  0.00     0.240 C 
ATOM     12  O   UNL A   1      30.685  25.467  26.825  1.00  0.00    -0.273 OA
ATOM     13  H   UNL A   1      32.110  23.551  26.761  1.00  0.00     0.164 HD
BRANCH  11  14
ATOM     14  C   UNL A   1      32.543  26.820  26.060  1.00  0.00     0.219 C 
BRANCH  14  15
ATOM     15  N   UNL A   1      31.882  27.468  24.932  1.00  0.00    -0.335 N 
ATOM     16  C   UNL A   1      31.513  28.863  25.005  1.00  0.00     0.147 C 
BRANCH  15  17
ATOM     17  C   UNL A   1      32.147  26.929  23.685  1.00  0.00     0.225 A 
ATOM     18  N   UNL A   1      33.409  26.953  23.233  1.00  0.00    -0.221 NA
ATOM     19  N   UNL A   1      31.134  26.422  22.964  1.00  0.00    -0.221 NA
ATOM     20  C   UNL A   1      33.660  26.430  22.020  1.00  0.00     0.117 A 
ATOM     21  C   UNL A   1      31.417  25.962  21.732  1.00  0.00     0.117 A 
ATOM     22  C   UNL A   1      32.682  25.930  21.203  1.00  0.00     0.040 A 
ENDBRANCH  15  17
ENDBRANCH  14  15
ENDBRANCH  11  14
ENDBRANCH   9  10
ENDBRANCH   7   9
ENDBRANCH   6   7
ENDBRANCH   5   6
ENDBRANCH   4   5
ENDBRANCH   3   4
ENDBRANCH   2   3
ENDBRANCH   1   2
BRANCH   1  23
ATOM     23  O   UNL A   1      40.211  20.341  27.066  1.00  0.00    -0.377 OA
BRANCH  23  24
ATOM     24  C   UNL A   1      41.018  19.666  26.117  1.00  0.00     0.188 C 
BRANCH  24  25
ATOM     25  C   UNL A   1      42.549  19.784  26.244  1.00  0.00     0.188 C 
BRANCH  25  26
ATOM     26  O   UNL A   1      43.177  20.487  25.181  1.00  0.00    -0.376 OA
BRANCH  26  27
ATOM     27  C   UNL A   1      43.816  21.726  25.457  1.00  0.00     0.202 C 
BRANCH  27  28
ATOM     28  C   UNL A   1      44.000  22.721  24.298  1.00  0.00     0.261 C 
BRANCH  28  29
ATOM     29  O   UNL A   1      43.510  24.054  24.511  1.00  0.00    -0.460 OA
BRANCH  29  30
ATOM     30  C   UNL A   1      44.341  24.957  25.066  1.00  0.00     0.338 C 
ATOM     31  O   UNL A   1      45.490  25.205  24.735  1.00  0.00    -0.246 OA
BRANCH  30  32
ATOM     32  C   UNL A   1      43.561  25.763  26.029  1.00  0.00     0.060 A 
ATOM     33  C   UNL A   1      43.842  27.131  26.146  1.00  0.00     0.016 A 
ATOM     34  C   UNL A   1      42.564  25.179  26.812  1.00  0.00     0.016 A 
ATOM     35  C   UNL A   1      43.156  27.909  27.077  1.00  0.00     0.010 A 
ATOM     36  C   UNL A   1      41.893  25.955  27.762  1.00  0.00     0.010 A 
ATOM     37  C   UNL A   1      42.212  27.315  27.925  1.00  0.00    -0.014 A 
BRANCH  37  38
ATOM     38  C   UNL A   1      41.707  28.069  29.098  1.00  0.00     0.031 A 
ATOM     39  C   UNL A   1      42.436  27.933  30.406  1.00  0.00     0.074 A 
ATOM     40  C   UNL A   1      40.643  28.886  29.002  1.00  0.00     0.049 A 
ATOM     41  N   UNL A   1      42.164  28.460  31.572  1.00  0.00    -0.248 NA
ATOM     42  C   UNL A   1      43.640  27.085  30.394  1.00  0.00     0.031 C 
ATOM     43  C   UNL A   1      39.889  29.149  27.779  1.00  0.00     0.029 A 
ATOM     44  N   UNL A   1      40.012  29.642  29.959  1.00  0.00    -0.354 N 
ATOM     45  C   UNL A   1      43.156  28.005  32.431  1.00  0.00     0.074 A 
ATOM     46  C   UNL A   1      44.017  27.132  31.663  1.00  0.00     0.031 C 
ATOM     47  C   UNL A   1      38.884  29.996  28.064  1.00  0.00     0.029 A 
ATOM     48  C   UNL A   1      38.902  30.302  29.493  1.00  0.00     0.049 A 
ATOM     49  H   UNL A   1      40.326  29.705  30.890  1.00  0.00     0.167 HD
ATOM     50  C   UNL A   1      43.339  28.296  33.742  1.00  0.00     0.037 A 
ATOM     51  C   UNL A   1      37.992  31.046  30.153  1.00  0.00     0.037 A 
ATOM     52  C   UNL A   1      42.479  29.164  34.504  1.00  0.00     0.049 A 
ATOM     53  C   UNL A   1      38.167  31.285  31.633  1.00  0.00     0.074 A 
ATOM     54  C   UNL A   1      42.591  29.541  35.829  1.00  0.00     0.029 A 
ATOM     55  N   UNL A   1      41.338  29.779  34.008  1.00  0.00    -0.354 N 
ATOM     56  N   UNL A   1      39.122  30.877  32.432  1.00  0.00    -0.248 NA
ATOM     57  C   UNL A   1      37.137  32.096  32.300  1.00  0.00     0.031 C 
ATOM     58  C   UNL A   1      41.480  30.326  36.156  1.00  0.00     0.029 A 
ATOM     59  C   UNL A   1      40.716  30.502  35.014  1.00  0.00     0.049 A 
ATOM     60  H   UNL A   1      41.017  29.712  33.080  1.00  0.00     0.167 HD
ATOM     61  C   UNL A   1      38.829  31.408  33.684  1.00  0.00     0.074 A 
ATOM     62  C   UNL A   1      37.614  32.179  33.534  1.00  0.00     0.031 C 
ATOM     63  C   UNL A   1      39.507  31.271  34.851  1.00  0.00     0.037 A 
BRANCH  50  64
ATOM     64  C   UNL A   1      44.491  27.640  34.446  1.00  0.00     0.064 A 
ATOM     65  C   UNL A   1      44.369  26.382  35.059  1.00  0.00     0.173 A 
ATOM     66  C   UNL A   1      45.747  28.266  34.481  1.00  0.00     0.173 A 
ATOM     67  F   UNL A   1      43.188  25.746  35.068  1.00  0.00    -0.203 F 
ATOM     68  C   UNL A   1      45.453  25.793  35.705  1.00  0.00     0.198 A 
ATOM     69  C   UNL A   1      46.836  27.657  35.096  1.00  0.00     0.198 A 
ATOM     70  F   UNL A   1      45.919  29.466  33.907  1.00  0.00    -0.203 F 
ATOM     71  F   UNL A   1      45.300  24.617  36.330  1.00  0.00    -0.200 F 
ATOM     72  C   UNL A   1      46.686  26.426  35.716  1.00  0.00     0.200 A 
ATOM     73  F   UNL A   1      48.031  28.264  35.092  1.00  0.00    -0.200 F 
ATOM     74  F   UNL A   1      47.731  25.852  36.330  1.00  0.00    -0.200 F 
ENDBRANCH  50  64
BRANCH  51  75
ATOM     75  C   UNL A   1      36.820  31.607  29.426  1.00  0.00     0.064 A 
ATOM     76  C   UNL A   1      36.727  32.976  29.138  1.00  0.00     0.173 A 
ATOM     77  C   UNL A   1      35.757  30.784  29.025  1.00  0.00     0.173 A 
ATOM     78  F   UNL A   1      37.708  33.807  29.519  1.00  0.00    -0.203 F 
ATOM     79  C   UNL A   1      35.606  33.504  28.500  1.00  0.00     0.198 A 
ATOM     80  C   UNL A   1      34.652  31.308  28.358  1.00  0.00     0.198 A 
ATOM     81  F   UNL A   1      35.797  29.467  29.268  1.00  0.00    -0.203 F 
ATOM     82  F   UNL A   1      35.521  34.823  28.284  1.00  0.00    -0.200 F 
ATOM     83  C   UNL A   1      34.572  32.669  28.105  1.00  0.00     0.200 A 
ATOM     84  F   UNL A   1      33.666  30.492  27.958  1.00  0.00    -0.200 F 
ATOM     85  F   UNL A   1      33.498  33.175  27.485  1.00  0.00    -0.200 F 
ENDBRANCH  51  75
BRANCH  63  86
ATOM     86  C   UNL A   1      38.976  32.003  36.053  1.00  0.00     0.064 A 
ATOM     87  C   UNL A   1      38.116  31.390  36.975  1.00  0.00     0.173 A 
ATOM     88  C   UNL A   1      39.368  33.328  36.305  1.00  0.00     0.173 A 
ATOM     89  F   UNL A   1      37.701  30.129  36.777  1.00  0.00    -0.203 F 
ATOM     90  C   UNL A   1      37.642  32.084  38.086  1.00  0.00     0.198 A 
ATOM     91  C   UNL A   1      38.921  34.007  37.436  1.00  0.00     0.198 A 
ATOM     92  F   UNL A   1      40.196  33.962  35.462  1.00  0.00    -0.203 F 
ATOM     93  F   UNL A   1      36.775  31.496  38.922  1.00  0.00    -0.200 F 
ATOM     94  C   UNL A   1      38.051  33.389  38.320  1.00  0.00     0.200 A 
ATOM     95  F   UNL A   1      39.334  35.261  37.669  1.00  0.00    -0.200 F 
ATOM     96  F   UNL A   1      37.600  34.052  39.393  1.00  0.00    -0.200 F 
ENDBRANCH  63  86
ENDBRANCH  37  38
ENDBRANCH  30  32
ENDBRANCH  29  30
ENDBRANCH  28  29
ENDBRANCH  27  28
ENDBRANCH  26  27
ENDBRANCH  25  26
ENDBRANCH  24  25
ENDBRANCH  23  24
ENDBRANCH   1  23
TORSDOF 24
ENDMDL
MODEL 2
REMARK VINA RESULT:      -9.0      4.621      9.294
REMARK SMILES CN(CC(=O)NCC(=O)OCCOCCOCCOCCOC(=O)c1ccc(-c2c3nc(c(-c4c(F)c(F)c(F)c(F)c4F)c4ccc([nH]4)c(-c4c(F)c(F)c(F)c(F)c4F)c4nc(c(-c5c(F)c(F)c(F)c(F)c5F)c5ccc2[nH]5)C=C4)C=C3)cc1)c1ncccn1
REMARK SMILES IDX 15 1 14 2 13 3 12 4 11 5 10 6 8 7 9 8 7 9 6 10 4 11 5 12
REMARK SMILES IDX 3 14 2 15 1 16 88 17 89 18 93 19 90 20 92 21 91 22 16 23
REMARK SMILES IDX 17 24 18 25 19 26 20 27 21 28 22 29 23 30 24 31 25 32 26 33
REMARK SMILES IDX 87 34 27 35 86 36 28 37 29 38 30 39 80 40 31 41 85 42 79 43
REMARK SMILES IDX 81 44 32 45 84 46 78 47 77 48 33 50 65 51 45 52 64 53 46 54
REMARK SMILES IDX 49 55 63 56 82 57 47 58 48 59 62 61 83 62 50 63 34 64 35 65
REMARK SMILES IDX 43 66 36 67 37 68 41 69 44 70 38 71 39 72 42 73 40 74 66 75
REMARK SMILES IDX 67 76 75 77 68 78 69 79 73 80 76 81 70 82 71 83 74 84 72 85
REMARK SMILES IDX 51 86 52 87 60 88 53 89 54 90 58 91 61 92 55 93 56 94 59 95
REMARK SMILES IDX 57 96
REMARK H PARENT 6 13 81 49 49 60
REMARK Flexibility Score: inf
ROOT
ATOM      1  C   UNL A   1      34.137  21.186  25.951  1.00  0.00     0.188 C 
ENDROOT
BRANCH   1   2
ATOM      2  C   UNL A   1      33.522  22.586  26.108  1.00  0.00     0.188 C 
BRANCH   2   3
ATOM      3  O   UNL A   1      32.117  22.771  26.013  1.00  0.00    -0.376 OA
BRANCH   3   4
ATOM      4  C   UNL A   1      31.495  22.962  24.748  1.00  0.00     0.202 C 
BRANCH   4   5
ATOM      5  C   UNL A   1      32.254  22.782  23.418  1.00  0.00     0.261 C 
BRANCH   5   6
ATOM      6  O   UNL A   1      32.520  23.984  22.678  1.00  0.00    -0.462 OA
BRANCH   6   7
ATOM      7  C   UNL A   1      32.775  25.102  23.395  1.00  0.00     0.325 C 
ATOM      8  O   UNL A   1      33.898  25.464  23.739  1.00  0.00    -0.250 OA
BRANCH   7   9
ATOM      9  C   UNL A   1      31.548  26.001  23.622  1.00  0.00     0.238 C 
BRANCH   9  10
ATOM     10  N   UNL A   1      31.549  27.185  24.471  1.00  0.00    -0.344 N 
ATOM     11  C   UNL A   1      31.171  28.458  24.159  1.00  0.00     0.240 C 
ATOM     12  O   UNL A   1      31.023  29.260  25.085  1.00  0.00    -0.273 OA
ATOM     13  H   UNL A   1      31.866  27.047  25.393  1.00  0.00     0.164 HD
BRANCH  11  14
ATOM     14  C   UNL A   1      30.810  28.803  22.716  1.00  0.00     0.219 C 
BRANCH  14  15
ATOM     15  N   UNL A   1      29.374  28.956  22.500  1.00  0.00    -0.335 N 
ATOM     16  C   UNL A   1      28.437  28.102  23.193  1.00  0.00     0.147 C 
BRANCH  15  17
ATOM     17  C   UNL A   1      28.952  30.219  22.125  1.00  0.00     0.225 A 
ATOM     18  N   UNL A   1      29.000  31.206  23.031  1.00  0.00    -0.221 NA
ATOM     19  N   UNL A   1      28.488  30.408  20.879  1.00  0.00    -0.221 NA
ATOM     20  C   UNL A   1      28.586  32.430  22.660  1.00  0.00     0.117 A 
ATOM     21  C   UNL A   1      28.029  31.634  20.566  1.00  0.00     0.117 A 
ATOM     22  C   UNL A   1      28.062  32.702  21.425  1.00  0.00     0.040 A 
ENDBRANCH  15  17
ENDBRANCH  14  15
ENDBRANCH  11  14
ENDBRANCH   9  10
ENDBRANCH   7   9
ENDBRANCH   6   7
ENDBRANCH   5   6
ENDBRANCH   4   5
ENDBRANCH   3   4
ENDBRANCH   2   3
ENDBRANCH   1   2
BRANCH   1  23
ATOM     23  O   UNL A   1      34.985  21.033  24.832  1.00  0.00    -0.377 OA
BRANCH  23  24
ATOM     24  C   UNL A   1      35.842  22.114  24.507  1.00  0.00     0.188 C 
BRANCH  24  25
ATOM     25  C   UNL A   1      37.331  21.814  24.248  1.00  0.00     0.188 C 
BRANCH  25  26
ATOM     26  O   UNL A   1      37.772  20.554  24.737  1.00  0.00    -0.376 OA
BRANCH  26  27
ATOM     27  C   UNL A   1      38.790  20.519  25.727  1.00  0.00     0.202 C 
BRANCH  27  28
ATOM     28  C   UNL A   1      39.621  19.232  25.867  1.00  0.00     0.261 C 
BRANCH  28  29
ATOM     29  O   UNL A   1      40.969  19.281  25.375  1.00  0.00    -0.460 OA
BRANCH  29  30
ATOM     30  C   UNL A   1      41.972  19.365  26.270  1.00  0.00     0.338 C 
ATOM     31  O   UNL A   1      42.712  18.466  26.637  1.00  0.00    -0.246 OA
BRANCH  30  32
ATOM     32  C   UNL A   1      42.173  20.792  26.597  1.00  0.00     0.060 A 
ATOM     33  C   UNL A   1      42.196  21.726  25.551  1.00  0.00     0.016 A 
ATOM     34  C   UNL A   1      42.338  21.210  27.918  1.00  0.00     0.016 A 
ATOM     35  C   UNL A   1      42.429  23.073  25.821  1.00  0.00     0.010 A 
ATOM     36  C   UNL A   1      42.595  22.559  28.186  1.00  0.00     0.010 A 
ATOM     37  C   UNL A   1      42.678  23.490  27.135  1.00  0.00    -0.014 A 
BRANCH  37  38
ATOM     38  C   UNL A   1      43.212  24.852  27.381  1.00  0.00     0.031 A 
ATOM     39  C   UNL A   1      42.292  25.886  27.970  1.00  0.00     0.074 A 
ATOM     40  C   UNL A   1      44.495  25.161  27.121  1.00  0.00     0.049 A 
ATOM     41  N   UNL A   1      42.517  27.147  28.238  1.00  0.00    -0.248 NA
ATOM     42  C   UNL A   1      40.932  25.433  28.303  1.00  0.00     0.031 C 
ATOM     43  C   UNL A   1      45.498  24.233  26.606  1.00  0.00     0.029 A 
ATOM     44  N   UNL A   1      45.168  26.351  27.251  1.00  0.00    -0.354 N 
ATOM     45  C   UNL A   1      41.329  27.637  28.765  1.00  0.00     0.074 A 
ATOM     46  C   UNL A   1      40.375  26.550  28.747  1.00  0.00     0.031 C 
ATOM     47  C   UNL A   1      46.659  24.894  26.449  1.00  0.00     0.029 A 
ATOM     48  C   UNL A   1      46.468  26.297  26.813  1.00  0.00     0.049 A 
ATOM     49  H   UNL A   1      44.757  27.165  27.623  1.00  0.00     0.167 HD
ATOM     50  C   UNL A   1      41.060  28.881  29.229  1.00  0.00     0.037 A 
ATOM     51  C   UNL A   1      47.388  27.275  26.698  1.00  0.00     0.037 A 
ATOM     52  C   UNL A   1      42.012  29.962  29.243  1.00  0.00     0.049 A 
ATOM     53  C   UNL A   1      47.037  28.674  27.140  1.00  0.00     0.074 A 
ATOM     54  C   UNL A   1      41.845  31.251  29.715  1.00  0.00     0.029 A 
ATOM     55  N   UNL A   1      43.306  29.881  28.751  1.00  0.00    -0.354 N 
ATOM     56  N   UNL A   1      45.923  29.124  27.665  1.00  0.00    -0.248 NA
ATOM     57  C   UNL A   1      48.078  29.701  26.980  1.00  0.00     0.031 C 
ATOM     58  C   UNL A   1      43.013  31.971  29.442  1.00  0.00     0.029 A 
ATOM     59  C   UNL A   1      43.935  31.109  28.871  1.00  0.00     0.049 A 
ATOM     60  H   UNL A   1      43.717  29.071  28.370  1.00  0.00     0.167 HD
ATOM     61  C   UNL A   1      46.139  30.472  27.928  1.00  0.00     0.074 A 
ATOM     62  C   UNL A   1      47.496  30.763  27.519  1.00  0.00     0.031 C 
ATOM     63  C   UNL A   1      45.291  31.386  28.464  1.00  0.00     0.037 A 
BRANCH  50  64
ATOM     64  C   UNL A   1      39.669  29.152  29.725  1.00  0.00     0.064 A 
ATOM     65  C   UNL A   1      39.322  29.012  31.079  1.00  0.00     0.173 A 
ATOM     66  C   UNL A   1      38.674  29.588  28.837  1.00  0.00     0.173 A 
ATOM     67  F   UNL A   1      40.230  28.584  31.969  1.00  0.00    -0.203 F 
ATOM     68  C   UNL A   1      38.025  29.270  31.515  1.00  0.00     0.198 A 
ATOM     69  C   UNL A   1      37.389  29.879  29.283  1.00  0.00     0.198 A 
ATOM     70  F   UNL A   1      38.953  29.742  27.533  1.00  0.00    -0.203 F 
ATOM     71  F   UNL A   1      37.702  29.078  32.803  1.00  0.00    -0.200 F 
ATOM     72  C   UNL A   1      37.062  29.710  30.620  1.00  0.00     0.200 A 
ATOM     73  F   UNL A   1      36.464  30.319  28.418  1.00  0.00    -0.200 F 
ATOM     74  F   UNL A   1      35.817  29.967  31.044  1.00  0.00    -0.200 F 
ENDBRANCH  50  64
BRANCH  51  75
ATOM     75  C   UNL A   1      48.727  26.974  26.122  1.00  0.00     0.064 A 
ATOM     76  C   UNL A   1      48.989  27.145  24.756  1.00  0.00     0.173 A 
ATOM     77  C   UNL A   1      49.767  26.485  26.928  1.00  0.00     0.173 A 
ATOM     78  F   UNL A   1      48.022  27.590  23.941  1.00  0.00    -0.203 F 
ATOM     79  C   UNL A   1      50.230  26.817  24.213  1.00  0.00     0.198 A 
ATOM     80  C   UNL A   1      51.018  26.189  26.390  1.00  0.00     0.198 A 
ATOM     81  F   UNL A   1      49.575  26.309  28.243  1.00  0.00    -0.203 F 
ATOM     82  F   UNL A   1      50.436  26.942  22.895  1.00  0.00    -0.200 F 
ATOM     83  C   UNL A   1      51.245  26.345  25.031  1.00  0.00     0.200 A 
ATOM     84  F   UNL A   1      52.002  25.754  27.189  1.00  0.00    -0.200 F 
ATOM     85  F   UNL A   1      52.440  26.036  24.510  1.00  0.00    -0.200 F 
ENDBRANCH  51  75
BRANCH  63  86
ATOM     86  C   UNL A   1      45.815  32.780  28.678  1.00  0.00     0.064 A 
ATOM     87  C   UNL A   1      45.621  33.799  27.736  1.00  0.00     0.173 A 
ATOM     88  C   UNL A   1      46.490  33.107  29.866  1.00  0.00     0.173 A 
ATOM     89  F   UNL A   1      44.994  33.539  26.578  1.00  0.00    -0.203 F 
ATOM     90  C   UNL A   1      46.109  35.085  27.959  1.00  0.00     0.198 A 
ATOM     91  C   UNL A   1      46.944  34.402  30.102  1.00  0.00     0.198 A 
ATOM     92  F   UNL A   1      46.696  32.174  30.807  1.00  0.00    -0.203 F 
ATOM     93  F   UNL A   1      45.961  36.028  27.017  1.00  0.00    -0.200 F 
ATOM     94  C   UNL A   1      46.763  35.387  29.144  1.00  0.00     0.200 A 
ATOM     95  F   UNL A   1      47.558  34.696  31.257  1.00  0.00    -0.200 F 
ATOM     96  F   UNL A   1      47.224  36.626  29.360  1.00  0.00    -0.200 F 
ENDBRANCH  63  86
ENDBRANCH  37  38
ENDBRANCH  30  32
ENDBRANCH  29  30
ENDBRANCH  28  29
ENDBRANCH  27  28
ENDBRANCH  26  27
ENDBRANCH  25  26
ENDBRANCH  24  25
ENDBRANCH  23  24
ENDBRANCH   1  23
TORSDOF 24
ENDMDL
MODEL 3
REMARK VINA RESULT:      -8.9      1.401      7.296
REMARK SMILES CN(CC(=O)NCC(=O)OCCOCCOCCOCCOC(=O)c1ccc(-c2c3nc(c(-c4c(F)c(F)c(F)c(F)c4F)c4ccc([nH]4)c(-c4c(F)c(F)c(F)c(F)c4F)c4nc(c(-c5c(F)c(F)c(F)c(F)c5F)c5ccc2[nH]5)C=C4)C=C3)cc1)c1ncccn1
REMARK SMILES IDX 15 1 14 2 13 3 12 4 11 5 10 6 8 7 9 8 7 9 6 10 4 11 5 12
REMARK SMILES IDX 3 14 2 15 1 16 88 17 89 18 93 19 90 20 92 21 91 22 16 23
REMARK SMILES IDX 17 24 18 25 19 26 20 27 21 28 22 29 23 30 24 31 25 32 26 33
REMARK SMILES IDX 87 34 27 35 86 36 28 37 29 38 30 39 80 40 31 41 85 42 79 43
REMARK SMILES IDX 81 44 32 45 84 46 78 47 77 48 33 50 65 51 45 52 64 53 46 54
REMARK SMILES IDX 49 55 63 56 82 57 47 58 48 59 62 61 83 62 50 63 34 64 35 65
REMARK SMILES IDX 43 66 36 67 37 68 41 69 44 70 38 71 39 72 42 73 40 74 66 75
REMARK SMILES IDX 67 76 75 77 68 78 69 79 73 80 76 81 70 82 71 83 74 84 72 85
REMARK SMILES IDX 51 86 52 87 60 88 53 89 54 90 58 91 61 92 55 93 56 94 59 95
REMARK SMILES IDX 57 96
REMARK H PARENT 6 13 81 49 49 60
REMARK Flexibility Score: inf
ROOT
ATOM      1  C   UNL A   1      39.439  22.254  26.106  1.00  0.00     0.188 C 
ENDROOT
BRANCH   1   2
ATOM      2  C   UNL A   1      38.204  21.570  25.495  1.00  0.00     0.188 C 
BRANCH   2   3
ATOM      3  O   UNL A   1      37.410  22.245  24.530  1.00  0.00    -0.376 OA
BRANCH   3   4
ATOM      4  C   UNL A   1      35.992  22.147  24.562  1.00  0.00     0.202 C 
BRANCH   4   5
ATOM      5  C   UNL A   1      35.252  21.150  25.476  1.00  0.00     0.261 C 
BRANCH   5   6
ATOM      6  O   UNL A   1      34.107  20.500  24.901  1.00  0.00    -0.462 OA
BRANCH   6   7
ATOM      7  C   UNL A   1      32.891  20.898  25.339  1.00  0.00     0.325 C 
ATOM      8  O   UNL A   1      31.840  20.305  25.102  1.00  0.00    -0.250 OA
BRANCH   7   9
ATOM      9  C   UNL A   1      32.929  22.087  26.313  1.00  0.00     0.238 C 
BRANCH   9  10
ATOM     10  N   UNL A   1      31.777  22.558  27.071  1.00  0.00    -0.344 N 
ATOM     11  C   UNL A   1      30.727  23.316  26.644  1.00  0.00     0.240 C 
ATOM     12  O   UNL A   1      29.740  23.404  27.380  1.00  0.00    -0.273 OA
ATOM     13  H   UNL A   1      31.754  22.292  28.019  1.00  0.00     0.164 HD
BRANCH  11  14
ATOM     14  C   UNL A   1      30.748  23.902  25.234  1.00  0.00     0.219 C 
BRANCH  14  15
ATOM     15  N   UNL A   1      31.179  25.296  25.193  1.00  0.00    -0.335 N 
ATOM     16  C   UNL A   1      31.429  26.019  26.419  1.00  0.00     0.147 C 
BRANCH  15  17
ATOM     17  C   UNL A   1      31.868  25.681  24.057  1.00  0.00     0.225 A 
ATOM     18  N   UNL A   1      31.585  25.072  22.897  1.00  0.00    -0.221 NA
ATOM     19  N   UNL A   1      32.810  26.634  24.158  1.00  0.00    -0.221 NA
ATOM     20  C   UNL A   1      32.260  25.450  21.799  1.00  0.00     0.117 A 
ATOM     21  C   UNL A   1      33.504  26.942  23.047  1.00  0.00     0.117 A 
ATOM     22  C   UNL A   1      33.262  26.382  21.819  1.00  0.00     0.040 A 
ENDBRANCH  15  17
ENDBRANCH  14  15
ENDBRANCH  11  14
ENDBRANCH   9  10
ENDBRANCH   7   9
ENDBRANCH   6   7
ENDBRANCH   5   6
ENDBRANCH   4   5
ENDBRANCH   3   4
ENDBRANCH   2   3
ENDBRANCH   1   2
BRANCH   1  23
ATOM     23  O   UNL A   1      40.187  21.446  26.990  1.00  0.00    -0.377 OA
BRANCH  23  24
ATOM     24  C   UNL A   1      40.625  20.185  26.513  1.00  0.00     0.188 C 
BRANCH  24  25
ATOM     25  C   UNL A   1      42.119  20.008  26.182  1.00  0.00     0.188 C 
BRANCH  25  26
ATOM     26  O   UNL A   1      42.699  21.095  25.472  1.00  0.00    -0.376 OA
BRANCH  26  27
ATOM     27  C   UNL A   1      43.846  21.736  26.012  1.00  0.00     0.202 C 
BRANCH  27  28
ATOM     28  C   UNL A   1      44.598  22.744  25.126  1.00  0.00     0.261 C 
BRANCH  28  29
ATOM     29  O   UNL A   1      44.738  24.076  25.644  1.00  0.00    -0.460 OA
BRANCH  29  30
ATOM     30  C   UNL A   1      43.710  24.932  25.490  1.00  0.00     0.338 C 
ATOM     31  O   UNL A   1      42.940  25.000  24.545  1.00  0.00    -0.246 OA
BRANCH  30  32
ATOM     32  C   UNL A   1      43.527  25.658  26.764  1.00  0.00     0.060 A 
ATOM     33  C   UNL A   1      42.737  25.076  27.765  1.00  0.00     0.016 A 
ATOM     34  C   UNL A   1      44.126  26.902  26.974  1.00  0.00     0.016 A 
ATOM     35  C   UNL A   1      42.507  25.755  28.960  1.00  0.00     0.010 A 
ATOM     36  C   UNL A   1      43.876  27.593  28.164  1.00  0.00     0.010 A 
ATOM     37  C   UNL A   1      43.036  27.039  29.146  1.00  0.00    -0.014 A 
BRANCH  37  38
ATOM     38  C   UNL A   1      42.554  27.871  30.276  1.00  0.00     0.031 A 
ATOM     39  C   UNL A   1      41.280  28.651  30.099  1.00  0.00     0.074 A 
ATOM     40  C   UNL A   1      43.209  27.909  31.450  1.00  0.00     0.049 A 
ATOM     41  N   UNL A   1      40.683  29.472  30.924  1.00  0.00    -0.248 NA
ATOM     42  C   UNL A   1      40.585  28.479  28.812  1.00  0.00     0.031 C 
ATOM     43  C   UNL A   1      44.418  27.153  31.766  1.00  0.00     0.029 A 
ATOM     44  N   UNL A   1      42.947  28.623  32.593  1.00  0.00    -0.354 N 
ATOM     45  C   UNL A   1      39.549  29.918  30.257  1.00  0.00     0.074 A 
ATOM     46  C   UNL A   1      39.558  29.304  28.946  1.00  0.00     0.031 C 
ATOM     47  C   UNL A   1      44.803  27.456  33.018  1.00  0.00     0.029 A 
ATOM     48  C   UNL A   1      43.892  28.454  33.574  1.00  0.00     0.049 A 
ATOM     49  H   UNL A   1      42.156  29.200  32.699  1.00  0.00     0.167 HD
ATOM     50  C   UNL A   1      38.582  30.757  30.700  1.00  0.00     0.037 A 
ATOM     51  C   UNL A   1      44.017  29.057  34.773  1.00  0.00     0.037 A 
ATOM     52  C   UNL A   1      38.577  31.367  32.004  1.00  0.00     0.049 A 
ATOM     53  C   UNL A   1      42.974  30.056  35.210  1.00  0.00     0.074 A 
ATOM     54  C   UNL A   1      37.632  32.212  32.557  1.00  0.00     0.029 A 
ATOM     55  N   UNL A   1      39.575  31.207  32.954  1.00  0.00    -0.354 N 
ATOM     56  N   UNL A   1      41.890  30.450  34.588  1.00  0.00    -0.248 NA
ATOM     57  C   UNL A   1      43.171  30.689  36.523  1.00  0.00     0.031 C 
ATOM     58  C   UNL A   1      38.092  32.620  33.813  1.00  0.00     0.029 A 
ATOM     59  C   UNL A   1      39.287  31.969  34.075  1.00  0.00     0.049 A 
ATOM     60  H   UNL A   1      40.371  30.637  32.848  1.00  0.00     0.167 HD
ATOM     61  C   UNL A   1      41.259  31.346  35.443  1.00  0.00     0.074 A 
ATOM     62  C   UNL A   1      42.076  31.427  36.635  1.00  0.00     0.031 C 
ATOM     63  C   UNL A   1      40.106  32.038  35.259  1.00  0.00     0.037 A 
BRANCH  50  64
ATOM     64  C   UNL A   1      37.467  31.095  29.752  1.00  0.00     0.064 A 
ATOM     65  C   UNL A   1      37.395  32.337  29.102  1.00  0.00     0.173 A 
ATOM     66  C   UNL A   1      36.471  30.148  29.466  1.00  0.00     0.173 A 
ATOM     67  F   UNL A   1      38.312  33.284  29.349  1.00  0.00    -0.203 F 
ATOM     68  C   UNL A   1      36.352  32.627  28.226  1.00  0.00     0.198 A 
ATOM     69  C   UNL A   1      35.451  30.429  28.563  1.00  0.00     0.198 A 
ATOM     70  F   UNL A   1      36.495  28.944  30.057  1.00  0.00    -0.203 F 
ATOM     71  F   UNL A   1      36.273  33.839  27.658  1.00  0.00    -0.200 F 
ATOM     72  C   UNL A   1      35.386  31.671  27.951  1.00  0.00     0.200 A 
ATOM     73  F   UNL A   1      34.527  29.497  28.288  1.00  0.00    -0.200 F 
ATOM     74  F   UNL A   1      34.388  31.948  27.100  1.00  0.00    -0.200 F 
ENDBRANCH  50  64
BRANCH  51  75
ATOM     75  C   UNL A   1      45.186  28.750  35.642  1.00  0.00     0.064 A 
ATOM     76  C   UNL A   1      46.397  29.443  35.508  1.00  0.00     0.173 A 
ATOM     77  C   UNL A   1      45.120  27.738  36.612  1.00  0.00     0.173 A 
ATOM     78  F   UNL A   1      46.518  30.405  34.582  1.00  0.00    -0.203 F 
ATOM     79  C   UNL A   1      47.503  29.120  36.292  1.00  0.00     0.198 A 
ATOM     80  C   UNL A   1      46.216  27.438  37.418  1.00  0.00     0.198 A 
ATOM     81  F   UNL A   1      43.984  27.049  36.789  1.00  0.00    -0.203 F 
ATOM     82  F   UNL A   1      48.663  29.763  36.107  1.00  0.00    -0.200 F 
ATOM     83  C   UNL A   1      47.410  28.122  37.250  1.00  0.00     0.200 A 
ATOM     84  F   UNL A   1      46.112  26.488  38.358  1.00  0.00    -0.200 F 
ATOM     85  F   UNL A   1      48.471  27.816  38.009  1.00  0.00    -0.200 F 
ENDBRANCH  51  75
BRANCH  63  86
ATOM     86  C   UNL A   1      39.633  32.913  36.388  1.00  0.00     0.064 A 
ATOM     87  C   UNL A   1      38.651  32.489  37.294  1.00  0.00     0.173 A 
ATOM     88  C   UNL A   1      40.202  34.182  36.586  1.00  0.00     0.173 A 
ATOM     89  F   UNL A   1      38.066  31.291  37.144  1.00  0.00    -0.203 F 
ATOM     90  C   UNL A   1      38.233  33.313  38.337  1.00  0.00     0.198 A 
ATOM     91  C   UNL A   1      39.808  34.988  37.651  1.00  0.00     0.198 A 
ATOM     92  F   UNL A   1      41.152  34.636  35.756  1.00  0.00    -0.203 F 
ATOM     93  F   UNL A   1      37.251  32.909  39.155  1.00  0.00    -0.200 F 
ATOM     94  C   UNL A   1      38.817  34.558  38.519  1.00  0.00     0.200 A 
ATOM     95  F   UNL A   1      40.388  36.182  37.836  1.00  0.00    -0.200 F 
ATOM     96  F   UNL A   1      38.419  35.346  39.527  1.00  0.00    -0.200 F 
ENDBRANCH  63  86
ENDBRANCH  37  38
ENDBRANCH  30  32
ENDBRANCH  29  30
ENDBRANCH  28  29
ENDBRANCH  27  28
ENDBRANCH  26  27
ENDBRANCH  25  26
ENDBRANCH  24  25
ENDBRANCH  23  24
ENDBRANCH   1  23
TORSDOF 24
ENDMDL
