MODEL 1
REMARK VINA RESULT:      -9.8      0.000      0.000
REMARK SMILES CCN1C[C@@H](C(=O)OCCOCCOCCOCCOC(=O)c2ccc(-c3c4nc(c(-c5c(F)c(F)c(F)c(F)c5F)c5ccc([nH]5)c(-c5c(F)c(F)c(F)c(F)c5F)c5nc(c(-c6c(F)c(F)c(F)c(F)c6F)c6ccc3[nH]6)C=C5)C=C4)cc2)CC1=O
REMARK SMILES IDX 15 1 14 2 13 3 12 4 11 5 10 6 9 7 8 8 6 9 7 10 5 11 3 12
REMARK SMILES IDX 4 13 87 14 86 15 88 16 2 17 1 18 16 19 17 20 18 21 19 22
REMARK SMILES IDX 20 23 21 24 22 25 23 26 24 27 85 28 25 29 84 30 26 31 27 32
REMARK SMILES IDX 28 33 78 34 29 35 83 36 77 37 79 38 30 39 82 40 76 41 75 42
REMARK SMILES IDX 31 44 63 45 43 46 62 47 44 48 47 49 61 50 80 51 45 52 46 53
REMARK SMILES IDX 60 55 81 56 48 57 32 58 33 59 41 60 34 61 35 62 39 63 42 64
REMARK SMILES IDX 36 65 37 66 40 67 38 68 64 69 65 70 73 71 66 72 67 73 71 74
REMARK SMILES IDX 74 75 68 76 69 77 72 78 70 79 49 80 50 81 58 82 51 83 52 84
REMARK SMILES IDX 56 85 59 86 53 87 54 88 57 89 55 90
REMARK H PARENT 79 43 47 54
REMARK Flexibility Score: inf
ROOT
ATOM      1  C   UNL A   1      33.510  29.065  26.487  1.00  0.00     0.188 C 
ENDROOT
BRANCH   1   2
ATOM      2  O   UNL A   1      32.891  28.454  27.611  1.00  0.00    -0.377 OA
BRANCH   2   3
ATOM      3  C   UNL A   1      31.664  27.794  27.379  1.00  0.00     0.188 C 
BRANCH   3   4
ATOM      4  C   UNL A   1      31.735  26.610  26.402  1.00  0.00     0.188 C 
BRANCH   4   5
ATOM      5  O   UNL A   1      31.435  25.289  26.828  1.00  0.00    -0.376 OA
BRANCH   5   6
ATOM      6  C   UNL A   1      32.194  24.176  26.380  1.00  0.00     0.202 C 
BRANCH   6   7
ATOM      7  C   UNL A   1      31.636  22.741  26.385  1.00  0.00     0.261 C 
BRANCH   7   8
ATOM      8  O   UNL A   1      31.535  22.096  25.106  1.00  0.00    -0.463 OA
BRANCH   8   9
ATOM      9  C   UNL A   1      32.291  20.992  24.938  1.00  0.00     0.311 C 
ATOM     10  O   UNL A   1      31.986  19.873  25.341  1.00  0.00    -0.252 OA
BRANCH   9  11
ATOM     11  C   UNL A   1      33.579  21.228  24.192  1.00  0.00     0.128 C 
ATOM     12  N   UNL A   1      35.764  21.886  24.618  1.00  0.00    -0.342 N 
ATOM     13  C   UNL A   1      34.689  21.150  25.218  1.00  0.00     0.135 C 
ATOM     14  C   UNL A   1      35.343  22.727  23.611  1.00  0.00     0.223 C 
ATOM     15  C   UNL A   1      33.859  22.544  23.461  1.00  0.00     0.117 C 
ATOM     16  O   UNL A   1      36.032  23.470  22.933  1.00  0.00    -0.275 OA
BRANCH  12  17
ATOM     17  C   UNL A   1      37.146  21.680  24.988  1.00  0.00     0.116 C 
ATOM     18  C   UNL A   1      37.526  20.217  24.831  1.00  0.00     0.027 C 
ENDBRANCH  12  17
ENDBRANCH   9  11
ENDBRANCH   8   9
ENDBRANCH   7   8
ENDBRANCH   6   7
ENDBRANCH   5   6
ENDBRANCH   4   5
ENDBRANCH   3   4
ENDBRANCH   2   3
ENDBRANCH   1   2
BRANCH   1  19
ATOM     19  C   UNL A   1      33.090  30.502  26.118  1.00  0.00     0.188 C 
BRANCH  19  20
ATOM     20  O   UNL A   1      31.959  30.982  26.833  1.00  0.00    -0.376 OA
BRANCH  20  21
ATOM     21  C   UNL A   1      31.505  32.306  26.594  1.00  0.00     0.202 C 
BRANCH  21  22
ATOM     22  C   UNL A   1      32.103  33.447  27.437  1.00  0.00     0.261 C 
BRANCH  22  23
ATOM     23  O   UNL A   1      33.310  33.152  28.158  1.00  0.00    -0.460 OA
BRANCH  23  24
ATOM     24  C   UNL A   1      34.417  33.859  27.860  1.00  0.00     0.338 C 
ATOM     25  O   UNL A   1      34.474  35.021  27.492  1.00  0.00    -0.246 OA
BRANCH  24  26
ATOM     26  C   UNL A   1      35.592  33.052  28.255  1.00  0.00     0.060 A 
ATOM     27  C   UNL A   1      35.449  31.663  28.370  1.00  0.00     0.016 A 
ATOM     28  C   UNL A   1      36.824  33.657  28.511  1.00  0.00     0.016 A 
ATOM     29  C   UNL A   1      36.524  30.880  28.787  1.00  0.00     0.010 A 
ATOM     30  C   UNL A   1      37.896  32.874  28.954  1.00  0.00     0.010 A 
ATOM     31  C   UNL A   1      37.737  31.487  29.132  1.00  0.00    -0.014 A 
BRANCH  31  32
ATOM     32  C   UNL A   1      38.756  30.710  29.879  1.00  0.00     0.031 A 
ATOM     33  C   UNL A   1      38.941  31.002  31.343  1.00  0.00     0.074 A 
ATOM     34  C   UNL A   1      39.482  29.747  29.286  1.00  0.00     0.049 A 
ATOM     35  N   UNL A   1      39.791  30.492  32.196  1.00  0.00    -0.248 NA
ATOM     36  C   UNL A   1      38.040  32.012  31.922  1.00  0.00     0.031 C 
ATOM     37  C   UNL A   1      39.364  29.339  27.889  1.00  0.00     0.029 A 
ATOM     38  N   UNL A   1      40.473  28.942  29.792  1.00  0.00    -0.354 N 
ATOM     39  C   UNL A   1      39.538  31.127  33.405  1.00  0.00     0.074 A 
ATOM     40  C   UNL A   1      38.477  32.082  33.169  1.00  0.00     0.031 C 
ATOM     41  C   UNL A   1      40.263  28.370  27.643  1.00  0.00     0.029 A 
ATOM     42  C   UNL A   1      41.040  28.115  28.855  1.00  0.00     0.049 A 
ATOM     43  H   UNL A   1      40.750  28.957  30.736  1.00  0.00     0.167 HD
ATOM     44  C   UNL A   1      40.133  30.929  34.605  1.00  0.00     0.037 A 
ATOM     45  C   UNL A   1      42.087  27.272  28.961  1.00  0.00     0.037 A 
ATOM     46  C   UNL A   1      41.191  29.980  34.834  1.00  0.00     0.049 A 
ATOM     47  C   UNL A   1      42.785  27.121  30.290  1.00  0.00     0.074 A 
ATOM     48  C   UNL A   1      41.842  29.683  36.017  1.00  0.00     0.029 A 
ATOM     49  N   UNL A   1      41.761  29.181  33.852  1.00  0.00    -0.354 N 
ATOM     50  N   UNL A   1      42.521  27.701  31.437  1.00  0.00    -0.248 NA
ATOM     51  C   UNL A   1      43.923  26.193  30.340  1.00  0.00     0.031 C 
ATOM     52  C   UNL A   1      42.853  28.759  35.740  1.00  0.00     0.029 A 
ATOM     53  C   UNL A   1      42.782  28.419  34.397  1.00  0.00     0.049 A 
ATOM     54  H   UNL A   1      41.482  29.160  32.908  1.00  0.00     0.167 HD
ATOM     55  C   UNL A   1      43.436  27.186  32.348  1.00  0.00     0.074 A 
ATOM     56  C   UNL A   1      44.254  26.236  31.622  1.00  0.00     0.031 C 
ATOM     57  C   UNL A   1      43.585  27.472  33.665  1.00  0.00     0.037 A 
BRANCH  44  58
ATOM     58  C   UNL A   1      39.682  31.786  35.753  1.00  0.00     0.064 A 
ATOM     59  C   UNL A   1      38.587  31.437  36.557  1.00  0.00     0.173 A 
ATOM     60  C   UNL A   1      40.373  32.967  36.066  1.00  0.00     0.173 A 
ATOM     61  F   UNL A   1      37.881  30.327  36.294  1.00  0.00    -0.203 F 
ATOM     62  C   UNL A   1      38.180  32.254  37.611  1.00  0.00     0.198 A 
ATOM     63  C   UNL A   1      39.987  33.762  37.141  1.00  0.00     0.198 A 
ATOM     64  F   UNL A   1      41.429  33.347  35.332  1.00  0.00    -0.203 F 
ATOM     65  F   UNL A   1      37.097  31.930  38.328  1.00  0.00    -0.200 F 
ATOM     66  C   UNL A   1      38.886  33.410  37.906  1.00  0.00     0.200 A 
ATOM     67  F   UNL A   1      40.679  34.872  37.433  1.00  0.00    -0.200 F 
ATOM     68  F   UNL A   1      38.498  34.192  38.924  1.00  0.00    -0.200 F 
ENDBRANCH  44  58
BRANCH  45  69
ATOM     69  C   UNL A   1      42.554  26.515  27.768  1.00  0.00     0.064 A 
ATOM     70  C   UNL A   1      42.067  25.231  27.484  1.00  0.00     0.173 A 
ATOM     71  C   UNL A   1      43.514  27.053  26.898  1.00  0.00     0.173 A 
ATOM     72  F   UNL A   1      41.167  24.661  28.299  1.00  0.00    -0.203 F 
ATOM     73  C   UNL A   1      42.535  24.510  26.387  1.00  0.00     0.198 A 
ATOM     74  C   UNL A   1      43.958  26.343  25.783  1.00  0.00     0.198 A 
ATOM     75  F   UNL A   1      44.018  28.274  27.126  1.00  0.00    -0.203 F 
ATOM     76  F   UNL A   1      42.088  23.265  26.168  1.00  0.00    -0.200 F 
ATOM     77  C   UNL A   1      43.474  25.068  25.534  1.00  0.00     0.200 A 
ATOM     78  F   UNL A   1      44.854  26.894  24.955  1.00  0.00    -0.200 F 
ATOM     79  F   UNL A   1      43.918  24.376  24.477  1.00  0.00    -0.200 F 
ENDBRANCH  45  69
BRANCH  57  80
ATOM     80  C   UNL A   1      44.642  26.719  34.426  1.00  0.00     0.064 A 
ATOM     81  C   UNL A   1      44.387  25.472  35.017  1.00  0.00     0.173 A 
ATOM     82  C   UNL A   1      45.945  27.234  34.524  1.00  0.00     0.173 A 
ATOM     83  F   UNL A   1      43.158  24.938  34.963  1.00  0.00    -0.203 F 
ATOM     84  C   UNL A   1      45.387  24.788  35.705  1.00  0.00     0.198 A 
ATOM     85  C   UNL A   1      46.950  26.530  35.180  1.00  0.00     0.198 A 
ATOM     86  F   UNL A   1      46.248  28.418  33.968  1.00  0.00    -0.203 F 
ATOM     87  F   UNL A   1      45.104  23.625  36.309  1.00  0.00    -0.200 F 
ATOM     88  C   UNL A   1      46.668  25.312  35.779  1.00  0.00     0.200 A 
ATOM     89  F   UNL A   1      48.192  27.030  35.233  1.00  0.00    -0.200 F 
ATOM     90  F   UNL A   1      47.631  24.647  36.432  1.00  0.00    -0.200 F 
ENDBRANCH  57  80
ENDBRANCH  31  32
ENDBRANCH  24  26
ENDBRANCH  23  24
ENDBRANCH  22  23
ENDBRANCH  21  22
ENDBRANCH  20  21
ENDBRANCH  19  20
ENDBRANCH   1  19
TORSDOF 21
ENDMDL
MODEL 2
REMARK VINA RESULT:      -9.6      1.959      3.157
REMARK SMILES CCN1C[C@@H](C(=O)OCCOCCOCCOCCOC(=O)c2ccc(-c3c4nc(c(-c5c(F)c(F)c(F)c(F)c5F)c5ccc([nH]5)c(-c5c(F)c(F)c(F)c(F)c5F)c5nc(c(-c6c(F)c(F)c(F)c(F)c6F)c6ccc3[nH]6)C=C5)C=C4)cc2)CC1=O
REMARK SMILES IDX 15 1 14 2 13 3 12 4 11 5 10 6 9 7 8 8 6 9 7 10 5 11 3 12
REMARK SMILES IDX 4 13 87 14 86 15 88 16 2 17 1 18 16 19 17 20 18 21 19 22
REMARK SMILES IDX 20 23 21 24 22 25 23 26 24 27 85 28 25 29 84 30 26 31 27 32
REMARK SMILES IDX 28 33 78 34 29 35 83 36 77 37 79 38 30 39 82 40 76 41 75 42
REMARK SMILES IDX 31 44 63 45 43 46 62 47 44 48 47 49 61 50 80 51 45 52 46 53
REMARK SMILES IDX 60 55 81 56 48 57 32 58 33 59 41 60 34 61 35 62 39 63 42 64
REMARK SMILES IDX 36 65 37 66 40 67 38 68 64 69 65 70 73 71 66 72 67 73 71 74
REMARK SMILES IDX 74 75 68 76 69 77 72 78 70 79 49 80 50 81 58 82 51 83 52 84
REMARK SMILES IDX 56 85 59 86 53 87 54 88 57 89 55 90
REMARK H PARENT 79 43 47 54
REMARK Flexibility Score: inf
ROOT
ATOM      1  C   UNL A   1      31.794  28.810  26.024  1.00  0.00     0.188 C 
ENDROOT
BRANCH   1   2
ATOM      2  O   UNL A   1      31.367  29.570  24.901  1.00  0.00    -0.377 OA
BRANCH   2   3
ATOM      3  C   UNL A   1      31.034  28.846  23.735  1.00  0.00     0.188 C 
BRANCH   3   4
ATOM      4  C   UNL A   1      31.778  27.513  23.559  1.00  0.00     0.188 C 
BRANCH   4   5
ATOM      5  O   UNL A   1      31.072  26.284  23.477  1.00  0.00    -0.376 OA
BRANCH   5   6
ATOM      6  C   UNL A   1      29.961  26.009  24.317  1.00  0.00     0.202 C 
BRANCH   6   7
ATOM      7  C   UNL A   1      30.115  25.358  25.702  1.00  0.00     0.261 C 
BRANCH   7   8
ATOM      8  O   UNL A   1      31.460  25.179  26.173  1.00  0.00    -0.463 OA
BRANCH   8   9
ATOM      9  C   UNL A   1      31.759  23.956  26.658  1.00  0.00     0.311 C 
ATOM     10  O   UNL A   1      31.169  23.414  27.588  1.00  0.00    -0.252 OA
BRANCH   9  11
ATOM     11  C   UNL A   1      32.901  23.271  25.953  1.00  0.00     0.128 C 
ATOM     12  N   UNL A   1      33.651  21.122  25.493  1.00  0.00    -0.342 N 
ATOM     13  C   UNL A   1      32.432  21.866  25.644  1.00  0.00     0.135 C 
ATOM     14  C   UNL A   1      34.736  21.749  26.066  1.00  0.00     0.223 C 
ATOM     15  C   UNL A   1      34.256  23.055  26.633  1.00  0.00     0.117 C 
ATOM     16  O   UNL A   1      35.887  21.350  26.096  1.00  0.00    -0.275 OA
BRANCH  12  17
ATOM     17  C   UNL A   1      33.719  19.894  24.736  1.00  0.00     0.116 C 
ATOM     18  C   UNL A   1      32.896  18.808  25.408  1.00  0.00     0.027 C 
ENDBRANCH  12  17
ENDBRANCH   9  11
ENDBRANCH   8   9
ENDBRANCH   7   8
ENDBRANCH   6   7
ENDBRANCH   5   6
ENDBRANCH   4   5
ENDBRANCH   3   4
ENDBRANCH   2   3
ENDBRANCH   1   2
BRANCH   1  19
ATOM     19  C   UNL A   1      32.854  29.429  26.959  1.00  0.00     0.188 C 
BRANCH  19  20
ATOM     20  O   UNL A   1      33.202  30.769  26.641  1.00  0.00    -0.376 OA
BRANCH  20  21
ATOM     21  C   UNL A   1      33.251  31.733  27.684  1.00  0.00     0.202 C 
BRANCH  21  22
ATOM     22  C   UNL A   1      33.041  33.214  27.320  1.00  0.00     0.261 C 
BRANCH  22  23
ATOM     23  O   UNL A   1      32.355  34.024  28.288  1.00  0.00    -0.460 OA
BRANCH  23  24
ATOM     24  C   UNL A   1      33.006  35.085  28.804  1.00  0.00     0.338 C 
ATOM     25  O   UNL A   1      32.636  36.248  28.807  1.00  0.00    -0.246 OA
BRANCH  24  26
ATOM     26  C   UNL A   1      34.169  34.579  29.565  1.00  0.00     0.060 A 
ATOM     27  C   UNL A   1      35.438  34.632  28.973  1.00  0.00     0.016 A 
ATOM     28  C   UNL A   1      34.011  34.055  30.850  1.00  0.00     0.016 A 
ATOM     29  C   UNL A   1      36.547  34.119  29.645  1.00  0.00     0.010 A 
ATOM     30  C   UNL A   1      35.120  33.517  31.513  1.00  0.00     0.010 A 
ATOM     31  C   UNL A   1      36.384  33.511  30.896  1.00  0.00    -0.014 A 
BRANCH  31  32
ATOM     32  C   UNL A   1      37.482  32.684  31.453  1.00  0.00     0.031 A 
ATOM     33  C   UNL A   1      37.999  33.018  32.826  1.00  0.00     0.074 A 
ATOM     34  C   UNL A   1      37.992  31.640  30.776  1.00  0.00     0.049 A 
ATOM     35  N   UNL A   1      38.974  32.475  33.507  1.00  0.00    -0.248 NA
ATOM     36  C   UNL A   1      37.319  34.122  33.523  1.00  0.00     0.031 C 
ATOM     37  C   UNL A   1      37.546  31.187  29.461  1.00  0.00     0.029 A 
ATOM     38  N   UNL A   1      39.008  30.778  31.106  1.00  0.00    -0.354 N 
ATOM     39  C   UNL A   1      39.034  33.178  34.703  1.00  0.00     0.074 A 
ATOM     40  C   UNL A   1      38.019  34.206  34.644  1.00  0.00     0.031 C 
ATOM     41  C   UNL A   1      38.298  30.138  29.086  1.00  0.00     0.029 A 
ATOM     42  C   UNL A   1      39.299  29.869  30.119  1.00  0.00     0.049 A 
ATOM     43  H   UNL A   1      39.483  30.809  31.967  1.00  0.00     0.167 HD
ATOM     44  C   UNL A   1      39.858  32.979  35.759  1.00  0.00     0.037 A 
ATOM     45  C   UNL A   1      40.280  28.948  30.049  1.00  0.00     0.037 A 
ATOM     46  C   UNL A   1      40.870  31.957  35.813  1.00  0.00     0.049 A 
ATOM     47  C   UNL A   1      41.236  28.794  31.206  1.00  0.00     0.074 A 
ATOM     48  C   UNL A   1      41.738  31.656  36.846  1.00  0.00     0.029 A 
ATOM     49  N   UNL A   1      41.155  31.075  34.780  1.00  0.00    -0.354 N 
ATOM     50  N   UNL A   1      41.268  29.440  32.348  1.00  0.00    -0.248 NA
ATOM     51  C   UNL A   1      42.289  27.778  31.067  1.00  0.00     0.031 C 
ATOM     52  C   UNL A   1      42.596  30.641  36.414  1.00  0.00     0.029 A 
ATOM     53  C   UNL A   1      42.213  30.254  35.139  1.00  0.00     0.049 A 
ATOM     54  H   UNL A   1      40.678  31.038  33.920  1.00  0.00     0.167 HD
ATOM     55  C   UNL A   1      42.319  28.889  33.072  1.00  0.00     0.074 A 
ATOM     56  C   UNL A   1      42.891  27.846  32.245  1.00  0.00     0.031 C 
ATOM     57  C   UNL A   1      42.769  29.214  34.310  1.00  0.00     0.037 A 
BRANCH  44  58
ATOM     58  C   UNL A   1      39.729  33.917  36.926  1.00  0.00     0.064 A 
ATOM     59  C   UNL A   1      40.373  35.164  36.954  1.00  0.00     0.173 A 
ATOM     60  C   UNL A   1      38.929  33.570  38.025  1.00  0.00     0.173 A 
ATOM     61  F   UNL A   1      41.163  35.539  35.937  1.00  0.00    -0.203 F 
ATOM     62  C   UNL A   1      40.247  36.012  38.052  1.00  0.00     0.198 A 
ATOM     63  C   UNL A   1      38.776  34.435  39.104  1.00  0.00     0.198 A 
ATOM     64  F   UNL A   1      38.288  32.392  38.050  1.00  0.00    -0.203 F 
ATOM     65  F   UNL A   1      40.917  37.171  38.082  1.00  0.00    -0.200 F 
ATOM     66  C   UNL A   1      39.442  35.651  39.122  1.00  0.00     0.200 A 
ATOM     67  F   UNL A   1      37.985  34.090  40.131  1.00  0.00    -0.200 F 
ATOM     68  F   UNL A   1      39.316  36.470  40.175  1.00  0.00    -0.200 F 
ENDBRANCH  44  58
BRANCH  45  69
ATOM     69  C   UNL A   1      40.424  28.107  28.829  1.00  0.00     0.064 A 
ATOM     70  C   UNL A   1      41.201  28.531  27.742  1.00  0.00     0.173 A 
ATOM     71  C   UNL A   1      39.769  26.872  28.719  1.00  0.00     0.173 A 
ATOM     72  F   UNL A   1      41.826  29.717  27.786  1.00  0.00    -0.203 F 
ATOM     73  C   UNL A   1      41.303  27.759  26.585  1.00  0.00     0.198 A 
ATOM     74  C   UNL A   1      39.898  26.086  27.575  1.00  0.00     0.198 A 
ATOM     75  F   UNL A   1      39.009  26.421  29.727  1.00  0.00    -0.203 F 
ATOM     76  F   UNL A   1      42.012  28.211  25.542  1.00  0.00    -0.200 F 
ATOM     77  C   UNL A   1      40.658  26.535  26.505  1.00  0.00     0.200 A 
ATOM     78  F   UNL A   1      39.284  24.897  27.509  1.00  0.00    -0.200 F 
ATOM     79  F   UNL A   1      40.762  25.791  25.396  1.00  0.00    -0.200 F 
ENDBRANCH  45  69
BRANCH  57  80
ATOM     80  C   UNL A   1      43.908  28.408  34.871  1.00  0.00     0.064 A 
ATOM     81  C   UNL A   1      43.698  27.215  35.578  1.00  0.00     0.173 A 
ATOM     82  C   UNL A   1      45.235  28.815  34.656  1.00  0.00     0.173 A 
ATOM     83  F   UNL A   1      42.450  26.786  35.821  1.00  0.00    -0.203 F 
ATOM     84  C   UNL A   1      44.770  26.479  36.076  1.00  0.00     0.198 A 
ATOM     85  C   UNL A   1      46.305  28.057  35.124  1.00  0.00     0.198 A 
ATOM     86  F   UNL A   1      45.496  29.943  33.977  1.00  0.00    -0.203 F 
ATOM     87  F   UNL A   1      44.542  25.372  36.796  1.00  0.00    -0.200 F 
ATOM     88  C   UNL A   1      46.072  26.895  35.841  1.00  0.00     0.200 A 
ATOM     89  F   UNL A   1      47.561  28.452  34.878  1.00  0.00    -0.200 F 
ATOM     90  F   UNL A   1      47.102  26.180  36.313  1.00  0.00    -0.200 F 
ENDBRANCH  57  80
ENDBRANCH  31  32
ENDBRANCH  24  26
ENDBRANCH  23  24
ENDBRANCH  22  23
ENDBRANCH  21  22
ENDBRANCH  20  21
ENDBRANCH  19  20
ENDBRANCH   1  19
TORSDOF 21
ENDMDL
MODEL 3
REMARK VINA RESULT:      -9.5      5.128      8.810
REMARK SMILES CCN1C[C@@H](C(=O)OCCOCCOCCOCCOC(=O)c2ccc(-c3c4nc(c(-c5c(F)c(F)c(F)c(F)c5F)c5ccc([nH]5)c(-c5c(F)c(F)c(F)c(F)c5F)c5nc(c(-c6c(F)c(F)c(F)c(F)c6F)c6ccc3[nH]6)C=C5)C=C4)cc2)CC1=O
REMARK SMILES IDX 15 1 14 2 13 3 12 4 11 5 10 6 9 7 8 8 6 9 7 10 5 11 3 12
REMARK SMILES IDX 4 13 87 14 86 15 88 16 2 17 1 18 16 19 17 20 18 21 19 22
REMARK SMILES IDX 20 23 21 24 22 25 23 26 24 27 85 28 25 29 84 30 26 31 27 32
REMARK SMILES IDX 28 33 78 34 29 35 83 36 77 37 79 38 30 39 82 40 76 41 75 42
REMARK SMILES IDX 31 44 63 45 43 46 62 47 44 48 47 49 61 50 80 51 45 52 46 53
REMARK SMILES IDX 60 55 81 56 48 57 32 58 33 59 41 60 34 61 35 62 39 63 42 64
REMARK SMILES IDX 36 65 37 66 40 67 38 68 64 69 65 70 73 71 66 72 67 73 71 74
REMARK SMILES IDX 74 75 68 76 69 77 72 78 70 79 49 80 50 81 58 82 51 83 52 84
REMARK SMILES IDX 56 85 59 86 53 87 54 88 57 89 55 90
REMARK H PARENT 79 43 47 54
REMARK Flexibility Score: inf
ROOT
ATOM      1  C   UNL A   1      36.577  23.824  26.072  1.00  0.00     0.188 C 
ENDROOT
BRANCH   1   2
ATOM      2  O   UNL A   1      35.399  23.887  25.280  1.00  0.00    -0.377 OA
BRANCH   2   3
ATOM      3  C   UNL A   1      34.580  25.025  25.451  1.00  0.00     0.188 C 
BRANCH   3   4
ATOM      4  C   UNL A   1      33.696  25.381  24.245  1.00  0.00     0.188 C 
BRANCH   4   5
ATOM      5  O   UNL A   1      32.315  25.668  24.407  1.00  0.00    -0.376 OA
BRANCH   5   6
ATOM      6  C   UNL A   1      31.356  25.262  23.443  1.00  0.00     0.202 C 
BRANCH   6   7
ATOM      7  C   UNL A   1      30.702  23.869  23.464  1.00  0.00     0.261 C 
BRANCH   7   8
ATOM      8  O   UNL A   1      31.459  22.821  24.090  1.00  0.00    -0.463 OA
BRANCH   8   9
ATOM      9  C   UNL A   1      32.256  22.100  23.275  1.00  0.00     0.311 C 
ATOM     10  O   UNL A   1      32.500  22.389  22.107  1.00  0.00    -0.252 OA
BRANCH   9  11
ATOM     11  C   UNL A   1      32.854  20.874  23.917  1.00  0.00     0.128 C 
ATOM     12  N   UNL A   1      32.636  18.564  23.841  1.00  0.00    -0.342 N 
ATOM     13  C   UNL A   1      32.555  19.717  22.989  1.00  0.00     0.135 C 
ATOM     14  C   UNL A   1      32.521  18.876  25.178  1.00  0.00     0.223 C 
ATOM     15  C   UNL A   1      32.385  20.369  25.284  1.00  0.00     0.117 C 
ATOM     16  O   UNL A   1      32.549  18.103  26.121  1.00  0.00    -0.275 OA
BRANCH  12  17
ATOM     17  C   UNL A   1      32.903  17.240  23.328  1.00  0.00     0.116 C 
ATOM     18  C   UNL A   1      34.387  16.926  23.411  1.00  0.00     0.027 C 
ENDBRANCH  12  17
ENDBRANCH   9  11
ENDBRANCH   8   9
ENDBRANCH   7   8
ENDBRANCH   6   7
ENDBRANCH   5   6
ENDBRANCH   4   5
ENDBRANCH   3   4
ENDBRANCH   2   3
ENDBRANCH   1   2
BRANCH   1  19
ATOM     19  C   UNL A   1      37.894  23.409  25.384  1.00  0.00     0.188 C 
BRANCH  19  20
ATOM     20  O   UNL A   1      38.427  22.174  25.841  1.00  0.00    -0.376 OA
BRANCH  20  21
ATOM     21  C   UNL A   1      38.154  20.991  25.103  1.00  0.00     0.202 C 
BRANCH  21  22
ATOM     22  C   UNL A   1      39.029  19.751  25.360  1.00  0.00     0.261 C 
BRANCH  22  23
ATOM     23  O   UNL A   1      39.953  19.831  26.457  1.00  0.00    -0.460 OA
BRANCH  23  24
ATOM     24  C   UNL A   1      41.242  19.513  26.226  1.00  0.00     0.338 C 
ATOM     25  O   UNL A   1      41.672  18.474  25.752  1.00  0.00    -0.246 OA
BRANCH  24  26
ATOM     26  C   UNL A   1      42.056  20.727  26.449  1.00  0.00     0.060 A 
ATOM     27  C   UNL A   1      42.261  21.171  27.762  1.00  0.00     0.016 A 
ATOM     28  C   UNL A   1      42.613  21.425  25.375  1.00  0.00     0.016 A 
ATOM     29  C   UNL A   1      42.983  22.339  28.003  1.00  0.00     0.010 A 
ATOM     30  C   UNL A   1      43.316  22.610  25.615  1.00  0.00     0.010 A 
ATOM     31  C   UNL A   1      43.469  23.093  26.928  1.00  0.00    -0.014 A 
BRANCH  31  32
ATOM     32  C   UNL A   1      43.939  24.480  27.162  1.00  0.00     0.031 A 
ATOM     33  C   UNL A   1      42.948  25.490  27.675  1.00  0.00     0.074 A 
ATOM     34  C   UNL A   1      45.219  24.835  26.957  1.00  0.00     0.049 A 
ATOM     35  N   UNL A   1      43.103  26.766  27.915  1.00  0.00    -0.248 NA
ATOM     36  C   UNL A   1      41.592  24.986  27.951  1.00  0.00     0.031 C 
ATOM     37  C   UNL A   1      46.282  23.940  26.508  1.00  0.00     0.029 A 
ATOM     38  N   UNL A   1      45.836  26.054  27.095  1.00  0.00    -0.354 N 
ATOM     39  C   UNL A   1      41.867  27.219  28.356  1.00  0.00     0.074 A 
ATOM     40  C   UNL A   1      40.963  26.090  28.321  1.00  0.00     0.031 C 
ATOM     41  C   UNL A   1      47.420  24.646  26.390  1.00  0.00     0.029 A 
ATOM     42  C   UNL A   1      47.157  26.046  26.721  1.00  0.00     0.049 A 
ATOM     43  H   UNL A   1      45.375  26.857  27.429  1.00  0.00     0.167 HD
ATOM     44  C   UNL A   1      41.517  28.464  28.759  1.00  0.00     0.037 A 
ATOM     45  C   UNL A   1      48.040  27.060  26.630  1.00  0.00     0.037 A 
ATOM     46  C   UNL A   1      42.419  29.585  28.788  1.00  0.00     0.049 A 
ATOM     47  C   UNL A   1      47.608  28.454  27.012  1.00  0.00     0.074 A 
ATOM     48  C   UNL A   1      42.171  30.880  29.205  1.00  0.00     0.029 A 
ATOM     49  N   UNL A   1      43.743  29.545  28.372  1.00  0.00    -0.354 N 
ATOM     50  N   UNL A   1      46.447  28.871  27.458  1.00  0.00    -0.248 NA
ATOM     51  C   UNL A   1      48.613  29.518  26.884  1.00  0.00     0.031 C 
ATOM     52  C   UNL A   1      43.321  31.641  28.975  1.00  0.00     0.029 A 
ATOM     53  C   UNL A   1      44.312  30.803  28.487  1.00  0.00     0.049 A 
ATOM     54  H   UNL A   1      44.207  28.742  28.043  1.00  0.00     0.167 HD
ATOM     55  C   UNL A   1      46.591  30.233  27.693  1.00  0.00     0.074 A 
ATOM     56  C   UNL A   1      47.958  30.570  27.352  1.00  0.00     0.031 C 
ATOM     57  C   UNL A   1      45.677  31.124  28.151  1.00  0.00     0.037 A 
BRANCH  44  58
ATOM     58  C   UNL A   1      40.087  28.688  29.159  1.00  0.00     0.064 A 
ATOM     59  C   UNL A   1      39.652  28.534  30.484  1.00  0.00     0.173 A 
ATOM     60  C   UNL A   1      39.140  29.083  28.202  1.00  0.00     0.173 A 
ATOM     61  F   UNL A   1      40.512  28.143  31.437  1.00  0.00    -0.203 F 
ATOM     62  C   UNL A   1      38.317  28.737  30.829  1.00  0.00     0.198 A 
ATOM     63  C   UNL A   1      37.815  29.319  28.556  1.00  0.00     0.198 A 
ATOM     64  F   UNL A   1      39.501  29.247  26.920  1.00  0.00    -0.203 F 
ATOM     65  F   UNL A   1      37.913  28.528  32.089  1.00  0.00    -0.200 F 
ATOM     66  C   UNL A   1      37.403  29.137  29.867  1.00  0.00     0.200 A 
ATOM     67  F   UNL A   1      36.936  29.720  27.627  1.00  0.00    -0.200 F 
ATOM     68  F   UNL A   1      36.120  29.338  30.201  1.00  0.00    -0.200 F 
ENDBRANCH  44  58
BRANCH  45  69
ATOM     69  C   UNL A   1      49.419  26.801  26.137  1.00  0.00     0.064 A 
ATOM     70  C   UNL A   1      50.448  26.430  27.015  1.00  0.00     0.173 A 
ATOM     71  C   UNL A   1      49.743  26.939  24.779  1.00  0.00     0.173 A 
ATOM     72  F   UNL A   1      50.197  26.310  28.327  1.00  0.00    -0.203 F 
ATOM     73  C   UNL A   1      51.748  26.225  26.557  1.00  0.00     0.198 A 
ATOM     74  C   UNL A   1      51.036  26.702  24.317  1.00  0.00     0.198 A 
ATOM     75  F   UNL A   1      48.799  27.297  23.897  1.00  0.00    -0.203 F 
ATOM     76  F   UNL A   1      52.722  25.920  27.426  1.00  0.00    -0.200 F 
ATOM     77  C   UNL A   1      52.040  26.354  25.208  1.00  0.00     0.200 A 
ATOM     78  F   UNL A   1      51.309  26.815  23.010  1.00  0.00    -0.200 F 
ATOM     79  F   UNL A   1      53.289  26.151  24.767  1.00  0.00    -0.200 F 
ENDBRANCH  45  69
BRANCH  57  80
ATOM     80  C   UNL A   1      46.130  32.544  28.356  1.00  0.00     0.064 A 
ATOM     81  C   UNL A   1      45.999  33.519  27.356  1.00  0.00     0.173 A 
ATOM     82  C   UNL A   1      46.661  32.945  29.593  1.00  0.00     0.173 A 
ATOM     83  F   UNL A   1      45.508  33.188  26.152  1.00  0.00    -0.203 F 
ATOM     84  C   UNL A   1      46.414  34.830  27.574  1.00  0.00     0.198 A 
ATOM     85  C   UNL A   1      47.040  34.265  29.820  1.00  0.00     0.198 A 
ATOM     86  F   UNL A   1      46.799  32.056  30.590  1.00  0.00    -0.203 F 
ATOM     87  F   UNL A   1      46.331  35.730  26.584  1.00  0.00    -0.200 F 
ATOM     88  C   UNL A   1      46.925  35.204  28.808  1.00  0.00     0.200 A 
ATOM     89  F   UNL A   1      47.515  34.627  31.019  1.00  0.00    -0.200 F 
ATOM     90  F   UNL A   1      47.314  36.469  29.019  1.00  0.00    -0.200 F 
ENDBRANCH  57  80
ENDBRANCH  31  32
ENDBRANCH  24  26
ENDBRANCH  23  24
ENDBRANCH  22  23
ENDBRANCH  21  22
ENDBRANCH  20  21
ENDBRANCH  19  20
ENDBRANCH   1  19
TORSDOF 21
ENDMDL
