MODEL 1
REMARK VINA RESULT:     -10.6      0.000      0.000
REMARK SMILES O=C(C[C@@H](c1ccccc1)[NH+]1CCCCC1)OCCOCCOCCOCCOC(=O)c1ccc(-c2c3nc(c(-c4c(F)c(F)c(F)c(F)c4F)c4ccc([nH]4)c(-c4c(F)c(F)c(F)c(F)c4F)c4nc(c(-c5c(F)c(F)c(F)c(F)c5F)c5ccc2[nH]5)C=C4)C=C3)cc1
REMARK SMILES IDX 23 1 22 2 21 3 20 4 19 5 18 6 17 7 2 8 1 9 3 10 4 11 5 12
REMARK SMILES IDX 6 13 10 14 7 15 9 16 8 17 11 18 12 19 16 20 13 22 15 23
REMARK SMILES IDX 14 24 24 25 25 26 26 27 27 28 28 29 29 30 30 31 31 32 32 33
REMARK SMILES IDX 33 34 94 35 34 36 93 37 35 38 36 39 37 40 87 41 38 42 92 43
REMARK SMILES IDX 86 44 88 45 39 46 91 47 85 48 84 49 40 51 72 52 52 53 71 54
REMARK SMILES IDX 53 55 56 56 70 57 89 58 54 59 55 60 69 62 90 63 57 64 41 65
REMARK SMILES IDX 42 66 50 67 43 68 44 69 48 70 51 71 45 72 46 73 49 74 47 75
REMARK SMILES IDX 73 76 74 77 82 78 75 79 76 80 80 81 83 82 77 83 78 84 81 85
REMARK SMILES IDX 79 86 58 87 59 88 67 89 60 90 61 91 65 92 68 93 62 94 63 95
REMARK SMILES IDX 66 96 64 97
REMARK H PARENT 11 21 88 50 56 61
REMARK Flexibility Score: inf
ROOT
ATOM      1  O   UNL A   1      32.681  34.549  29.073  1.00  0.00    -0.377 OA
ENDROOT
BRANCH   1   2
ATOM      2  C   UNL A   1      33.080  33.881  27.887  1.00  0.00     0.188 C 
BRANCH   2   3
ATOM      3  C   UNL A   1      33.920  32.647  28.165  1.00  0.00     0.188 C 
BRANCH   3   4
ATOM      4  O   UNL A   1      33.579  31.471  27.443  1.00  0.00    -0.376 OA
BRANCH   4   5
ATOM      5  C   UNL A   1      32.298  31.286  26.868  1.00  0.00     0.202 C 
BRANCH   5   6
ATOM      6  C   UNL A   1      31.778  29.888  26.565  1.00  0.00     0.261 C 
BRANCH   6   7
ATOM      7  O   UNL A   1      32.529  28.820  27.130  1.00  0.00    -0.463 OA
BRANCH   7   8
ATOM      8  C   UNL A   1      33.471  28.254  26.334  1.00  0.00     0.312 C 
ATOM      9  O   UNL A   1      34.612  28.070  26.743  1.00  0.00    -0.252 OA
BRANCH   8  10
ATOM     10  C   UNL A   1      33.084  28.093  24.885  1.00  0.00     0.192 C 
BRANCH  10  11
ATOM     11  C   UNL A   1      32.193  26.880  24.633  1.00  0.00     0.226 C 
BRANCH  11  12
ATOM     12  C   UNL A   1      30.804  27.229  24.075  1.00  0.00     0.010 A 
ATOM     13  C   UNL A   1      29.714  26.387  24.343  1.00  0.00     0.010 A 
ATOM     14  C   UNL A   1      30.541  28.389  23.322  1.00  0.00     0.010 A 
ATOM     15  C   UNL A   1      28.428  26.694  23.879  1.00  0.00     0.001 A 
ATOM     16  C   UNL A   1      29.261  28.699  22.852  1.00  0.00     0.001 A 
ATOM     17  C   UNL A   1      28.200  27.850  23.135  1.00  0.00     0.000 A 
ENDBRANCH  11  12
BRANCH  11  18
ATOM     18  N   UNL A   1      32.998  25.906  23.845  1.00  0.00    -0.328 N 
ATOM     19  C   UNL A   1      33.834  25.073  24.706  1.00  0.00     0.262 C 
ATOM     20  C   UNL A   1      32.285  25.152  22.809  1.00  0.00     0.262 C 
ATOM     21  H   UNL A   1      33.616  26.494  23.285  1.00  0.00     0.348 HD
ATOM     22  C   UNL A   1      34.769  24.181  23.889  1.00  0.00     0.062 C 
ATOM     23  C   UNL A   1      33.188  24.239  21.983  1.00  0.00     0.062 C 
ATOM     24  C   UNL A   1      33.987  23.329  22.901  1.00  0.00     0.012 C 
ENDBRANCH  11  18
ENDBRANCH  10  11
ENDBRANCH   8  10
ENDBRANCH   7   8
ENDBRANCH   6   7
ENDBRANCH   5   6
ENDBRANCH   4   5
ENDBRANCH   3   4
ENDBRANCH   2   3
ENDBRANCH   1   2
BRANCH   1  25
ATOM     25  C   UNL A   1      33.512  35.618  29.490  1.00  0.00     0.188 C 
BRANCH  25  26
ATOM     26  C   UNL A   1      33.297  36.156  30.928  1.00  0.00     0.188 C 
BRANCH  26  27
ATOM     27  O   UNL A   1      33.572  35.371  32.082  1.00  0.00    -0.376 OA
BRANCH  27  28
ATOM     28  C   UNL A   1      34.822  35.502  32.731  1.00  0.00     0.202 C 
BRANCH  28  29
ATOM     29  C   UNL A   1      35.973  34.642  32.187  1.00  0.00     0.261 C 
BRANCH  29  30
ATOM     30  O   UNL A   1      36.011  33.292  32.685  1.00  0.00    -0.460 OA
BRANCH  30  31
ATOM     31  C   UNL A   1      35.415  32.345  31.918  1.00  0.00     0.338 C 
ATOM     32  O   UNL A   1      34.233  32.282  31.616  1.00  0.00    -0.246 OA
BRANCH  31  33
ATOM     33  C   UNL A   1      36.455  31.474  31.301  1.00  0.00     0.060 A 
ATOM     34  C   UNL A   1      37.175  30.603  32.136  1.00  0.00     0.016 A 
ATOM     35  C   UNL A   1      36.692  31.463  29.924  1.00  0.00     0.016 A 
ATOM     36  C   UNL A   1      38.151  29.750  31.612  1.00  0.00     0.010 A 
ATOM     37  C   UNL A   1      37.691  30.633  29.400  1.00  0.00     0.010 A 
ATOM     38  C   UNL A   1      38.454  29.806  30.246  1.00  0.00    -0.014 A 
BRANCH  38  39
ATOM     39  C   UNL A   1      39.750  29.270  29.752  1.00  0.00     0.031 A 
ATOM     40  C   UNL A   1      40.895  30.242  29.655  1.00  0.00     0.074 A 
ATOM     41  C   UNL A   1      39.919  27.993  29.371  1.00  0.00     0.049 A 
ATOM     42  N   UNL A   1      42.075  30.096  29.113  1.00  0.00    -0.248 NA
ATOM     43  C   UNL A   1      40.661  31.572  30.242  1.00  0.00     0.031 C 
ATOM     44  C   UNL A   1      38.917  26.938  29.465  1.00  0.00     0.029 A 
ATOM     45  N   UNL A   1      41.007  27.378  28.795  1.00  0.00    -0.354 N 
ATOM     46  C   UNL A   1      42.710  31.323  29.267  1.00  0.00     0.074 A 
ATOM     47  C   UNL A   1      41.781  32.204  29.939  1.00  0.00     0.031 C 
ATOM     48  C   UNL A   1      39.421  25.812  28.926  1.00  0.00     0.029 A 
ATOM     49  C   UNL A   1      40.766  26.082  28.413  1.00  0.00     0.049 A 
ATOM     50  H   UNL A   1      41.875  27.826  28.669  1.00  0.00     0.167 HD
ATOM     51  C   UNL A   1      43.953  31.687  28.879  1.00  0.00     0.037 A 
ATOM     52  C   UNL A   1      41.526  25.231  27.693  1.00  0.00     0.037 A 
ATOM     53  C   UNL A   1      44.874  30.811  28.211  1.00  0.00     0.049 A 
ATOM     54  C   UNL A   1      42.886  25.672  27.207  1.00  0.00     0.074 A 
ATOM     55  C   UNL A   1      46.169  31.073  27.802  1.00  0.00     0.029 A 
ATOM     56  N   UNL A   1      44.589  29.506  27.838  1.00  0.00    -0.354 N 
ATOM     57  N   UNL A   1      43.492  26.824  27.374  1.00  0.00    -0.248 NA
ATOM     58  C   UNL A   1      43.668  24.699  26.429  1.00  0.00     0.031 C 
ATOM     59  C   UNL A   1      46.647  29.945  27.127  1.00  0.00     0.029 A 
ATOM     60  C   UNL A   1      45.673  28.959  27.173  1.00  0.00     0.049 A 
ATOM     61  H   UNL A   1      43.742  29.039  28.019  1.00  0.00     0.167 HD
ATOM     62  C   UNL A   1      44.729  26.704  26.750  1.00  0.00     0.074 A 
ATOM     63  C   UNL A   1      44.792  25.366  26.202  1.00  0.00     0.031 C 
ATOM     64  C   UNL A   1      45.725  27.619  26.644  1.00  0.00     0.037 A 
BRANCH  51  65
ATOM     65  C   UNL A   1      44.358  33.110  29.124  1.00  0.00     0.064 A 
ATOM     66  C   UNL A   1      44.196  34.108  28.152  1.00  0.00     0.173 A 
ATOM     67  C   UNL A   1      44.933  33.475  30.351  1.00  0.00     0.173 A 
ATOM     68  F   UNL A   1      43.672  33.806  26.954  1.00  0.00    -0.203 F 
ATOM     69  C   UNL A   1      44.629  35.411  28.385  1.00  0.00     0.198 A 
ATOM     70  C   UNL A   1      45.332  34.785  30.593  1.00  0.00     0.198 A 
ATOM     71  F   UNL A   1      45.111  32.559  31.314  1.00  0.00    -0.203 F 
ATOM     72  F   UNL A   1      44.525  36.333  27.418  1.00  0.00    -0.200 F 
ATOM     73  C   UNL A   1      45.192  35.749  29.607  1.00  0.00     0.200 A 
ATOM     74  F   UNL A   1      45.866  35.113  31.778  1.00  0.00    -0.200 F 
ATOM     75  F   UNL A   1      45.610  37.003  29.828  1.00  0.00    -0.200 F 
ENDBRANCH  51  65
BRANCH  52  76
ATOM     76  C   UNL A   1      40.999  23.882  27.348  1.00  0.00     0.064 A 
ATOM     77  C   UNL A   1      39.907  23.726  26.483  1.00  0.00     0.173 A 
ATOM     78  C   UNL A   1      41.576  22.721  27.884  1.00  0.00     0.173 A 
ATOM     79  F   UNL A   1      39.301  24.806  25.969  1.00  0.00    -0.203 F 
ATOM     80  C   UNL A   1      39.410  22.461  26.172  1.00  0.00     0.198 A 
ATOM     81  C   UNL A   1      41.095  21.456  27.551  1.00  0.00     0.198 A 
ATOM     82  F   UNL A   1      42.618  22.815  28.724  1.00  0.00    -0.203 F 
ATOM     83  F   UNL A   1      38.343  22.342  25.370  1.00  0.00    -0.200 F 
ATOM     84  C   UNL A   1      40.009  21.326  26.699  1.00  0.00     0.200 A 
ATOM     85  F   UNL A   1      41.685  20.363  28.055  1.00  0.00    -0.200 F 
ATOM     86  F   UNL A   1      39.538  20.111  26.391  1.00  0.00    -0.200 F 
ENDBRANCH  52  76
BRANCH  64  87
ATOM     87  C   UNL A   1      46.992  27.206  25.953  1.00  0.00     0.064 A 
ATOM     88  C   UNL A   1      47.216  27.478  24.596  1.00  0.00     0.173 A 
ATOM     89  C   UNL A   1      48.035  26.616  26.685  1.00  0.00     0.173 A 
ATOM     90  F   UNL A   1      46.248  28.031  23.849  1.00  0.00    -0.203 F 
ATOM     91  C   UNL A   1      48.434  27.166  23.996  1.00  0.00     0.198 A 
ATOM     92  C   UNL A   1      49.260  26.332  26.090  1.00  0.00     0.198 A 
ATOM     93  F   UNL A   1      47.875  26.345  27.989  1.00  0.00    -0.203 F 
ATOM     94  F   UNL A   1      48.616  27.409  22.691  1.00  0.00    -0.200 F 
ATOM     95  C   UNL A   1      49.458  26.605  24.745  1.00  0.00     0.200 A 
ATOM     96  F   UNL A   1      50.254  25.808  26.820  1.00  0.00    -0.200 F 
ATOM     97  F   UNL A   1      50.636  26.326  24.169  1.00  0.00    -0.200 F 
ENDBRANCH  64  87
ENDBRANCH  38  39
ENDBRANCH  31  33
ENDBRANCH  30  31
ENDBRANCH  29  30
ENDBRANCH  28  29
ENDBRANCH  27  28
ENDBRANCH  26  27
ENDBRANCH  25  26
ENDBRANCH   1  25
TORSDOF 23
ENDMDL
MODEL 2
REMARK VINA RESULT:     -10.2      4.666      9.479
REMARK SMILES O=C(C[C@@H](c1ccccc1)[NH+]1CCCCC1)OCCOCCOCCOCCOC(=O)c1ccc(-c2c3nc(c(-c4c(F)c(F)c(F)c(F)c4F)c4ccc([nH]4)c(-c4c(F)c(F)c(F)c(F)c4F)c4nc(c(-c5c(F)c(F)c(F)c(F)c5F)c5ccc2[nH]5)C=C4)C=C3)cc1
REMARK SMILES IDX 23 1 22 2 21 3 20 4 19 5 18 6 17 7 2 8 1 9 3 10 4 11 5 12
REMARK SMILES IDX 6 13 10 14 7 15 9 16 8 17 11 18 12 19 16 20 13 22 15 23
REMARK SMILES IDX 14 24 24 25 25 26 26 27 27 28 28 29 29 30 30 31 31 32 32 33
REMARK SMILES IDX 33 34 94 35 34 36 93 37 35 38 36 39 37 40 87 41 38 42 92 43
REMARK SMILES IDX 86 44 88 45 39 46 91 47 85 48 84 49 40 51 72 52 52 53 71 54
REMARK SMILES IDX 53 55 56 56 70 57 89 58 54 59 55 60 69 62 90 63 57 64 41 65
REMARK SMILES IDX 42 66 50 67 43 68 44 69 48 70 51 71 45 72 46 73 49 74 47 75
REMARK SMILES IDX 73 76 74 77 82 78 75 79 76 80 80 81 83 82 77 83 78 84 81 85
REMARK SMILES IDX 79 86 58 87 59 88 67 89 60 90 61 91 65 92 68 93 62 94 63 95
REMARK SMILES IDX 66 96 64 97
REMARK H PARENT 11 21 88 50 56 61
REMARK Flexibility Score: inf
ROOT
ATOM      1  O   UNL A   1      33.726  26.838  26.371  1.00  0.00    -0.377 OA
ENDROOT
BRANCH   1   2
ATOM      2  C   UNL A   1      33.897  25.825  25.393  1.00  0.00     0.188 C 
BRANCH   2   3
ATOM      3  C   UNL A   1      34.147  24.458  26.005  1.00  0.00     0.188 C 
BRANCH   3   4
ATOM      4  O   UNL A   1      33.007  23.764  26.495  1.00  0.00    -0.376 OA
BRANCH   4   5
ATOM      5  C   UNL A   1      31.921  23.414  25.655  1.00  0.00     0.202 C 
BRANCH   5   6
ATOM      6  C   UNL A   1      30.651  24.252  25.640  1.00  0.00     0.261 C 
BRANCH   6   7
ATOM      7  O   UNL A   1      30.489  25.098  24.507  1.00  0.00    -0.463 OA
BRANCH   7   8
ATOM      8  C   UNL A   1      30.201  26.399  24.758  1.00  0.00     0.312 C 
ATOM      9  O   UNL A   1      30.650  26.962  25.750  1.00  0.00    -0.252 OA
BRANCH   8  10
ATOM     10  C   UNL A   1      29.135  27.009  23.882  1.00  0.00     0.192 C 
BRANCH  10  11
ATOM     11  C   UNL A   1      29.704  27.828  22.727  1.00  0.00     0.226 C 
BRANCH  11  12
ATOM     12  C   UNL A   1      29.091  29.231  22.593  1.00  0.00     0.010 A 
ATOM     13  C   UNL A   1      28.205  29.701  23.574  1.00  0.00     0.010 A 
ATOM     14  C   UNL A   1      29.398  30.113  21.539  1.00  0.00     0.010 A 
ATOM     15  C   UNL A   1      27.655  30.987  23.500  1.00  0.00     0.001 A 
ATOM     16  C   UNL A   1      28.850  31.397  21.457  1.00  0.00     0.001 A 
ATOM     17  C   UNL A   1      27.978  31.836  22.443  1.00  0.00     0.000 A 
ENDBRANCH  11  12
BRANCH  11  18
ATOM     18  N   UNL A   1      31.188  27.761  22.837  1.00  0.00    -0.328 N 
ATOM     19  C   UNL A   1      31.771  26.919  21.796  1.00  0.00     0.262 C 
ATOM     20  C   UNL A   1      31.890  29.035  23.025  1.00  0.00     0.262 C 
ATOM     21  H   UNL A   1      31.348  27.303  23.735  1.00  0.00     0.348 HD
ATOM     22  C   UNL A   1      33.274  26.730  22.002  1.00  0.00     0.062 C 
ATOM     23  C   UNL A   1      33.396  28.884  23.220  1.00  0.00     0.062 C 
ATOM     24  C   UNL A   1      33.988  28.071  22.080  1.00  0.00     0.012 C 
ENDBRANCH  11  18
ENDBRANCH  10  11
ENDBRANCH   8  10
ENDBRANCH   7   8
ENDBRANCH   6   7
ENDBRANCH   5   6
ENDBRANCH   4   5
ENDBRANCH   3   4
ENDBRANCH   2   3
ENDBRANCH   1   2
BRANCH   1  25
ATOM     25  C   UNL A   1      34.402  28.058  26.123  1.00  0.00     0.188 C 
BRANCH  25  26
ATOM     26  C   UNL A   1      34.697  28.961  27.348  1.00  0.00     0.188 C 
BRANCH  26  27
ATOM     27  O   UNL A   1      34.088  30.234  27.518  1.00  0.00    -0.376 OA
BRANCH  27  28
ATOM     28  C   UNL A   1      32.707  30.387  27.251  1.00  0.00     0.202 C 
BRANCH  28  29
ATOM     29  C   UNL A   1      32.226  31.804  26.901  1.00  0.00     0.261 C 
BRANCH  29  30
ATOM     30  O   UNL A   1      33.253  32.813  26.905  1.00  0.00    -0.460 OA
BRANCH  30  31
ATOM     31  C   UNL A   1      33.167  33.764  27.869  1.00  0.00     0.338 C 
ATOM     32  O   UNL A   1      32.261  34.565  28.031  1.00  0.00    -0.246 OA
BRANCH  31  33
ATOM     33  C   UNL A   1      34.260  33.567  28.863  1.00  0.00     0.060 A 
ATOM     34  C   UNL A   1      35.504  34.170  28.614  1.00  0.00     0.016 A 
ATOM     35  C   UNL A   1      34.065  32.852  30.048  1.00  0.00     0.016 A 
ATOM     36  C   UNL A   1      36.561  34.034  29.519  1.00  0.00     0.010 A 
ATOM     37  C   UNL A   1      35.131  32.687  30.942  1.00  0.00     0.010 A 
ATOM     38  C   UNL A   1      36.394  33.240  30.660  1.00  0.00    -0.014 A 
BRANCH  38  39
ATOM     39  C   UNL A   1      37.586  32.717  31.379  1.00  0.00     0.031 A 
ATOM     40  C   UNL A   1      38.312  31.563  30.741  1.00  0.00     0.074 A 
ATOM     41  C   UNL A   1      38.004  33.204  32.559  1.00  0.00     0.049 A 
ATOM     42  N   UNL A   1      39.270  30.810  31.214  1.00  0.00    -0.248 NA
ATOM     43  C   UNL A   1      37.880  31.206  29.379  1.00  0.00     0.031 C 
ATOM     44  C   UNL A   1      37.431  34.348  33.258  1.00  0.00     0.029 A 
ATOM     45  N   UNL A   1      39.006  32.763  33.393  1.00  0.00    -0.354 N 
ATOM     46  C   UNL A   1      39.531  29.873  30.222  1.00  0.00     0.074 A 
ATOM     47  C   UNL A   1      38.624  30.143  29.129  1.00  0.00     0.031 C 
ATOM     48  C   UNL A   1      38.063  34.497  34.438  1.00  0.00     0.029 A 
ATOM     49  C   UNL A   1      39.056  33.431  34.591  1.00  0.00     0.049 A 
ATOM     50  H   UNL A   1      39.626  32.036  33.154  1.00  0.00     0.167 HD
ATOM     51  C   UNL A   1      40.440  28.872  30.222  1.00  0.00     0.037 A 
ATOM     52  C   UNL A   1      39.787  33.181  35.698  1.00  0.00     0.037 A 
ATOM     53  C   UNL A   1      41.340  28.605  31.309  1.00  0.00     0.049 A 
ATOM     54  C   UNL A   1      40.752  32.019  35.709  1.00  0.00     0.074 A 
ATOM     55  C   UNL A   1      42.321  27.634  31.396  1.00  0.00     0.029 A 
ATOM     56  N   UNL A   1      41.356  29.303  32.506  1.00  0.00    -0.354 N 
ATOM     57  N   UNL A   1      41.013  31.149  34.762  1.00  0.00    -0.248 NA
ATOM     58  C   UNL A   1      41.521  31.799  36.944  1.00  0.00     0.031 C 
ATOM     59  C   UNL A   1      42.890  27.706  32.671  1.00  0.00     0.029 A 
ATOM     60  C   UNL A   1      42.308  28.763  33.354  1.00  0.00     0.049 A 
ATOM     61  H   UNL A   1      40.776  30.069  32.722  1.00  0.00     0.167 HD
ATOM     62  C   UNL A   1      41.990  30.302  35.273  1.00  0.00     0.074 A 
ATOM     63  C   UNL A   1      42.280  30.763  36.614  1.00  0.00     0.031 C 
ATOM     64  C   UNL A   1      42.594  29.241  34.683  1.00  0.00     0.037 A 
BRANCH  51  65
ATOM     65  C   UNL A   1      40.461  27.966  29.027  1.00  0.00     0.064 A 
ATOM     66  C   UNL A   1      41.245  28.242  27.897  1.00  0.00     0.173 A 
ATOM     67  C   UNL A   1      39.670  26.807  29.011  1.00  0.00     0.173 A 
ATOM     68  F   UNL A   1      42.003  29.349  27.854  1.00  0.00    -0.203 F 
ATOM     69  C   UNL A   1      41.207  27.412  26.780  1.00  0.00     0.198 A 
ATOM     70  C   UNL A   1      39.661  25.961  27.906  1.00  0.00     0.198 A 
ATOM     71  F   UNL A   1      38.901  26.498  30.065  1.00  0.00    -0.203 F 
ATOM     72  F   UNL A   1      41.913  27.730  25.686  1.00  0.00    -0.200 F 
ATOM     73  C   UNL A   1      40.419  26.270  26.787  1.00  0.00     0.200 A 
ATOM     74  F   UNL A   1      38.907  24.854  27.919  1.00  0.00    -0.200 F 
ATOM     75  F   UNL A   1      40.382  25.474  25.710  1.00  0.00    -0.200 F 
ENDBRANCH  51  65
BRANCH  52  76
ATOM     76  C   UNL A   1      39.604  34.026  36.909  1.00  0.00     0.064 A 
ATOM     77  C   UNL A   1      40.251  35.262  37.040  1.00  0.00     0.173 A 
ATOM     78  C   UNL A   1      38.780  33.607  37.966  1.00  0.00     0.173 A 
ATOM     79  F   UNL A   1      41.074  35.693  36.073  1.00  0.00    -0.203 F 
ATOM     80  C   UNL A   1      40.086  36.045  38.182  1.00  0.00     0.198 A 
ATOM     81  C   UNL A   1      38.594  34.403  39.094  1.00  0.00     0.198 A 
ATOM     82  F   UNL A   1      38.145  32.428  37.895  1.00  0.00    -0.203 F 
ATOM     83  F   UNL A   1      40.744  37.207  38.297  1.00  0.00    -0.200 F 
ATOM     84  C   UNL A   1      39.251  35.619  39.205  1.00  0.00     0.200 A 
ATOM     85  F   UNL A   1      37.778  33.991  40.074  1.00  0.00    -0.200 F 
ATOM     86  F   UNL A   1      39.083  36.377  40.296  1.00  0.00    -0.200 F 
ENDBRANCH  52  76
BRANCH  64  87
ATOM     87  C   UNL A   1      43.666  28.522  35.451  1.00  0.00     0.064 A 
ATOM     88  C   UNL A   1      43.371  27.447  36.300  1.00  0.00     0.173 A 
ATOM     89  C   UNL A   1      45.016  28.855  35.258  1.00  0.00     0.173 A 
ATOM     90  F   UNL A   1      42.096  27.095  36.528  1.00  0.00    -0.203 F 
ATOM     91  C   UNL A   1      44.388  26.737  36.935  1.00  0.00     0.198 A 
ATOM     92  C   UNL A   1      46.031  28.127  35.870  1.00  0.00     0.198 A 
ATOM     93  F   UNL A   1      45.352  29.870  34.447  1.00  0.00    -0.203 F 
ATOM     94  F   UNL A   1      44.083  25.731  37.765  1.00  0.00    -0.200 F 
ATOM     95  C   UNL A   1      45.716  27.070  36.711  1.00  0.00     0.200 A 
ATOM     96  F   UNL A   1      47.313  28.438  35.637  1.00  0.00    -0.200 F 
ATOM     97  F   UNL A   1      46.693  26.371  37.306  1.00  0.00    -0.200 F 
ENDBRANCH  64  87
ENDBRANCH  38  39
ENDBRANCH  31  33
ENDBRANCH  30  31
ENDBRANCH  29  30
ENDBRANCH  28  29
ENDBRANCH  27  28
ENDBRANCH  26  27
ENDBRANCH  25  26
ENDBRANCH   1  25
TORSDOF 23
ENDMDL
MODEL 3
REMARK VINA RESULT:     -10.2      4.435      8.841
REMARK SMILES O=C(C[C@@H](c1ccccc1)[NH+]1CCCCC1)OCCOCCOCCOCCOC(=O)c1ccc(-c2c3nc(c(-c4c(F)c(F)c(F)c(F)c4F)c4ccc([nH]4)c(-c4c(F)c(F)c(F)c(F)c4F)c4nc(c(-c5c(F)c(F)c(F)c(F)c5F)c5ccc2[nH]5)C=C4)C=C3)cc1
REMARK SMILES IDX 23 1 22 2 21 3 20 4 19 5 18 6 17 7 2 8 1 9 3 10 4 11 5 12
REMARK SMILES IDX 6 13 10 14 7 15 9 16 8 17 11 18 12 19 16 20 13 22 15 23
REMARK SMILES IDX 14 24 24 25 25 26 26 27 27 28 28 29 29 30 30 31 31 32 32 33
REMARK SMILES IDX 33 34 94 35 34 36 93 37 35 38 36 39 37 40 87 41 38 42 92 43
REMARK SMILES IDX 86 44 88 45 39 46 91 47 85 48 84 49 40 51 72 52 52 53 71 54
REMARK SMILES IDX 53 55 56 56 70 57 89 58 54 59 55 60 69 62 90 63 57 64 41 65
REMARK SMILES IDX 42 66 50 67 43 68 44 69 48 70 51 71 45 72 46 73 49 74 47 75
REMARK SMILES IDX 73 76 74 77 82 78 75 79 76 80 80 81 83 82 77 83 78 84 81 85
REMARK SMILES IDX 79 86 58 87 59 88 67 89 60 90 61 91 65 92 68 93 62 94 63 95
REMARK SMILES IDX 66 96 64 97
REMARK H PARENT 11 21 88 50 56 61
REMARK Flexibility Score: inf
ROOT
ATOM      1  O   UNL A   1      33.804  26.538  26.451  1.00  0.00    -0.377 OA
ENDROOT
BRANCH   1   2
ATOM      2  C   UNL A   1      33.957  25.573  25.423  1.00  0.00     0.188 C 
BRANCH   2   3
ATOM      3  C   UNL A   1      34.048  24.155  25.961  1.00  0.00     0.188 C 
BRANCH   3   4
ATOM      4  O   UNL A   1      32.846  23.397  25.958  1.00  0.00    -0.376 OA
BRANCH   4   5
ATOM      5  C   UNL A   1      32.054  23.247  24.793  1.00  0.00     0.202 C 
BRANCH   5   6
ATOM      6  C   UNL A   1      30.652  23.836  24.726  1.00  0.00     0.261 C 
BRANCH   6   7
ATOM      7  O   UNL A   1      30.529  25.038  23.975  1.00  0.00    -0.463 OA
BRANCH   7   8
ATOM      8  C   UNL A   1      30.175  26.150  24.667  1.00  0.00     0.312 C 
ATOM      9  O   UNL A   1      30.546  26.316  25.823  1.00  0.00    -0.252 OA
BRANCH   8  10
ATOM     10  C   UNL A   1      29.135  27.021  24.007  1.00  0.00     0.192 C 
BRANCH  10  11
ATOM     11  C   UNL A   1      29.674  27.795  22.807  1.00  0.00     0.226 C 
BRANCH  11  12
ATOM     12  C   UNL A   1      29.047  29.186  22.626  1.00  0.00     0.010 A 
ATOM     13  C   UNL A   1      28.039  29.615  23.502  1.00  0.00     0.010 A 
ATOM     14  C   UNL A   1      29.455  30.097  21.633  1.00  0.00     0.010 A 
ATOM     15  C   UNL A   1      27.471  30.891  23.387  1.00  0.00     0.001 A 
ATOM     16  C   UNL A   1      28.889  31.369  21.509  1.00  0.00     0.001 A 
ATOM     17  C   UNL A   1      27.896  31.768  22.392  1.00  0.00     0.000 A 
ENDBRANCH  11  12
BRANCH  11  18
ATOM     18  N   UNL A   1      31.160  27.743  22.889  1.00  0.00    -0.328 N 
ATOM     19  C   UNL A   1      31.738  26.981  21.786  1.00  0.00     0.262 C 
ATOM     20  C   UNL A   1      31.847  29.013  23.151  1.00  0.00     0.262 C 
ATOM     21  H   UNL A   1      31.341  27.229  23.752  1.00  0.00     0.348 HD
ATOM     22  C   UNL A   1      33.246  26.801  21.954  1.00  0.00     0.062 C 
ATOM     23  C   UNL A   1      33.358  28.872  23.312  1.00  0.00     0.062 C 
ATOM     24  C   UNL A   1      33.943  28.145  22.111  1.00  0.00     0.012 C 
ENDBRANCH  11  18
ENDBRANCH  10  11
ENDBRANCH   8  10
ENDBRANCH   7   8
ENDBRANCH   6   7
ENDBRANCH   5   6
ENDBRANCH   4   5
ENDBRANCH   3   4
ENDBRANCH   2   3
ENDBRANCH   1   2
BRANCH   1  25
ATOM     25  C   UNL A   1      34.010  27.887  26.070  1.00  0.00     0.188 C 
BRANCH  25  26
ATOM     26  C   UNL A   1      33.431  28.979  27.005  1.00  0.00     0.188 C 
BRANCH  26  27
ATOM     27  O   UNL A   1      33.189  30.308  26.563  1.00  0.00    -0.376 OA
BRANCH  27  28
ATOM     28  C   UNL A   1      31.878  30.835  26.621  1.00  0.00     0.202 C 
BRANCH  28  29
ATOM     29  C   UNL A   1      31.752  32.344  26.878  1.00  0.00     0.261 C 
BRANCH  29  30
ATOM     30  O   UNL A   1      32.995  33.069  26.861  1.00  0.00    -0.460 OA
BRANCH  30  31
ATOM     31  C   UNL A   1      33.391  33.626  28.033  1.00  0.00     0.338 C 
ATOM     32  O   UNL A   1      32.758  34.409  28.724  1.00  0.00    -0.246 OA
BRANCH  31  33
ATOM     33  C   UNL A   1      34.654  32.981  28.491  1.00  0.00     0.060 A 
ATOM     34  C   UNL A   1      34.570  31.734  29.134  1.00  0.00     0.016 A 
ATOM     35  C   UNL A   1      35.907  33.552  28.254  1.00  0.00     0.016 A 
ATOM     36  C   UNL A   1      35.723  31.074  29.572  1.00  0.00     0.010 A 
ATOM     37  C   UNL A   1      37.061  32.909  28.719  1.00  0.00     0.010 A 
ATOM     38  C   UNL A   1      36.970  31.690  29.417  1.00  0.00    -0.014 A 
BRANCH  38  39
ATOM     39  C   UNL A   1      38.122  31.249  30.247  1.00  0.00     0.031 A 
ATOM     40  C   UNL A   1      39.047  30.228  29.639  1.00  0.00     0.074 A 
ATOM     41  C   UNL A   1      38.340  31.693  31.496  1.00  0.00     0.049 A 
ATOM     42  N   UNL A   1      40.023  29.552  30.184  1.00  0.00    -0.248 NA
ATOM     43  C   UNL A   1      38.821  29.923  28.217  1.00  0.00     0.031 C 
ATOM     44  C   UNL A   1      37.561  32.716  32.183  1.00  0.00     0.029 A 
ATOM     45  N   UNL A   1      39.282  31.305  32.422  1.00  0.00    -0.354 N 
ATOM     46  C   UNL A   1      40.505  28.721  29.180  1.00  0.00     0.074 A 
ATOM     47  C   UNL A   1      39.708  28.967  28.000  1.00  0.00     0.031 C 
ATOM     48  C   UNL A   1      38.029  32.848  33.439  1.00  0.00     0.029 A 
ATOM     49  C   UNL A   1      39.114  31.888  33.653  1.00  0.00     0.049 A 
ATOM     50  H   UNL A   1      40.006  30.669  32.220  1.00  0.00     0.167 HD
ATOM     51  C   UNL A   1      41.519  27.827  29.236  1.00  0.00     0.037 A 
ATOM     52  C   UNL A   1      39.735  31.641  34.826  1.00  0.00     0.037 A 
ATOM     53  C   UNL A   1      42.310  27.582  30.409  1.00  0.00     0.049 A 
ATOM     54  C   UNL A   1      40.819  30.592  34.890  1.00  0.00     0.074 A 
ATOM     55  C   UNL A   1      43.380  26.719  30.562  1.00  0.00     0.029 A 
ATOM     56  N   UNL A   1      42.105  28.192  31.637  1.00  0.00    -0.354 N 
ATOM     57  N   UNL A   1      41.288  29.825  33.935  1.00  0.00    -0.248 NA
ATOM     58  C   UNL A   1      41.459  30.370  36.196  1.00  0.00     0.031 C 
ATOM     59  C   UNL A   1      43.783  26.761  31.900  1.00  0.00     0.029 A 
ATOM     60  C   UNL A   1      43.007  27.699  32.564  1.00  0.00     0.049 A 
ATOM     61  H   UNL A   1      41.419  28.873  31.823  1.00  0.00     0.167 HD
ATOM     62  C   UNL A   1      42.291  29.055  34.514  1.00  0.00     0.074 A 
ATOM     63  C   UNL A   1      42.367  29.448  35.905  1.00  0.00     0.031 C 
ATOM     64  C   UNL A   1      43.079  28.110  33.944  1.00  0.00     0.037 A 
BRANCH  51  65
ATOM     65  C   UNL A   1      41.784  27.015  28.003  1.00  0.00     0.064 A 
ATOM     66  C   UNL A   1      41.147  25.788  27.768  1.00  0.00     0.173 A 
ATOM     67  C   UNL A   1      42.706  27.469  27.048  1.00  0.00     0.173 A 
ATOM     68  F   UNL A   1      40.273  25.298  28.662  1.00  0.00    -0.203 F 
ATOM     69  C   UNL A   1      41.450  25.027  26.642  1.00  0.00     0.198 A 
ATOM     70  C   UNL A   1      42.982  26.723  25.906  1.00  0.00     0.198 A 
ATOM     71  F   UNL A   1      43.345  28.635  27.225  1.00  0.00    -0.203 F 
ATOM     72  F   UNL A   1      40.878  23.827  26.471  1.00  0.00    -0.200 F 
ATOM     73  C   UNL A   1      42.363  25.498  25.710  1.00  0.00     0.200 A 
ATOM     74  F   UNL A   1      43.856  27.185  25.002  1.00  0.00    -0.200 F 
ATOM     75  F   UNL A   1      42.656  24.764  24.627  1.00  0.00    -0.200 F 
ENDBRANCH  51  65
BRANCH  52  76
ATOM     76  C   UNL A   1      39.314  32.373  36.051  1.00  0.00     0.064 A 
ATOM     77  C   UNL A   1      38.355  31.842  36.925  1.00  0.00     0.173 A 
ATOM     78  C   UNL A   1      39.862  33.626  36.370  1.00  0.00     0.173 A 
ATOM     79  F   UNL A   1      37.779  30.663  36.649  1.00  0.00    -0.203 F 
ATOM     80  C   UNL A   1      37.956  32.536  38.066  1.00  0.00     0.198 A 
ATOM     81  C   UNL A   1      39.482  34.306  37.525  1.00  0.00     0.198 A 
ATOM     82  F   UNL A   1      40.777  34.183  35.563  1.00  0.00    -0.203 F 
ATOM     83  F   UNL A   1      37.012  32.022  38.865  1.00  0.00    -0.200 F 
ATOM     84  C   UNL A   1      38.526  33.765  38.370  1.00  0.00     0.200 A 
ATOM     85  F   UNL A   1      40.044  35.488  37.819  1.00  0.00    -0.200 F 
ATOM     86  F   UNL A   1      38.151  34.426  39.472  1.00  0.00    -0.200 F 
ENDBRANCH  52  76
BRANCH  64  87
ATOM     87  C   UNL A   1      44.130  27.458  34.797  1.00  0.00     0.064 A 
ATOM     88  C   UNL A   1      43.903  26.235  35.442  1.00  0.00     0.173 A 
ATOM     89  C   UNL A   1      45.412  28.022  34.889  1.00  0.00     0.173 A 
ATOM     90  F   UNL A   1      42.692  25.660  35.394  1.00  0.00    -0.203 F 
ATOM     91  C   UNL A   1      44.920  25.604  36.156  1.00  0.00     0.198 A 
ATOM     92  C   UNL A   1      46.433  27.376  35.578  1.00  0.00     0.198 A 
ATOM     93  F   UNL A   1      45.684  29.187  34.281  1.00  0.00    -0.203 F 
ATOM     94  F   UNL A   1      44.674  24.449  36.789  1.00  0.00    -0.200 F 
ATOM     95  C   UNL A   1      46.186  26.169  36.214  1.00  0.00     0.200 A 
ATOM     96  F   UNL A   1      47.660  27.914  35.617  1.00  0.00    -0.200 F 
ATOM     97  F   UNL A   1      47.167  25.548  36.883  1.00  0.00    -0.200 F 
ENDBRANCH  64  87
ENDBRANCH  38  39
ENDBRANCH  31  33
ENDBRANCH  30  31
ENDBRANCH  29  30
ENDBRANCH  28  29
ENDBRANCH  27  28
ENDBRANCH  26  27
ENDBRANCH  25  26
ENDBRANCH   1  25
TORSDOF 23
ENDMDL
