MODEL 1
REMARK VINA RESULT:     -11.6      0.000      0.000
REMARK SMILES Cc1[nH]c2ccccc2c1[C@H](C(=O)OCCOCCOCCOCCOC(=O)c1ccc(-c2c3nc(c(-c4c(F)c(F)c(F)c(F)c4F)c4ccc([nH]4)c(-c4c(F)c(F)c(F)c(F)c4F)c4nc(c(-c5c(F)c(F)c(F)c(F)c5F)c5ccc2[nH]5)C=C4)C=C3)cc1)[NH+]1CCN(C(=O)c2ccco2)CC1
REMARK SMILES IDX 20 1 19 2 18 3 17 4 16 5 15 6 14 7 12 8 13 9 11 10 10 11
REMARK SMILES IDX 1 12 2 13 3 14 4 15 9 17 5 18 8 19 6 20 7 21 92 22 93 23
REMARK SMILES IDX 104 24 94 26 103 27 95 28 96 29 97 30 98 31 99 32 102 33
REMARK SMILES IDX 100 34 101 35 21 36 22 37 23 38 24 39 25 40 26 41 27 42
REMARK SMILES IDX 28 43 29 44 30 45 91 46 31 47 90 48 32 49 33 50 34 51 84 52
REMARK SMILES IDX 35 53 89 54 83 55 85 56 36 57 88 58 82 59 81 60 37 62 69 63
REMARK SMILES IDX 49 64 68 65 50 66 53 67 67 68 86 69 51 70 52 71 66 73 87 74
REMARK SMILES IDX 54 75 38 76 39 77 47 78 40 79 41 80 45 81 48 82 42 83 43 84
REMARK SMILES IDX 46 85 44 86 70 87 71 88 79 89 72 90 73 91 77 92 80 93 74 94
REMARK SMILES IDX 75 95 78 96 76 97 55 98 56 99 64 100 57 101 58 102 62 103
REMARK SMILES IDX 65 104 59 105 60 106 63 107 61 108
REMARK H PARENT 3 16 92 25 85 61 53 72
REMARK Flexibility Score: inf
ROOT
ATOM      1  O   UNL A   1      34.740  31.173  28.918  1.00  0.00    -0.377 OA
ENDROOT
BRANCH   1   2
ATOM      2  C   UNL A   1      35.353  30.389  27.910  1.00  0.00     0.188 C 
BRANCH   2   3
ATOM      3  C   UNL A   1      34.527  29.622  26.876  1.00  0.00     0.188 C 
BRANCH   3   4
ATOM      4  O   UNL A   1      33.641  28.561  27.227  1.00  0.00    -0.376 OA
BRANCH   4   5
ATOM      5  C   UNL A   1      32.236  28.730  27.273  1.00  0.00     0.202 C 
BRANCH   5   6
ATOM      6  C   UNL A   1      31.407  27.592  26.709  1.00  0.00     0.261 C 
BRANCH   6   7
ATOM      7  O   UNL A   1      32.254  26.494  26.311  1.00  0.00    -0.459 OA
BRANCH   7   8
ATOM      8  C   UNL A   1      31.705  25.640  25.416  1.00  0.00     0.370 C 
ATOM      9  O   UNL A   1      31.052  24.647  25.730  1.00  0.00    -0.245 OA
BRANCH   8  10
ATOM     10  C   UNL A   1      32.097  25.891  23.971  1.00  0.00     0.328 C 
BRANCH  10  11
ATOM     11  C   UNL A   1      31.758  27.239  23.291  1.00  0.00     0.049 A 
ATOM     12  C   UNL A   1      34.027  28.528  22.736  1.00  0.00     0.065 C 
ATOM     13  C   UNL A   1      32.569  28.289  22.838  1.00  0.00     0.022 A 
ATOM     14  N   UNL A   1      31.765  29.328  22.442  1.00  0.00    -0.358 N 
ATOM     15  C   UNL A   1      30.449  29.036  22.636  1.00  0.00     0.046 A 
ATOM     16  H   UNL A   1      32.096  30.176  22.068  1.00  0.00     0.166 HD
ATOM     17  C   UNL A   1      30.395  27.752  23.172  1.00  0.00     0.009 A 
ATOM     18  C   UNL A   1      29.324  29.831  22.388  1.00  0.00     0.027 A 
ATOM     19  C   UNL A   1      29.116  27.249  23.501  1.00  0.00     0.011 A 
ATOM     20  C   UNL A   1      28.077  29.294  22.699  1.00  0.00     0.002 A 
ATOM     21  C   UNL A   1      27.972  28.022  23.252  1.00  0.00     0.001 A 
ENDBRANCH  10  11
BRANCH  10  22
ATOM     22  N   UNL A   1      33.499  25.443  23.724  1.00  0.00    -0.316 N 
ATOM     23  C   UNL A   1      34.343  25.271  24.910  1.00  0.00     0.285 C 
ATOM     24  C   UNL A   1      33.604  24.243  22.876  1.00  0.00     0.285 C 
ATOM     25  H   UNL A   1      33.873  26.246  23.218  1.00  0.00     0.349 HD
ATOM     26  C   UNL A   1      34.222  23.952  25.695  1.00  0.00     0.181 C 
ATOM     27  C   UNL A   1      33.521  22.840  23.529  1.00  0.00     0.181 C 
ATOM     28  N   UNL A   1      33.870  22.742  24.948  1.00  0.00    -0.325 N 
ATOM     29  C   UNL A   1      33.616  21.587  25.726  1.00  0.00     0.289 C 
ATOM     30  O   UNL A   1      33.571  21.687  26.957  1.00  0.00    -0.265 OA
BRANCH  29  31
ATOM     31  C   UNL A   1      33.437  20.295  25.078  1.00  0.00     0.191 A 
ATOM     32  C   UNL A   1      34.313  19.321  24.626  1.00  0.00     0.056 A 
ATOM     33  O   UNL A   1      32.154  19.812  24.958  1.00  0.00    -0.459 OA
ATOM     34  C   UNL A   1      33.533  18.212  24.211  1.00  0.00     0.043 A 
ATOM     35  C   UNL A   1      32.225  18.565  24.431  1.00  0.00     0.196 A 
ENDBRANCH  29  31
ENDBRANCH  10  22
ENDBRANCH   8  10
ENDBRANCH   7   8
ENDBRANCH   6   7
ENDBRANCH   5   6
ENDBRANCH   4   5
ENDBRANCH   3   4
ENDBRANCH   2   3
ENDBRANCH   1   2
BRANCH   1  36
ATOM     36  C   UNL A   1      34.837  32.578  28.919  1.00  0.00     0.188 C 
BRANCH  36  37
ATOM     37  C   UNL A   1      33.954  33.406  28.000  1.00  0.00     0.188 C 
BRANCH  37  38
ATOM     38  O   UNL A   1      34.383  34.689  27.625  1.00  0.00    -0.376 OA
BRANCH  38  39
ATOM     39  C   UNL A   1      34.201  35.802  28.480  1.00  0.00     0.202 C 
BRANCH  39  40
ATOM     40  C   UNL A   1      32.905  36.137  29.244  1.00  0.00     0.261 C 
BRANCH  40  41
ATOM     41  O   UNL A   1      32.498  35.287  30.329  1.00  0.00    -0.460 OA
BRANCH  41  42
ATOM     42  C   UNL A   1      32.751  35.746  31.578  1.00  0.00     0.338 C 
ATOM     43  O   UNL A   1      32.100  36.578  32.203  1.00  0.00    -0.246 OA
BRANCH  42  44
ATOM     44  C   UNL A   1      33.883  35.012  32.184  1.00  0.00     0.060 A 
ATOM     45  C   UNL A   1      35.179  35.542  32.075  1.00  0.00     0.016 A 
ATOM     46  C   UNL A   1      33.683  33.783  32.812  1.00  0.00     0.016 A 
ATOM     47  C   UNL A   1      36.272  34.862  32.618  1.00  0.00     0.010 A 
ATOM     48  C   UNL A   1      34.786  33.077  33.310  1.00  0.00     0.010 A 
ATOM     49  C   UNL A   1      36.087  33.605  33.208  1.00  0.00    -0.014 A 
BRANCH  49  50
ATOM     50  C   UNL A   1      37.258  32.753  33.541  1.00  0.00     0.031 A 
ATOM     51  C   UNL A   1      37.993  33.023  34.825  1.00  0.00     0.074 A 
ATOM     52  C   UNL A   1      37.679  31.773  32.723  1.00  0.00     0.049 A 
ATOM     53  N   UNL A   1      39.111  32.507  35.271  1.00  0.00    -0.248 NA
ATOM     54  C   UNL A   1      37.384  34.013  35.726  1.00  0.00     0.031 C 
ATOM     55  C   UNL A   1      37.022  31.362  31.484  1.00  0.00     0.029 A 
ATOM     56  N   UNL A   1      38.782  30.956  32.806  1.00  0.00    -0.354 N 
ATOM     57  C   UNL A   1      39.343  33.120  36.496  1.00  0.00     0.074 A 
ATOM     58  C   UNL A   1      38.262  34.056  36.715  1.00  0.00     0.031 C 
ATOM     59  C   UNL A   1      37.752  30.390  30.907  1.00  0.00     0.029 A 
ATOM     60  C   UNL A   1      38.948  30.140  31.713  1.00  0.00     0.049 A 
ATOM     61  H   UNL A   1      39.394  30.954  33.578  1.00  0.00     0.167 HD
ATOM     62  C   UNL A   1      40.367  32.920  37.359  1.00  0.00     0.037 A 
ATOM     63  C   UNL A   1      39.968  29.319  31.385  1.00  0.00     0.037 A 
ATOM     64  C   UNL A   1      41.447  31.995  37.138  1.00  0.00     0.049 A 
ATOM     65  C   UNL A   1      41.152  29.192  32.315  1.00  0.00     0.074 A 
ATOM     66  C   UNL A   1      42.517  31.707  37.967  1.00  0.00     0.029 A 
ATOM     67  N   UNL A   1      41.601  31.219  36.000  1.00  0.00    -0.354 N 
ATOM     68  N   UNL A   1      41.357  29.754  33.482  1.00  0.00    -0.248 NA
ATOM     69  C   UNL A   1      42.254  28.320  31.877  1.00  0.00     0.031 C 
ATOM     70  C   UNL A   1      43.355  30.808  37.301  1.00  0.00     0.029 A 
ATOM     71  C   UNL A   1      42.773  30.484  36.086  1.00  0.00     0.049 A 
ATOM     72  H   UNL A   1      40.972  31.193  35.244  1.00  0.00     0.167 HD
ATOM     73  C   UNL A   1      42.589  29.286  33.926  1.00  0.00     0.074 A 
ATOM     74  C   UNL A   1      43.082  28.381  32.910  1.00  0.00     0.031 C 
ATOM     75  C   UNL A   1      43.254  29.581  35.071  1.00  0.00     0.037 A 
BRANCH  62  76
ATOM     76  C   UNL A   1      40.394  33.752  38.609  1.00  0.00     0.064 A 
ATOM     77  C   UNL A   1      39.659  33.399  39.749  1.00  0.00     0.173 A 
ATOM     78  C   UNL A   1      41.201  34.899  38.676  1.00  0.00     0.173 A 
ATOM     79  F   UNL A   1      38.861  32.320  39.732  1.00  0.00    -0.203 F 
ATOM     80  C   UNL A   1      39.711  34.177  40.903  1.00  0.00     0.198 A 
ATOM     81  C   UNL A   1      41.275  35.656  39.841  1.00  0.00     0.198 A 
ATOM     82  F   UNL A   1      41.927  35.278  37.613  1.00  0.00    -0.203 F 
ATOM     83  F   UNL A   1      38.963  33.848  41.965  1.00  0.00    -0.200 F 
ATOM     84  C   UNL A   1      40.524  35.299  40.951  1.00  0.00     0.200 A 
ATOM     85  F   UNL A   1      42.072  36.732  39.889  1.00  0.00    -0.200 F 
ATOM     86  F   UNL A   1      40.581  36.042  42.065  1.00  0.00    -0.200 F 
ENDBRANCH  62  76
BRANCH  63  87
ATOM     87  C   UNL A   1      39.947  28.580  30.093  1.00  0.00     0.064 A 
ATOM     88  C   UNL A   1      39.372  27.304  29.995  1.00  0.00     0.173 A 
ATOM     89  C   UNL A   1      40.541  29.115  28.940  1.00  0.00     0.173 A 
ATOM     90  F   UNL A   1      38.821  26.735  31.077  1.00  0.00    -0.203 F 
ATOM     91  C   UNL A   1      39.409  26.586  28.800  1.00  0.00     0.198 A 
ATOM     92  C   UNL A   1      40.550  28.408  27.738  1.00  0.00     0.198 A 
ATOM     93  F   UNL A   1      41.115  30.326  28.979  1.00  0.00    -0.203 F 
ATOM     94  F   UNL A   1      38.903  25.346  28.752  1.00  0.00    -0.200 F 
ATOM     95  C   UNL A   1      39.993  27.141  27.672  1.00  0.00     0.200 A 
ATOM     96  F   UNL A   1      41.111  28.951  26.649  1.00  0.00    -0.200 F 
ATOM     97  F   UNL A   1      40.030  26.449  26.525  1.00  0.00    -0.200 F 
ENDBRANCH  63  87
BRANCH  75  98
ATOM     98  C   UNL A   1      44.574  28.905  35.310  1.00  0.00     0.064 A 
ATOM     99  C   UNL A   1      44.653  27.617  35.859  1.00  0.00     0.173 A 
ATOM    100  C   UNL A   1      45.772  29.524  34.918  1.00  0.00     0.173 A 
ATOM    101  F   UNL A   1      43.541  26.985  36.261  1.00  0.00    -0.203 F 
ATOM    102  C   UNL A   1      45.883  26.982  36.022  1.00  0.00     0.198 A 
ATOM    103  C   UNL A   1      46.996  28.873  35.053  1.00  0.00     0.198 A 
ATOM    104  F   UNL A   1      45.753  30.753  34.379  1.00  0.00    -0.203 F 
ATOM    105  F   UNL A   1      45.938  25.766  36.584  1.00  0.00    -0.200 F 
ATOM    106  C   UNL A   1      47.051  27.606  35.610  1.00  0.00     0.200 A 
ATOM    107  F   UNL A   1      48.121  29.471  34.637  1.00  0.00    -0.200 F 
ATOM    108  F   UNL A   1      48.231  26.985  35.751  1.00  0.00    -0.200 F 
ENDBRANCH  75  98
ENDBRANCH  49  50
ENDBRANCH  42  44
ENDBRANCH  41  42
ENDBRANCH  40  41
ENDBRANCH  39  40
ENDBRANCH  38  39
ENDBRANCH  37  38
ENDBRANCH  36  37
ENDBRANCH   1  36
TORSDOF 23
ENDMDL
MODEL 2
REMARK VINA RESULT:     -11.5      3.789      8.750
REMARK SMILES Cc1[nH]c2ccccc2c1[C@H](C(=O)OCCOCCOCCOCCOC(=O)c1ccc(-c2c3nc(c(-c4c(F)c(F)c(F)c(F)c4F)c4ccc([nH]4)c(-c4c(F)c(F)c(F)c(F)c4F)c4nc(c(-c5c(F)c(F)c(F)c(F)c5F)c5ccc2[nH]5)C=C4)C=C3)cc1)[NH+]1CCN(C(=O)c2ccco2)CC1
REMARK SMILES IDX 20 1 19 2 18 3 17 4 16 5 15 6 14 7 12 8 13 9 11 10 10 11
REMARK SMILES IDX 1 12 2 13 3 14 4 15 9 17 5 18 8 19 6 20 7 21 92 22 93 23
REMARK SMILES IDX 104 24 94 26 103 27 95 28 96 29 97 30 98 31 99 32 102 33
REMARK SMILES IDX 100 34 101 35 21 36 22 37 23 38 24 39 25 40 26 41 27 42
REMARK SMILES IDX 28 43 29 44 30 45 91 46 31 47 90 48 32 49 33 50 34 51 84 52
REMARK SMILES IDX 35 53 89 54 83 55 85 56 36 57 88 58 82 59 81 60 37 62 69 63
REMARK SMILES IDX 49 64 68 65 50 66 53 67 67 68 86 69 51 70 52 71 66 73 87 74
REMARK SMILES IDX 54 75 38 76 39 77 47 78 40 79 41 80 45 81 48 82 42 83 43 84
REMARK SMILES IDX 46 85 44 86 70 87 71 88 79 89 72 90 73 91 77 92 80 93 74 94
REMARK SMILES IDX 75 95 78 96 76 97 55 98 56 99 64 100 57 101 58 102 62 103
REMARK SMILES IDX 65 104 59 105 60 106 63 107 61 108
REMARK H PARENT 3 16 92 25 85 61 53 72
REMARK Flexibility Score: inf
ROOT
ATOM      1  O   UNL A   1      42.714  19.277  25.176  1.00  0.00    -0.377 OA
ENDROOT
BRANCH   1   2
ATOM      2  C   UNL A   1      41.980  19.746  26.293  1.00  0.00     0.188 C 
BRANCH   2   3
ATOM      3  C   UNL A   1      41.065  20.968  26.197  1.00  0.00     0.188 C 
BRANCH   3   4
ATOM      4  O   UNL A   1      39.648  20.866  26.076  1.00  0.00    -0.376 OA
BRANCH   4   5
ATOM      5  C   UNL A   1      38.804  22.003  26.055  1.00  0.00     0.202 C 
BRANCH   5   6
ATOM      6  C   UNL A   1      37.630  21.947  25.096  1.00  0.00     0.261 C 
BRANCH   6   7
ATOM      7  O   UNL A   1      36.609  22.890  25.487  1.00  0.00    -0.459 OA
BRANCH   7   8
ATOM      8  C   UNL A   1      35.500  22.889  24.712  1.00  0.00     0.370 C 
ATOM      9  O   UNL A   1      35.390  22.236  23.676  1.00  0.00    -0.245 OA
BRANCH   8  10
ATOM     10  C   UNL A   1      34.438  23.897  25.115  1.00  0.00     0.328 C 
BRANCH  10  11
ATOM     11  C   UNL A   1      33.815  24.841  24.060  1.00  0.00     0.049 A 
ATOM     12  C   UNL A   1      33.334  23.455  21.831  1.00  0.00     0.065 C 
ATOM     13  C   UNL A   1      33.414  24.627  22.734  1.00  0.00     0.022 A 
ATOM     14  N   UNL A   1      33.057  25.831  22.181  1.00  0.00    -0.358 N 
ATOM     15  C   UNL A   1      33.227  26.851  23.067  1.00  0.00     0.046 A 
ATOM     16  H   UNL A   1      32.722  25.944  21.262  1.00  0.00     0.166 HD
ATOM     17  C   UNL A   1      33.706  26.286  24.245  1.00  0.00     0.009 A 
ATOM     18  C   UNL A   1      33.004  28.222  22.887  1.00  0.00     0.027 A 
ATOM     19  C   UNL A   1      34.003  27.173  25.305  1.00  0.00     0.011 A 
ATOM     20  C   UNL A   1      33.282  29.064  23.961  1.00  0.00     0.002 A 
ATOM     21  C   UNL A   1      33.778  28.549  25.155  1.00  0.00     0.001 A 
ENDBRANCH  10  11
BRANCH  10  22
ATOM     22  N   UNL A   1      33.426  23.261  26.009  1.00  0.00    -0.316 N 
ATOM     23  C   UNL A   1      32.119  22.978  25.410  1.00  0.00     0.285 C 
ATOM     24  C   UNL A   1      33.914  22.056  26.702  1.00  0.00     0.285 C 
ATOM     25  H   UNL A   1      33.277  24.004  26.692  1.00  0.00     0.349 HD
ATOM     26  C   UNL A   1      31.970  21.690  24.580  1.00  0.00     0.181 C 
ATOM     27  C   UNL A   1      33.811  20.679  25.999  1.00  0.00     0.181 C 
ATOM     28  N   UNL A   1      32.794  20.537  24.953  1.00  0.00    -0.325 N 
ATOM     29  C   UNL A   1      32.744  19.430  24.073  1.00  0.00     0.289 C 
ATOM     30  O   UNL A   1      32.136  19.538  23.003  1.00  0.00    -0.265 OA
BRANCH  29  31
ATOM     31  C   UNL A   1      33.379  18.173  24.444  1.00  0.00     0.191 A 
ATOM     32  C   UNL A   1      34.644  17.644  24.245  1.00  0.00     0.056 A 
ATOM     33  O   UNL A   1      32.678  17.322  25.267  1.00  0.00    -0.459 OA
ATOM     34  C   UNL A   1      34.709  16.425  24.968  1.00  0.00     0.043 A 
ATOM     35  C   UNL A   1      33.485  16.274  25.569  1.00  0.00     0.196 A 
ENDBRANCH  29  31
ENDBRANCH  10  22
ENDBRANCH   8  10
ENDBRANCH   7   8
ENDBRANCH   6   7
ENDBRANCH   5   6
ENDBRANCH   4   5
ENDBRANCH   3   4
ENDBRANCH   2   3
ENDBRANCH   1   2
BRANCH   1  36
ATOM     36  C   UNL A   1      43.924  18.576  25.332  1.00  0.00     0.188 C 
BRANCH  36  37
ATOM     37  C   UNL A   1      45.249  19.268  25.055  1.00  0.00     0.188 C 
BRANCH  37  38
ATOM     38  O   UNL A   1      45.257  20.412  24.242  1.00  0.00    -0.376 OA
BRANCH  38  39
ATOM     39  C   UNL A   1      44.942  21.688  24.767  1.00  0.00     0.202 C 
BRANCH  39  40
ATOM     40  C   UNL A   1      43.830  22.619  24.243  1.00  0.00     0.261 C 
BRANCH  40  41
ATOM     41  O   UNL A   1      43.443  23.754  25.034  1.00  0.00    -0.460 OA
BRANCH  41  42
ATOM     42  C   UNL A   1      44.401  24.686  25.253  1.00  0.00     0.338 C 
ATOM     43  O   UNL A   1      45.375  24.921  24.544  1.00  0.00    -0.246 OA
BRANCH  42  44
ATOM     44  C   UNL A   1      44.064  25.513  26.431  1.00  0.00     0.060 A 
ATOM     45  C   UNL A   1      43.193  24.996  27.404  1.00  0.00     0.016 A 
ATOM     46  C   UNL A   1      44.558  26.811  26.558  1.00  0.00     0.016 A 
ATOM     47  C   UNL A   1      42.838  25.761  28.518  1.00  0.00     0.010 A 
ATOM     48  C   UNL A   1      44.161  27.596  27.649  1.00  0.00     0.010 A 
ATOM     49  C   UNL A   1      43.290  27.081  28.629  1.00  0.00    -0.014 A 
BRANCH  49  50
ATOM     50  C   UNL A   1      42.711  27.990  29.652  1.00  0.00     0.031 A 
ATOM     51  C   UNL A   1      43.416  28.116  30.974  1.00  0.00     0.074 A 
ATOM     52  C   UNL A   1      41.577  28.677  29.430  1.00  0.00     0.049 A 
ATOM     53  N   UNL A   1      43.041  28.737  32.064  1.00  0.00    -0.248 NA
ATOM     54  C   UNL A   1      44.720  27.444  31.082  1.00  0.00     0.031 C 
ATOM     55  C   UNL A   1      40.831  28.699  28.175  1.00  0.00     0.029 A 
ATOM     56  N   UNL A   1      40.842  29.478  30.273  1.00  0.00    -0.354 N 
ATOM     57  C   UNL A   1      44.056  28.521  32.987  1.00  0.00     0.074 A 
ATOM     58  C   UNL A   1      45.053  27.698  32.337  1.00  0.00     0.031 C 
ATOM     59  C   UNL A   1      39.726  29.450  28.339  1.00  0.00     0.029 A 
ATOM     60  C   UNL A   1      39.667  29.926  29.722  1.00  0.00     0.049 A 
ATOM     61  H   UNL A   1      41.132  29.709  31.185  1.00  0.00     0.167 HD
ATOM     62  C   UNL A   1      44.147  28.967  34.262  1.00  0.00     0.037 A 
ATOM     63  C   UNL A   1      38.644  30.607  30.282  1.00  0.00     0.037 A 
ATOM     64  C   UNL A   1      43.153  29.779  34.912  1.00  0.00     0.049 A 
ATOM     65  C   UNL A   1      38.722  31.004  31.738  1.00  0.00     0.074 A 
ATOM     66  C   UNL A   1      43.169  30.299  36.194  1.00  0.00     0.029 A 
ATOM     67  N   UNL A   1      41.958  30.177  34.333  1.00  0.00    -0.354 N 
ATOM     68  N   UNL A   1      39.693  30.817  32.600  1.00  0.00    -0.248 NA
ATOM     69  C   UNL A   1      37.554  31.700  32.303  1.00  0.00     0.031 C 
ATOM     70  C   UNL A   1      41.953  30.953  36.415  1.00  0.00     0.029 A 
ATOM     71  C   UNL A   1      41.208  30.899  35.248  1.00  0.00     0.049 A 
ATOM     72  H   UNL A   1      41.682  29.976  33.410  1.00  0.00     0.167 HD
ATOM     73  C   UNL A   1      39.266  31.393  33.792  1.00  0.00     0.074 A 
ATOM     74  C   UNL A   1      37.955  31.949  33.541  1.00  0.00     0.031 C 
ATOM     75  C   UNL A   1      39.904  31.453  34.988  1.00  0.00     0.037 A 
BRANCH  62  76
ATOM     76  C   UNL A   1      45.349  28.549  35.059  1.00  0.00     0.064 A 
ATOM     77  C   UNL A   1      45.392  27.329  35.750  1.00  0.00     0.173 A 
ATOM     78  C   UNL A   1      46.489  29.366  35.098  1.00  0.00     0.173 A 
ATOM     79  F   UNL A   1      44.322  26.518  35.756  1.00  0.00    -0.203 F 
ATOM     80  C   UNL A   1      46.523  26.955  36.471  1.00  0.00     0.198 A 
ATOM     81  C   UNL A   1      47.629  28.974  35.793  1.00  0.00     0.198 A 
ATOM     82  F   UNL A   1      46.501  30.541  34.451  1.00  0.00    -0.203 F 
ATOM     83  F   UNL A   1      46.524  25.807  37.163  1.00  0.00    -0.200 F 
ATOM     84  C   UNL A   1      47.643  27.773  36.485  1.00  0.00     0.200 A 
ATOM     85  F   UNL A   1      48.715  29.760  35.794  1.00  0.00    -0.200 F 
ATOM     86  F   UNL A   1      48.734  27.406  37.171  1.00  0.00    -0.200 F 
ENDBRANCH  62  76
BRANCH  63  87
ATOM     87  C   UNL A   1      37.429  30.923  29.482  1.00  0.00     0.064 A 
ATOM     88  C   UNL A   1      36.452  29.949  29.229  1.00  0.00     0.173 A 
ATOM     89  C   UNL A   1      37.240  32.194  28.917  1.00  0.00     0.173 A 
ATOM     90  F   UNL A   1      36.603  28.709  29.718  1.00  0.00    -0.203 F 
ATOM     91  C   UNL A   1      35.346  30.227  28.427  1.00  0.00     0.198 A 
ATOM     92  C   UNL A   1      36.118  32.479  28.141  1.00  0.00     0.198 A 
ATOM     93  F   UNL A   1      38.148  33.160  29.118  1.00  0.00    -0.203 F 
ATOM     94  F   UNL A   1      34.460  29.260  28.155  1.00  0.00    -0.200 F 
ATOM     95  C   UNL A   1      35.177  31.494  27.888  1.00  0.00     0.200 A 
ATOM     96  F   UNL A   1      35.957  33.707  27.628  1.00  0.00    -0.200 F 
ATOM     97  F   UNL A   1      34.116  31.760  27.116  1.00  0.00    -0.200 F 
ENDBRANCH  63  87
BRANCH  75  98
ATOM     98  C   UNL A   1      39.213  32.165  36.117  1.00  0.00     0.064 A 
ATOM     99  C   UNL A   1      38.287  31.511  36.943  1.00  0.00     0.173 A 
ATOM    100  C   UNL A   1      39.536  33.497  36.422  1.00  0.00     0.173 A 
ATOM    101  F   UNL A   1      37.935  30.243  36.690  1.00  0.00    -0.203 F 
ATOM    102  C   UNL A   1      37.698  32.169  38.020  1.00  0.00     0.198 A 
ATOM    103  C   UNL A   1      38.969  34.141  37.519  1.00  0.00     0.198 A 
ATOM    104  F   UNL A   1      40.422  34.167  35.670  1.00  0.00    -0.203 F 
ATOM    105  F   UNL A   1      36.788  31.536  38.774  1.00  0.00    -0.200 F 
ATOM    106  C   UNL A   1      38.047  33.479  38.313  1.00  0.00     0.200 A 
ATOM    107  F   UNL A   1      39.321  35.401  37.810  1.00  0.00    -0.200 F 
ATOM    108  F   UNL A   1      37.492  34.104  39.361  1.00  0.00    -0.200 F 
ENDBRANCH  75  98
ENDBRANCH  49  50
ENDBRANCH  42  44
ENDBRANCH  41  42
ENDBRANCH  40  41
ENDBRANCH  39  40
ENDBRANCH  38  39
ENDBRANCH  37  38
ENDBRANCH  36  37
ENDBRANCH   1  36
TORSDOF 23
ENDMDL
MODEL 3
REMARK VINA RESULT:     -11.2      3.722      9.648
REMARK SMILES Cc1[nH]c2ccccc2c1[C@H](C(=O)OCCOCCOCCOCCOC(=O)c1ccc(-c2c3nc(c(-c4c(F)c(F)c(F)c(F)c4F)c4ccc([nH]4)c(-c4c(F)c(F)c(F)c(F)c4F)c4nc(c(-c5c(F)c(F)c(F)c(F)c5F)c5ccc2[nH]5)C=C4)C=C3)cc1)[NH+]1CCN(C(=O)c2ccco2)CC1
REMARK SMILES IDX 20 1 19 2 18 3 17 4 16 5 15 6 14 7 12 8 13 9 11 10 10 11
REMARK SMILES IDX 1 12 2 13 3 14 4 15 9 17 5 18 8 19 6 20 7 21 92 22 93 23
REMARK SMILES IDX 104 24 94 26 103 27 95 28 96 29 97 30 98 31 99 32 102 33
REMARK SMILES IDX 100 34 101 35 21 36 22 37 23 38 24 39 25 40 26 41 27 42
REMARK SMILES IDX 28 43 29 44 30 45 91 46 31 47 90 48 32 49 33 50 34 51 84 52
REMARK SMILES IDX 35 53 89 54 83 55 85 56 36 57 88 58 82 59 81 60 37 62 69 63
REMARK SMILES IDX 49 64 68 65 50 66 53 67 67 68 86 69 51 70 52 71 66 73 87 74
REMARK SMILES IDX 54 75 38 76 39 77 47 78 40 79 41 80 45 81 48 82 42 83 43 84
REMARK SMILES IDX 46 85 44 86 70 87 71 88 79 89 72 90 73 91 77 92 80 93 74 94
REMARK SMILES IDX 75 95 78 96 76 97 55 98 56 99 64 100 57 101 58 102 62 103
REMARK SMILES IDX 65 104 59 105 60 106 63 107 61 108
REMARK H PARENT 3 16 92 25 85 61 53 72
REMARK Flexibility Score: inf
ROOT
ATOM      1  O   UNL A   1      41.770  19.276  25.486  1.00  0.00    -0.377 OA
ENDROOT
BRANCH   1   2
ATOM      2  C   UNL A   1      41.125  20.038  26.491  1.00  0.00     0.188 C 
BRANCH   2   3
ATOM      3  C   UNL A   1      41.091  21.566  26.442  1.00  0.00     0.188 C 
BRANCH   3   4
ATOM      4  O   UNL A   1      39.930  22.301  26.063  1.00  0.00    -0.376 OA
BRANCH   4   5
ATOM      5  C   UNL A   1      38.626  21.753  26.136  1.00  0.00     0.202 C 
BRANCH   5   6
ATOM      6  C   UNL A   1      37.656  22.186  25.054  1.00  0.00     0.261 C 
BRANCH   6   7
ATOM      7  O   UNL A   1      36.480  22.788  25.636  1.00  0.00    -0.459 OA
BRANCH   7   8
ATOM      8  C   UNL A   1      35.380  22.776  24.848  1.00  0.00     0.370 C 
ATOM      9  O   UNL A   1      35.270  22.085  23.838  1.00  0.00    -0.245 OA
BRANCH   8  10
ATOM     10  C   UNL A   1      34.332  23.818  25.199  1.00  0.00     0.328 C 
BRANCH  10  11
ATOM     11  C   UNL A   1      33.750  24.742  24.103  1.00  0.00     0.049 A 
ATOM     12  C   UNL A   1      33.310  23.304  21.899  1.00  0.00     0.065 C 
ATOM     13  C   UNL A   1      33.382  24.498  22.773  1.00  0.00     0.022 A 
ATOM     14  N   UNL A   1      33.056  25.691  22.180  1.00  0.00    -0.358 N 
ATOM     15  C   UNL A   1      33.216  26.732  23.043  1.00  0.00     0.046 A 
ATOM     16  H   UNL A   1      32.747  25.784  21.249  1.00  0.00     0.166 HD
ATOM     17  C   UNL A   1      33.656  26.193  24.248  1.00  0.00     0.009 A 
ATOM     18  C   UNL A   1      33.017  28.100  22.821  1.00  0.00     0.027 A 
ATOM     19  C   UNL A   1      33.937  27.103  25.292  1.00  0.00     0.011 A 
ATOM     20  C   UNL A   1      33.278  28.967  23.880  1.00  0.00     0.002 A 
ATOM     21  C   UNL A   1      33.736  28.478  25.099  1.00  0.00     0.001 A 
ENDBRANCH  10  11
BRANCH  10  22
ATOM     22  N   UNL A   1      33.290  23.231  26.091  1.00  0.00    -0.316 N 
ATOM     23  C   UNL A   1      31.992  22.949  25.473  1.00  0.00     0.285 C 
ATOM     24  C   UNL A   1      33.741  22.042  26.837  1.00  0.00     0.285 C 
ATOM     25  H   UNL A   1      33.138  24.000  26.744  1.00  0.00     0.349 HD
ATOM     26  C   UNL A   1      31.839  21.635  24.685  1.00  0.00     0.181 C 
ATOM     27  C   UNL A   1      33.629  20.644  26.180  1.00  0.00     0.181 C 
ATOM     28  N   UNL A   1      32.633  20.482  25.117  1.00  0.00    -0.325 N 
ATOM     29  C   UNL A   1      32.583  19.346  24.275  1.00  0.00     0.289 C 
ATOM     30  O   UNL A   1      32.001  19.427  23.188  1.00  0.00    -0.265 OA
BRANCH  29  31
ATOM     31  C   UNL A   1      33.187  18.092  24.703  1.00  0.00     0.191 A 
ATOM     32  C   UNL A   1      32.717  16.991  25.401  1.00  0.00     0.056 A 
ATOM     33  O   UNL A   1      34.460  17.813  24.260  1.00  0.00    -0.459 OA
ATOM     34  C   UNL A   1      33.744  16.013  25.387  1.00  0.00     0.043 A 
ATOM     35  C   UNL A   1      34.784  16.565  24.683  1.00  0.00     0.196 A 
ENDBRANCH  29  31
ENDBRANCH  10  22
ENDBRANCH   8  10
ENDBRANCH   7   8
ENDBRANCH   6   7
ENDBRANCH   5   6
ENDBRANCH   4   5
ENDBRANCH   3   4
ENDBRANCH   2   3
ENDBRANCH   1   2
BRANCH   1  36
ATOM     36  C   UNL A   1      42.997  18.629  25.725  1.00  0.00     0.188 C 
BRANCH  36  37
ATOM     37  C   UNL A   1      44.164  18.827  24.771  1.00  0.00     0.188 C 
BRANCH  37  38
ATOM     38  O   UNL A   1      44.499  20.132  24.375  1.00  0.00    -0.376 OA
BRANCH  38  39
ATOM     39  C   UNL A   1      44.843  21.121  25.327  1.00  0.00     0.202 C 
BRANCH  39  40
ATOM     40  C   UNL A   1      45.036  22.621  25.024  1.00  0.00     0.261 C 
BRANCH  40  41
ATOM     41  O   UNL A   1      44.832  23.574  26.079  1.00  0.00    -0.460 OA
BRANCH  41  42
ATOM     42  C   UNL A   1      44.677  24.865  25.698  1.00  0.00     0.338 C 
ATOM     43  O   UNL A   1      45.010  25.362  24.626  1.00  0.00    -0.246 OA
BRANCH  42  44
ATOM     44  C   UNL A   1      43.915  25.620  26.715  1.00  0.00     0.060 A 
ATOM     45  C   UNL A   1      44.275  26.949  26.993  1.00  0.00     0.016 A 
ATOM     46  C   UNL A   1      42.884  25.014  27.433  1.00  0.00     0.016 A 
ATOM     47  C   UNL A   1      43.589  27.683  27.964  1.00  0.00     0.010 A 
ATOM     48  C   UNL A   1      42.231  25.734  28.442  1.00  0.00     0.010 A 
ATOM     49  C   UNL A   1      42.585  27.068  28.722  1.00  0.00    -0.014 A 
BRANCH  49  50
ATOM     50  C   UNL A   1      42.039  27.738  29.930  1.00  0.00     0.031 A 
ATOM     51  C   UNL A   1      40.768  28.531  29.791  1.00  0.00     0.074 A 
ATOM     52  C   UNL A   1      42.656  27.668  31.122  1.00  0.00     0.049 A 
ATOM     53  N   UNL A   1      40.169  29.306  30.660  1.00  0.00    -0.248 NA
ATOM     54  C   UNL A   1      40.084  28.439  28.492  1.00  0.00     0.031 C 
ATOM     55  C   UNL A   1      43.853  26.882  31.412  1.00  0.00     0.029 A 
ATOM     56  N   UNL A   1      42.366  28.291  32.313  1.00  0.00    -0.354 N 
ATOM     57  C   UNL A   1      39.047  29.801  30.008  1.00  0.00     0.074 A 
ATOM     58  C   UNL A   1      39.057  29.255  28.669  1.00  0.00     0.031 C 
ATOM     59  C   UNL A   1      44.214  27.095  32.690  1.00  0.00     0.029 A 
ATOM     60  C   UNL A   1      43.298  28.063  33.296  1.00  0.00     0.049 A 
ATOM     61  H   UNL A   1      41.564  28.847  32.449  1.00  0.00     0.167 HD
ATOM     62  C   UNL A   1      38.095  30.638  30.484  1.00  0.00     0.037 A 
ATOM     63  C   UNL A   1      43.418  28.605  34.527  1.00  0.00     0.037 A 
ATOM     64  C   UNL A   1      38.088  31.189  31.813  1.00  0.00     0.049 A 
ATOM     65  C   UNL A   1      42.401  29.619  34.998  1.00  0.00     0.074 A 
ATOM     66  C   UNL A   1      37.152  32.028  32.393  1.00  0.00     0.029 A 
ATOM     67  N   UNL A   1      39.072  30.967  32.764  1.00  0.00    -0.354 N 
ATOM     68  N   UNL A   1      41.330  30.066  34.388  1.00  0.00    -0.248 NA
ATOM     69  C   UNL A   1      42.616  30.210  36.328  1.00  0.00     0.031 C 
ATOM     70  C   UNL A   1      37.605  32.368  33.672  1.00  0.00     0.029 A 
ATOM     71  C   UNL A   1      38.788  31.689  33.913  1.00  0.00     0.049 A 
ATOM     72  H   UNL A   1      39.855  30.384  32.642  1.00  0.00     0.167 HD
ATOM     73  C   UNL A   1      40.733  30.964  35.266  1.00  0.00     0.074 A 
ATOM     74  C   UNL A   1      41.552  30.990  36.458  1.00  0.00     0.031 C 
ATOM     75  C   UNL A   1      39.608  31.704  35.098  1.00  0.00     0.037 A 
BRANCH  62  76
ATOM     76  C   UNL A   1      36.998  31.048  29.544  1.00  0.00     0.064 A 
ATOM     77  C   UNL A   1      36.986  32.306  28.924  1.00  0.00     0.173 A 
ATOM     78  C   UNL A   1      35.966  30.150  29.230  1.00  0.00     0.173 A 
ATOM     79  F   UNL A   1      37.942  33.206  29.202  1.00  0.00    -0.203 F 
ATOM     80  C   UNL A   1      35.966  32.659  28.044  1.00  0.00     0.198 A 
ATOM     81  C   UNL A   1      34.967  30.495  28.325  1.00  0.00     0.198 A 
ATOM     82  F   UNL A   1      35.934  28.933  29.793  1.00  0.00    -0.203 F 
ATOM     83  F   UNL A   1      35.948  33.884  27.500  1.00  0.00    -0.200 F 
ATOM     84  C   UNL A   1      34.963  31.751  27.739  1.00  0.00     0.200 A 
ATOM     85  F   UNL A   1      34.006  29.611  28.022  1.00  0.00    -0.200 F 
ATOM     86  F   UNL A   1      33.988  32.089  26.884  1.00  0.00    -0.200 F 
ENDBRANCH  62  76
BRANCH  63  87
ATOM     87  C   UNL A   1      44.572  28.242  35.395  1.00  0.00     0.064 A 
ATOM     88  C   UNL A   1      44.490  27.175  36.303  1.00  0.00     0.173 A 
ATOM     89  C   UNL A   1      45.764  28.980  35.366  1.00  0.00     0.173 A 
ATOM     90  F   UNL A   1      43.359  26.460  36.393  1.00  0.00    -0.203 F 
ATOM     91  C   UNL A   1      45.547  26.876  37.161  1.00  0.00     0.198 A 
ATOM     92  C   UNL A   1      46.832  28.659  36.203  1.00  0.00     0.198 A 
ATOM     93  F   UNL A   1      45.894  30.016  34.525  1.00  0.00    -0.203 F 
ATOM     94  F   UNL A   1      45.419  25.889  38.058  1.00  0.00    -0.200 F 
ATOM     95  C   UNL A   1      46.719  27.614  37.106  1.00  0.00     0.200 A 
ATOM     96  F   UNL A   1      47.965  29.373  36.142  1.00  0.00    -0.200 F 
ATOM     97  F   UNL A   1      47.734  27.327  37.932  1.00  0.00    -0.200 F 
ENDBRANCH  63  87
BRANCH  75  98
ATOM     98  C   UNL A   1      39.172  32.587  36.234  1.00  0.00     0.064 A 
ATOM     99  C   UNL A   1      38.303  32.125  37.233  1.00  0.00     0.173 A 
ATOM    100  C   UNL A   1      39.688  33.886  36.363  1.00  0.00     0.173 A 
ATOM    101  F   UNL A   1      37.772  30.897  37.152  1.00  0.00    -0.203 F 
ATOM    102  C   UNL A   1      37.954  32.938  38.309  1.00  0.00     0.198 A 
ATOM    103  C   UNL A   1      39.362  34.683  37.458  1.00  0.00     0.198 A 
ATOM    104  F   UNL A   1      40.531  34.374  35.441  1.00  0.00    -0.203 F 
ATOM    105  F   UNL A   1      37.091  32.490  39.233  1.00  0.00    -0.200 F 
ATOM    106  C   UNL A   1      38.491  34.212  38.426  1.00  0.00     0.200 A 
ATOM    107  F   UNL A   1      39.897  35.907  37.577  1.00  0.00    -0.200 F 
ATOM    108  F   UNL A   1      38.167  34.985  39.473  1.00  0.00    -0.200 F 
ENDBRANCH  75  98
ENDBRANCH  49  50
ENDBRANCH  42  44
ENDBRANCH  41  42
ENDBRANCH  40  41
ENDBRANCH  39  40
ENDBRANCH  38  39
ENDBRANCH  37  38
ENDBRANCH  36  37
ENDBRANCH   1  36
TORSDOF 23
ENDMDL
