MODEL 1
REMARK VINA RESULT:      -9.9      0.000      0.000
REMARK SMILES O=C(OCCOCCOCCOCCOC(=O)c1cc(-c2ccc(C(F)(F)F)cc2)cc([N+](=O)[O-])c1)c1ccc(-c2c3nc(c(-c4c(F)c(F)c(F)c(F)c4F)c4ccc([nH]4)c(-c4c(F)c(F)c(F)c(F)c4F)c4nc(c(-c5c(F)c(F)c(F)c(F)c5F)c5ccc2[nH]5)C=C4)C=C3)cc1
REMARK SMILES IDX 9 1 8 2 7 3 6 4 5 5 4 6 3 7 2 8 1 9 37 10 38 11 99 12 39 13
REMARK SMILES IDX 98 14 40 15 41 16 42 17 92 18 43 19 97 20 91 21 93 22 44 23
REMARK SMILES IDX 96 24 90 25 89 26 45 28 77 29 57 30 76 31 58 32 61 33 75 34
REMARK SMILES IDX 94 35 59 36 60 37 74 39 95 40 62 41 46 42 47 43 55 44 48 45
REMARK SMILES IDX 49 46 53 47 56 48 50 49 51 50 54 51 52 52 78 53 79 54 87 55
REMARK SMILES IDX 80 56 81 57 85 58 88 59 82 60 83 61 86 62 84 63 63 64 64 65
REMARK SMILES IDX 72 66 65 67 66 68 70 69 73 70 67 71 68 72 71 73 69 74 10 75
REMARK SMILES IDX 11 76 12 77 13 78 14 79 15 80 16 81 17 82 18 83 19 84 36 85
REMARK SMILES IDX 20 86 32 87 31 88 21 89 22 90 30 91 23 92 29 93 24 94 25 95
REMARK SMILES IDX 26 96 27 97 28 98 33 99 34 100 35 101
REMARK H PARENT 93 27 61 38
REMARK Flexibility Score: inf
ROOT
ATOM      1  O   UNL A   1      39.874  19.170  25.661  1.00  0.00    -0.377 OA
ENDROOT
BRANCH   1   2
ATOM      2  C   UNL A   1      40.806  19.865  26.482  1.00  0.00     0.188 C 
BRANCH   2   3
ATOM      3  C   UNL A   1      42.277  19.580  26.190  1.00  0.00     0.188 C 
BRANCH   3   4
ATOM      4  O   UNL A   1      42.827  20.538  25.281  1.00  0.00    -0.376 OA
BRANCH   4   5
ATOM      5  C   UNL A   1      43.770  21.449  25.850  1.00  0.00     0.202 C 
BRANCH   5   6
ATOM      6  C   UNL A   1      43.201  22.339  26.956  1.00  0.00     0.261 C 
BRANCH   6   7
ATOM      7  O   UNL A   1      42.446  23.444  26.442  1.00  0.00    -0.460 OA
BRANCH   7   8
ATOM      8  C   UNL A   1      42.531  24.751  26.793  1.00  0.00     0.338 C 
ATOM      9  O   UNL A   1      41.518  25.298  27.226  1.00  0.00    -0.246 OA
BRANCH   8  10
ATOM     10  C   UNL A   1      43.777  25.582  26.699  1.00  0.00     0.060 A 
ATOM     11  C   UNL A   1      44.607  25.943  27.762  1.00  0.00     0.016 A 
ATOM     12  C   UNL A   1      44.160  25.993  25.410  1.00  0.00     0.016 A 
ATOM     13  C   UNL A   1      45.727  26.740  27.581  1.00  0.00     0.010 A 
ATOM     14  C   UNL A   1      45.289  26.792  25.209  1.00  0.00     0.010 A 
ATOM     15  C   UNL A   1      46.046  27.202  26.311  1.00  0.00    -0.014 A 
BRANCH  15  16
ATOM     16  C   UNL A   1      47.000  28.319  26.229  1.00  0.00     0.031 A 
ATOM     17  C   UNL A   1      46.476  29.684  26.556  1.00  0.00     0.074 A 
ATOM     18  C   UNL A   1      48.309  28.080  26.058  1.00  0.00     0.049 A 
ATOM     19  N   UNL A   1      47.087  30.838  26.547  1.00  0.00    -0.248 NA
ATOM     20  C   UNL A   1      45.065  29.755  26.976  1.00  0.00     0.031 C 
ATOM     21  C   UNL A   1      48.911  26.754  25.911  1.00  0.00     0.029 A 
ATOM     22  N   UNL A   1      49.372  28.939  26.020  1.00  0.00    -0.354 N 
ATOM     23  C   UNL A   1      46.125  31.769  26.916  1.00  0.00     0.074 A 
ATOM     24  C   UNL A   1      44.892  31.054  27.145  1.00  0.00     0.031 C 
ATOM     25  C   UNL A   1      50.244  26.890  25.817  1.00  0.00     0.029 A 
ATOM     26  C   UNL A   1      50.576  28.310  25.827  1.00  0.00     0.049 A 
ATOM     27  H   UNL A   1      49.282  29.915  26.121  1.00  0.00     0.167 HD
ATOM     28  C   UNL A   1      46.268  33.108  27.036  1.00  0.00     0.037 A 
ATOM     29  C   UNL A   1      51.797  28.846  25.648  1.00  0.00     0.037 A 
ATOM     30  C   UNL A   1      47.516  33.780  26.800  1.00  0.00     0.049 A 
ATOM     31  C   UNL A   1      51.912  30.348  25.672  1.00  0.00     0.074 A 
ATOM     32  C   UNL A   1      47.794  35.131  26.812  1.00  0.00     0.029 A 
ATOM     33  N   UNL A   1      48.706  33.123  26.504  1.00  0.00    -0.354 N 
ATOM     34  N   UNL A   1      50.986  31.244  25.926  1.00  0.00    -0.248 NA
ATOM     35  C   UNL A   1      53.231  30.914  25.369  1.00  0.00     0.031 C 
ATOM     36  C   UNL A   1      49.141  35.296  26.469  1.00  0.00     0.029 A 
ATOM     37  C   UNL A   1      49.719  34.043  26.309  1.00  0.00     0.049 A 
ATOM     38  H   UNL A   1      48.812  32.147  26.443  1.00  0.00     0.167 HD
ATOM     39  C   UNL A   1      51.611  32.479  25.839  1.00  0.00     0.074 A 
ATOM     40  C   UNL A   1      53.002  32.211  25.519  1.00  0.00     0.031 C 
ATOM     41  C   UNL A   1      51.093  33.722  26.005  1.00  0.00     0.037 A 
BRANCH  28  42
ATOM     42  C   UNL A   1      45.026  33.899  27.328  1.00  0.00     0.064 A 
ATOM     43  C   UNL A   1      44.210  34.423  26.312  1.00  0.00     0.173 A 
ATOM     44  C   UNL A   1      44.697  34.214  28.655  1.00  0.00     0.173 A 
ATOM     45  F   UNL A   1      44.498  34.184  25.024  1.00  0.00    -0.203 F 
ATOM     46  C   UNL A   1      43.144  35.270  26.613  1.00  0.00     0.198 A 
ATOM     47  C   UNL A   1      43.611  35.033  28.954  1.00  0.00     0.198 A 
ATOM     48  F   UNL A   1      45.447  33.750  29.666  1.00  0.00    -0.203 F 
ATOM     49  F   UNL A   1      42.433  35.828  25.623  1.00  0.00    -0.200 F 
ATOM     50  C   UNL A   1      42.846  35.574  27.933  1.00  0.00     0.200 A 
ATOM     51  F   UNL A   1      43.324  35.324  30.231  1.00  0.00    -0.200 F 
ATOM     52  F   UNL A   1      41.834  36.405  28.219  1.00  0.00    -0.200 F 
ENDBRANCH  28  42
BRANCH  29  53
ATOM     53  C   UNL A   1      52.972  27.969  25.394  1.00  0.00     0.064 A 
ATOM     54  C   UNL A   1      53.441  27.737  24.093  1.00  0.00     0.173 A 
ATOM     55  C   UNL A   1      53.658  27.347  26.449  1.00  0.00     0.173 A 
ATOM     56  F   UNL A   1      52.810  28.288  23.046  1.00  0.00    -0.203 F 
ATOM     57  C   UNL A   1      54.541  26.911  23.859  1.00  0.00     0.198 A 
ATOM     58  C   UNL A   1      54.775  26.547  26.216  1.00  0.00     0.198 A 
ATOM     59  F   UNL A   1      53.252  27.528  27.715  1.00  0.00    -0.203 F 
ATOM     60  F   UNL A   1      54.943  26.676  22.602  1.00  0.00    -0.200 F 
ATOM     61  C   UNL A   1      55.212  26.324  24.920  1.00  0.00     0.200 A 
ATOM     62  F   UNL A   1      55.428  25.993  27.248  1.00  0.00    -0.200 F 
ATOM     63  F   UNL A   1      56.274  25.538  24.695  1.00  0.00    -0.200 F 
ENDBRANCH  29  53
BRANCH  41  64
ATOM     64  C   UNL A   1      52.048  34.873  25.895  1.00  0.00     0.064 A 
ATOM     65  C   UNL A   1      52.285  35.521  24.675  1.00  0.00     0.173 A 
ATOM     66  C   UNL A   1      52.687  35.362  27.043  1.00  0.00     0.173 A 
ATOM     67  F   UNL A   1      51.705  35.078  23.550  1.00  0.00    -0.203 F 
ATOM     68  C   UNL A   1      53.153  36.606  24.605  1.00  0.00     0.198 A 
ATOM     69  C   UNL A   1      53.527  36.468  26.975  1.00  0.00     0.198 A 
ATOM     70  F   UNL A   1      52.482  34.780  28.234  1.00  0.00    -0.203 F 
ATOM     71  F   UNL A   1      53.408  37.182  23.422  1.00  0.00    -0.200 F 
ATOM     72  C   UNL A   1      53.766  37.084  25.755  1.00  0.00     0.200 A 
ATOM     73  F   UNL A   1      54.103  36.940  28.089  1.00  0.00    -0.200 F 
ATOM     74  F   UNL A   1      54.592  38.137  25.687  1.00  0.00    -0.200 F 
ENDBRANCH  41  64
ENDBRANCH  15  16
ENDBRANCH   8  10
ENDBRANCH   7   8
ENDBRANCH   6   7
ENDBRANCH   5   6
ENDBRANCH   4   5
ENDBRANCH   3   4
ENDBRANCH   2   3
ENDBRANCH   1   2
BRANCH   1  75
ATOM     75  C   UNL A   1      38.656  19.837  25.361  1.00  0.00     0.188 C 
BRANCH  75  76
ATOM     76  C   UNL A   1      38.543  21.357  25.620  1.00  0.00     0.188 C 
BRANCH  76  77
ATOM     77  O   UNL A   1      37.480  22.007  24.942  1.00  0.00    -0.376 OA
BRANCH  77  78
ATOM     78  C   UNL A   1      36.955  23.163  25.590  1.00  0.00     0.202 C 
BRANCH  78  79
ATOM     79  C   UNL A   1      36.186  24.132  24.680  1.00  0.00     0.261 C 
BRANCH  79  80
ATOM     80  O   UNL A   1      35.266  25.022  25.346  1.00  0.00    -0.460 OA
BRANCH  80  81
ATOM     81  C   UNL A   1      34.090  25.314  24.747  1.00  0.00     0.338 C 
ATOM     82  O   UNL A   1      33.878  26.165  23.904  1.00  0.00    -0.246 OA
BRANCH  81  83
ATOM     83  C   UNL A   1      33.142  24.232  25.115  1.00  0.00     0.067 A 
ATOM     84  C   UNL A   1      33.501  22.899  24.840  1.00  0.00     0.025 A 
ATOM     85  C   UNL A   1      31.984  24.517  25.840  1.00  0.00     0.101 A 
ATOM     86  C   UNL A   1      32.739  21.830  25.341  1.00  0.00    -0.011 A 
ATOM     87  C   UNL A   1      31.191  23.454  26.288  1.00  0.00     0.270 A 
ATOM     88  C   UNL A   1      31.573  22.121  26.065  1.00  0.00     0.094 A 
BRANCH  86  89
ATOM     89  C   UNL A   1      33.114  20.439  25.062  1.00  0.00    -0.018 A 
ATOM     90  C   UNL A   1      34.436  20.054  24.793  1.00  0.00     0.009 A 
ATOM     91  C   UNL A   1      32.121  19.451  25.069  1.00  0.00     0.009 A 
ATOM     92  C   UNL A   1      34.749  18.712  24.523  1.00  0.00     0.014 A 
ATOM     93  C   UNL A   1      32.429  18.115  24.801  1.00  0.00     0.014 A 
ATOM     94  C   UNL A   1      33.745  17.730  24.518  1.00  0.00     0.056 A 
BRANCH  94  95
ATOM     95  C   UNL A   1      34.077  16.290  24.203  1.00  0.00     0.416 C 
ATOM     96  F   UNL A   1      33.017  15.459  24.403  1.00  0.00    -0.166 F 
ATOM     97  F   UNL A   1      34.455  16.110  22.908  1.00  0.00    -0.166 F 
ATOM     98  F   UNL A   1      35.092  15.787  24.962  1.00  0.00    -0.166 F 
ENDBRANCH  94  95
ENDBRANCH  86  89
BRANCH  87  99
ATOM     99  N   UNL A   1      29.928  23.735  26.980  1.00  0.00     0.062 N 
ATOM    100  O   UNL A   1      29.445  24.868  26.855  1.00  0.00    -0.258 OA
ATOM    101  O   UNL A   1      29.434  22.828  27.664  1.00  0.00    -0.258 OA
ENDBRANCH  87  99
ENDBRANCH  81  83
ENDBRANCH  80  81
ENDBRANCH  79  80
ENDBRANCH  78  79
ENDBRANCH  77  78
ENDBRANCH  76  77
ENDBRANCH  75  76
ENDBRANCH   1  75
TORSDOF 23
ENDMDL
MODEL 2
REMARK VINA RESULT:      -9.9      5.683     10.968
REMARK SMILES O=C(OCCOCCOCCOCCOC(=O)c1cc(-c2ccc(C(F)(F)F)cc2)cc([N+](=O)[O-])c1)c1ccc(-c2c3nc(c(-c4c(F)c(F)c(F)c(F)c4F)c4ccc([nH]4)c(-c4c(F)c(F)c(F)c(F)c4F)c4nc(c(-c5c(F)c(F)c(F)c(F)c5F)c5ccc2[nH]5)C=C4)C=C3)cc1
REMARK SMILES IDX 9 1 8 2 7 3 6 4 5 5 4 6 3 7 2 8 1 9 37 10 38 11 99 12 39 13
REMARK SMILES IDX 98 14 40 15 41 16 42 17 92 18 43 19 97 20 91 21 93 22 44 23
REMARK SMILES IDX 96 24 90 25 89 26 45 28 77 29 57 30 76 31 58 32 61 33 75 34
REMARK SMILES IDX 94 35 59 36 60 37 74 39 95 40 62 41 46 42 47 43 55 44 48 45
REMARK SMILES IDX 49 46 53 47 56 48 50 49 51 50 54 51 52 52 78 53 79 54 87 55
REMARK SMILES IDX 80 56 81 57 85 58 88 59 82 60 83 61 86 62 84 63 63 64 64 65
REMARK SMILES IDX 72 66 65 67 66 68 70 69 73 70 67 71 68 72 71 73 69 74 10 75
REMARK SMILES IDX 11 76 12 77 13 78 14 79 15 80 16 81 17 82 18 83 19 84 36 85
REMARK SMILES IDX 20 86 32 87 31 88 21 89 22 90 30 91 23 92 29 93 24 94 25 95
REMARK SMILES IDX 26 96 27 97 28 98 33 99 34 100 35 101
REMARK H PARENT 93 27 61 38
REMARK Flexibility Score: inf
ROOT
ATOM      1  O   UNL A   1      46.748  26.540  24.243  1.00  0.00    -0.377 OA
ENDROOT
BRANCH   1   2
ATOM      2  C   UNL A   1      48.162  26.576  24.401  1.00  0.00     0.188 C 
BRANCH   2   3
ATOM      3  C   UNL A   1      48.956  26.857  23.127  1.00  0.00     0.188 C 
BRANCH   3   4
ATOM      4  O   UNL A   1      49.937  27.877  23.334  1.00  0.00    -0.376 OA
BRANCH   4   5
ATOM      5  C   UNL A   1      50.638  27.808  24.577  1.00  0.00     0.202 C 
BRANCH   5   6
ATOM      6  C   UNL A   1      51.664  26.677  24.664  1.00  0.00     0.261 C 
BRANCH   6   7
ATOM      7  O   UNL A   1      52.473  26.757  25.845  1.00  0.00    -0.460 OA
BRANCH   7   8
ATOM      8  C   UNL A   1      52.216  26.237  27.072  1.00  0.00     0.338 C 
ATOM      9  O   UNL A   1      53.083  25.536  27.592  1.00  0.00    -0.246 OA
BRANCH   8  10
ATOM     10  C   UNL A   1      50.952  26.461  27.847  1.00  0.00     0.060 A 
ATOM     11  C   UNL A   1      49.721  25.847  27.608  1.00  0.00     0.016 A 
ATOM     12  C   UNL A   1      51.036  27.340  28.942  1.00  0.00     0.016 A 
ATOM     13  C   UNL A   1      48.596  26.139  28.364  1.00  0.00     0.010 A 
ATOM     14  C   UNL A   1      49.913  27.641  29.717  1.00  0.00     0.010 A 
ATOM     15  C   UNL A   1      48.679  27.069  29.392  1.00  0.00    -0.014 A 
BRANCH  15  16
ATOM     16  C   UNL A   1      47.410  27.608  29.906  1.00  0.00     0.031 A 
ATOM     17  C   UNL A   1      46.829  26.941  31.115  1.00  0.00     0.074 A 
ATOM     18  C   UNL A   1      46.916  28.757  29.420  1.00  0.00     0.049 A 
ATOM     19  N   UNL A   1      45.722  27.196  31.759  1.00  0.00    -0.248 NA
ATOM     20  C   UNL A   1      47.621  25.841  31.693  1.00  0.00     0.031 C 
ATOM     21  C   UNL A   1      47.531  29.556  28.358  1.00  0.00     0.029 A 
ATOM     22  N   UNL A   1      45.809  29.473  29.782  1.00  0.00    -0.354 N 
ATOM     23  C   UNL A   1      45.670  26.263  32.787  1.00  0.00     0.074 A 
ATOM     24  C   UNL A   1      46.850  25.438  32.687  1.00  0.00     0.031 C 
ATOM     25  C   UNL A   1      46.798  30.665  28.168  1.00  0.00     0.029 A 
ATOM     26  C   UNL A   1      45.632  30.615  29.044  1.00  0.00     0.049 A 
ATOM     27  H   UNL A   1      45.198  29.195  30.502  1.00  0.00     0.167 HD
ATOM     28  C   UNL A   1      44.703  26.110  33.721  1.00  0.00     0.037 A 
ATOM     29  C   UNL A   1      44.614  31.494  29.066  1.00  0.00     0.037 A 
ATOM     30  C   UNL A   1      43.545  26.957  33.785  1.00  0.00     0.049 A 
ATOM     31  C   UNL A   1      43.491  31.239  30.038  1.00  0.00     0.074 A 
ATOM     32  C   UNL A   1      42.453  26.877  34.625  1.00  0.00     0.029 A 
ATOM     33  N   UNL A   1      43.339  28.053  32.954  1.00  0.00    -0.354 N 
ATOM     34  N   UNL A   1      43.386  30.301  30.952  1.00  0.00    -0.248 NA
ATOM     35  C   UNL A   1      42.341  32.147  29.973  1.00  0.00     0.031 C 
ATOM     36  C   UNL A   1      41.560  27.893  34.266  1.00  0.00     0.029 A 
ATOM     37  C   UNL A   1      42.125  28.647  33.246  1.00  0.00     0.049 A 
ATOM     38  H   UNL A   1      43.965  28.362  32.260  1.00  0.00     0.167 HD
ATOM     39  C   UNL A   1      42.173  30.518  31.589  1.00  0.00     0.074 A 
ATOM     40  C   UNL A   1      41.585  31.687  30.960  1.00  0.00     0.031 C 
ATOM     41  C   UNL A   1      41.591  29.821  32.597  1.00  0.00     0.037 A 
BRANCH  28  42
ATOM     42  C   UNL A   1      44.834  24.933  34.644  1.00  0.00     0.064 A 
ATOM     43  C   UNL A   1      45.399  25.040  35.925  1.00  0.00     0.173 A 
ATOM     44  C   UNL A   1      44.467  23.654  34.198  1.00  0.00     0.173 A 
ATOM     45  F   UNL A   1      45.802  26.233  36.389  1.00  0.00    -0.203 F 
ATOM     46  C   UNL A   1      45.635  23.906  36.702  1.00  0.00     0.198 A 
ATOM     47  C   UNL A   1      44.673  22.528  34.990  1.00  0.00     0.198 A 
ATOM     48  F   UNL A   1      43.932  23.492  32.979  1.00  0.00    -0.203 F 
ATOM     49  F   UNL A   1      46.255  24.023  37.885  1.00  0.00    -0.200 F 
ATOM     50  C   UNL A   1      45.271  22.652  36.234  1.00  0.00     0.200 A 
ATOM     51  F   UNL A   1      44.320  21.318  34.536  1.00  0.00    -0.200 F 
ATOM     52  F   UNL A   1      45.518  21.562  36.974  1.00  0.00    -0.200 F 
ENDBRANCH  28  42
BRANCH  29  53
ATOM     53  C   UNL A   1      44.595  32.648  28.126  1.00  0.00     0.064 A 
ATOM     54  C   UNL A   1      44.120  32.511  26.814  1.00  0.00     0.173 A 
ATOM     55  C   UNL A   1      45.048  33.917  28.522  1.00  0.00     0.173 A 
ATOM     56  F   UNL A   1      43.696  31.317  26.376  1.00  0.00    -0.203 F 
ATOM     57  C   UNL A   1      44.109  33.595  25.935  1.00  0.00     0.198 A 
ATOM     58  C   UNL A   1      45.007  35.005  27.652  1.00  0.00     0.198 A 
ATOM     59  F   UNL A   1      45.518  34.106  29.764  1.00  0.00    -0.203 F 
ATOM     60  F   UNL A   1      43.685  33.427  24.674  1.00  0.00    -0.200 F 
ATOM     61  C   UNL A   1      44.543  34.842  26.357  1.00  0.00     0.200 A 
ATOM     62  F   UNL A   1      45.416  36.211  28.071  1.00  0.00    -0.200 F 
ATOM     63  F   UNL A   1      44.523  35.884  25.514  1.00  0.00    -0.200 F 
ENDBRANCH  29  53
BRANCH  41  64
ATOM     64  C   UNL A   1      40.283  30.341  33.111  1.00  0.00     0.064 A 
ATOM     65  C   UNL A   1      40.220  31.345  34.088  1.00  0.00     0.173 A 
ATOM     66  C   UNL A   1      39.080  29.862  32.573  1.00  0.00     0.173 A 
ATOM     67  F   UNL A   1      41.345  31.823  34.639  1.00  0.00    -0.203 F 
ATOM     68  C   UNL A   1      38.993  31.832  34.527  1.00  0.00     0.198 A 
ATOM     69  C   UNL A   1      37.857  30.376  32.990  1.00  0.00     0.198 A 
ATOM     70  F   UNL A   1      39.091  28.909  31.629  1.00  0.00    -0.203 F 
ATOM     71  F   UNL A   1      38.950  32.756  35.497  1.00  0.00    -0.200 F 
ATOM     72  C   UNL A   1      37.814  31.354  33.972  1.00  0.00     0.200 A 
ATOM     73  F   UNL A   1      36.720  29.926  32.440  1.00  0.00    -0.200 F 
ATOM     74  F   UNL A   1      36.635  31.834  34.389  1.00  0.00    -0.200 F 
ENDBRANCH  41  64
ENDBRANCH  15  16
ENDBRANCH   8  10
ENDBRANCH   7   8
ENDBRANCH   6   7
ENDBRANCH   5   6
ENDBRANCH   4   5
ENDBRANCH   3   4
ENDBRANCH   2   3
ENDBRANCH   1   2
BRANCH   1  75
ATOM     75  C   UNL A   1      46.009  27.616  24.804  1.00  0.00     0.188 C 
BRANCH  75  76
ATOM     76  C   UNL A   1      44.646  27.328  25.475  1.00  0.00     0.188 C 
BRANCH  76  77
ATOM     77  O   UNL A   1      44.199  25.985  25.379  1.00  0.00    -0.376 OA
BRANCH  77  78
ATOM     78  C   UNL A   1      42.798  25.817  25.179  1.00  0.00     0.202 C 
BRANCH  78  79
ATOM     79  C   UNL A   1      41.912  26.233  26.362  1.00  0.00     0.261 C 
BRANCH  79  80
ATOM     80  O   UNL A   1      40.504  25.953  26.221  1.00  0.00    -0.460 OA
BRANCH  80  81
ATOM     81  C   UNL A   1      39.831  25.437  27.274  1.00  0.00     0.338 C 
ATOM     82  O   UNL A   1      39.461  26.020  28.275  1.00  0.00    -0.246 OA
BRANCH  81  83
ATOM     83  C   UNL A   1      39.392  24.076  26.876  1.00  0.00     0.067 A 
ATOM     84  C   UNL A   1      38.139  23.927  26.251  1.00  0.00     0.025 A 
ATOM     85  C   UNL A   1      40.257  22.987  26.991  1.00  0.00     0.101 A 
ATOM     86  C   UNL A   1      37.761  22.701  25.677  1.00  0.00    -0.011 A 
ATOM     87  C   UNL A   1      39.856  21.749  26.475  1.00  0.00     0.270 A 
ATOM     88  C   UNL A   1      38.632  21.608  25.801  1.00  0.00     0.094 A 
BRANCH  86  89
ATOM     89  C   UNL A   1      36.459  22.544  25.019  1.00  0.00    -0.018 A 
ATOM     90  C   UNL A   1      36.120  23.234  23.845  1.00  0.00     0.009 A 
ATOM     91  C   UNL A   1      35.516  21.669  25.573  1.00  0.00     0.009 A 
ATOM     92  C   UNL A   1      34.859  23.060  23.253  1.00  0.00     0.014 A 
ATOM     93  C   UNL A   1      34.261  21.494  24.986  1.00  0.00     0.014 A 
ATOM     94  C   UNL A   1      33.914  22.192  23.823  1.00  0.00     0.056 A 
BRANCH  94  95
ATOM     95  C   UNL A   1      32.548  22.022  23.201  1.00  0.00     0.416 C 
ATOM     96  F   UNL A   1      31.884  20.941  23.695  1.00  0.00    -0.166 F 
ATOM     97  F   UNL A   1      31.736  23.093  23.419  1.00  0.00    -0.166 F 
ATOM     98  F   UNL A   1      32.584  21.850  21.849  1.00  0.00    -0.166 F 
ENDBRANCH  94  95
ENDBRANCH  86  89
BRANCH  87  99
ATOM     99  N   UNL A   1      40.716  20.575  26.660  1.00  0.00     0.062 N 
ATOM    100  O   UNL A   1      40.827  20.121  27.807  1.00  0.00    -0.258 OA
ATOM    101  O   UNL A   1      41.295  20.124  25.662  1.00  0.00    -0.258 OA
ENDBRANCH  87  99
ENDBRANCH  81  83
ENDBRANCH  80  81
ENDBRANCH  79  80
ENDBRANCH  78  79
ENDBRANCH  77  78
ENDBRANCH  76  77
ENDBRANCH  75  76
ENDBRANCH   1  75
TORSDOF 23
ENDMDL
MODEL 3
REMARK VINA RESULT:      -9.9      3.753      5.624
REMARK SMILES O=C(OCCOCCOCCOCCOC(=O)c1cc(-c2ccc(C(F)(F)F)cc2)cc([N+](=O)[O-])c1)c1ccc(-c2c3nc(c(-c4c(F)c(F)c(F)c(F)c4F)c4ccc([nH]4)c(-c4c(F)c(F)c(F)c(F)c4F)c4nc(c(-c5c(F)c(F)c(F)c(F)c5F)c5ccc2[nH]5)C=C4)C=C3)cc1
REMARK SMILES IDX 9 1 8 2 7 3 6 4 5 5 4 6 3 7 2 8 1 9 37 10 38 11 99 12 39 13
REMARK SMILES IDX 98 14 40 15 41 16 42 17 92 18 43 19 97 20 91 21 93 22 44 23
REMARK SMILES IDX 96 24 90 25 89 26 45 28 77 29 57 30 76 31 58 32 61 33 75 34
REMARK SMILES IDX 94 35 59 36 60 37 74 39 95 40 62 41 46 42 47 43 55 44 48 45
REMARK SMILES IDX 49 46 53 47 56 48 50 49 51 50 54 51 52 52 78 53 79 54 87 55
REMARK SMILES IDX 80 56 81 57 85 58 88 59 82 60 83 61 86 62 84 63 63 64 64 65
REMARK SMILES IDX 72 66 65 67 66 68 70 69 73 70 67 71 68 72 71 73 69 74 10 75
REMARK SMILES IDX 11 76 12 77 13 78 14 79 15 80 16 81 17 82 18 83 19 84 36 85
REMARK SMILES IDX 20 86 32 87 31 88 21 89 22 90 30 91 23 92 29 93 24 94 25 95
REMARK SMILES IDX 26 96 27 97 28 98 33 99 34 100 35 101
REMARK H PARENT 93 27 61 38
REMARK Flexibility Score: inf
ROOT
ATOM      1  O   UNL A   1      37.912  21.327  25.354  1.00  0.00    -0.377 OA
ENDROOT
BRANCH   1   2
ATOM      2  C   UNL A   1      38.888  22.234  25.856  1.00  0.00     0.188 C 
BRANCH   2   3
ATOM      3  C   UNL A   1      39.919  21.627  26.805  1.00  0.00     0.188 C 
BRANCH   3   4
ATOM      4  O   UNL A   1      40.883  20.841  26.100  1.00  0.00    -0.376 OA
BRANCH   4   5
ATOM      5  C   UNL A   1      42.232  20.975  26.554  1.00  0.00     0.202 C 
BRANCH   5   6
ATOM      6  C   UNL A   1      43.022  22.092  25.870  1.00  0.00     0.261 C 
BRANCH   6   7
ATOM      7  O   UNL A   1      44.173  22.495  26.624  1.00  0.00    -0.460 OA
BRANCH   7   8
ATOM      8  C   UNL A   1      45.390  22.868  26.157  1.00  0.00     0.338 C 
ATOM      9  O   UNL A   1      46.141  21.988  25.738  1.00  0.00    -0.246 OA
BRANCH   8  10
ATOM     10  C   UNL A   1      45.889  24.282  26.106  1.00  0.00     0.060 A 
ATOM     11  C   UNL A   1      45.905  25.109  24.980  1.00  0.00     0.016 A 
ATOM     12  C   UNL A   1      46.339  24.831  27.320  1.00  0.00     0.016 A 
ATOM     13  C   UNL A   1      46.413  26.398  25.024  1.00  0.00     0.010 A 
ATOM     14  C   UNL A   1      46.849  26.132  27.381  1.00  0.00     0.010 A 
ATOM     15  C   UNL A   1      46.926  26.897  26.214  1.00  0.00    -0.014 A 
BRANCH  15  16
ATOM     16  C   UNL A   1      47.772  28.097  26.123  1.00  0.00     0.031 A 
ATOM     17  C   UNL A   1      47.127  29.409  26.449  1.00  0.00     0.074 A 
ATOM     18  C   UNL A   1      49.097  27.980  25.942  1.00  0.00     0.049 A 
ATOM     19  N   UNL A   1      47.628  30.614  26.431  1.00  0.00    -0.248 NA
ATOM     20  C   UNL A   1      45.718  29.351  26.878  1.00  0.00     0.031 C 
ATOM     21  C   UNL A   1      49.818  26.715  25.795  1.00  0.00     0.029 A 
ATOM     22  N   UNL A   1      50.075  28.933  25.894  1.00  0.00    -0.354 N 
ATOM     23  C   UNL A   1      46.586  31.454  26.805  1.00  0.00     0.074 A 
ATOM     24  C   UNL A   1      45.427  30.628  27.044  1.00  0.00     0.031 C 
ATOM     25  C   UNL A   1      51.132  26.972  25.692  1.00  0.00     0.029 A 
ATOM     26  C   UNL A   1      51.331  28.418  25.695  1.00  0.00     0.049 A 
ATOM     27  H   UNL A   1      49.896  29.896  25.993  1.00  0.00     0.167 HD
ATOM     28  C   UNL A   1      46.606  32.801  26.919  1.00  0.00     0.037 A 
ATOM     29  C   UNL A   1      52.496  29.063  25.506  1.00  0.00     0.037 A 
ATOM     30  C   UNL A   1      47.784  33.584  26.672  1.00  0.00     0.049 A 
ATOM     31  C   UNL A   1      52.472  30.569  25.524  1.00  0.00     0.074 A 
ATOM     32  C   UNL A   1      47.936  34.956  26.678  1.00  0.00     0.029 A 
ATOM     33  N   UNL A   1      49.028  33.039  26.370  1.00  0.00    -0.354 N 
ATOM     34  N   UNL A   1      51.469  31.377  25.782  1.00  0.00    -0.248 NA
ATOM     35  C   UNL A   1      53.730  31.254  25.209  1.00  0.00     0.031 C 
ATOM     36  C   UNL A   1      49.260  35.243  26.325  1.00  0.00     0.029 A 
ATOM     37  C   UNL A   1      49.950  34.048  26.164  1.00  0.00     0.049 A 
ATOM     38  H   UNL A   1      49.224  32.077  26.311  1.00  0.00     0.167 HD
ATOM     39  C   UNL A   1      51.976  32.664  25.687  1.00  0.00     0.074 A 
ATOM     40  C   UNL A   1      53.383  32.525  25.357  1.00  0.00     0.031 C 
ATOM     41  C   UNL A   1      51.347  33.854  25.851  1.00  0.00     0.037 A 
BRANCH  28  42
ATOM     42  C   UNL A   1      45.298  33.475  27.218  1.00  0.00     0.064 A 
ATOM     43  C   UNL A   1      44.469  33.991  26.208  1.00  0.00     0.173 A 
ATOM     44  C   UNL A   1      44.911  33.686  28.550  1.00  0.00     0.173 A 
ATOM     45  F   UNL A   1      44.807  33.850  24.918  1.00  0.00    -0.203 F 
ATOM     46  C   UNL A   1      43.332  34.734  26.524  1.00  0.00     0.198 A 
ATOM     47  C   UNL A   1      43.757  34.400  28.861  1.00  0.00     0.198 A 
ATOM     48  F   UNL A   1      45.671  33.225  29.555  1.00  0.00    -0.203 F 
ATOM     49  F   UNL A   1      42.604  35.291  25.546  1.00  0.00    -0.200 F 
ATOM     50  C   UNL A   1      42.977  34.937  27.850  1.00  0.00     0.200 A 
ATOM     51  F   UNL A   1      43.416  34.594  30.143  1.00  0.00    -0.200 F 
ATOM     52  F   UNL A   1      41.895  35.669  28.151  1.00  0.00    -0.200 F 
ENDBRANCH  28  42
BRANCH  29  53
ATOM     53  C   UNL A   1      53.746  28.297  25.246  1.00  0.00     0.064 A 
ATOM     54  C   UNL A   1      54.512  27.775  26.297  1.00  0.00     0.173 A 
ATOM     55  C   UNL A   1      54.198  28.066  23.937  1.00  0.00     0.173 A 
ATOM     56  F   UNL A   1      54.138  27.985  27.567  1.00  0.00    -0.203 F 
ATOM     57  C   UNL A   1      55.686  27.062  26.048  1.00  0.00     0.198 A 
ATOM     58  C   UNL A   1      55.354  27.327  23.690  1.00  0.00     0.198 A 
ATOM     59  F   UNL A   1      53.508  28.546  22.892  1.00  0.00    -0.203 F 
ATOM     60  F   UNL A   1      56.420  26.607  27.074  1.00  0.00    -0.200 F 
ATOM     61  C   UNL A   1      56.101  26.831  24.746  1.00  0.00     0.200 A 
ATOM     62  F   UNL A   1      55.742  27.096  22.427  1.00  0.00    -0.200 F 
ATOM     63  F   UNL A   1      57.223  26.138  24.509  1.00  0.00    -0.200 F 
ENDBRANCH  29  53
BRANCH  41  64
ATOM     64  C   UNL A   1      52.190  35.088  25.732  1.00  0.00     0.064 A 
ATOM     65  C   UNL A   1      52.432  35.699  24.493  1.00  0.00     0.173 A 
ATOM     66  C   UNL A   1      52.713  35.692  26.884  1.00  0.00     0.173 A 
ATOM     67  F   UNL A   1      51.962  35.148  23.364  1.00  0.00    -0.203 F 
ATOM     68  C   UNL A   1      53.194  36.860  24.412  1.00  0.00     0.198 A 
ATOM     69  C   UNL A   1      53.444  36.872  26.802  1.00  0.00     0.198 A 
ATOM     70  F   UNL A   1      52.498  35.149  28.091  1.00  0.00    -0.203 F 
ATOM     71  F   UNL A   1      53.458  37.403  23.215  1.00  0.00    -0.200 F 
ATOM     72  C   UNL A   1      53.690  37.451  25.565  1.00  0.00     0.200 A 
ATOM     73  F   UNL A   1      53.908  37.450  27.918  1.00  0.00    -0.200 F 
ATOM     74  F   UNL A   1      54.414  38.576  25.485  1.00  0.00    -0.200 F 
ENDBRANCH  41  64
ENDBRANCH  15  16
ENDBRANCH   8  10
ENDBRANCH   7   8
ENDBRANCH   6   7
ENDBRANCH   5   6
ENDBRANCH   4   5
ENDBRANCH   3   4
ENDBRANCH   2   3
ENDBRANCH   1   2
BRANCH   1  75
ATOM     75  C   UNL A   1      36.549  21.654  25.586  1.00  0.00     0.188 C 
BRANCH  75  76
ATOM     76  C   UNL A   1      36.134  23.141  25.683  1.00  0.00     0.188 C 
BRANCH  76  77
ATOM     77  O   UNL A   1      34.855  23.446  25.149  1.00  0.00    -0.376 OA
BRANCH  77  78
ATOM     78  C   UNL A   1      34.494  24.824  25.174  1.00  0.00     0.202 C 
BRANCH  78  79
ATOM     79  C   UNL A   1      33.326  25.212  24.255  1.00  0.00     0.261 C 
BRANCH  79  80
ATOM     80  O   UNL A   1      32.007  24.916  24.757  1.00  0.00    -0.460 OA
BRANCH  80  81
ATOM     81  C   UNL A   1      31.570  25.557  25.865  1.00  0.00     0.338 C 
ATOM     82  O   UNL A   1      31.648  25.179  27.018  1.00  0.00    -0.246 OA
BRANCH  81  83
ATOM     83  C   UNL A   1      31.205  26.934  25.447  1.00  0.00     0.067 A 
ATOM     84  C   UNL A   1      31.759  28.021  26.149  1.00  0.00     0.025 A 
ATOM     85  C   UNL A   1      30.440  27.150  24.300  1.00  0.00     0.101 A 
ATOM     86  C   UNL A   1      31.609  29.335  25.677  1.00  0.00    -0.011 A 
ATOM     87  C   UNL A   1      30.238  28.464  23.863  1.00  0.00     0.270 A 
ATOM     88  C   UNL A   1      30.834  29.548  24.527  1.00  0.00     0.094 A 
BRANCH  86  89
ATOM     89  C   UNL A   1      32.190  30.471  26.402  1.00  0.00    -0.018 A 
ATOM     90  C   UNL A   1      33.437  30.396  27.044  1.00  0.00     0.009 A 
ATOM     91  C   UNL A   1      31.485  31.680  26.455  1.00  0.00     0.009 A 
ATOM     92  C   UNL A   1      33.953  31.504  27.733  1.00  0.00     0.014 A 
ATOM     93  C   UNL A   1      31.996  32.784  27.141  1.00  0.00     0.014 A 
ATOM     94  C   UNL A   1      33.232  32.709  27.795  1.00  0.00     0.056 A 
BRANCH  94  95
ATOM     95  C   UNL A   1      33.775  33.894  28.557  1.00  0.00     0.416 C 
ATOM     96  F   UNL A   1      34.475  33.522  29.664  1.00  0.00    -0.166 F 
ATOM     97  F   UNL A   1      34.627  34.651  27.812  1.00  0.00    -0.166 F 
ATOM     98  F   UNL A   1      32.807  34.746  28.999  1.00  0.00    -0.166 F 
ENDBRANCH  94  95
ENDBRANCH  86  89
BRANCH  87  99
ATOM     99  N   UNL A   1      29.369  28.717  22.707  1.00  0.00     0.062 N 
ATOM    100  O   UNL A   1      28.156  28.509  22.845  1.00  0.00    -0.258 OA
ATOM    101  O   UNL A   1      29.905  29.100  21.659  1.00  0.00    -0.258 OA
ENDBRANCH  87  99
ENDBRANCH  81  83
ENDBRANCH  80  81
ENDBRANCH  79  80
ENDBRANCH  78  79
ENDBRANCH  77  78
ENDBRANCH  76  77
ENDBRANCH  75  76
ENDBRANCH   1  75
TORSDOF 23
ENDMDL
