MODEL 1
REMARK VINA RESULT:      -9.4      0.000      0.000
REMARK SMILES NS(=O)(=O)c1ccc(N2N=C(C(=O)OCCOCCOCCOCCOC(=O)c3ccc(-c4c5nc(c(-c6c(F)c(F)c(F)c(F)c6F)c6ccc([nH]6)c(-c6c(F)c(F)c(F)c(F)c6F)c6nc(c(-c7c(F)c(F)c(F)c(F)c7F)c7ccc4[nH]7)C=C6)C=C5)cc3)C[C@H]2c2ccco2)cc1
REMARK SMILES IDX 19 1 18 2 17 3 16 4 15 5 14 6 12 7 13 8 11 9 9 10 10 11
REMARK SMILES IDX 93 12 92 13 8 14 5 15 6 16 100 17 7 18 99 19 2 20 3 21 4 22
REMARK SMILES IDX 1 23 94 26 95 27 98 28 96 29 97 30 20 31 21 32 22 33 23 34
REMARK SMILES IDX 24 35 25 36 26 37 27 38 28 39 29 40 30 41 91 42 31 43 90 44
REMARK SMILES IDX 32 45 33 46 34 47 84 48 35 49 89 50 83 51 85 52 36 53 88 54
REMARK SMILES IDX 82 55 81 56 37 58 69 59 49 60 68 61 50 62 53 63 67 64 86 65
REMARK SMILES IDX 51 66 52 67 66 69 87 70 54 71 38 72 39 73 47 74 40 75 41 76
REMARK SMILES IDX 45 77 48 78 42 79 43 80 46 81 44 82 70 83 71 84 79 85 72 86
REMARK SMILES IDX 73 87 77 88 80 89 74 90 75 91 78 92 76 93 55 94 56 95 64 96
REMARK SMILES IDX 57 97 58 98 62 99 65 100 59 101 60 102 63 103 61 104
REMARK H PARENT 1 24 1 25 85 57 53 68
REMARK Flexibility Score: inf
ROOT
ATOM      1  C   UNL A   1      34.687  31.156  27.622  1.00  0.00     0.188 C 
ENDROOT
BRANCH   1   2
ATOM      2  C   UNL A   1      34.453  29.637  27.554  1.00  0.00     0.188 C 
BRANCH   2   3
ATOM      3  O   UNL A   1      33.220  29.283  26.931  1.00  0.00    -0.376 OA
BRANCH   3   4
ATOM      4  C   UNL A   1      32.524  28.180  27.501  1.00  0.00     0.202 C 
BRANCH   4   5
ATOM      5  C   UNL A   1      31.705  27.350  26.504  1.00  0.00     0.261 C 
BRANCH   5   6
ATOM      6  O   UNL A   1      31.986  25.946  26.565  1.00  0.00    -0.459 OA
BRANCH   6   7
ATOM      7  C   UNL A   1      31.023  25.118  26.126  1.00  0.00     0.354 C 
ATOM      8  O   UNL A   1      29.826  25.195  26.322  1.00  0.00    -0.245 OA
BRANCH   7   9
ATOM      9  C   UNL A   1      31.666  24.146  25.169  1.00  0.00     0.148 C 
ATOM     10  N   UNL A   1      32.235  22.324  24.248  1.00  0.00    -0.254 N 
ATOM     11  N   UNL A   1      31.601  22.859  25.335  1.00  0.00    -0.169 NA
ATOM     12  C   UNL A   1      33.040  23.333  23.529  1.00  0.00     0.180 C 
ATOM     13  C   UNL A   1      32.284  24.619  23.892  1.00  0.00     0.101 C 
BRANCH  10  14
ATOM     14  C   UNL A   1      32.560  20.974  24.282  1.00  0.00     0.060 A 
ATOM     15  C   UNL A   1      33.148  18.227  24.363  1.00  0.00     0.082 A 
ATOM     16  C   UNL A   1      32.467  18.760  23.266  1.00  0.00     0.024 A 
ATOM     17  C   UNL A   1      33.537  19.049  25.419  1.00  0.00     0.024 A 
ATOM     18  C   UNL A   1      32.178  20.129  23.229  1.00  0.00     0.029 A 
ATOM     19  C   UNL A   1      33.225  20.410  25.378  1.00  0.00     0.029 A 
BRANCH  15  20
ATOM     20  S   UNL A   1      33.512  16.499  24.371  1.00  0.00     0.238 S 
ATOM     21  O   UNL A   1      34.038  16.136  23.076  1.00  0.00    -0.207 OA
ATOM     22  O   UNL A   1      32.412  15.799  24.993  1.00  0.00    -0.207 OA
BRANCH  20  23
ATOM     23  N   UNL A   1      34.810  16.340  25.429  1.00  0.00    -0.225 NA
ATOM     24  H   UNL A   1      35.105  15.364  25.463  1.00  0.00     0.137 HD
ATOM     25  H   UNL A   1      34.526  16.641  26.361  1.00  0.00     0.137 HD
ENDBRANCH  20  23
ENDBRANCH  15  20
ENDBRANCH  10  14
BRANCH  12  26
ATOM     26  C   UNL A   1      34.497  23.428  23.900  1.00  0.00     0.128 A 
ATOM     27  C   UNL A   1      35.150  23.779  25.066  1.00  0.00     0.048 A 
ATOM     28  O   UNL A   1      35.419  23.134  22.933  1.00  0.00    -0.467 OA
ATOM     29  C   UNL A   1      36.537  23.706  24.789  1.00  0.00     0.042 A 
ATOM     30  C   UNL A   1      36.647  23.297  23.482  1.00  0.00     0.195 A 
ENDBRANCH  12  26
ENDBRANCH   7   9
ENDBRANCH   6   7
ENDBRANCH   5   6
ENDBRANCH   4   5
ENDBRANCH   3   4
ENDBRANCH   2   3
ENDBRANCH   1   2
BRANCH   1  31
ATOM     31  O   UNL A   1      34.207  31.797  28.792  1.00  0.00    -0.377 OA
BRANCH  31  32
ATOM     32  C   UNL A   1      34.834  33.007  29.221  1.00  0.00     0.188 C 
BRANCH  32  33
ATOM     33  C   UNL A   1      34.449  33.728  30.534  1.00  0.00     0.188 C 
BRANCH  33  34
ATOM     34  O   UNL A   1      34.177  32.867  31.630  1.00  0.00    -0.376 OA
BRANCH  34  35
ATOM     35  C   UNL A   1      34.388  33.399  32.930  1.00  0.00     0.202 C 
BRANCH  35  36
ATOM     36  C   UNL A   1      35.646  32.865  33.623  1.00  0.00     0.261 C 
BRANCH  36  37
ATOM     37  O   UNL A   1      36.727  32.527  32.738  1.00  0.00    -0.460 OA
BRANCH  37  38
ATOM     38  C   UNL A   1      37.716  33.434  32.593  1.00  0.00     0.338 C 
ATOM     39  O   UNL A   1      37.646  34.641  32.725  1.00  0.00    -0.246 OA
BRANCH  38  40
ATOM     40  C   UNL A   1      38.976  32.689  32.411  1.00  0.00     0.060 A 
ATOM     41  C   UNL A   1      40.057  32.962  33.257  1.00  0.00     0.016 A 
ATOM     42  C   UNL A   1      39.079  31.718  31.414  1.00  0.00     0.016 A 
ATOM     43  C   UNL A   1      41.262  32.278  33.088  1.00  0.00     0.010 A 
ATOM     44  C   UNL A   1      40.287  31.046  31.235  1.00  0.00     0.010 A 
ATOM     45  C   UNL A   1      41.392  31.341  32.054  1.00  0.00    -0.014 A 
BRANCH  45  46
ATOM     46  C   UNL A   1      42.719  30.782  31.709  1.00  0.00     0.031 A 
ATOM     47  C   UNL A   1      43.579  31.530  30.732  1.00  0.00     0.074 A 
ATOM     48  C   UNL A   1      43.141  29.617  32.229  1.00  0.00     0.049 A 
ATOM     49  N   UNL A   1      44.731  31.196  30.209  1.00  0.00    -0.248 NA
ATOM     50  C   UNL A   1      43.063  32.831  30.275  1.00  0.00     0.031 C 
ATOM     51  C   UNL A   1      42.409  28.813  33.203  1.00  0.00     0.029 A 
ATOM     52  N   UNL A   1      44.287  28.900  31.989  1.00  0.00    -0.354 N 
ATOM     53  C   UNL A   1      45.073  32.239  29.359  1.00  0.00     0.074 A 
ATOM     54  C   UNL A   1      43.997  33.204  29.414  1.00  0.00     0.031 C 
ATOM     55  C   UNL A   1      43.112  27.695  33.459  1.00  0.00     0.029 A 
ATOM     56  C   UNL A   1      44.325  27.694  32.642  1.00  0.00     0.049 A 
ATOM     57  H   UNL A   1      45.011  29.220  31.402  1.00  0.00     0.167 HD
ATOM     58  C   UNL A   1      46.189  32.381  28.607  1.00  0.00     0.037 A 
ATOM     59  C   UNL A   1      45.224  26.692  32.563  1.00  0.00     0.037 A 
ATOM     60  C   UNL A   1      47.254  31.417  28.547  1.00  0.00     0.049 A 
ATOM     61  C   UNL A   1      46.425  26.841  31.663  1.00  0.00     0.074 A 
ATOM     62  C   UNL A   1      48.442  31.485  27.840  1.00  0.00     0.029 A 
ATOM     63  N   UNL A   1      47.252  30.199  29.211  1.00  0.00    -0.354 N 
ATOM     64  N   UNL A   1      46.766  27.848  30.896  1.00  0.00    -0.248 NA
ATOM     65  C   UNL A   1      47.365  25.712  31.618  1.00  0.00     0.031 C 
ATOM     66  C   UNL A   1      49.133  30.284  28.033  1.00  0.00     0.029 A 
ATOM     67  C   UNL A   1      48.402  29.490  28.903  1.00  0.00     0.049 A 
ATOM     68  H   UNL A   1      46.537  29.884  29.812  1.00  0.00     0.167 HD
ATOM     69  C   UNL A   1      47.966  27.486  30.298  1.00  0.00     0.074 A 
ATOM     70  C   UNL A   1      48.302  26.171  30.800  1.00  0.00     0.031 C 
ATOM     71  C   UNL A   1      48.723  28.181  29.411  1.00  0.00     0.037 A 
BRANCH  58  72
ATOM     72  C   UNL A   1      46.294  33.616  27.759  1.00  0.00     0.064 A 
ATOM     73  C   UNL A   1      46.951  34.769  28.213  1.00  0.00     0.173 A 
ATOM     74  C   UNL A   1      45.745  33.636  26.468  1.00  0.00     0.173 A 
ATOM     75  F   UNL A   1      47.479  34.803  29.447  1.00  0.00    -0.203 F 
ATOM     76  C   UNL A   1      47.029  35.908  27.418  1.00  0.00     0.198 A 
ATOM     77  C   UNL A   1      45.851  34.768  25.664  1.00  0.00     0.198 A 
ATOM     78  F   UNL A   1      45.109  32.559  25.986  1.00  0.00    -0.203 F 
ATOM     79  F   UNL A   1      47.616  37.016  27.892  1.00  0.00    -0.200 F 
ATOM     80  C   UNL A   1      46.484  35.905  26.143  1.00  0.00     0.200 A 
ATOM     81  F   UNL A   1      45.333  34.760  24.428  1.00  0.00    -0.200 F 
ATOM     82  F   UNL A   1      46.562  37.002  25.377  1.00  0.00    -0.200 F 
ENDBRANCH  58  72
BRANCH  59  83
ATOM     83  C   UNL A   1      45.010  25.444  33.341  1.00  0.00     0.064 A 
ATOM     84  C   UNL A   1      45.514  25.303  34.641  1.00  0.00     0.173 A 
ATOM     85  C   UNL A   1      44.306  24.361  32.793  1.00  0.00     0.173 A 
ATOM     86  F   UNL A   1      46.219  26.300  35.196  1.00  0.00    -0.203 F 
ATOM     87  C   UNL A   1      45.337  24.121  35.357  1.00  0.00     0.198 A 
ATOM     88  C   UNL A   1      44.105  23.190  33.521  1.00  0.00     0.198 A 
ATOM     89  F   UNL A   1      43.806  24.444  31.551  1.00  0.00    -0.203 F 
ATOM     90  F   UNL A   1      45.867  23.996  36.581  1.00  0.00    -0.200 F 
ATOM     91  C   UNL A   1      44.626  23.068  34.800  1.00  0.00     0.200 A 
ATOM     92  F   UNL A   1      43.408  22.180  32.982  1.00  0.00    -0.200 F 
ATOM     93  F   UNL A   1      44.451  21.934  35.492  1.00  0.00    -0.200 F 
ENDBRANCH  59  83
BRANCH  71  94
ATOM     94  C   UNL A   1      50.001  27.547  28.943  1.00  0.00     0.064 A 
ATOM     95  C   UNL A   1      51.211  27.740  29.625  1.00  0.00     0.173 A 
ATOM     96  C   UNL A   1      50.003  26.690  27.831  1.00  0.00     0.173 A 
ATOM     97  F   UNL A   1      51.265  28.561  30.685  1.00  0.00    -0.203 F 
ATOM     98  C   UNL A   1      52.380  27.113  29.199  1.00  0.00     0.198 A 
ATOM     99  C   UNL A   1      51.167  26.042  27.427  1.00  0.00     0.198 A 
ATOM    100  F   UNL A   1      48.870  26.464  27.149  1.00  0.00    -0.203 F 
ATOM    101  F   UNL A   1      53.534  27.344  29.841  1.00  0.00    -0.200 F 
ATOM    102  C   UNL A   1      52.355  26.259  28.107  1.00  0.00     0.200 A 
ATOM    103  F   UNL A   1      51.137  25.205  26.380  1.00  0.00    -0.200 F 
ATOM    104  F   UNL A   1      53.479  25.647  27.706  1.00  0.00    -0.200 F 
ENDBRANCH  71  94
ENDBRANCH  45  46
ENDBRANCH  38  40
ENDBRANCH  37  38
ENDBRANCH  36  37
ENDBRANCH  35  36
ENDBRANCH  34  35
ENDBRANCH  33  34
ENDBRANCH  32  33
ENDBRANCH  31  32
ENDBRANCH   1  31
TORSDOF 24
ENDMDL
MODEL 2
REMARK VINA RESULT:      -9.3      6.859      9.831
REMARK SMILES NS(=O)(=O)c1ccc(N2N=C(C(=O)OCCOCCOCCOCCOC(=O)c3ccc(-c4c5nc(c(-c6c(F)c(F)c(F)c(F)c6F)c6ccc([nH]6)c(-c6c(F)c(F)c(F)c(F)c6F)c6nc(c(-c7c(F)c(F)c(F)c(F)c7F)c7ccc4[nH]7)C=C6)C=C5)cc3)C[C@H]2c2ccco2)cc1
REMARK SMILES IDX 19 1 18 2 17 3 16 4 15 5 14 6 12 7 13 8 11 9 9 10 10 11
REMARK SMILES IDX 93 12 92 13 8 14 5 15 6 16 100 17 7 18 99 19 2 20 3 21 4 22
REMARK SMILES IDX 1 23 94 26 95 27 98 28 96 29 97 30 20 31 21 32 22 33 23 34
REMARK SMILES IDX 24 35 25 36 26 37 27 38 28 39 29 40 30 41 91 42 31 43 90 44
REMARK SMILES IDX 32 45 33 46 34 47 84 48 35 49 89 50 83 51 85 52 36 53 88 54
REMARK SMILES IDX 82 55 81 56 37 58 69 59 49 60 68 61 50 62 53 63 67 64 86 65
REMARK SMILES IDX 51 66 52 67 66 69 87 70 54 71 38 72 39 73 47 74 40 75 41 76
REMARK SMILES IDX 45 77 48 78 42 79 43 80 46 81 44 82 70 83 71 84 79 85 72 86
REMARK SMILES IDX 73 87 77 88 80 89 74 90 75 91 78 92 76 93 55 94 56 95 64 96
REMARK SMILES IDX 57 97 58 98 62 99 65 100 59 101 60 102 63 103 61 104
REMARK H PARENT 1 24 1 25 85 57 53 68
REMARK Flexibility Score: inf
ROOT
ATOM      1  C   UNL A   1      34.041  30.771  27.253  1.00  0.00     0.188 C 
ENDROOT
BRANCH   1   2
ATOM      2  C   UNL A   1      33.518  29.376  27.637  1.00  0.00     0.188 C 
BRANCH   2   3
ATOM      3  O   UNL A   1      32.337  29.001  26.929  1.00  0.00    -0.376 OA
BRANCH   3   4
ATOM      4  C   UNL A   1      32.064  27.605  26.863  1.00  0.00     0.202 C 
BRANCH   4   5
ATOM      5  C   UNL A   1      31.651  27.095  25.476  1.00  0.00     0.261 C 
BRANCH   5   6
ATOM      6  O   UNL A   1      31.013  25.813  25.507  1.00  0.00    -0.459 OA
BRANCH   6   7
ATOM      7  C   UNL A   1      30.427  25.402  24.370  1.00  0.00     0.354 C 
ATOM      8  O   UNL A   1      29.458  25.880  23.815  1.00  0.00    -0.245 OA
BRANCH   7   9
ATOM      9  C   UNL A   1      31.302  24.326  23.776  1.00  0.00     0.148 C 
ATOM     10  N   UNL A   1      32.071  22.410  23.296  1.00  0.00    -0.254 N 
ATOM     11  N   UNL A   1      31.155  23.069  24.069  1.00  0.00    -0.169 NA
ATOM     12  C   UNL A   1      33.081  23.331  22.735  1.00  0.00     0.180 C 
ATOM     13  C   UNL A   1      32.286  24.645  22.696  1.00  0.00     0.101 C 
BRANCH  10  14
ATOM     14  C   UNL A   1      32.335  21.078  23.589  1.00  0.00     0.060 A 
ATOM     15  C   UNL A   1      32.939  18.399  24.184  1.00  0.00     0.082 A 
ATOM     16  C   UNL A   1      33.060  19.376  25.176  1.00  0.00     0.024 A 
ATOM     17  C   UNL A   1      32.522  18.746  22.900  1.00  0.00     0.024 A 
ATOM     18  C   UNL A   1      32.757  20.708  24.875  1.00  0.00     0.029 A 
ATOM     19  C   UNL A   1      32.240  20.083  22.609  1.00  0.00     0.029 A 
BRANCH  15  20
ATOM     20  S   UNL A   1      33.313  16.724  24.600  1.00  0.00     0.238 S 
ATOM     21  O   UNL A   1      33.554  15.992  23.379  1.00  0.00    -0.207 OA
ATOM     22  O   UNL A   1      32.378  16.280  25.608  1.00  0.00    -0.207 OA
BRANCH  20  23
ATOM     23  N   UNL A   1      34.808  16.798  25.368  1.00  0.00    -0.225 NA
ATOM     24  H   UNL A   1      34.756  16.312  26.263  1.00  0.00     0.137 HD
ATOM     25  H   UNL A   1      35.061  17.773  25.525  1.00  0.00     0.137 HD
ENDBRANCH  20  23
ENDBRANCH  15  20
ENDBRANCH  10  14
BRANCH  12  26
ATOM     26  C   UNL A   1      34.362  23.487  23.513  1.00  0.00     0.128 A 
ATOM     27  C   UNL A   1      35.654  23.049  23.296  1.00  0.00     0.048 A 
ATOM     28  O   UNL A   1      34.309  24.180  24.691  1.00  0.00    -0.467 OA
ATOM     29  C   UNL A   1      36.421  23.488  24.402  1.00  0.00     0.042 A 
ATOM     30  C   UNL A   1      35.558  24.182  25.216  1.00  0.00     0.195 A 
ENDBRANCH  12  26
ENDBRANCH   7   9
ENDBRANCH   6   7
ENDBRANCH   5   6
ENDBRANCH   4   5
ENDBRANCH   3   4
ENDBRANCH   2   3
ENDBRANCH   1   2
BRANCH   1  31
ATOM     31  O   UNL A   1      33.679  31.822  28.134  1.00  0.00    -0.377 OA
BRANCH  31  32
ATOM     32  C   UNL A   1      33.945  33.170  27.743  1.00  0.00     0.188 C 
BRANCH  32  33
ATOM     33  C   UNL A   1      33.214  34.382  28.368  1.00  0.00     0.188 C 
BRANCH  33  34
ATOM     34  O   UNL A   1      32.995  34.288  29.768  1.00  0.00    -0.376 OA
BRANCH  34  35
ATOM     35  C   UNL A   1      33.371  35.412  30.551  1.00  0.00     0.202 C 
BRANCH  35  36
ATOM     36  C   UNL A   1      33.939  35.049  31.928  1.00  0.00     0.261 C 
BRANCH  36  37
ATOM     37  O   UNL A   1      33.664  33.706  32.359  1.00  0.00    -0.460 OA
BRANCH  37  38
ATOM     38  C   UNL A   1      34.654  32.797  32.228  1.00  0.00     0.338 C 
ATOM     39  O   UNL A   1      34.881  32.074  31.277  1.00  0.00    -0.246 OA
BRANCH  38  40
ATOM     40  C   UNL A   1      35.550  32.949  33.391  1.00  0.00     0.060 A 
ATOM     41  C   UNL A   1      35.289  33.960  34.324  1.00  0.00     0.016 A 
ATOM     42  C   UNL A   1      36.635  32.087  33.557  1.00  0.00     0.016 A 
ATOM     43  C   UNL A   1      36.136  34.127  35.420  1.00  0.00     0.010 A 
ATOM     44  C   UNL A   1      37.489  32.265  34.644  1.00  0.00     0.010 A 
ATOM     45  C   UNL A   1      37.260  33.302  35.566  1.00  0.00    -0.014 A 
BRANCH  45  46
ATOM     46  C   UNL A   1      38.293  33.612  36.580  1.00  0.00     0.031 A 
ATOM     47  C   UNL A   1      39.597  34.196  36.118  1.00  0.00     0.074 A 
ATOM     48  C   UNL A   1      38.091  33.353  37.883  1.00  0.00     0.049 A 
ATOM     49  N   UNL A   1      40.680  34.464  36.803  1.00  0.00    -0.248 NA
ATOM     50  C   UNL A   1      39.696  34.513  34.684  1.00  0.00     0.031 C 
ATOM     51  C   UNL A   1      36.862  32.811  38.455  1.00  0.00     0.029 A 
ATOM     52  N   UNL A   1      38.932  33.494  38.958  1.00  0.00    -0.354 N 
ATOM     53  C   UNL A   1      41.587  34.973  35.884  1.00  0.00     0.074 A 
ATOM     54  C   UNL A   1      40.941  34.952  34.591  1.00  0.00     0.031 C 
ATOM     55  C   UNL A   1      37.037  32.639  39.777  1.00  0.00     0.029 A 
ATOM     56  C   UNL A   1      38.401  33.029  40.135  1.00  0.00     0.049 A 
ATOM     57  H   UNL A   1      39.832  33.890  38.891  1.00  0.00     0.167 HD
ATOM     58  C   UNL A   1      42.844  35.424  36.103  1.00  0.00     0.037 A 
ATOM     59  C   UNL A   1      38.965  32.904  41.353  1.00  0.00     0.037 A 
ATOM     60  C   UNL A   1      43.488  35.436  37.389  1.00  0.00     0.049 A 
ATOM     61  C   UNL A   1      40.392  33.347  41.559  1.00  0.00     0.074 A 
ATOM     62  C   UNL A   1      44.748  35.903  37.720  1.00  0.00     0.029 A 
ATOM     63  N   UNL A   1      42.925  34.942  38.557  1.00  0.00    -0.354 N 
ATOM     64  N   UNL A   1      41.231  33.869  40.697  1.00  0.00    -0.248 NA
ATOM     65  C   UNL A   1      40.951  33.181  42.909  1.00  0.00     0.031 C 
ATOM     66  C   UNL A   1      44.968  35.642  39.076  1.00  0.00     0.029 A 
ATOM     67  C   UNL A   1      43.825  35.061  39.604  1.00  0.00     0.049 A 
ATOM     68  H   UNL A   1      42.019  34.562  38.630  1.00  0.00     0.167 HD
ATOM     69  C   UNL A   1      42.403  34.115  41.402  1.00  0.00     0.074 A 
ATOM     70  C   UNL A   1      42.163  33.697  42.767  1.00  0.00     0.031 C 
ATOM     71  C   UNL A   1      43.572  34.640  40.958  1.00  0.00     0.037 A 
BRANCH  58  72
ATOM     72  C   UNL A   1      43.618  35.910  34.913  1.00  0.00     0.064 A 
ATOM     73  C   UNL A   1      43.427  37.196  34.384  1.00  0.00     0.173 A 
ATOM     74  C   UNL A   1      44.575  35.084  34.305  1.00  0.00     0.173 A 
ATOM     75  F   UNL A   1      42.512  38.018  34.922  1.00  0.00    -0.203 F 
ATOM     76  C   UNL A   1      44.145  37.626  33.273  1.00  0.00     0.198 A 
ATOM     77  C   UNL A   1      45.312  35.529  33.210  1.00  0.00     0.198 A 
ATOM     78  F   UNL A   1      44.797  33.847  34.772  1.00  0.00    -0.203 F 
ATOM     79  F   UNL A   1      43.910  38.839  32.752  1.00  0.00    -0.200 F 
ATOM     80  C   UNL A   1      45.090  36.795  32.690  1.00  0.00     0.200 A 
ATOM     81  F   UNL A   1      46.232  34.728  32.656  1.00  0.00    -0.200 F 
ATOM     82  F   UNL A   1      45.783  37.211  31.621  1.00  0.00    -0.200 F 
ENDBRANCH  58  72
BRANCH  59  83
ATOM     83  C   UNL A   1      38.187  32.310  42.471  1.00  0.00     0.064 A 
ATOM     84  C   UNL A   1      38.313  30.955  42.803  1.00  0.00     0.173 A 
ATOM     85  C   UNL A   1      37.290  33.086  43.222  1.00  0.00     0.173 A 
ATOM     86  F   UNL A   1      39.135  30.166  42.096  1.00  0.00    -0.203 F 
ATOM     87  C   UNL A   1      37.560  30.393  43.834  1.00  0.00     0.198 A 
ATOM     88  C   UNL A   1      36.560  32.530  44.269  1.00  0.00     0.198 A 
ATOM     89  F   UNL A   1      37.130  34.387  42.941  1.00  0.00    -0.203 F 
ATOM     90  F   UNL A   1      37.667  29.085  44.102  1.00  0.00    -0.200 F 
ATOM     91  C   UNL A   1      36.690  31.183  44.571  1.00  0.00     0.200 A 
ATOM     92  F   UNL A   1      35.729  33.300  44.985  1.00  0.00    -0.200 F 
ATOM     93  F   UNL A   1      35.971  30.644  45.565  1.00  0.00    -0.200 F 
ENDBRANCH  59  83
BRANCH  71  94
ATOM     94  C   UNL A   1      44.677  34.817  41.959  1.00  0.00     0.064 A 
ATOM     95  C   UNL A   1      45.605  33.798  42.218  1.00  0.00     0.173 A 
ATOM     96  C   UNL A   1      44.844  36.042  42.625  1.00  0.00     0.173 A 
ATOM     97  F   UNL A   1      45.482  32.604  41.619  1.00  0.00    -0.203 F 
ATOM     98  C   UNL A   1      46.648  33.992  43.122  1.00  0.00     0.198 A 
ATOM     99  C   UNL A   1      45.905  36.241  43.504  1.00  0.00     0.198 A 
ATOM    100  F   UNL A   1      43.989  37.052  42.406  1.00  0.00    -0.203 F 
ATOM    101  F   UNL A   1      47.499  32.990  43.385  1.00  0.00    -0.200 F 
ATOM    102  C   UNL A   1      46.801  35.215  43.756  1.00  0.00     0.200 A 
ATOM    103  F   UNL A   1      46.060  37.430  44.105  1.00  0.00    -0.200 F 
ATOM    104  F   UNL A   1      47.812  35.404  44.616  1.00  0.00    -0.200 F 
ENDBRANCH  71  94
ENDBRANCH  45  46
ENDBRANCH  38  40
ENDBRANCH  37  38
ENDBRANCH  36  37
ENDBRANCH  35  36
ENDBRANCH  34  35
ENDBRANCH  33  34
ENDBRANCH  32  33
ENDBRANCH  31  32
ENDBRANCH   1  31
TORSDOF 24
ENDMDL
MODEL 3
REMARK VINA RESULT:      -9.3      5.183      8.214
REMARK SMILES NS(=O)(=O)c1ccc(N2N=C(C(=O)OCCOCCOCCOCCOC(=O)c3ccc(-c4c5nc(c(-c6c(F)c(F)c(F)c(F)c6F)c6ccc([nH]6)c(-c6c(F)c(F)c(F)c(F)c6F)c6nc(c(-c7c(F)c(F)c(F)c(F)c7F)c7ccc4[nH]7)C=C6)C=C5)cc3)C[C@H]2c2ccco2)cc1
REMARK SMILES IDX 19 1 18 2 17 3 16 4 15 5 14 6 12 7 13 8 11 9 9 10 10 11
REMARK SMILES IDX 93 12 92 13 8 14 5 15 6 16 100 17 7 18 99 19 2 20 3 21 4 22
REMARK SMILES IDX 1 23 94 26 95 27 98 28 96 29 97 30 20 31 21 32 22 33 23 34
REMARK SMILES IDX 24 35 25 36 26 37 27 38 28 39 29 40 30 41 91 42 31 43 90 44
REMARK SMILES IDX 32 45 33 46 34 47 84 48 35 49 89 50 83 51 85 52 36 53 88 54
REMARK SMILES IDX 82 55 81 56 37 58 69 59 49 60 68 61 50 62 53 63 67 64 86 65
REMARK SMILES IDX 51 66 52 67 66 69 87 70 54 71 38 72 39 73 47 74 40 75 41 76
REMARK SMILES IDX 45 77 48 78 42 79 43 80 46 81 44 82 70 83 71 84 79 85 72 86
REMARK SMILES IDX 73 87 77 88 80 89 74 90 75 91 78 92 76 93 55 94 56 95 64 96
REMARK SMILES IDX 57 97 58 98 62 99 65 100 59 101 60 102 63 103 61 104
REMARK H PARENT 1 24 1 25 85 57 53 68
REMARK Flexibility Score: inf
ROOT
ATOM      1  C   UNL A   1      34.117  30.848  27.301  1.00  0.00     0.188 C 
ENDROOT
BRANCH   1   2
ATOM      2  C   UNL A   1      33.828  29.395  27.712  1.00  0.00     0.188 C 
BRANCH   2   3
ATOM      3  O   UNL A   1      32.616  28.883  27.161  1.00  0.00    -0.376 OA
BRANCH   3   4
ATOM      4  C   UNL A   1      32.581  27.480  26.920  1.00  0.00     0.202 C 
BRANCH   4   5
ATOM      5  C   UNL A   1      32.216  27.083  25.484  1.00  0.00     0.261 C 
BRANCH   5   6
ATOM      6  O   UNL A   1      31.586  25.799  25.391  1.00  0.00    -0.459 OA
BRANCH   6   7
ATOM      7  C   UNL A   1      31.076  25.462  24.194  1.00  0.00     0.354 C 
ATOM      8  O   UNL A   1      30.189  26.018  23.578  1.00  0.00    -0.245 OA
BRANCH   7   9
ATOM      9  C   UNL A   1      31.931  24.352  23.636  1.00  0.00     0.148 C 
ATOM     10  N   UNL A   1      32.637  22.406  23.178  1.00  0.00    -0.254 N 
ATOM     11  N   UNL A   1      31.712  23.100  23.908  1.00  0.00    -0.169 NA
ATOM     12  C   UNL A   1      33.717  23.284  22.681  1.00  0.00     0.180 C 
ATOM     13  C   UNL A   1      32.986  24.633  22.613  1.00  0.00     0.101 C 
BRANCH  10  14
ATOM     14  C   UNL A   1      32.824  21.062  23.471  1.00  0.00     0.060 A 
ATOM     15  C   UNL A   1      33.264  18.342  24.028  1.00  0.00     0.082 A 
ATOM     16  C   UNL A   1      34.018  19.318  24.686  1.00  0.00     0.024 A 
ATOM     17  C   UNL A   1      32.296  18.710  23.095  1.00  0.00     0.024 A 
ATOM     18  C   UNL A   1      33.794  20.670  24.407  1.00  0.00     0.029 A 
ATOM     19  C   UNL A   1      32.096  20.063  22.812  1.00  0.00     0.029 A 
BRANCH  15  20
ATOM     20  S   UNL A   1      33.560  16.645  24.415  1.00  0.00     0.238 S 
ATOM     21  O   UNL A   1      34.157  16.010  23.264  1.00  0.00    -0.207 OA
ATOM     22  O   UNL A   1      32.394  16.115  25.084  1.00  0.00    -0.207 OA
BRANCH  20  23
ATOM     23  N   UNL A   1      34.776  16.677  25.577  1.00  0.00    -0.225 NA
ATOM     24  H   UNL A   1      34.401  16.363  26.472  1.00  0.00     0.137 HD
ATOM     25  H   UNL A   1      35.130  17.628  25.672  1.00  0.00     0.137 HD
ENDBRANCH  20  23
ENDBRANCH  15  20
ENDBRANCH  10  14
BRANCH  12  26
ATOM     26  C   UNL A   1      34.960  23.375  23.527  1.00  0.00     0.128 A 
ATOM     27  C   UNL A   1      36.277  23.020  23.306  1.00  0.00     0.048 A 
ATOM     28  O   UNL A   1      34.833  23.890  24.788  1.00  0.00    -0.467 OA
ATOM     29  C   UNL A   1      36.983  23.325  24.496  1.00  0.00     0.042 A 
ATOM     30  C   UNL A   1      36.061  23.863  25.361  1.00  0.00     0.195 A 
ENDBRANCH  12  26
ENDBRANCH   7   9
ENDBRANCH   6   7
ENDBRANCH   5   6
ENDBRANCH   4   5
ENDBRANCH   3   4
ENDBRANCH   2   3
ENDBRANCH   1   2
BRANCH   1  31
ATOM     31  O   UNL A   1      33.863  31.827  28.296  1.00  0.00    -0.377 OA
BRANCH  31  32
ATOM     32  C   UNL A   1      34.060  33.205  27.973  1.00  0.00     0.188 C 
BRANCH  32  33
ATOM     33  C   UNL A   1      33.768  34.348  28.973  1.00  0.00     0.188 C 
BRANCH  33  34
ATOM     34  O   UNL A   1      33.606  33.933  30.322  1.00  0.00    -0.376 OA
BRANCH  34  35
ATOM     35  C   UNL A   1      34.634  34.299  31.232  1.00  0.00     0.202 C 
BRANCH  35  36
ATOM     36  C   UNL A   1      35.050  33.172  32.184  1.00  0.00     0.261 C 
BRANCH  36  37
ATOM     37  O   UNL A   1      35.414  31.940  31.540  1.00  0.00    -0.460 OA
BRANCH  37  38
ATOM     38  C   UNL A   1      36.601  31.903  30.897  1.00  0.00     0.338 C 
ATOM     39  O   UNL A   1      36.845  32.267  29.762  1.00  0.00    -0.246 OA
BRANCH  38  40
ATOM     40  C   UNL A   1      37.624  31.498  31.880  1.00  0.00     0.060 A 
ATOM     41  C   UNL A   1      37.266  30.628  32.916  1.00  0.00     0.016 A 
ATOM     42  C   UNL A   1      38.931  31.973  31.766  1.00  0.00     0.016 A 
ATOM     43  C   UNL A   1      38.218  30.249  33.864  1.00  0.00     0.010 A 
ATOM     44  C   UNL A   1      39.877  31.607  32.722  1.00  0.00     0.010 A 
ATOM     45  C   UNL A   1      39.519  30.765  33.790  1.00  0.00    -0.014 A 
BRANCH  45  46
ATOM     46  C   UNL A   1      40.470  30.567  34.908  1.00  0.00     0.031 A 
ATOM     47  C   UNL A   1      40.557  31.625  35.969  1.00  0.00     0.074 A 
ATOM     48  C   UNL A   1      41.263  29.483  34.965  1.00  0.00     0.049 A 
ATOM     49  N   UNL A   1      41.373  31.719  36.988  1.00  0.00    -0.248 NA
ATOM     50  C   UNL A   1      39.597  32.736  35.860  1.00  0.00     0.031 C 
ATOM     51  C   UNL A   1      41.254  28.379  34.009  1.00  0.00     0.029 A 
ATOM     52  N   UNL A   1      42.248  29.149  35.860  1.00  0.00    -0.354 N 
ATOM     53  C   UNL A   1      41.029  32.897  37.635  1.00  0.00     0.074 A 
ATOM     54  C   UNL A   1      39.952  33.500  36.882  1.00  0.00     0.031 C 
ATOM     55  C   UNL A   1      42.210  27.498  34.354  1.00  0.00     0.029 A 
ATOM     56  C   UNL A   1      42.917  27.996  35.535  1.00  0.00     0.049 A 
ATOM     57  H   UNL A   1      42.456  29.687  36.659  1.00  0.00     0.167 HD
ATOM     58  C   UNL A   1      41.562  33.425  38.762  1.00  0.00     0.037 A 
ATOM     59  C   UNL A   1      43.995  27.426  36.108  1.00  0.00     0.037 A 
ATOM     60  C   UNL A   1      42.639  32.829  39.506  1.00  0.00     0.049 A 
ATOM     61  C   UNL A   1      44.618  28.070  37.322  1.00  0.00     0.074 A 
ATOM     62  C   UNL A   1      43.226  33.270  40.679  1.00  0.00     0.029 A 
ATOM     63  N   UNL A   1      43.302  31.668  39.138  1.00  0.00    -0.354 N 
ATOM     64  N   UNL A   1      44.261  29.161  37.956  1.00  0.00    -0.248 NA
ATOM     65  C   UNL A   1      45.794  27.403  37.898  1.00  0.00     0.031 C 
ATOM     66  C   UNL A   1      44.280  32.406  40.990  1.00  0.00     0.029 A 
ATOM     67  C   UNL A   1      44.316  31.395  40.042  1.00  0.00     0.049 A 
ATOM     68  H   UNL A   1      43.084  31.119  38.349  1.00  0.00     0.167 HD
ATOM     69  C   UNL A   1      45.150  29.297  39.015  1.00  0.00     0.074 A 
ATOM     70  C   UNL A   1      46.056  28.170  38.946  1.00  0.00     0.031 C 
ATOM     71  C   UNL A   1      45.211  30.269  39.960  1.00  0.00     0.037 A 
BRANCH  58  72
ATOM     72  C   UNL A   1      41.004  34.735  39.238  1.00  0.00     0.064 A 
ATOM     73  C   UNL A   1      39.828  34.803  40.000  1.00  0.00     0.173 A 
ATOM     74  C   UNL A   1      41.666  35.936  38.942  1.00  0.00     0.173 A 
ATOM     75  F   UNL A   1      39.150  33.683  40.296  1.00  0.00    -0.203 F 
ATOM     76  C   UNL A   1      39.319  36.027  40.423  1.00  0.00     0.198 A 
ATOM     77  C   UNL A   1      41.170  37.156  39.392  1.00  0.00     0.198 A 
ATOM     78  F   UNL A   1      42.795  35.925  38.219  1.00  0.00    -0.203 F 
ATOM     79  F   UNL A   1      38.166  36.073  41.105  1.00  0.00    -0.200 F 
ATOM     80  C   UNL A   1      39.993  37.202  40.124  1.00  0.00     0.200 A 
ATOM     81  F   UNL A   1      41.828  38.289  39.110  1.00  0.00    -0.200 F 
ATOM     82  F   UNL A   1      39.503  38.380  40.534  1.00  0.00    -0.200 F 
ENDBRANCH  58  72
BRANCH  59  83
ATOM     83  C   UNL A   1      44.575  26.188  35.526  1.00  0.00     0.064 A 
ATOM     84  C   UNL A   1      44.146  24.921  35.942  1.00  0.00     0.173 A 
ATOM     85  C   UNL A   1      45.580  26.249  34.549  1.00  0.00     0.173 A 
ATOM     86  F   UNL A   1      43.208  24.811  36.894  1.00  0.00    -0.203 F 
ATOM     87  C   UNL A   1      44.711  23.760  35.415  1.00  0.00     0.198 A 
ATOM     88  C   UNL A   1      46.125  25.089  34.003  1.00  0.00     0.198 A 
ATOM     89  F   UNL A   1      46.029  27.438  34.120  1.00  0.00    -0.203 F 
ATOM     90  F   UNL A   1      44.314  22.562  35.862  1.00  0.00    -0.200 F 
ATOM     91  C   UNL A   1      45.694  23.845  34.440  1.00  0.00     0.200 A 
ATOM     92  F   UNL A   1      47.067  25.177  33.054  1.00  0.00    -0.200 F 
ATOM     93  F   UNL A   1      46.234  22.730  33.930  1.00  0.00    -0.200 F 
ENDBRANCH  59  83
BRANCH  71  94
ATOM     94  C   UNL A   1      46.275  30.149  41.012  1.00  0.00     0.064 A 
ATOM     95  C   UNL A   1      46.086  29.374  42.165  1.00  0.00     0.173 A 
ATOM     96  C   UNL A   1      47.522  30.771  40.836  1.00  0.00     0.173 A 
ATOM     97  F   UNL A   1      44.909  28.771  42.388  1.00  0.00    -0.203 F 
ATOM     98  C   UNL A   1      47.099  29.242  43.113  1.00  0.00     0.198 A 
ATOM     99  C   UNL A   1      48.541  30.611  41.770  1.00  0.00     0.198 A 
ATOM    100  F   UNL A   1      47.757  31.516  39.746  1.00  0.00    -0.203 F 
ATOM    101  F   UNL A   1      46.882  28.530  44.228  1.00  0.00    -0.200 F 
ATOM    102  C   UNL A   1      48.327  29.853  42.910  1.00  0.00     0.200 A 
ATOM    103  F   UNL A   1      49.733  31.191  41.565  1.00  0.00    -0.200 F 
ATOM    104  F   UNL A   1      49.304  29.715  43.818  1.00  0.00    -0.200 F 
ENDBRANCH  71  94
ENDBRANCH  45  46
ENDBRANCH  38  40
ENDBRANCH  37  38
ENDBRANCH  36  37
ENDBRANCH  35  36
ENDBRANCH  34  35
ENDBRANCH  33  34
ENDBRANCH  32  33
ENDBRANCH  31  32
ENDBRANCH   1  31
TORSDOF 24
ENDMDL
