MODEL 1
REMARK VINA RESULT:      -9.5      0.000      0.000
REMARK SMILES O=C(N[C@@H](CS)C(=O)N[C@@H](CO)C(=O)OCCOCCOCCOCCOC(=O)c1ccc(-c2c3nc(c(-c4c(F)c(F)c(F)c(F)c4F)c4ccc([nH]4)c(-c4c(F)c(F)c(F)c(F)c4F)c4nc(c(-c5c(F)c(F)c(F)c(F)c5F)c5ccc2[nH]5)C=C4)C=C3)cc1)c1ccc(F)cc1
REMARK SMILES IDX 20 1 19 2 18 3 17 4 16 5 15 6 13 7 14 8 10 9 9 10 7 11 8 12
REMARK SMILES IDX 4 14 3 15 1 16 2 17 93 19 94 20 99 21 95 22 98 23 96 24
REMARK SMILES IDX 97 25 5 26 6 27 11 29 12 30 21 32 22 33 23 34 24 35 25 36
REMARK SMILES IDX 26 37 27 38 28 39 29 40 30 41 31 42 92 43 32 44 91 45 33 46
REMARK SMILES IDX 34 47 35 48 85 49 36 50 90 51 84 52 86 53 37 54 89 55 83 56
REMARK SMILES IDX 82 57 38 59 70 60 50 61 69 62 51 63 54 64 68 65 87 66 52 67
REMARK SMILES IDX 53 68 67 70 88 71 55 72 39 73 40 74 48 75 41 76 42 77 46 78
REMARK SMILES IDX 49 79 43 80 44 81 47 82 45 83 71 84 72 85 80 86 73 87 74 88
REMARK SMILES IDX 78 89 81 90 75 91 76 92 79 93 77 94 56 95 57 96 65 97 58 98
REMARK SMILES IDX 59 99 63 100 66 101 60 102 61 103 64 104 62 105
REMARK H PARENT 9 13 3 18 6 28 12 31 86 58 54 69
REMARK Flexibility Score: inf
ROOT
ATOM      1  C   UNL A   1      36.230  19.622  24.936  1.00  0.00     0.188 C 
ENDROOT
BRANCH   1   2
ATOM      2  C   UNL A   1      35.551  18.256  24.757  1.00  0.00     0.188 C 
BRANCH   2   3
ATOM      3  O   UNL A   1      34.316  18.163  24.065  1.00  0.00    -0.376 OA
BRANCH   3   4
ATOM      4  C   UNL A   1      33.102  18.216  24.800  1.00  0.00     0.202 C 
BRANCH   4   5
ATOM      5  C   UNL A   1      32.620  19.524  25.462  1.00  0.00     0.261 C 
BRANCH   5   6
ATOM      6  O   UNL A   1      32.232  20.599  24.579  1.00  0.00    -0.462 OA
BRANCH   6   7
ATOM      7  C   UNL A   1      32.269  21.856  25.094  1.00  0.00     0.331 C 
ATOM      8  O   UNL A   1      31.539  22.775  24.734  1.00  0.00    -0.250 OA
BRANCH   7   9
ATOM      9  C   UNL A   1      33.378  22.067  26.153  1.00  0.00     0.218 C 
BRANCH   9  10
ATOM     10  N   UNL A   1      34.666  22.648  25.736  1.00  0.00    -0.339 N 
ATOM     11  C   UNL A   1      35.010  23.848  25.195  1.00  0.00     0.244 C 
ATOM     12  O   UNL A   1      36.221  24.056  25.048  1.00  0.00    -0.273 OA
ATOM     13  H   UNL A   1      35.432  22.047  25.878  1.00  0.00     0.164 HD
BRANCH  11  14
ATOM     14  C   UNL A   1      34.018  24.976  24.836  1.00  0.00     0.181 C 
BRANCH  14  15
ATOM     15  N   UNL A   1      33.982  26.051  25.826  1.00  0.00    -0.339 N 
ATOM     16  O   UNL A   1      33.208  27.850  26.913  1.00  0.00    -0.269 OA
ATOM     17  C   UNL A   1      32.995  26.969  26.086  1.00  0.00     0.251 C 
ATOM     18  H   UNL A   1      34.786  26.127  26.390  1.00  0.00     0.164 HD
BRANCH  17  19
ATOM     19  C   UNL A   1      31.713  26.955  25.343  1.00  0.00     0.040 A 
ATOM     20  C   UNL A   1      31.435  27.856  24.306  1.00  0.00     0.017 A 
ATOM     21  C   UNL A   1      30.770  25.977  25.687  1.00  0.00     0.017 A 
ATOM     22  C   UNL A   1      30.179  27.851  23.697  1.00  0.00     0.040 A 
ATOM     23  C   UNL A   1      29.527  25.955  25.054  1.00  0.00     0.040 A 
ATOM     24  C   UNL A   1      29.234  26.905  24.081  1.00  0.00     0.123 A 
ATOM     25  F   UNL A   1      28.028  26.908  23.501  1.00  0.00    -0.207 F 
ENDBRANCH  17  19
ENDBRANCH  14  15
BRANCH  14  26
ATOM     26  C   UNL A   1      33.997  25.433  23.368  1.00  0.00     0.101 C 
BRANCH  26  27
ATOM     27  S   UNL A   1      32.673  24.781  22.308  1.00  0.00    -0.177 SA
ATOM     28  H   UNL A   1      31.489  25.352  22.658  1.00  0.00     0.102 HD
ENDBRANCH  26  27
ENDBRANCH  14  26
ENDBRANCH  11  14
ENDBRANCH   9  10
BRANCH   9  29
ATOM     29  C   UNL A   1      32.771  22.946  27.252  1.00  0.00     0.193 C 
BRANCH  29  30
ATOM     30  O   UNL A   1      31.384  22.658  27.435  1.00  0.00    -0.394 OA
ATOM     31  H   UNL A   1      30.960  23.393  27.905  1.00  0.00     0.210 HD
ENDBRANCH  29  30
ENDBRANCH   9  29
ENDBRANCH   7   9
ENDBRANCH   6   7
ENDBRANCH   5   6
ENDBRANCH   4   5
ENDBRANCH   3   4
ENDBRANCH   2   3
ENDBRANCH   1   2
BRANCH   1  32
ATOM     32  O   UNL A   1      37.549  19.711  24.439  1.00  0.00    -0.377 OA
BRANCH  32  33
ATOM     33  C   UNL A   1      38.531  20.097  25.386  1.00  0.00     0.188 C 
BRANCH  33  34
ATOM     34  C   UNL A   1      38.618  21.593  25.746  1.00  0.00     0.188 C 
BRANCH  34  35
ATOM     35  O   UNL A   1      39.866  21.977  26.316  1.00  0.00    -0.376 OA
BRANCH  35  36
ATOM     36  C   UNL A   1      40.948  21.057  26.286  1.00  0.00     0.202 C 
BRANCH  36  37
ATOM     37  C   UNL A   1      42.304  21.555  25.754  1.00  0.00     0.261 C 
BRANCH  37  38
ATOM     38  O   UNL A   1      42.913  22.649  26.456  1.00  0.00    -0.460 OA
BRANCH  38  39
ATOM     39  C   UNL A   1      43.087  23.813  25.800  1.00  0.00     0.338 C 
ATOM     40  O   UNL A   1      43.516  23.967  24.669  1.00  0.00    -0.246 OA
BRANCH  39  41
ATOM     41  C   UNL A   1      42.459  24.881  26.608  1.00  0.00     0.060 A 
ATOM     42  C   UNL A   1      43.031  26.160  26.599  1.00  0.00     0.016 A 
ATOM     43  C   UNL A   1      41.304  24.630  27.354  1.00  0.00     0.016 A 
ATOM     44  C   UNL A   1      42.479  27.181  27.371  1.00  0.00     0.010 A 
ATOM     45  C   UNL A   1      40.767  25.646  28.151  1.00  0.00     0.010 A 
ATOM     46  C   UNL A   1      41.380  26.912  28.195  1.00  0.00    -0.014 A 
BRANCH  46  47
ATOM     47  C   UNL A   1      41.037  27.864  29.278  1.00  0.00     0.031 A 
ATOM     48  C   UNL A   1      41.870  27.828  30.531  1.00  0.00     0.074 A 
ATOM     49  C   UNL A   1      40.043  28.759  29.150  1.00  0.00     0.049 A 
ATOM     50  N   UNL A   1      41.752  28.520  31.635  1.00  0.00    -0.248 NA
ATOM     51  C   UNL A   1      42.992  26.874  30.536  1.00  0.00     0.031 C 
ATOM     52  C   UNL A   1      39.202  28.929  27.969  1.00  0.00     0.029 A 
ATOM     53  N   UNL A   1      39.574  29.696  30.038  1.00  0.00    -0.354 N 
ATOM     54  C   UNL A   1      42.776  28.080  32.464  1.00  0.00     0.074 A 
ATOM     55  C   UNL A   1      43.483  27.038  31.754  1.00  0.00     0.031 C 
ATOM     56  C   UNL A   1      38.307  29.904  28.210  1.00  0.00     0.029 A 
ATOM     57  C   UNL A   1      38.492  30.401  29.573  1.00  0.00     0.049 A 
ATOM     58  H   UNL A   1      39.975  29.848  30.925  1.00  0.00     0.167 HD
ATOM     59  C   UNL A   1      43.103  28.513  33.703  1.00  0.00     0.037 A 
ATOM     60  C   UNL A   1      37.728  31.324  30.191  1.00  0.00     0.037 A 
ATOM     61  C   UNL A   1      42.394  29.546  34.408  1.00  0.00     0.049 A 
ATOM     62  C   UNL A   1      38.060  31.729  31.607  1.00  0.00     0.074 A 
ATOM     63  C   UNL A   1      42.651  30.066  35.664  1.00  0.00     0.029 A 
ATOM     64  N   UNL A   1      41.279  30.212  33.919  1.00  0.00    -0.354 N 
ATOM     65  N   UNL A   1      39.042  31.327  32.379  1.00  0.00    -0.248 NA
ATOM     66  C   UNL A   1      37.177  32.722  32.236  1.00  0.00     0.031 C 
ATOM     67  C   UNL A   1      41.653  31.000  35.961  1.00  0.00     0.029 A 
ATOM     68  C   UNL A   1      40.818  31.116  34.861  1.00  0.00     0.049 A 
ATOM     69  H   UNL A   1      40.876  30.063  33.033  1.00  0.00     0.167 HD
ATOM     70  C   UNL A   1      38.917  32.042  33.565  1.00  0.00     0.074 A 
ATOM     71  C   UNL A   1      37.770  32.911  33.406  1.00  0.00     0.031 C 
ATOM     72  C   UNL A   1      39.682  31.985  34.683  1.00  0.00     0.037 A 
BRANCH  59  73
ATOM     73  C   UNL A   1      44.259  27.841  34.388  1.00  0.00     0.064 A 
ATOM     74  C   UNL A   1      45.568  28.339  34.294  1.00  0.00     0.173 A 
ATOM     75  C   UNL A   1      44.050  26.692  35.165  1.00  0.00     0.173 A 
ATOM     76  F   UNL A   1      45.825  29.424  33.548  1.00  0.00    -0.203 F 
ATOM     77  C   UNL A   1      46.627  27.694  34.927  1.00  0.00     0.198 A 
ATOM     78  C   UNL A   1      45.105  26.070  35.825  1.00  0.00     0.198 A 
ATOM     79  F   UNL A   1      42.819  26.174  35.289  1.00  0.00    -0.203 F 
ATOM     80  F   UNL A   1      47.877  28.154  34.777  1.00  0.00    -0.200 F 
ATOM     81  C   UNL A   1      46.394  26.566  35.698  1.00  0.00     0.200 A 
ATOM     82  F   UNL A   1      44.876  24.987  36.580  1.00  0.00    -0.200 F 
ATOM     83  F   UNL A   1      47.413  25.950  36.313  1.00  0.00    -0.200 F 
ENDBRANCH  59  73
BRANCH  60  84
ATOM     84  C   UNL A   1      36.562  31.924  29.487  1.00  0.00     0.064 A 
ATOM     85  C   UNL A   1      35.462  31.140  29.109  1.00  0.00     0.173 A 
ATOM     86  C   UNL A   1      36.538  33.285  29.147  1.00  0.00     0.173 A 
ATOM     87  F   UNL A   1      35.448  29.828  29.384  1.00  0.00    -0.203 F 
ATOM     88  C   UNL A   1      34.396  31.690  28.398  1.00  0.00     0.198 A 
ATOM     89  C   UNL A   1      35.457  33.840  28.466  1.00  0.00     0.198 A 
ATOM     90  F   UNL A   1      37.566  34.079  29.481  1.00  0.00    -0.203 F 
ATOM     91  F   UNL A   1      33.386  30.906  27.999  1.00  0.00    -0.200 F 
ATOM     92  C   UNL A   1      34.391  33.040  28.082  1.00  0.00     0.200 A 
ATOM     93  F   UNL A   1      35.452  35.147  28.172  1.00  0.00    -0.200 F 
ATOM     94  F   UNL A   1      33.367  33.568  27.398  1.00  0.00    -0.200 F 
ENDBRANCH  60  84
BRANCH  72  95
ATOM     95  C   UNL A   1      39.343  32.924  35.807  1.00  0.00     0.064 A 
ATOM     96  C   UNL A   1      38.489  32.553  36.855  1.00  0.00     0.173 A 
ATOM     97  C   UNL A   1      39.924  34.203  35.858  1.00  0.00     0.173 A 
ATOM     98  F   UNL A   1      37.898  31.348  36.850  1.00  0.00    -0.203 F 
ATOM     99  C   UNL A   1      38.205  33.435  37.895  1.00  0.00     0.198 A 
ATOM    100  C   UNL A   1      39.667  35.067  36.918  1.00  0.00     0.198 A 
ATOM    101  F   UNL A   1      40.757  34.606  34.888  1.00  0.00    -0.203 F 
ATOM    102  F   UNL A   1      37.344  33.077  38.858  1.00  0.00    -0.200 F 
ATOM    103  C   UNL A   1      38.801  34.686  37.931  1.00  0.00     0.200 A 
ATOM    104  F   UNL A   1      40.260  36.268  36.959  1.00  0.00    -0.200 F 
ATOM    105  F   UNL A   1      38.534  35.529  38.938  1.00  0.00    -0.200 F 
ENDBRANCH  72  95
ENDBRANCH  46  47
ENDBRANCH  39  41
ENDBRANCH  38  39
ENDBRANCH  37  38
ENDBRANCH  36  37
ENDBRANCH  35  36
ENDBRANCH  34  35
ENDBRANCH  33  34
ENDBRANCH  32  33
ENDBRANCH   1  32
TORSDOF 28
ENDMDL
MODEL 2
REMARK VINA RESULT:      -9.4      1.614      2.565
REMARK SMILES O=C(N[C@@H](CS)C(=O)N[C@@H](CO)C(=O)OCCOCCOCCOCCOC(=O)c1ccc(-c2c3nc(c(-c4c(F)c(F)c(F)c(F)c4F)c4ccc([nH]4)c(-c4c(F)c(F)c(F)c(F)c4F)c4nc(c(-c5c(F)c(F)c(F)c(F)c5F)c5ccc2[nH]5)C=C4)C=C3)cc1)c1ccc(F)cc1
REMARK SMILES IDX 20 1 19 2 18 3 17 4 16 5 15 6 13 7 14 8 10 9 9 10 7 11 8 12
REMARK SMILES IDX 4 14 3 15 1 16 2 17 93 19 94 20 99 21 95 22 98 23 96 24
REMARK SMILES IDX 97 25 5 26 6 27 11 29 12 30 21 32 22 33 23 34 24 35 25 36
REMARK SMILES IDX 26 37 27 38 28 39 29 40 30 41 31 42 92 43 32 44 91 45 33 46
REMARK SMILES IDX 34 47 35 48 85 49 36 50 90 51 84 52 86 53 37 54 89 55 83 56
REMARK SMILES IDX 82 57 38 59 70 60 50 61 69 62 51 63 54 64 68 65 87 66 52 67
REMARK SMILES IDX 53 68 67 70 88 71 55 72 39 73 40 74 48 75 41 76 42 77 46 78
REMARK SMILES IDX 49 79 43 80 44 81 47 82 45 83 71 84 72 85 80 86 73 87 74 88
REMARK SMILES IDX 78 89 81 90 75 91 76 92 79 93 77 94 56 95 57 96 65 97 58 98
REMARK SMILES IDX 59 99 63 100 66 101 60 102 61 103 64 104 62 105
REMARK H PARENT 9 13 3 18 6 28 12 31 86 58 54 69
REMARK Flexibility Score: inf
ROOT
ATOM      1  C   UNL A   1      35.374  20.234  25.010  1.00  0.00     0.188 C 
ENDROOT
BRANCH   1   2
ATOM      2  C   UNL A   1      34.061  19.452  24.861  1.00  0.00     0.188 C 
BRANCH   2   3
ATOM      3  O   UNL A   1      33.013  19.971  24.058  1.00  0.00    -0.376 OA
BRANCH   3   4
ATOM      4  C   UNL A   1      32.208  21.027  24.564  1.00  0.00     0.202 C 
BRANCH   4   5
ATOM      5  C   UNL A   1      32.143  22.397  23.858  1.00  0.00     0.261 C 
BRANCH   5   6
ATOM      6  O   UNL A   1      33.080  23.403  24.296  1.00  0.00    -0.462 OA
BRANCH   6   7
ATOM      7  C   UNL A   1      33.288  24.452  23.456  1.00  0.00     0.331 C 
ATOM      8  O   UNL A   1      34.272  25.185  23.493  1.00  0.00    -0.250 OA
BRANCH   7   9
ATOM      9  C   UNL A   1      32.127  24.699  22.463  1.00  0.00     0.218 C 
BRANCH   9  10
ATOM     10  N   UNL A   1      30.872  25.286  22.961  1.00  0.00    -0.339 N 
ATOM     11  C   UNL A   1      30.581  26.096  24.016  1.00  0.00     0.244 C 
ATOM     12  O   UNL A   1      29.410  26.490  24.097  1.00  0.00    -0.273 OA
ATOM     13  H   UNL A   1      30.084  25.043  22.423  1.00  0.00     0.164 HD
BRANCH  11  14
ATOM     14  C   UNL A   1      31.608  26.613  25.046  1.00  0.00     0.181 C 
BRANCH  14  15
ATOM     15  N   UNL A   1      32.688  27.392  24.445  1.00  0.00    -0.339 N 
ATOM     16  O   UNL A   1      33.660  29.010  23.239  1.00  0.00    -0.269 OA
ATOM     17  C   UNL A   1      32.630  28.565  23.733  1.00  0.00     0.251 C 
ATOM     18  H   UNL A   1      33.592  27.022  24.569  1.00  0.00     0.164 HD
BRANCH  17  19
ATOM     19  C   UNL A   1      31.343  29.261  23.497  1.00  0.00     0.040 A 
ATOM     20  C   UNL A   1      30.783  30.145  24.429  1.00  0.00     0.017 A 
ATOM     21  C   UNL A   1      30.694  29.036  22.275  1.00  0.00     0.017 A 
ATOM     22  C   UNL A   1      29.528  30.708  24.190  1.00  0.00     0.040 A 
ATOM     23  C   UNL A   1      29.454  29.625  22.025  1.00  0.00     0.040 A 
ATOM     24  C   UNL A   1      28.873  30.438  22.993  1.00  0.00     0.123 A 
ATOM     25  F   UNL A   1      27.666  30.973  22.769  1.00  0.00    -0.207 F 
ENDBRANCH  17  19
ENDBRANCH  14  15
BRANCH  14  26
ATOM     26  C   UNL A   1      31.041  27.178  26.359  1.00  0.00     0.101 C 
BRANCH  26  27
ATOM     27  S   UNL A   1      32.159  28.169  27.394  1.00  0.00    -0.177 SA
ATOM     28  H   UNL A   1      33.393  27.596  27.406  1.00  0.00     0.102 HD
ENDBRANCH  26  27
ENDBRANCH  14  26
ENDBRANCH  11  14
ENDBRANCH   9  10
BRANCH   9  29
ATOM     29  C   UNL A   1      32.686  25.594  21.352  1.00  0.00     0.193 C 
BRANCH  29  30
ATOM     30  O   UNL A   1      31.666  25.950  20.416  1.00  0.00    -0.394 OA
ATOM     31  H   UNL A   1      31.047  26.569  20.832  1.00  0.00     0.210 HD
ENDBRANCH  29  30
ENDBRANCH   9  29
ENDBRANCH   7   9
ENDBRANCH   6   7
ENDBRANCH   5   6
ENDBRANCH   4   5
ENDBRANCH   3   4
ENDBRANCH   2   3
ENDBRANCH   1   2
BRANCH   1  32
ATOM     32  O   UNL A   1      36.546  19.513  24.694  1.00  0.00    -0.377 OA
BRANCH  32  33
ATOM     33  C   UNL A   1      37.765  20.147  25.048  1.00  0.00     0.188 C 
BRANCH  33  34
ATOM     34  C   UNL A   1      37.785  21.689  25.050  1.00  0.00     0.188 C 
BRANCH  34  35
ATOM     35  O   UNL A   1      38.717  22.251  25.969  1.00  0.00    -0.376 OA
BRANCH  35  36
ATOM     36  C   UNL A   1      39.783  21.443  26.449  1.00  0.00     0.202 C 
BRANCH  36  37
ATOM     37  C   UNL A   1      41.171  21.630  25.813  1.00  0.00     0.261 C 
BRANCH  37  38
ATOM     38  O   UNL A   1      42.085  22.502  26.495  1.00  0.00    -0.460 OA
BRANCH  38  39
ATOM     39  C   UNL A   1      42.484  23.626  25.870  1.00  0.00     0.338 C 
ATOM     40  O   UNL A   1      43.031  23.713  24.783  1.00  0.00    -0.246 OA
BRANCH  39  41
ATOM     41  C   UNL A   1      41.950  24.777  26.630  1.00  0.00     0.060 A 
ATOM     42  C   UNL A   1      42.520  26.042  26.431  1.00  0.00     0.016 A 
ATOM     43  C   UNL A   1      40.884  24.616  27.518  1.00  0.00     0.016 A 
ATOM     44  C   UNL A   1      42.057  27.141  27.152  1.00  0.00     0.010 A 
ATOM     45  C   UNL A   1      40.439  25.712  28.264  1.00  0.00     0.010 A 
ATOM     46  C   UNL A   1      41.054  26.969  28.113  1.00  0.00    -0.014 A 
BRANCH  46  47
ATOM     47  C   UNL A   1      40.832  28.028  29.127  1.00  0.00     0.031 A 
ATOM     48  C   UNL A   1      41.780  28.088  30.295  1.00  0.00     0.074 A 
ATOM     49  C   UNL A   1      39.848  28.934  29.006  1.00  0.00     0.049 A 
ATOM     50  N   UNL A   1      41.779  28.883  31.333  1.00  0.00    -0.248 NA
ATOM     51  C   UNL A   1      42.880  27.108  30.288  1.00  0.00     0.031 C 
ATOM     52  C   UNL A   1      38.902  29.014  27.897  1.00  0.00     0.029 A 
ATOM     53  N   UNL A   1      39.482  29.963  29.838  1.00  0.00    -0.354 N 
ATOM     54  C   UNL A   1      42.869  28.496  32.102  1.00  0.00     0.074 A 
ATOM     55  C   UNL A   1      43.487  27.373  31.434  1.00  0.00     0.031 C 
ATOM     56  C   UNL A   1      38.052  30.032  28.124  1.00  0.00     0.029 A 
ATOM     57  C   UNL A   1      38.374  30.651  29.410  1.00  0.00     0.049 A 
ATOM     58  H   UNL A   1      39.968  30.186  30.665  1.00  0.00     0.167 HD
ATOM     59  C   UNL A   1      43.320  29.034  33.259  1.00  0.00     0.037 A 
ATOM     60  C   UNL A   1      37.690  31.648  30.004  1.00  0.00     0.037 A 
ATOM     61  C   UNL A   1      42.700  30.149  33.923  1.00  0.00     0.049 A 
ATOM     62  C   UNL A   1      38.162  32.176  31.337  1.00  0.00     0.074 A 
ATOM     63  C   UNL A   1      43.084  30.778  35.094  1.00  0.00     0.029 A 
ATOM     64  N   UNL A   1      41.556  30.796  33.477  1.00  0.00    -0.354 N 
ATOM     65  N   UNL A   1      39.204  31.821  32.050  1.00  0.00    -0.248 NA
ATOM     66  C   UNL A   1      37.360  33.247  31.947  1.00  0.00     0.031 C 
ATOM     67  C   UNL A   1      42.136  31.763  35.390  1.00  0.00     0.029 A 
ATOM     68  C   UNL A   1      41.203  31.797  34.366  1.00  0.00     0.049 A 
ATOM     69  H   UNL A   1      41.068  30.575  32.651  1.00  0.00     0.167 HD
ATOM     70  C   UNL A   1      39.205  32.648  33.168  1.00  0.00     0.074 A 
ATOM     71  C   UNL A   1      38.065  33.529  33.033  1.00  0.00     0.031 C 
ATOM     72  C   UNL A   1      40.072  32.676  34.211  1.00  0.00     0.037 A 
BRANCH  59  73
ATOM     73  C   UNL A   1      44.523  28.399  33.895  1.00  0.00     0.064 A 
ATOM     74  C   UNL A   1      44.410  27.318  34.782  1.00  0.00     0.173 A 
ATOM     75  C   UNL A   1      45.811  28.871  33.599  1.00  0.00     0.173 A 
ATOM     76  F   UNL A   1      43.200  26.841  35.114  1.00  0.00    -0.203 F 
ATOM     77  C   UNL A   1      45.538  26.752  35.370  1.00  0.00     0.198 A 
ATOM     78  C   UNL A   1      46.939  28.280  34.161  1.00  0.00     0.198 A 
ATOM     79  F   UNL A   1      45.977  29.902  32.757  1.00  0.00    -0.203 F 
ATOM     80  F   UNL A   1      45.401  25.757  36.258  1.00  0.00    -0.200 F 
ATOM     81  C   UNL A   1      46.801  27.227  35.054  1.00  0.00     0.200 A 
ATOM     82  F   UNL A   1      48.159  28.733  33.844  1.00  0.00    -0.200 F 
ATOM     83  F   UNL A   1      47.886  26.677  35.615  1.00  0.00    -0.200 F 
ENDBRANCH  59  73
BRANCH  60  84
ATOM     84  C   UNL A   1      36.474  32.210  29.356  1.00  0.00     0.064 A 
ATOM     85  C   UNL A   1      35.357  31.405  29.087  1.00  0.00     0.173 A 
ATOM     86  C   UNL A   1      36.415  33.556  28.961  1.00  0.00     0.173 A 
ATOM     87  F   UNL A   1      35.373  30.106  29.418  1.00  0.00    -0.203 F 
ATOM     88  C   UNL A   1      34.241  31.918  28.428  1.00  0.00     0.198 A 
ATOM     89  C   UNL A   1      35.285  34.075  28.333  1.00  0.00     0.198 A 
ATOM     90  F   UNL A   1      37.456  34.369  29.190  1.00  0.00    -0.203 F 
ATOM     91  F   UNL A   1      33.212  31.112  28.132  1.00  0.00    -0.200 F 
ATOM     92  C   UNL A   1      34.203  33.253  28.056  1.00  0.00     0.200 A 
ATOM     93  F   UNL A   1      35.249  35.368  27.985  1.00  0.00    -0.200 F 
ATOM     94  F   UNL A   1      33.129  33.745  27.422  1.00  0.00    -0.200 F 
ENDBRANCH  60  84
BRANCH  72  95
ATOM     95  C   UNL A   1      39.858  33.726  35.265  1.00  0.00     0.064 A 
ATOM     96  C   UNL A   1      39.091  33.483  36.413  1.00  0.00     0.173 A 
ATOM     97  C   UNL A   1      40.475  34.983  35.145  1.00  0.00     0.173 A 
ATOM     98  F   UNL A   1      38.471  32.304  36.573  1.00  0.00    -0.203 F 
ATOM     99  C   UNL A   1      38.923  34.466  37.386  1.00  0.00     0.198 A 
ATOM    100  C   UNL A   1      40.335  35.951  36.136  1.00  0.00     0.198 A 
ATOM    101  F   UNL A   1      41.229  35.267  34.073  1.00  0.00    -0.203 F 
ATOM    102  F   UNL A   1      38.142  34.229  38.448  1.00  0.00    -0.200 F 
ATOM    103  C   UNL A   1      39.552  35.695  37.251  1.00  0.00     0.200 A 
ATOM    104  F   UNL A   1      40.960  37.129  36.012  1.00  0.00    -0.200 F 
ATOM    105  F   UNL A   1      39.398  36.636  38.192  1.00  0.00    -0.200 F 
ENDBRANCH  72  95
ENDBRANCH  46  47
ENDBRANCH  39  41
ENDBRANCH  38  39
ENDBRANCH  37  38
ENDBRANCH  36  37
ENDBRANCH  35  36
ENDBRANCH  34  35
ENDBRANCH  33  34
ENDBRANCH  32  33
ENDBRANCH   1  32
TORSDOF 28
ENDMDL
MODEL 3
REMARK VINA RESULT:      -8.9      5.936     10.823
REMARK SMILES O=C(N[C@@H](CS)C(=O)N[C@@H](CO)C(=O)OCCOCCOCCOCCOC(=O)c1ccc(-c2c3nc(c(-c4c(F)c(F)c(F)c(F)c4F)c4ccc([nH]4)c(-c4c(F)c(F)c(F)c(F)c4F)c4nc(c(-c5c(F)c(F)c(F)c(F)c5F)c5ccc2[nH]5)C=C4)C=C3)cc1)c1ccc(F)cc1
REMARK SMILES IDX 20 1 19 2 18 3 17 4 16 5 15 6 13 7 14 8 10 9 9 10 7 11 8 12
REMARK SMILES IDX 4 14 3 15 1 16 2 17 93 19 94 20 99 21 95 22 98 23 96 24
REMARK SMILES IDX 97 25 5 26 6 27 11 29 12 30 21 32 22 33 23 34 24 35 25 36
REMARK SMILES IDX 26 37 27 38 28 39 29 40 30 41 31 42 92 43 32 44 91 45 33 46
REMARK SMILES IDX 34 47 35 48 85 49 36 50 90 51 84 52 86 53 37 54 89 55 83 56
REMARK SMILES IDX 82 57 38 59 70 60 50 61 69 62 51 63 54 64 68 65 87 66 52 67
REMARK SMILES IDX 53 68 67 70 88 71 55 72 39 73 40 74 48 75 41 76 42 77 46 78
REMARK SMILES IDX 49 79 43 80 44 81 47 82 45 83 71 84 72 85 80 86 73 87 74 88
REMARK SMILES IDX 78 89 81 90 75 91 76 92 79 93 77 94 56 95 57 96 65 97 58 98
REMARK SMILES IDX 59 99 63 100 66 101 60 102 61 103 64 104 62 105
REMARK H PARENT 9 13 3 18 6 28 12 31 86 58 54 69
REMARK Flexibility Score: inf
ROOT
ATOM      1  C   UNL A   1      34.493  21.089  24.584  1.00  0.00     0.188 C 
ENDROOT
BRANCH   1   2
ATOM      2  C   UNL A   1      33.250  20.210  24.380  1.00  0.00     0.188 C 
BRANCH   2   3
ATOM      3  O   UNL A   1      32.036  20.791  23.934  1.00  0.00    -0.376 OA
BRANCH   3   4
ATOM      4  C   UNL A   1      31.709  22.114  24.336  1.00  0.00     0.202 C 
BRANCH   4   5
ATOM      5  C   UNL A   1      31.558  23.253  23.307  1.00  0.00     0.261 C 
BRANCH   5   6
ATOM      6  O   UNL A   1      32.603  23.385  22.319  1.00  0.00    -0.462 OA
BRANCH   6   7
ATOM      7  C   UNL A   1      33.273  24.568  22.293  1.00  0.00     0.331 C 
ATOM      8  O   UNL A   1      34.417  24.725  22.708  1.00  0.00    -0.250 OA
BRANCH   7   9
ATOM      9  C   UNL A   1      32.437  25.750  21.746  1.00  0.00     0.218 C 
BRANCH   9  10
ATOM     10  N   UNL A   1      32.918  27.126  21.960  1.00  0.00    -0.339 N 
ATOM     11  C   UNL A   1      32.422  28.183  22.660  1.00  0.00     0.244 C 
ATOM     12  O   UNL A   1      33.140  29.190  22.711  1.00  0.00    -0.273 OA
ATOM     13  H   UNL A   1      33.769  27.320  21.505  1.00  0.00     0.164 HD
BRANCH  11  14
ATOM     14  C   UNL A   1      31.094  28.181  23.446  1.00  0.00     0.181 C 
BRANCH  14  15
ATOM     15  N   UNL A   1      31.182  28.868  24.733  1.00  0.00    -0.339 N 
ATOM     16  O   UNL A   1      31.577  29.139  26.921  1.00  0.00    -0.269 OA
ATOM     17  C   UNL A   1      31.678  28.420  25.932  1.00  0.00     0.251 C 
ATOM     18  H   UNL A   1      30.835  29.789  24.740  1.00  0.00     0.164 HD
BRANCH  17  19
ATOM     19  C   UNL A   1      32.268  27.067  26.067  1.00  0.00     0.040 A 
ATOM     20  C   UNL A   1      31.513  25.954  26.463  1.00  0.00     0.017 A 
ATOM     21  C   UNL A   1      33.624  26.912  25.751  1.00  0.00     0.017 A 
ATOM     22  C   UNL A   1      32.139  24.720  26.654  1.00  0.00     0.040 A 
ATOM     23  C   UNL A   1      34.240  25.670  25.912  1.00  0.00     0.040 A 
ATOM     24  C   UNL A   1      33.498  24.592  26.383  1.00  0.00     0.123 A 
ATOM     25  F   UNL A   1      34.097  23.410  26.573  1.00  0.00    -0.207 F 
ENDBRANCH  17  19
ENDBRANCH  14  15
BRANCH  14  26
ATOM     26  C   UNL A   1      29.815  28.461  22.638  1.00  0.00     0.101 C 
BRANCH  26  27
ATOM     27  S   UNL A   1      29.611  30.130  21.949  1.00  0.00    -0.177 SA
ATOM     28  H   UNL A   1      30.832  30.647  21.644  1.00  0.00     0.102 HD
ENDBRANCH  26  27
ENDBRANCH  14  26
ENDBRANCH  11  14
ENDBRANCH   9  10
BRANCH   9  29
ATOM     29  C   UNL A   1      32.274  25.510  20.241  1.00  0.00     0.193 C 
BRANCH  29  30
ATOM     30  O   UNL A   1      33.020  24.368  19.817  1.00  0.00    -0.394 OA
ATOM     31  H   UNL A   1      32.488  23.845  19.199  1.00  0.00     0.210 HD
ENDBRANCH  29  30
ENDBRANCH   9  29
ENDBRANCH   7   9
ENDBRANCH   6   7
ENDBRANCH   5   6
ENDBRANCH   4   5
ENDBRANCH   3   4
ENDBRANCH   2   3
ENDBRANCH   1   2
BRANCH   1  32
ATOM     32  O   UNL A   1      35.659  20.404  24.989  1.00  0.00    -0.377 OA
BRANCH  32  33
ATOM     33  C   UNL A   1      36.613  21.186  25.688  1.00  0.00     0.188 C 
BRANCH  33  34
ATOM     34  C   UNL A   1      37.544  22.083  24.849  1.00  0.00     0.188 C 
BRANCH  34  35
ATOM     35  O   UNL A   1      37.340  23.478  25.056  1.00  0.00    -0.376 OA
BRANCH  35  36
ATOM     36  C   UNL A   1      37.963  24.108  26.167  1.00  0.00     0.202 C 
BRANCH  36  37
ATOM     37  C   UNL A   1      39.404  23.695  26.515  1.00  0.00     0.261 C 
BRANCH  37  38
ATOM     38  O   UNL A   1      39.998  24.321  27.662  1.00  0.00    -0.460 OA
BRANCH  38  39
ATOM     39  C   UNL A   1      40.823  25.367  27.465  1.00  0.00     0.338 C 
ATOM     40  O   UNL A   1      40.652  26.311  26.711  1.00  0.00    -0.246 OA
BRANCH  39  41
ATOM     41  C   UNL A   1      41.889  25.297  28.487  1.00  0.00     0.060 A 
ATOM     42  C   UNL A   1      42.303  26.481  29.114  1.00  0.00     0.016 A 
ATOM     43  C   UNL A   1      42.465  24.074  28.839  1.00  0.00     0.016 A 
ATOM     44  C   UNL A   1      43.325  26.452  30.062  1.00  0.00     0.010 A 
ATOM     45  C   UNL A   1      43.510  24.049  29.768  1.00  0.00     0.010 A 
ATOM     46  C   UNL A   1      43.971  25.245  30.350  1.00  0.00    -0.014 A 
BRANCH  46  47
ATOM     47  C   UNL A   1      45.277  25.272  31.050  1.00  0.00     0.031 A 
ATOM     48  C   UNL A   1      46.484  25.708  30.263  1.00  0.00     0.074 A 
ATOM     49  C   UNL A   1      45.394  24.957  32.351  1.00  0.00     0.049 A 
ATOM     50  N   UNL A   1      47.739  25.777  30.625  1.00  0.00    -0.248 NA
ATOM     51  C   UNL A   1      46.236  26.121  28.872  1.00  0.00     0.031 C 
ATOM     52  C   UNL A   1      44.295  24.573  33.231  1.00  0.00     0.029 A 
ATOM     53  N   UNL A   1      46.506  24.908  33.156  1.00  0.00    -0.354 N 
ATOM     54  C   UNL A   1      48.427  26.233  29.508  1.00  0.00     0.074 A 
ATOM     55  C   UNL A   1      47.460  26.389  28.445  1.00  0.00     0.031 C 
ATOM     56  C   UNL A   1      44.790  24.312  34.455  1.00  0.00     0.029 A 
ATOM     57  C   UNL A   1      46.243  24.480  34.433  1.00  0.00     0.049 A 
ATOM     58  H   UNL A   1      47.407  25.156  32.845  1.00  0.00     0.167 HD
ATOM     59  C   UNL A   1      49.746  26.505  29.382  1.00  0.00     0.037 A 
ATOM     60  C   UNL A   1      47.086  24.231  35.454  1.00  0.00     0.037 A 
ATOM     61  C   UNL A   1      50.706  26.345  30.440  1.00  0.00     0.049 A 
ATOM     62  C   UNL A   1      48.565  24.460  35.264  1.00  0.00     0.074 A 
ATOM     63  C   UNL A   1      52.065  26.603  30.419  1.00  0.00     0.029 A 
ATOM     64  N   UNL A   1      50.407  25.873  31.711  1.00  0.00    -0.354 N 
ATOM     65  N   UNL A   1      49.209  24.911  34.213  1.00  0.00    -0.248 NA
ATOM     66  C   UNL A   1      49.437  24.148  36.405  1.00  0.00     0.031 C 
ATOM     67  C   UNL A   1      52.599  26.226  31.656  1.00  0.00     0.029 A 
ATOM     68  C   UNL A   1      51.562  25.804  32.472  1.00  0.00     0.049 A 
ATOM     69  H   UNL A   1      49.507  25.624  32.023  1.00  0.00     0.167 HD
ATOM     70  C   UNL A   1      50.549  24.972  34.578  1.00  0.00     0.074 A 
ATOM     71  C   UNL A   1      50.625  24.522  35.952  1.00  0.00     0.031 C 
ATOM     72  C   UNL A   1      51.619  25.366  33.844  1.00  0.00     0.037 A 
BRANCH  59  73
ATOM     73  C   UNL A   1      50.231  26.972  28.039  1.00  0.00     0.064 A 
ATOM     74  C   UNL A   1      50.286  28.333  27.702  1.00  0.00     0.173 A 
ATOM     75  C   UNL A   1      50.665  26.042  27.081  1.00  0.00     0.173 A 
ATOM     76  F   UNL A   1      49.866  29.262  28.574  1.00  0.00    -0.203 F 
ATOM     77  C   UNL A   1      50.729  28.743  26.447  1.00  0.00     0.198 A 
ATOM     78  C   UNL A   1      51.139  26.457  25.841  1.00  0.00     0.198 A 
ATOM     79  F   UNL A   1      50.633  24.729  27.352  1.00  0.00    -0.203 F 
ATOM     80  F   UNL A   1      50.719  30.045  26.126  1.00  0.00    -0.200 F 
ATOM     81  C   UNL A   1      51.161  27.807  25.521  1.00  0.00     0.200 A 
ATOM     82  F   UNL A   1      51.568  25.551  24.953  1.00  0.00    -0.200 F 
ATOM     83  F   UNL A   1      51.593  28.203  24.315  1.00  0.00    -0.200 F 
ENDBRANCH  59  73
BRANCH  60  84
ATOM     84  C   UNL A   1      46.561  23.722  36.750  1.00  0.00     0.064 A 
ATOM     85  C   UNL A   1      46.045  24.596  37.718  1.00  0.00     0.173 A 
ATOM     86  C   UNL A   1      46.596  22.354  37.063  1.00  0.00     0.173 A 
ATOM     87  F   UNL A   1      46.016  25.915  37.481  1.00  0.00    -0.203 F 
ATOM     88  C   UNL A   1      45.606  24.125  38.955  1.00  0.00     0.198 A 
ATOM     89  C   UNL A   1      46.127  21.881  38.286  1.00  0.00     0.198 A 
ATOM     90  F   UNL A   1      47.083  21.475  36.175  1.00  0.00    -0.203 F 
ATOM     91  F   UNL A   1      45.172  24.989  39.882  1.00  0.00    -0.200 F 
ATOM     92  C   UNL A   1      45.642  22.767  39.236  1.00  0.00     0.200 A 
ATOM     93  F   UNL A   1      46.154  20.567  38.549  1.00  0.00    -0.200 F 
ATOM     94  F   UNL A   1      45.222  22.315  40.425  1.00  0.00    -0.200 F 
ENDBRANCH  60  84
BRANCH  72  95
ATOM     95  C   UNL A   1      52.960  25.383  34.523  1.00  0.00     0.064 A 
ATOM     96  C   UNL A   1      53.808  24.266  34.523  1.00  0.00     0.173 A 
ATOM     97  C   UNL A   1      53.424  26.555  35.142  1.00  0.00     0.173 A 
ATOM     98  F   UNL A   1      53.411  23.116  33.955  1.00  0.00    -0.203 F 
ATOM     99  C   UNL A   1      55.055  24.311  35.143  1.00  0.00     0.198 A 
ATOM    100  C   UNL A   1      54.685  26.609  35.729  1.00  0.00     0.198 A 
ATOM    101  F   UNL A   1      52.659  27.657  35.162  1.00  0.00    -0.203 F 
ATOM    102  F   UNL A   1      55.825  23.216  35.176  1.00  0.00    -0.200 F 
ATOM    103  C   UNL A   1      55.496  25.485  35.736  1.00  0.00     0.200 A 
ATOM    104  F   UNL A   1      55.116  27.750  36.284  1.00  0.00    -0.200 F 
ATOM    105  F   UNL A   1      56.700  25.530  36.323  1.00  0.00    -0.200 F 
ENDBRANCH  72  95
ENDBRANCH  46  47
ENDBRANCH  39  41
ENDBRANCH  38  39
ENDBRANCH  37  38
ENDBRANCH  36  37
ENDBRANCH  35  36
ENDBRANCH  34  35
ENDBRANCH  33  34
ENDBRANCH  32  33
ENDBRANCH   1  32
TORSDOF 28
ENDMDL
