MODEL 1
REMARK VINA RESULT:      -9.2      0.000      0.000
REMARK SMILES CS(=O)(=O)c1ccc(/C=C(/C(=O)OCCOCCOCCOCCOC(=O)c2ccc(-c3c4nc(c(-c5c(F)c(F)c(F)c(F)c5F)c5ccc([nH]5)c(-c5c(F)c(F)c(F)c(F)c5F)c5nc(c(-c6c(F)c(F)c(F)c(F)c6F)c6ccc3[nH]6)C=C5)C=C4)cc2)c2ccc(-c3ccc(S(C)(=O)=O)cc3)cc2)cc1
REMARK SMILES IDX 18 1 17 2 16 3 15 4 14 5 13 6 11 7 12 8 10 9 9 10 8 11 5 12
REMARK SMILES IDX 6 13 108 14 7 15 107 16 2 17 1 18 3 19 4 20 91 21 92 22
REMARK SMILES IDX 106 23 93 24 105 25 94 26 95 27 96 28 104 29 97 30 103 31
REMARK SMILES IDX 98 32 99 33 100 34 101 35 102 36 19 37 20 38 21 39 22 40
REMARK SMILES IDX 23 41 24 42 25 43 26 44 27 45 28 46 29 47 90 48 30 49 89 50
REMARK SMILES IDX 31 51 32 52 33 53 83 54 34 55 88 56 82 57 84 58 35 59 87 60
REMARK SMILES IDX 81 61 80 62 36 64 68 65 48 66 67 67 49 68 52 69 66 70 85 71
REMARK SMILES IDX 50 72 51 73 65 75 86 76 53 77 37 78 38 79 46 80 39 81 40 82
REMARK SMILES IDX 44 83 47 84 41 85 42 86 45 87 43 88 69 89 70 90 78 91 71 92
REMARK SMILES IDX 72 93 76 94 79 95 73 96 74 97 77 98 75 99 54 100 55 101
REMARK SMILES IDX 63 102 56 103 57 104 61 105 64 106 58 107 59 108 62 109
REMARK SMILES IDX 60 110
REMARK H PARENT 84 63 52 74
REMARK Flexibility Score: inf
ROOT
ATOM      1  C   UNL A   1      36.102  34.013  33.676  1.00  0.00     0.188 C 
ENDROOT
BRANCH   1   2
ATOM      2  C   UNL A   1      34.615  33.596  33.739  1.00  0.00     0.188 C 
BRANCH   2   3
ATOM      3  O   UNL A   1      33.969  33.617  32.479  1.00  0.00    -0.376 OA
BRANCH   3   4
ATOM      4  C   UNL A   1      34.756  33.900  31.338  1.00  0.00     0.202 C 
BRANCH   4   5
ATOM      5  C   UNL A   1      34.095  34.582  30.129  1.00  0.00     0.261 C 
BRANCH   5   6
ATOM      6  O   UNL A   1      33.352  33.735  29.239  1.00  0.00    -0.460 OA
BRANCH   6   7
ATOM      7  C   UNL A   1      33.958  33.361  28.087  1.00  0.00     0.338 C 
ATOM      8  O   UNL A   1      34.695  34.069  27.420  1.00  0.00    -0.246 OA
BRANCH   7   9
ATOM      9  C   UNL A   1      33.729  31.900  27.820  1.00  0.00     0.067 C 
ATOM     10  C   UNL A   1      32.530  31.480  27.344  1.00  0.00     0.024 C 
BRANCH  10  11
ATOM     11  C   UNL A   1      32.166  30.140  26.809  1.00  0.00    -0.025 A 
ATOM     12  C   UNL A   1      32.019  27.552  25.724  1.00  0.00     0.067 A 
ATOM     13  C   UNL A   1      31.765  27.747  27.076  1.00  0.00     0.021 A 
ATOM     14  C   UNL A   1      32.205  28.646  24.879  1.00  0.00     0.021 A 
ATOM     15  C   UNL A   1      31.798  29.042  27.599  1.00  0.00     0.009 A 
ATOM     16  C   UNL A   1      32.278  29.934  25.425  1.00  0.00     0.009 A 
BRANCH  12  17
ATOM     17  S   UNL A   1      32.137  25.894  25.100  1.00  0.00     0.175 S 
ATOM     18  C   UNL A   1      31.526  26.013  23.434  1.00  0.00     0.163 C 
ATOM     19  O   UNL A   1      31.199  25.077  25.847  1.00  0.00    -0.224 OA
ATOM     20  O   UNL A   1      33.547  25.564  25.051  1.00  0.00    -0.224 OA
ENDBRANCH  12  17
ENDBRANCH  10  11
BRANCH   9  21
ATOM     21  C   UNL A   1      34.860  30.976  28.041  1.00  0.00    -0.011 A 
ATOM     22  C   UNL A   1      35.234  30.042  27.057  1.00  0.00     0.009 A 
ATOM     23  C   UNL A   1      35.668  31.134  29.162  1.00  0.00     0.009 A 
ATOM     24  C   UNL A   1      36.424  29.318  27.165  1.00  0.00     0.009 A 
ATOM     25  C   UNL A   1      36.863  30.421  29.257  1.00  0.00     0.009 A 
ATOM     26  C   UNL A   1      37.270  29.513  28.260  1.00  0.00    -0.018 A 
BRANCH  26  27
ATOM     27  C   UNL A   1      38.567  28.833  28.376  1.00  0.00    -0.018 A 
ATOM     28  C   UNL A   1      38.805  27.840  29.344  1.00  0.00     0.010 A 
ATOM     29  C   UNL A   1      39.581  29.110  27.442  1.00  0.00     0.010 A 
ATOM     30  C   UNL A   1      39.994  27.102  29.336  1.00  0.00     0.021 A 
ATOM     31  C   UNL A   1      40.766  28.380  27.425  1.00  0.00     0.021 A 
ATOM     32  C   UNL A   1      40.961  27.369  28.364  1.00  0.00     0.067 A 
BRANCH  32  33
ATOM     33  S   UNL A   1      42.404  26.343  28.252  1.00  0.00     0.175 S 
ATOM     34  C   UNL A   1      43.519  27.034  29.441  1.00  0.00     0.163 C 
ATOM     35  O   UNL A   1      42.017  25.019  28.699  1.00  0.00    -0.224 OA
ATOM     36  O   UNL A   1      42.985  26.544  26.936  1.00  0.00    -0.224 OA
ENDBRANCH  32  33
ENDBRANCH  26  27
ENDBRANCH   9  21
ENDBRANCH   7   9
ENDBRANCH   6   7
ENDBRANCH   5   6
ENDBRANCH   4   5
ENDBRANCH   3   4
ENDBRANCH   2   3
ENDBRANCH   1   2
BRANCH   1  37
ATOM     37  O   UNL A   1      37.095  33.024  33.893  1.00  0.00    -0.377 OA
BRANCH  37  38
ATOM     38  C   UNL A   1      38.070  32.783  32.885  1.00  0.00     0.188 C 
BRANCH  38  39
ATOM     39  C   UNL A   1      38.752  33.949  32.129  1.00  0.00     0.188 C 
BRANCH  39  40
ATOM     40  O   UNL A   1      38.380  34.087  30.767  1.00  0.00    -0.376 OA
BRANCH  40  41
ATOM     41  C   UNL A   1      39.002  35.102  30.002  1.00  0.00     0.202 C 
BRANCH  41  42
ATOM     42  C   UNL A   1      40.179  34.679  29.110  1.00  0.00     0.261 C 
BRANCH  42  43
ATOM     43  O   UNL A   1      41.369  35.474  29.227  1.00  0.00    -0.460 OA
BRANCH  43  44
ATOM     44  C   UNL A   1      41.968  35.842  28.078  1.00  0.00     0.338 C 
ATOM     45  O   UNL A   1      41.832  36.900  27.479  1.00  0.00    -0.246 OA
BRANCH  44  46
ATOM     46  C   UNL A   1      42.986  34.829  27.745  1.00  0.00     0.060 A 
ATOM     47  C   UNL A   1      43.635  34.159  28.791  1.00  0.00     0.016 A 
ATOM     48  C   UNL A   1      43.305  34.548  26.415  1.00  0.00     0.016 A 
ATOM     49  C   UNL A   1      44.653  33.253  28.511  1.00  0.00     0.010 A 
ATOM     50  C   UNL A   1      44.343  33.656  26.135  1.00  0.00     0.010 A 
ATOM     51  C   UNL A   1      45.055  33.048  27.184  1.00  0.00    -0.014 A 
BRANCH  51  52
ATOM     52  C   UNL A   1      46.369  32.411  26.935  1.00  0.00     0.031 A 
ATOM     53  C   UNL A   1      46.418  30.909  26.838  1.00  0.00     0.074 A 
ATOM     54  C   UNL A   1      47.475  33.142  26.718  1.00  0.00     0.049 A 
ATOM     55  N   UNL A   1      47.433  30.119  26.592  1.00  0.00    -0.248 NA
ATOM     56  C   UNL A   1      45.144  30.200  27.045  1.00  0.00     0.031 C 
ATOM     57  C   UNL A   1      47.544  34.600  26.742  1.00  0.00     0.029 A 
ATOM     58  N   UNL A   1      48.757  32.747  26.429  1.00  0.00    -0.354 N 
ATOM     59  C   UNL A   1      46.919  28.829  26.618  1.00  0.00     0.074 A 
ATOM     60  C   UNL A   1      45.516  28.935  26.946  1.00  0.00     0.031 C 
ATOM     61  C   UNL A   1      48.807  34.980  26.478  1.00  0.00     0.029 A 
ATOM     62  C   UNL A   1      49.637  33.790  26.294  1.00  0.00     0.049 A 
ATOM     63  H   UNL A   1      49.021  31.803  26.327  1.00  0.00     0.167 HD
ATOM     64  C   UNL A   1      47.558  27.659  26.375  1.00  0.00     0.037 A 
ATOM     65  C   UNL A   1      50.964  33.779  26.061  1.00  0.00     0.037 A 
ATOM     66  C   UNL A   1      48.956  27.558  26.052  1.00  0.00     0.049 A 
ATOM     67  C   UNL A   1      51.666  32.458  25.865  1.00  0.00     0.074 A 
ATOM     68  C   UNL A   1      49.699  26.423  25.780  1.00  0.00     0.029 A 
ATOM     69  N   UNL A   1      49.826  28.635  25.968  1.00  0.00    -0.354 N 
ATOM     70  N   UNL A   1      51.171  31.243  25.864  1.00  0.00    -0.248 NA
ATOM     71  C   UNL A   1      53.115  32.512  25.623  1.00  0.00     0.031 C 
ATOM     72  C   UNL A   1      51.030  26.807  25.593  1.00  0.00     0.029 A 
ATOM     73  C   UNL A   1      51.105  28.188  25.675  1.00  0.00     0.049 A 
ATOM     74  H   UNL A   1      49.572  29.578  26.097  1.00  0.00     0.167 HD
ATOM     75  C   UNL A   1      52.237  30.394  25.589  1.00  0.00     0.074 A 
ATOM     76  C   UNL A   1      53.400  31.237  25.406  1.00  0.00     0.031 C 
ATOM     77  C   UNL A   1      52.254  29.041  25.495  1.00  0.00     0.037 A 
BRANCH  64  78
ATOM     78  C   UNL A   1      46.752  26.397  26.484  1.00  0.00     0.064 A 
ATOM     79  C   UNL A   1      46.128  25.815  25.370  1.00  0.00     0.173 A 
ATOM     80  C   UNL A   1      46.615  25.749  27.722  1.00  0.00     0.173 A 
ATOM     81  F   UNL A   1      46.210  26.401  24.166  1.00  0.00    -0.203 F 
ATOM     82  C   UNL A   1      45.374  24.650  25.496  1.00  0.00     0.198 A 
ATOM     83  C   UNL A   1      45.891  24.567  27.839  1.00  0.00     0.198 A 
ATOM     84  F   UNL A   1      47.190  26.262  28.821  1.00  0.00    -0.203 F 
ATOM     85  F   UNL A   1      44.740  24.144  24.429  1.00  0.00    -0.200 F 
ATOM     86  C   UNL A   1      45.263  24.023  26.728  1.00  0.00     0.200 A 
ATOM     87  F   UNL A   1      45.797  23.954  29.027  1.00  0.00    -0.200 F 
ATOM     88  F   UNL A   1      44.544  22.898  26.847  1.00  0.00    -0.200 F 
ENDBRANCH  64  78
BRANCH  65  89
ATOM     89  C   UNL A   1      51.724  35.058  26.005  1.00  0.00     0.064 A 
ATOM     90  C   UNL A   1      52.152  35.701  27.175  1.00  0.00     0.173 A 
ATOM     91  C   UNL A   1      52.007  35.680  24.780  1.00  0.00     0.173 A 
ATOM     92  F   UNL A   1      51.885  35.160  28.373  1.00  0.00    -0.203 F 
ATOM     93  C   UNL A   1      52.808  36.930  27.123  1.00  0.00     0.198 A 
ATOM     94  C   UNL A   1      52.693  36.891  24.728  1.00  0.00     0.198 A 
ATOM     95  F   UNL A   1      51.618  35.109  23.630  1.00  0.00    -0.203 F 
ATOM     96  F   UNL A   1      53.153  37.552  28.259  1.00  0.00    -0.200 F 
ATOM     97  C   UNL A   1      53.083  37.521  25.900  1.00  0.00     0.200 A 
ATOM     98  F   UNL A   1      52.968  37.452  23.542  1.00  0.00    -0.200 F 
ATOM     99  F   UNL A   1      53.714  38.702  25.849  1.00  0.00    -0.200 F 
ENDBRANCH  65  89
BRANCH  77 100
ATOM    100  C   UNL A   1      53.564  28.393  25.134  1.00  0.00     0.064 A 
ATOM    101  C   UNL A   1      53.928  28.144  23.803  1.00  0.00     0.173 A 
ATOM    102  C   UNL A   1      54.470  28.021  26.140  1.00  0.00     0.173 A 
ATOM    103  F   UNL A   1      53.097  28.472  22.802  1.00  0.00    -0.203 F 
ATOM    104  C   UNL A   1      55.124  27.501  23.494  1.00  0.00     0.198 A 
ATOM    105  C   UNL A   1      55.685  27.416  25.825  1.00  0.00     0.198 A 
ATOM    106  F   UNL A   1      54.182  28.246  27.430  1.00  0.00    -0.203 F 
ATOM    107  F   UNL A   1      55.414  27.205  22.219  1.00  0.00    -0.200 F 
ATOM    108  C   UNL A   1      56.004  27.142  24.504  1.00  0.00     0.200 A 
ATOM    109  F   UNL A   1      56.541  27.088  26.802  1.00  0.00    -0.200 F 
ATOM    110  F   UNL A   1      57.152  26.520  24.206  1.00  0.00    -0.200 F 
ENDBRANCH  77 100
ENDBRANCH  51  52
ENDBRANCH  44  46
ENDBRANCH  43  44
ENDBRANCH  42  43
ENDBRANCH  41  42
ENDBRANCH  40  41
ENDBRANCH  39  40
ENDBRANCH  38  39
ENDBRANCH  37  38
ENDBRANCH   1  37
TORSDOF 25
ENDMDL
MODEL 2
REMARK VINA RESULT:      -9.2      5.951     11.910
REMARK SMILES CS(=O)(=O)c1ccc(/C=C(/C(=O)OCCOCCOCCOCCOC(=O)c2ccc(-c3c4nc(c(-c5c(F)c(F)c(F)c(F)c5F)c5ccc([nH]5)c(-c5c(F)c(F)c(F)c(F)c5F)c5nc(c(-c6c(F)c(F)c(F)c(F)c6F)c6ccc3[nH]6)C=C5)C=C4)cc2)c2ccc(-c3ccc(S(C)(=O)=O)cc3)cc2)cc1
REMARK SMILES IDX 18 1 17 2 16 3 15 4 14 5 13 6 11 7 12 8 10 9 9 10 8 11 5 12
REMARK SMILES IDX 6 13 108 14 7 15 107 16 2 17 1 18 3 19 4 20 91 21 92 22
REMARK SMILES IDX 106 23 93 24 105 25 94 26 95 27 96 28 104 29 97 30 103 31
REMARK SMILES IDX 98 32 99 33 100 34 101 35 102 36 19 37 20 38 21 39 22 40
REMARK SMILES IDX 23 41 24 42 25 43 26 44 27 45 28 46 29 47 90 48 30 49 89 50
REMARK SMILES IDX 31 51 32 52 33 53 83 54 34 55 88 56 82 57 84 58 35 59 87 60
REMARK SMILES IDX 81 61 80 62 36 64 68 65 48 66 67 67 49 68 52 69 66 70 85 71
REMARK SMILES IDX 50 72 51 73 65 75 86 76 53 77 37 78 38 79 46 80 39 81 40 82
REMARK SMILES IDX 44 83 47 84 41 85 42 86 45 87 43 88 69 89 70 90 78 91 71 92
REMARK SMILES IDX 72 93 76 94 79 95 73 96 74 97 77 98 75 99 54 100 55 101
REMARK SMILES IDX 63 102 56 103 57 104 61 105 64 106 58 107 59 108 62 109
REMARK SMILES IDX 60 110
REMARK H PARENT 84 63 52 74
REMARK Flexibility Score: inf
ROOT
ATOM      1  C   UNL A   1      32.902  24.924  23.757  1.00  0.00     0.188 C 
ENDROOT
BRANCH   1   2
ATOM      2  C   UNL A   1      33.719  23.613  23.718  1.00  0.00     0.188 C 
BRANCH   2   3
ATOM      3  O   UNL A   1      34.868  23.688  22.893  1.00  0.00    -0.376 OA
BRANCH   3   4
ATOM      4  C   UNL A   1      36.107  23.290  23.450  1.00  0.00     0.202 C 
BRANCH   4   5
ATOM      5  C   UNL A   1      36.217  23.123  24.975  1.00  0.00     0.261 C 
BRANCH   5   6
ATOM      6  O   UNL A   1      37.501  22.736  25.487  1.00  0.00    -0.460 OA
BRANCH   6   7
ATOM      7  C   UNL A   1      38.119  23.599  26.329  1.00  0.00     0.338 C 
ATOM      8  O   UNL A   1      37.563  24.481  26.964  1.00  0.00    -0.246 OA
BRANCH   7   9
ATOM      9  C   UNL A   1      39.565  23.225  26.500  1.00  0.00     0.067 C 
ATOM     10  C   UNL A   1      39.964  21.948  26.272  1.00  0.00     0.024 C 
BRANCH  10  11
ATOM     11  C   UNL A   1      41.350  21.418  26.167  1.00  0.00    -0.025 A 
ATOM     12  C   UNL A   1      43.784  20.175  25.511  1.00  0.00     0.067 A 
ATOM     13  C   UNL A   1      43.657  21.553  25.380  1.00  0.00     0.021 A 
ATOM     14  C   UNL A   1      42.762  19.428  26.097  1.00  0.00     0.021 A 
ATOM     15  C   UNL A   1      42.459  22.168  25.749  1.00  0.00     0.009 A 
ATOM     16  C   UNL A   1      41.551  20.052  26.422  1.00  0.00     0.009 A 
BRANCH  12  17
ATOM     17  S   UNL A   1      45.245  19.383  24.889  1.00  0.00     0.175 S 
ATOM     18  C   UNL A   1      44.934  19.205  23.147  1.00  0.00     0.163 C 
ATOM     19  O   UNL A   1      45.297  18.048  25.456  1.00  0.00    -0.224 OA
ATOM     20  O   UNL A   1      46.339  20.317  25.068  1.00  0.00    -0.224 OA
ENDBRANCH  12  17
ENDBRANCH  10  11
BRANCH   9  21
ATOM     21  C   UNL A   1      40.513  24.297  26.861  1.00  0.00    -0.011 A 
ATOM     22  C   UNL A   1      40.741  25.385  25.996  1.00  0.00     0.009 A 
ATOM     23  C   UNL A   1      41.069  24.323  28.136  1.00  0.00     0.009 A 
ATOM     24  C   UNL A   1      41.465  26.503  26.418  1.00  0.00     0.009 A 
ATOM     25  C   UNL A   1      41.777  25.449  28.558  1.00  0.00     0.009 A 
ATOM     26  C   UNL A   1      41.977  26.561  27.717  1.00  0.00    -0.018 A 
BRANCH  26  27
ATOM     27  C   UNL A   1      42.676  27.748  28.229  1.00  0.00    -0.018 A 
ATOM     28  C   UNL A   1      43.659  27.661  29.231  1.00  0.00     0.010 A 
ATOM     29  C   UNL A   1      42.427  29.003  27.646  1.00  0.00     0.010 A 
ATOM     30  C   UNL A   1      44.415  28.781  29.593  1.00  0.00     0.021 A 
ATOM     31  C   UNL A   1      43.176  30.123  27.998  1.00  0.00     0.021 A 
ATOM     32  C   UNL A   1      44.176  30.003  28.960  1.00  0.00     0.067 A 
BRANCH  32  33
ATOM     33  S   UNL A   1      45.226  31.392  29.302  1.00  0.00     0.175 S 
ATOM     34  C   UNL A   1      46.679  31.082  28.339  1.00  0.00     0.163 C 
ATOM     35  O   UNL A   1      44.561  32.565  28.767  1.00  0.00    -0.224 OA
ATOM     36  O   UNL A   1      45.603  31.324  30.702  1.00  0.00    -0.224 OA
ENDBRANCH  32  33
ENDBRANCH  26  27
ENDBRANCH   9  21
ENDBRANCH   7   9
ENDBRANCH   6   7
ENDBRANCH   5   6
ENDBRANCH   4   5
ENDBRANCH   3   4
ENDBRANCH   2   3
ENDBRANCH   1   2
BRANCH   1  37
ATOM     37  O   UNL A   1      33.578  26.138  24.043  1.00  0.00    -0.377 OA
BRANCH  37  38
ATOM     38  C   UNL A   1      32.898  27.164  24.755  1.00  0.00     0.188 C 
BRANCH  38  39
ATOM     39  C   UNL A   1      33.654  28.116  25.715  1.00  0.00     0.188 C 
BRANCH  39  40
ATOM     40  O   UNL A   1      32.852  29.102  26.345  1.00  0.00    -0.376 OA
BRANCH  40  41
ATOM     41  C   UNL A   1      33.274  30.451  26.279  1.00  0.00     0.202 C 
BRANCH  41  42
ATOM     42  C   UNL A   1      33.819  31.074  27.572  1.00  0.00     0.261 C 
BRANCH  42  43
ATOM     43  O   UNL A   1      35.248  31.083  27.707  1.00  0.00    -0.460 OA
BRANCH  43  44
ATOM     44  C   UNL A   1      35.801  30.049  28.370  1.00  0.00     0.338 C 
ATOM     45  O   UNL A   1      35.415  28.889  28.385  1.00  0.00    -0.246 OA
BRANCH  44  46
ATOM     46  C   UNL A   1      37.088  30.499  28.932  1.00  0.00     0.060 A 
ATOM     47  C   UNL A   1      38.275  30.091  28.309  1.00  0.00     0.016 A 
ATOM     48  C   UNL A   1      37.125  31.308  30.070  1.00  0.00     0.016 A 
ATOM     49  C   UNL A   1      39.504  30.437  28.860  1.00  0.00     0.010 A 
ATOM     50  C   UNL A   1      38.359  31.635  30.637  1.00  0.00     0.010 A 
ATOM     51  C   UNL A   1      39.550  31.155  30.063  1.00  0.00    -0.014 A 
BRANCH  51  52
ATOM     52  C   UNL A   1      40.816  31.166  30.832  1.00  0.00     0.031 A 
ATOM     53  C   UNL A   1      41.557  32.471  30.954  1.00  0.00     0.074 A 
ATOM     54  C   UNL A   1      41.258  30.072  31.474  1.00  0.00     0.049 A 
ATOM     55  N   UNL A   1      42.661  32.749  31.598  1.00  0.00    -0.248 NA
ATOM     56  C   UNL A   1      40.966  33.623  30.251  1.00  0.00     0.031 C 
ATOM     57  C   UNL A   1      40.606  28.765  31.467  1.00  0.00     0.029 A 
ATOM     58  N   UNL A   1      42.366  29.893  32.264  1.00  0.00    -0.354 N 
ATOM     59  C   UNL A   1      42.896  34.100  31.376  1.00  0.00     0.074 A 
ATOM     60  C   UNL A   1      41.847  34.577  30.504  1.00  0.00     0.031 C 
ATOM     61  C   UNL A   1      41.328  27.916  32.219  1.00  0.00     0.029 A 
ATOM     62  C   UNL A   1      42.504  28.614  32.737  1.00  0.00     0.049 A 
ATOM     63  H   UNL A   1      43.002  30.616  32.473  1.00  0.00     0.167 HD
ATOM     64  C   UNL A   1      43.889  34.878  31.869  1.00  0.00     0.037 A 
ATOM     65  C   UNL A   1      43.480  28.070  33.490  1.00  0.00     0.037 A 
ATOM     66  C   UNL A   1      44.933  34.398  32.734  1.00  0.00     0.049 A 
ATOM     67  C   UNL A   1      44.615  28.942  33.967  1.00  0.00     0.074 A 
ATOM     68  C   UNL A   1      45.982  35.105  33.296  1.00  0.00     0.029 A 
ATOM     69  N   UNL A   1      45.065  33.084  33.156  1.00  0.00    -0.354 N 
ATOM     70  N   UNL A   1      44.817  30.224  33.777  1.00  0.00    -0.248 NA
ATOM     71  C   UNL A   1      45.652  28.289  34.778  1.00  0.00     0.031 C 
ATOM     72  C   UNL A   1      46.783  34.205  34.006  1.00  0.00     0.029 A 
ATOM     73  C   UNL A   1      46.195  32.952  33.949  1.00  0.00     0.049 A 
ATOM     74  H   UNL A   1      44.448  32.351  32.927  1.00  0.00     0.167 HD
ATOM     75  C   UNL A   1      45.981  30.537  34.470  1.00  0.00     0.074 A 
ATOM     76  C   UNL A   1      46.425  29.313  35.103  1.00  0.00     0.031 C 
ATOM     77  C   UNL A   1      46.624  31.726  34.574  1.00  0.00     0.037 A 
BRANCH  64  78
ATOM     78  C   UNL A   1      43.907  36.321  31.452  1.00  0.00     0.064 A 
ATOM     79  C   UNL A   1      44.330  36.720  30.174  1.00  0.00     0.173 A 
ATOM     80  C   UNL A   1      43.480  37.320  32.340  1.00  0.00     0.173 A 
ATOM     81  F   UNL A   1      44.767  35.808  29.291  1.00  0.00    -0.203 F 
ATOM     82  C   UNL A   1      44.351  38.065  29.813  1.00  0.00     0.198 A 
ATOM     83  C   UNL A   1      43.470  38.660  31.964  1.00  0.00     0.198 A 
ATOM     84  F   UNL A   1      43.067  36.995  33.575  1.00  0.00    -0.203 F 
ATOM     85  F   UNL A   1      44.813  38.426  28.607  1.00  0.00    -0.200 F 
ATOM     86  C   UNL A   1      43.914  39.032  30.705  1.00  0.00     0.200 A 
ATOM     87  F   UNL A   1      43.033  39.592  32.822  1.00  0.00    -0.200 F 
ATOM     88  F   UNL A   1      43.928  40.325  30.353  1.00  0.00    -0.200 F 
ENDBRANCH  64  78
BRANCH  65  89
ATOM     89  C   UNL A   1      43.437  26.623  33.840  1.00  0.00     0.064 A 
ATOM     90  C   UNL A   1      44.154  25.674  33.098  1.00  0.00     0.173 A 
ATOM     91  C   UNL A   1      42.647  26.158  34.902  1.00  0.00     0.173 A 
ATOM     92  F   UNL A   1      44.903  26.064  32.057  1.00  0.00    -0.203 F 
ATOM     93  C   UNL A   1      44.061  24.314  33.388  1.00  0.00     0.198 A 
ATOM     94  C   UNL A   1      42.583  24.801  35.212  1.00  0.00     0.198 A 
ATOM     95  F   UNL A   1      41.939  27.022  35.643  1.00  0.00    -0.203 F 
ATOM     96  F   UNL A   1      44.710  23.423  32.625  1.00  0.00    -0.200 F 
ATOM     97  C   UNL A   1      43.281  23.879  34.448  1.00  0.00     0.200 A 
ATOM     98  F   UNL A   1      41.838  24.387  36.247  1.00  0.00    -0.200 F 
ATOM     99  F   UNL A   1      43.193  22.571  34.726  1.00  0.00    -0.200 F 
ENDBRANCH  65  89
BRANCH  77 100
ATOM    100  C   UNL A   1      47.853  31.770  35.443  1.00  0.00     0.064 A 
ATOM    101  C   UNL A   1      47.782  32.048  36.816  1.00  0.00     0.173 A 
ATOM    102  C   UNL A   1      49.120  31.523  34.891  1.00  0.00     0.173 A 
ATOM    103  F   UNL A   1      46.598  32.299  37.396  1.00  0.00    -0.203 F 
ATOM    104  C   UNL A   1      48.936  32.129  37.592  1.00  0.00     0.198 A 
ATOM    105  C   UNL A   1      50.268  31.564  35.679  1.00  0.00     0.198 A 
ATOM    106  F   UNL A   1      49.247  31.238  33.587  1.00  0.00    -0.203 F 
ATOM    107  F   UNL A   1      48.849  32.473  38.885  1.00  0.00    -0.200 F 
ATOM    108  C   UNL A   1      50.177  31.883  37.025  1.00  0.00     0.200 A 
ATOM    109  F   UNL A   1      51.463  31.306  35.131  1.00  0.00    -0.200 F 
ATOM    110  F   UNL A   1      51.286  31.965  37.771  1.00  0.00    -0.200 F 
ENDBRANCH  77 100
ENDBRANCH  51  52
ENDBRANCH  44  46
ENDBRANCH  43  44
ENDBRANCH  42  43
ENDBRANCH  41  42
ENDBRANCH  40  41
ENDBRANCH  39  40
ENDBRANCH  38  39
ENDBRANCH  37  38
ENDBRANCH   1  37
TORSDOF 25
ENDMDL
MODEL 3
REMARK VINA RESULT:      -8.9      6.643     12.145
REMARK SMILES CS(=O)(=O)c1ccc(/C=C(/C(=O)OCCOCCOCCOCCOC(=O)c2ccc(-c3c4nc(c(-c5c(F)c(F)c(F)c(F)c5F)c5ccc([nH]5)c(-c5c(F)c(F)c(F)c(F)c5F)c5nc(c(-c6c(F)c(F)c(F)c(F)c6F)c6ccc3[nH]6)C=C5)C=C4)cc2)c2ccc(-c3ccc(S(C)(=O)=O)cc3)cc2)cc1
REMARK SMILES IDX 18 1 17 2 16 3 15 4 14 5 13 6 11 7 12 8 10 9 9 10 8 11 5 12
REMARK SMILES IDX 6 13 108 14 7 15 107 16 2 17 1 18 3 19 4 20 91 21 92 22
REMARK SMILES IDX 106 23 93 24 105 25 94 26 95 27 96 28 104 29 97 30 103 31
REMARK SMILES IDX 98 32 99 33 100 34 101 35 102 36 19 37 20 38 21 39 22 40
REMARK SMILES IDX 23 41 24 42 25 43 26 44 27 45 28 46 29 47 90 48 30 49 89 50
REMARK SMILES IDX 31 51 32 52 33 53 83 54 34 55 88 56 82 57 84 58 35 59 87 60
REMARK SMILES IDX 81 61 80 62 36 64 68 65 48 66 67 67 49 68 52 69 66 70 85 71
REMARK SMILES IDX 50 72 51 73 65 75 86 76 53 77 37 78 38 79 46 80 39 81 40 82
REMARK SMILES IDX 44 83 47 84 41 85 42 86 45 87 43 88 69 89 70 90 78 91 71 92
REMARK SMILES IDX 72 93 76 94 79 95 73 96 74 97 77 98 75 99 54 100 55 101
REMARK SMILES IDX 63 102 56 103 57 104 61 105 64 106 58 107 59 108 62 109
REMARK SMILES IDX 60 110
REMARK H PARENT 84 63 52 74
REMARK Flexibility Score: inf
ROOT
ATOM      1  C   UNL A   1      32.982  24.708  25.043  1.00  0.00     0.188 C 
ENDROOT
BRANCH   1   2
ATOM      2  C   UNL A   1      33.829  23.498  25.496  1.00  0.00     0.188 C 
BRANCH   2   3
ATOM      3  O   UNL A   1      34.733  23.039  24.506  1.00  0.00    -0.376 OA
BRANCH   3   4
ATOM      4  C   UNL A   1      36.052  22.723  24.912  1.00  0.00     0.202 C 
BRANCH   4   5
ATOM      5  C   UNL A   1      36.914  23.821  25.557  1.00  0.00     0.261 C 
BRANCH   5   6
ATOM      6  O   UNL A   1      37.936  23.383  26.465  1.00  0.00    -0.460 OA
BRANCH   6   7
ATOM      7  C   UNL A   1      38.809  24.317  26.913  1.00  0.00     0.338 C 
ATOM      8  O   UNL A   1      38.499  25.374  27.439  1.00  0.00    -0.246 OA
BRANCH   7   9
ATOM      9  C   UNL A   1      40.220  23.808  26.819  1.00  0.00     0.067 C 
ATOM     10  C   UNL A   1      40.451  22.479  26.666  1.00  0.00     0.024 C 
BRANCH  10  11
ATOM     11  C   UNL A   1      41.730  21.796  26.334  1.00  0.00    -0.025 A 
ATOM     12  C   UNL A   1      43.849  20.253  25.322  1.00  0.00     0.067 A 
ATOM     13  C   UNL A   1      43.826  21.624  25.094  1.00  0.00     0.021 A 
ATOM     14  C   UNL A   1      42.908  19.664  26.166  1.00  0.00     0.021 A 
ATOM     15  C   UNL A   1      42.792  22.389  25.637  1.00  0.00     0.009 A 
ATOM     16  C   UNL A   1      41.853  20.438  26.668  1.00  0.00     0.009 A 
BRANCH  12  17
ATOM     17  S   UNL A   1      45.071  19.264  24.496  1.00  0.00     0.175 S 
ATOM     18  C   UNL A   1      46.563  20.223  24.623  1.00  0.00     0.163 C 
ATOM     19  O   UNL A   1      44.712  19.207  23.091  1.00  0.00    -0.224 OA
ATOM     20  O   UNL A   1      45.232  18.055  25.279  1.00  0.00    -0.224 OA
ENDBRANCH  12  17
ENDBRANCH  10  11
BRANCH   9  21
ATOM     21  C   UNL A   1      41.312  24.802  26.844  1.00  0.00    -0.011 A 
ATOM     22  C   UNL A   1      41.815  25.354  25.651  1.00  0.00     0.009 A 
ATOM     23  C   UNL A   1      41.741  25.323  28.060  1.00  0.00     0.009 A 
ATOM     24  C   UNL A   1      42.690  26.444  25.672  1.00  0.00     0.009 A 
ATOM     25  C   UNL A   1      42.601  26.421  28.077  1.00  0.00     0.009 A 
ATOM     26  C   UNL A   1      43.080  27.009  26.890  1.00  0.00    -0.018 A 
BRANCH  26  27
ATOM     27  C   UNL A   1      43.934  28.203  26.959  1.00  0.00    -0.018 A 
ATOM     28  C   UNL A   1      43.696  29.238  27.881  1.00  0.00     0.010 A 
ATOM     29  C   UNL A   1      45.077  28.285  26.145  1.00  0.00     0.010 A 
ATOM     30  C   UNL A   1      44.608  30.289  28.030  1.00  0.00     0.021 A 
ATOM     31  C   UNL A   1      45.992  29.325  26.287  1.00  0.00     0.021 A 
ATOM     32  C   UNL A   1      45.759  30.315  27.239  1.00  0.00     0.067 A 
BRANCH  32  33
ATOM     33  S   UNL A   1      46.993  31.558  27.521  1.00  0.00     0.175 S 
ATOM     34  C   UNL A   1      46.155  32.790  28.477  1.00  0.00     0.163 C 
ATOM     35  O   UNL A   1      48.020  30.954  28.348  1.00  0.00    -0.224 OA
ATOM     36  O   UNL A   1      47.325  32.148  26.237  1.00  0.00    -0.224 OA
ENDBRANCH  32  33
ENDBRANCH  26  27
ENDBRANCH   9  21
ENDBRANCH   7   9
ENDBRANCH   6   7
ENDBRANCH   5   6
ENDBRANCH   4   5
ENDBRANCH   3   4
ENDBRANCH   2   3
ENDBRANCH   1   2
BRANCH   1  37
ATOM     37  O   UNL A   1      33.615  25.970  24.906  1.00  0.00    -0.377 OA
BRANCH  37  38
ATOM     38  C   UNL A   1      33.022  27.116  25.503  1.00  0.00     0.188 C 
BRANCH  38  39
ATOM     39  C   UNL A   1      33.698  27.848  26.688  1.00  0.00     0.188 C 
BRANCH  39  40
ATOM     40  O   UNL A   1      33.030  29.017  27.137  1.00  0.00    -0.376 OA
BRANCH  40  41
ATOM     41  C   UNL A   1      33.500  30.272  26.682  1.00  0.00     0.202 C 
BRANCH  41  42
ATOM     42  C   UNL A   1      33.746  31.352  27.747  1.00  0.00     0.261 C 
BRANCH  42  43
ATOM     43  O   UNL A   1      34.963  31.224  28.496  1.00  0.00    -0.460 OA
BRANCH  43  44
ATOM     44  C   UNL A   1      35.090  32.007  29.585  1.00  0.00     0.338 C 
ATOM     45  O   UNL A   1      34.264  32.788  30.035  1.00  0.00    -0.246 OA
BRANCH  44  46
ATOM     46  C   UNL A   1      36.333  31.627  30.282  1.00  0.00     0.060 A 
ATOM     47  C   UNL A   1      36.279  30.616  31.251  1.00  0.00     0.016 A 
ATOM     48  C   UNL A   1      37.539  32.267  29.989  1.00  0.00     0.016 A 
ATOM     49  C   UNL A   1      37.419  30.289  31.978  1.00  0.00     0.010 A 
ATOM     50  C   UNL A   1      38.679  31.954  30.735  1.00  0.00     0.010 A 
ATOM     51  C   UNL A   1      38.607  31.002  31.768  1.00  0.00    -0.014 A 
BRANCH  51  52
ATOM     52  C   UNL A   1      39.669  30.925  32.799  1.00  0.00     0.031 A 
ATOM     53  C   UNL A   1      40.839  30.014  32.539  1.00  0.00     0.074 A 
ATOM     54  C   UNL A   1      39.642  31.701  33.895  1.00  0.00     0.049 A 
ATOM     55  N   UNL A   1      41.907  29.798  33.263  1.00  0.00    -0.248 NA
ATOM     56  C   UNL A   1      40.797  29.240  31.287  1.00  0.00     0.031 C 
ATOM     57  C   UNL A   1      38.587  32.652  34.233  1.00  0.00     0.029 A 
ATOM     58  N   UNL A   1      40.540  31.810  34.927  1.00  0.00    -0.354 N 
ATOM     59  C   UNL A   1      42.658  28.866  32.557  1.00  0.00     0.074 A 
ATOM     60  C   UNL A   1      41.906  28.524  31.371  1.00  0.00     0.031 C 
ATOM     61  C   UNL A   1      38.899  33.250  35.397  1.00  0.00     0.029 A 
ATOM     62  C   UNL A   1      40.160  32.703  35.895  1.00  0.00     0.049 A 
ATOM     63  H   UNL A   1      41.379  31.295  34.969  1.00  0.00     0.167 HD
ATOM     64  C   UNL A   1      43.873  28.353  32.862  1.00  0.00     0.037 A 
ATOM     65  C   UNL A   1      40.759  33.028  37.057  1.00  0.00     0.037 A 
ATOM     66  C   UNL A   1      44.617  28.694  34.046  1.00  0.00     0.049 A 
ATOM     67  C   UNL A   1      42.079  32.387  37.409  1.00  0.00     0.074 A 
ATOM     68  C   UNL A   1      45.861  28.237  34.446  1.00  0.00     0.029 A 
ATOM     69  N   UNL A   1      44.178  29.571  35.027  1.00  0.00    -0.354 N 
ATOM     70  N   UNL A   1      42.797  31.528  36.725  1.00  0.00    -0.248 NA
ATOM     71  C   UNL A   1      42.679  32.777  38.693  1.00  0.00     0.031 C 
ATOM     72  C   UNL A   1      46.146  28.789  35.698  1.00  0.00     0.029 A 
ATOM     73  C   UNL A   1      45.116  29.647  36.046  1.00  0.00     0.049 A 
ATOM     74  H   UNL A   1      43.328  30.066  35.003  1.00  0.00     0.167 HD
ATOM     75  C   UNL A   1      43.944  31.301  37.477  1.00  0.00     0.074 A 
ATOM     76  C   UNL A   1      43.835  32.132  38.658  1.00  0.00     0.031 C 
ATOM     77  C   UNL A   1      44.993  30.481  37.216  1.00  0.00     0.037 A 
BRANCH  64  78
ATOM     78  C   UNL A   1      44.454  27.343  31.915  1.00  0.00     0.064 A 
ATOM     79  C   UNL A   1      44.208  25.967  32.051  1.00  0.00     0.173 A 
ATOM     80  C   UNL A   1      45.259  27.759  30.842  1.00  0.00     0.173 A 
ATOM     81  F   UNL A   1      43.462  25.512  33.070  1.00  0.00    -0.203 F 
ATOM     82  C   UNL A   1      44.768  25.047  31.168  1.00  0.00     0.198 A 
ATOM     83  C   UNL A   1      45.787  26.840  29.941  1.00  0.00     0.198 A 
ATOM     84  F   UNL A   1      45.527  29.061  30.664  1.00  0.00    -0.203 F 
ATOM     85  F   UNL A   1      44.565  23.735  31.353  1.00  0.00    -0.200 F 
ATOM     86  C   UNL A   1      45.550  25.484  30.110  1.00  0.00     0.200 A 
ATOM     87  F   UNL A   1      46.531  27.265  28.911  1.00  0.00    -0.200 F 
ATOM     88  F   UNL A   1      46.081  24.598  29.257  1.00  0.00    -0.200 F 
ENDBRANCH  64  78
BRANCH  65  89
ATOM     89  C   UNL A   1      40.120  34.003  37.982  1.00  0.00     0.064 A 
ATOM     90  C   UNL A   1      40.453  35.365  37.947  1.00  0.00     0.173 A 
ATOM     91  C   UNL A   1      39.189  33.586  38.945  1.00  0.00     0.173 A 
ATOM     92  F   UNL A   1      41.357  35.810  37.061  1.00  0.00    -0.203 F 
ATOM     93  C   UNL A   1      39.900  36.265  38.855  1.00  0.00     0.198 A 
ATOM     94  C   UNL A   1      38.612  34.494  39.831  1.00  0.00     0.198 A 
ATOM     95  F   UNL A   1      38.836  32.295  39.025  1.00  0.00    -0.203 F 
ATOM     96  F   UNL A   1      40.282  37.550  38.837  1.00  0.00    -0.200 F 
ATOM     97  C   UNL A   1      38.976  35.831  39.792  1.00  0.00     0.200 A 
ATOM     98  F   UNL A   1      37.708  34.071  40.726  1.00  0.00    -0.200 F 
ATOM     99  F   UNL A   1      38.445  36.697  40.666  1.00  0.00    -0.200 F 
ENDBRANCH  65  89
BRANCH  77 100
ATOM    100  C   UNL A   1      46.127  30.479  38.205  1.00  0.00     0.064 A 
ATOM    101  C   UNL A   1      47.170  31.416  38.142  1.00  0.00     0.173 A 
ATOM    102  C   UNL A   1      46.167  29.527  39.236  1.00  0.00     0.173 A 
ATOM    103  F   UNL A   1      47.188  32.344  37.174  1.00  0.00    -0.203 F 
ATOM    104  C   UNL A   1      48.234  31.367  39.040  1.00  0.00     0.198 A 
ATOM    105  C   UNL A   1      47.211  29.507  40.157  1.00  0.00     0.198 A 
ATOM    106  F   UNL A   1      45.191  28.615  39.354  1.00  0.00    -0.203 F 
ATOM    107  F   UNL A   1      49.256  32.224  38.911  1.00  0.00    -0.200 F 
ATOM    108  C   UNL A   1      48.251  30.416  40.049  1.00  0.00     0.200 A 
ATOM    109  F   UNL A   1      47.215  28.599  41.143  1.00  0.00    -0.200 F 
ATOM    110  F   UNL A   1      49.278  30.367  40.909  1.00  0.00    -0.200 F 
ENDBRANCH  77 100
ENDBRANCH  51  52
ENDBRANCH  44  46
ENDBRANCH  43  44
ENDBRANCH  42  43
ENDBRANCH  41  42
ENDBRANCH  40  41
ENDBRANCH  39  40
ENDBRANCH  38  39
ENDBRANCH  37  38
ENDBRANCH   1  37
TORSDOF 25
ENDMDL
