MODEL 1
REMARK VINA RESULT:      -9.2      0.000      0.000
REMARK SMILES Cc1ccc([C@H]2CC(c3cccs3)=NN2C(=O)CCC(=O)OCCOCCOCCOCCOC(=O)c2ccc(-c3c4nc(c(-c5c(F)c(F)c(F)c(F)c5F)c5ccc([nH]5)c(-c5c(F)c(F)c(F)c(F)c5F)c5nc(c(-c6c(F)c(F)c(F)c(F)c6F)c6ccc3[nH]6)C=C5)C=C4)cc2)o1
REMARK SMILES IDX 27 1 26 2 25 3 24 4 23 5 22 6 20 7 21 8 19 9 18 10 16 11
REMARK SMILES IDX 17 12 15 13 6 14 7 15 8 16 14 17 5 18 1 19 2 20 3 21 100 22
REMARK SMILES IDX 4 23 9 24 10 25 13 26 11 27 12 28 28 29 29 30 30 31 31 32
REMARK SMILES IDX 32 33 33 34 34 35 35 36 36 37 37 38 38 39 99 40 39 41 98 42
REMARK SMILES IDX 40 43 41 44 42 45 92 46 43 47 97 48 91 49 93 50 44 51 96 52
REMARK SMILES IDX 90 53 89 54 45 56 77 57 57 58 76 59 58 60 61 61 75 62 94 63
REMARK SMILES IDX 59 64 60 65 74 67 95 68 62 69 46 70 47 71 55 72 48 73 49 74
REMARK SMILES IDX 53 75 56 76 50 77 51 78 54 79 52 80 78 81 79 82 87 83 80 84
REMARK SMILES IDX 81 85 85 86 88 87 82 88 83 89 86 90 84 91 63 92 64 93 72 94
REMARK SMILES IDX 65 95 66 96 70 97 73 98 67 99 68 100 71 101 69 102
REMARK H PARENT 93 55 61 66
REMARK Flexibility Score: inf
ROOT
ATOM      1  C   UNL A   1      33.540  35.350  30.087  1.00  0.00     0.188 C 
ENDROOT
BRANCH   1   2
ATOM      2  C   UNL A   1      33.239  34.577  28.765  1.00  0.00     0.188 C 
BRANCH   2   3
ATOM      3  O   UNL A   1      33.989  33.366  28.688  1.00  0.00    -0.376 OA
BRANCH   3   4
ATOM      4  C   UNL A   1      35.251  33.202  28.012  1.00  0.00     0.202 C 
BRANCH   4   5
ATOM      5  C   UNL A   1      36.224  31.827  28.364  1.00  0.00     0.261 C 
BRANCH   5   6
ATOM      6  O   UNL A   1      37.614  31.546  29.291  1.00  0.00    -0.463 OA
BRANCH   6   7
ATOM      7  C   UNL A   1      38.933  31.432  29.753  1.00  0.00     0.306 C 
ATOM      8  O   UNL A   1      39.427  32.469  30.221  1.00  0.00    -0.252 OA
BRANCH   7   9
ATOM      9  C   UNL A   1      39.874  30.073  29.955  1.00  0.00     0.132 C 
BRANCH   9  10
ATOM     10  C   UNL A   1      40.682  29.298  28.861  1.00  0.00     0.114 C 
BRANCH  10  11
ATOM     11  C   UNL A   1      40.396  27.857  29.007  1.00  0.00     0.243 C 
ATOM     12  O   UNL A   1      39.500  27.382  29.687  1.00  0.00    -0.273 OA
BRANCH  11  13
ATOM     13  N   UNL A   1      41.350  27.184  28.304  1.00  0.00    -0.222 N 
ATOM     14  C   UNL A   1      41.529  25.708  28.369  1.00  0.00     0.183 C 
ATOM     15  C   UNL A   1      43.062  25.754  28.074  1.00  0.00     0.095 C 
ATOM     16  C   UNL A   1      43.284  27.068  27.402  1.00  0.00     0.081 C 
ATOM     17  N   UNL A   1      42.348  27.913  27.658  1.00  0.00    -0.173 NA
BRANCH  14  18
ATOM     18  C   UNL A   1      40.279  24.596  27.702  1.00  0.00     0.129 A 
ATOM     19  C   UNL A   1      39.948  21.213  26.293  1.00  0.00     0.087 C 
ATOM     20  C   UNL A   1      39.666  22.559  26.845  1.00  0.00     0.101 A 
ATOM     21  C   UNL A   1      38.656  23.389  26.485  1.00  0.00     0.045 A 
ATOM     22  O   UNL A   1      40.563  23.208  27.687  1.00  0.00    -0.464 OA
ATOM     23  C   UNL A   1      39.008  24.624  27.038  1.00  0.00     0.048 A 
ENDBRANCH  14  18
BRANCH  16  24
ATOM     24  C   UNL A   1      44.478  27.305  26.619  1.00  0.00     0.050 A 
ATOM     25  C   UNL A   1      45.270  28.436  26.506  1.00  0.00     0.022 A 
ATOM     26  S   UNL A   1      44.945  26.123  25.481  1.00  0.00    -0.142 S 
ATOM     27  C   UNL A   1      46.307  28.285  25.529  1.00  0.00     0.012 A 
ATOM     28  C   UNL A   1      46.295  27.032  24.961  1.00  0.00     0.065 A 
ENDBRANCH  16  24
ENDBRANCH  11  13
ENDBRANCH  10  11
ENDBRANCH   9  10
ENDBRANCH   7   9
ENDBRANCH   6   7
ENDBRANCH   5   6
ENDBRANCH   4   5
ENDBRANCH   3   4
ENDBRANCH   2   3
ENDBRANCH   1   2
BRANCH   1  29
ATOM     29  O   UNL A   1      32.551  35.339  31.111  1.00  0.00    -0.377 OA
BRANCH  29  30
ATOM     30  C   UNL A   1      32.602  36.339  32.115  1.00  0.00     0.188 C 
BRANCH  30  31
ATOM     31  C   UNL A   1      33.979  36.798  32.597  1.00  0.00     0.188 C 
BRANCH  31  32
ATOM     32  O   UNL A   1      34.691  36.062  33.577  1.00  0.00    -0.376 OA
BRANCH  32  33
ATOM     33  C   UNL A   1      35.595  35.060  33.151  1.00  0.00     0.202 C 
BRANCH  33  34
ATOM     34  C   UNL A   1      35.886  34.005  34.226  1.00  0.00     0.261 C 
BRANCH  34  35
ATOM     35  O   UNL A   1      37.270  33.641  34.369  1.00  0.00    -0.460 OA
BRANCH  35  36
ATOM     36  C   UNL A   1      37.557  32.825  35.420  1.00  0.00     0.338 C 
ATOM     37  O   UNL A   1      37.027  32.793  36.505  1.00  0.00    -0.246 OA
BRANCH  36  38
ATOM     38  C   UNL A   1      38.622  31.873  35.022  1.00  0.00     0.060 A 
ATOM     39  C   UNL A   1      39.844  31.886  35.707  1.00  0.00     0.016 A 
ATOM     40  C   UNL A   1      38.445  31.048  33.912  1.00  0.00     0.016 A 
ATOM     41  C   UNL A   1      40.911  31.113  35.242  1.00  0.00     0.010 A 
ATOM     42  C   UNL A   1      39.524  30.300  33.426  1.00  0.00     0.010 A 
ATOM     43  C   UNL A   1      40.775  30.366  34.061  1.00  0.00    -0.014 A 
BRANCH  43  44
ATOM     44  C   UNL A   1      41.998  29.874  33.372  1.00  0.00     0.031 A 
ATOM     45  C   UNL A   1      42.705  30.810  32.439  1.00  0.00     0.074 A 
ATOM     46  C   UNL A   1      42.472  28.630  33.547  1.00  0.00     0.049 A 
ATOM     47  N   UNL A   1      43.780  30.605  31.725  1.00  0.00    -0.248 NA
ATOM     48  C   UNL A   1      42.070  32.119  32.218  1.00  0.00     0.031 C 
ATOM     49  C   UNL A   1      41.785  27.587  34.286  1.00  0.00     0.029 A 
ATOM     50  N   UNL A   1      43.650  28.037  33.157  1.00  0.00    -0.354 N 
ATOM     51  C   UNL A   1      43.891  31.711  30.896  1.00  0.00     0.074 A 
ATOM     52  C   UNL A   1      42.805  32.607  31.230  1.00  0.00     0.031 C 
ATOM     53  C   UNL A   1      42.614  26.542  34.449  1.00  0.00     0.029 A 
ATOM     54  C   UNL A   1      43.859  26.803  33.737  1.00  0.00     0.049 A 
ATOM     55  H   UNL A   1      44.281  28.452  32.525  1.00  0.00     0.167 HD
ATOM     56  C   UNL A   1      44.787  31.918  29.905  1.00  0.00     0.037 A 
ATOM     57  C   UNL A   1      44.936  25.992  33.691  1.00  0.00     0.037 A 
ATOM     58  C   UNL A   1      45.859  31.009  29.587  1.00  0.00     0.049 A 
ATOM     59  C   UNL A   1      46.028  26.337  32.707  1.00  0.00     0.074 A 
ATOM     60  C   UNL A   1      46.836  31.135  28.617  1.00  0.00     0.029 A 
ATOM     61  N   UNL A   1      46.089  29.801  30.233  1.00  0.00    -0.354 N 
ATOM     62  N   UNL A   1      46.147  27.396  31.942  1.00  0.00    -0.248 NA
ATOM     63  C   UNL A   1      47.091  25.339  32.516  1.00  0.00     0.031 C 
ATOM     64  C   UNL A   1      47.627  29.982  28.641  1.00  0.00     0.029 A 
ATOM     65  C   UNL A   1      47.189  29.169  29.674  1.00  0.00     0.049 A 
ATOM     66  H   UNL A   1      45.551  29.446  30.976  1.00  0.00     0.167 HD
ATOM     67  C   UNL A   1      47.263  27.173  31.151  1.00  0.00     0.074 A 
ATOM     68  C   UNL A   1      47.839  25.917  31.587  1.00  0.00     0.031 C 
ATOM     69  C   UNL A   1      47.741  27.915  30.122  1.00  0.00     0.037 A 
BRANCH  56  70
ATOM     70  C   UNL A   1      44.588  33.129  29.043  1.00  0.00     0.064 A 
ATOM     71  C   UNL A   1      44.908  34.423  29.481  1.00  0.00     0.173 A 
ATOM     72  C   UNL A   1      44.059  32.988  27.750  1.00  0.00     0.173 A 
ATOM     73  F   UNL A   1      45.393  34.616  30.717  1.00  0.00    -0.203 F 
ATOM     74  C   UNL A   1      44.679  35.531  28.670  1.00  0.00     0.198 A 
ATOM     75  C   UNL A   1      43.866  34.094  26.927  1.00  0.00     0.198 A 
ATOM     76  F   UNL A   1      43.730  31.775  27.281  1.00  0.00    -0.203 F 
ATOM     77  F   UNL A   1      44.935  36.762  29.131  1.00  0.00    -0.200 F 
ATOM     78  C   UNL A   1      44.166  35.365  27.391  1.00  0.00     0.200 A 
ATOM     79  F   UNL A   1      43.381  33.929  25.689  1.00  0.00    -0.200 F 
ATOM     80  F   UNL A   1      43.952  36.432  26.609  1.00  0.00    -0.200 F 
ENDBRANCH  56  70
BRANCH  57  81
ATOM     81  C   UNL A   1      45.058  24.786  34.565  1.00  0.00     0.064 A 
ATOM     82  C   UNL A   1      45.603  24.902  35.857  1.00  0.00     0.173 A 
ATOM     83  C   UNL A   1      44.678  23.502  34.150  1.00  0.00     0.173 A 
ATOM     84  F   UNL A   1      46.021  26.097  36.304  1.00  0.00    -0.203 F 
ATOM     85  C   UNL A   1      45.777  23.789  36.680  1.00  0.00     0.198 A 
ATOM     86  C   UNL A   1      44.800  22.398  34.995  1.00  0.00     0.198 A 
ATOM     87  F   UNL A   1      44.189  23.310  32.917  1.00  0.00    -0.203 F 
ATOM     88  F   UNL A   1      46.367  23.927  37.876  1.00  0.00    -0.200 F 
ATOM     89  C   UNL A   1      45.361  22.539  36.255  1.00  0.00     0.200 A 
ATOM     90  F   UNL A   1      44.385  21.193  34.581  1.00  0.00    -0.200 F 
ATOM     91  F   UNL A   1      45.515  21.471  37.049  1.00  0.00    -0.200 F 
ENDBRANCH  57  81
BRANCH  69  92
ATOM     92  C   UNL A   1      48.950  27.384  29.404  1.00  0.00     0.064 A 
ATOM     93  C   UNL A   1      50.252  27.700  29.821  1.00  0.00     0.173 A 
ATOM     94  C   UNL A   1      48.801  26.527  28.305  1.00  0.00     0.173 A 
ATOM     95  F   UNL A   1      50.448  28.527  30.860  1.00  0.00    -0.203 F 
ATOM     96  C   UNL A   1      51.361  27.205  29.140  1.00  0.00     0.198 A 
ATOM     97  C   UNL A   1      49.912  26.006  27.648  1.00  0.00     0.198 A 
ATOM     98  F   UNL A   1      47.577  26.187  27.872  1.00  0.00    -0.203 F 
ATOM     99  F   UNL A   1      52.595  27.567  29.519  1.00  0.00    -0.200 F 
ATOM    100  C   UNL A   1      51.190  26.354  28.059  1.00  0.00     0.200 A 
ATOM    101  F   UNL A   1      49.745  25.172  26.612  1.00  0.00    -0.200 F 
ATOM    102  F   UNL A   1      52.258  25.875  27.406  1.00  0.00    -0.200 F 
ENDBRANCH  69  92
ENDBRANCH  43  44
ENDBRANCH  36  38
ENDBRANCH  35  36
ENDBRANCH  34  35
ENDBRANCH  33  34
ENDBRANCH  32  33
ENDBRANCH  31  32
ENDBRANCH  30  31
ENDBRANCH  29  30
ENDBRANCH   1  29
TORSDOF 25
ENDMDL
MODEL 2
REMARK VINA RESULT:      -8.7      0.859      7.099
REMARK SMILES Cc1ccc([C@H]2CC(c3cccs3)=NN2C(=O)CCC(=O)OCCOCCOCCOCCOC(=O)c2ccc(-c3c4nc(c(-c5c(F)c(F)c(F)c(F)c5F)c5ccc([nH]5)c(-c5c(F)c(F)c(F)c(F)c5F)c5nc(c(-c6c(F)c(F)c(F)c(F)c6F)c6ccc3[nH]6)C=C5)C=C4)cc2)o1
REMARK SMILES IDX 27 1 26 2 25 3 24 4 23 5 22 6 20 7 21 8 19 9 18 10 16 11
REMARK SMILES IDX 17 12 15 13 6 14 7 15 8 16 14 17 5 18 1 19 2 20 3 21 100 22
REMARK SMILES IDX 4 23 9 24 10 25 13 26 11 27 12 28 28 29 29 30 30 31 31 32
REMARK SMILES IDX 32 33 33 34 34 35 35 36 36 37 37 38 38 39 99 40 39 41 98 42
REMARK SMILES IDX 40 43 41 44 42 45 92 46 43 47 97 48 91 49 93 50 44 51 96 52
REMARK SMILES IDX 90 53 89 54 45 56 77 57 57 58 76 59 58 60 61 61 75 62 94 63
REMARK SMILES IDX 59 64 60 65 74 67 95 68 62 69 46 70 47 71 55 72 48 73 49 74
REMARK SMILES IDX 53 75 56 76 50 77 51 78 54 79 52 80 78 81 79 82 87 83 80 84
REMARK SMILES IDX 81 85 85 86 88 87 82 88 83 89 86 90 84 91 63 92 64 93 72 94
REMARK SMILES IDX 65 95 66 96 70 97 73 98 67 99 68 100 71 101 69 102
REMARK H PARENT 93 55 61 66
REMARK Flexibility Score: inf
ROOT
ATOM      1  C   UNL A   1      33.649  35.174  30.089  1.00  0.00     0.188 C 
ENDROOT
BRANCH   1   2
ATOM      2  C   UNL A   1      33.355  34.403  28.764  1.00  0.00     0.188 C 
BRANCH   2   3
ATOM      3  O   UNL A   1      34.125  33.205  28.678  1.00  0.00    -0.376 OA
BRANCH   3   4
ATOM      4  C   UNL A   1      35.417  33.079  28.054  1.00  0.00     0.202 C 
BRANCH   4   5
ATOM      5  C   UNL A   1      36.335  31.645  28.298  1.00  0.00     0.261 C 
BRANCH   5   6
ATOM      6  O   UNL A   1      37.731  31.247  29.171  1.00  0.00    -0.463 OA
BRANCH   6   7
ATOM      7  C   UNL A   1      39.052  31.019  29.582  1.00  0.00     0.306 C 
ATOM      8  O   UNL A   1      39.594  31.958  30.186  1.00  0.00    -0.252 OA
BRANCH   7   9
ATOM      9  C   UNL A   1      39.943  29.612  29.562  1.00  0.00     0.132 C 
BRANCH   9  10
ATOM     10  C   UNL A   1      40.797  29.038  28.383  1.00  0.00     0.114 C 
BRANCH  10  11
ATOM     11  C   UNL A   1      40.296  27.687  28.062  1.00  0.00     0.243 C 
ATOM     12  O   UNL A   1      39.142  27.313  28.200  1.00  0.00    -0.273 OA
BRANCH  11  13
ATOM     13  N   UNL A   1      41.366  26.945  27.659  1.00  0.00    -0.222 N 
ATOM     14  C   UNL A   1      41.597  25.538  28.085  1.00  0.00     0.183 C 
ATOM     15  C   UNL A   1      43.153  25.629  27.982  1.00  0.00     0.095 C 
ATOM     16  C   UNL A   1      43.410  26.773  27.059  1.00  0.00     0.081 C 
ATOM     17  N   UNL A   1      42.412  27.583  26.993  1.00  0.00    -0.173 NA
BRANCH  14  18
ATOM     18  C   UNL A   1      40.500  24.217  27.541  1.00  0.00     0.129 A 
ATOM     19  C   UNL A   1      40.594  20.674  26.553  1.00  0.00     0.087 C 
ATOM     20  C   UNL A   1      40.146  22.035  26.932  1.00  0.00     0.101 A 
ATOM     21  C   UNL A   1      39.060  22.693  26.458  1.00  0.00     0.045 A 
ATOM     22  O   UNL A   1      40.939  22.879  27.701  1.00  0.00    -0.464 OA
ATOM     23  C   UNL A   1      39.254  24.018  26.860  1.00  0.00     0.048 A 
ENDBRANCH  14  18
BRANCH  16  24
ATOM     24  C   UNL A   1      44.690  26.916  26.398  1.00  0.00     0.050 A 
ATOM     25  C   UNL A   1      45.431  28.050  26.108  1.00  0.00     0.022 A 
ATOM     26  S   UNL A   1      45.376  25.539  25.660  1.00  0.00    -0.142 S 
ATOM     27  C   UNL A   1      46.603  27.758  25.338  1.00  0.00     0.012 A 
ATOM     28  C   UNL A   1      46.738  26.409  25.104  1.00  0.00     0.065 A 
ENDBRANCH  16  24
ENDBRANCH  11  13
ENDBRANCH  10  11
ENDBRANCH   9  10
ENDBRANCH   7   9
ENDBRANCH   6   7
ENDBRANCH   5   6
ENDBRANCH   4   5
ENDBRANCH   3   4
ENDBRANCH   2   3
ENDBRANCH   1   2
BRANCH   1  29
ATOM     29  O   UNL A   1      32.581  35.349  31.014  1.00  0.00    -0.377 OA
BRANCH  29  30
ATOM     30  C   UNL A   1      32.831  36.064  32.212  1.00  0.00     0.188 C 
BRANCH  30  31
ATOM     31  C   UNL A   1      34.232  35.974  32.819  1.00  0.00     0.188 C 
BRANCH  31  32
ATOM     32  O   UNL A   1      34.653  34.812  33.512  1.00  0.00    -0.376 OA
BRANCH  32  33
ATOM     33  C   UNL A   1      35.642  33.990  32.924  1.00  0.00     0.202 C 
BRANCH  33  34
ATOM     34  C   UNL A   1      36.093  32.836  33.828  1.00  0.00     0.261 C 
BRANCH  34  35
ATOM     35  O   UNL A   1      37.494  32.822  34.151  1.00  0.00    -0.460 OA
BRANCH  35  36
ATOM     36  C   UNL A   1      37.849  32.012  35.186  1.00  0.00     0.338 C 
ATOM     37  O   UNL A   1      37.324  31.913  36.270  1.00  0.00    -0.246 OA
BRANCH  36  38
ATOM     38  C   UNL A   1      38.991  31.162  34.770  1.00  0.00     0.060 A 
ATOM     39  C   UNL A   1      40.202  31.251  35.471  1.00  0.00     0.016 A 
ATOM     40  C   UNL A   1      38.892  30.363  33.632  1.00  0.00     0.016 A 
ATOM     41  C   UNL A   1      41.333  30.582  34.994  1.00  0.00     0.010 A 
ATOM     42  C   UNL A   1      40.033  29.721  33.135  1.00  0.00     0.010 A 
ATOM     43  C   UNL A   1      41.268  29.866  33.788  1.00  0.00    -0.014 A 
BRANCH  43  44
ATOM     44  C   UNL A   1      42.533  29.497  33.099  1.00  0.00     0.031 A 
ATOM     45  C   UNL A   1      43.150  28.170  33.422  1.00  0.00     0.074 A 
ATOM     46  C   UNL A   1      43.139  30.312  32.219  1.00  0.00     0.049 A 
ATOM     47  N   UNL A   1      44.248  27.636  32.956  1.00  0.00    -0.248 NA
ATOM     48  C   UNL A   1      42.488  27.377  34.470  1.00  0.00     0.031 C 
ATOM     49  C   UNL A   1      42.733  31.679  31.955  1.00  0.00     0.029 A 
ATOM     50  N   UNL A   1      44.192  30.108  31.359  1.00  0.00    -0.354 N 
ATOM     51  C   UNL A   1      44.464  26.502  33.724  1.00  0.00     0.074 A 
ATOM     52  C   UNL A   1      43.358  26.396  34.650  1.00  0.00     0.031 C 
ATOM     53  C   UNL A   1      43.403  32.140  30.886  1.00  0.00     0.029 A 
ATOM     54  C   UNL A   1      44.362  31.131  30.451  1.00  0.00     0.049 A 
ATOM     55  H   UNL A   1      44.769  29.310  31.389  1.00  0.00     0.167 HD
ATOM     56  C   UNL A   1      45.528  25.667  33.690  1.00  0.00     0.037 A 
ATOM     57  C   UNL A   1      45.197  31.227  29.395  1.00  0.00     0.037 A 
ATOM     58  C   UNL A   1      46.620  25.795  32.760  1.00  0.00     0.049 A 
ATOM     59  C   UNL A   1      46.273  30.177  29.258  1.00  0.00     0.074 A 
ATOM     60  C   UNL A   1      47.736  24.990  32.627  1.00  0.00     0.029 A 
ATOM     61  N   UNL A   1      46.735  26.799  31.807  1.00  0.00    -0.354 N 
ATOM     62  N   UNL A   1      46.461  29.090  29.968  1.00  0.00    -0.248 NA
ATOM     63  C   UNL A   1      47.300  30.408  28.232  1.00  0.00     0.031 C 
ATOM     64  C   UNL A   1      48.550  25.533  31.628  1.00  0.00     0.029 A 
ATOM     65  C   UNL A   1      47.909  26.636  31.088  1.00  0.00     0.049 A 
ATOM     66  H   UNL A   1      46.080  27.520  31.664  1.00  0.00     0.167 HD
ATOM     67  C   UNL A   1      47.646  28.535  29.508  1.00  0.00     0.074 A 
ATOM     68  C   UNL A   1      48.089  29.356  28.400  1.00  0.00     0.031 C 
ATOM     69  C   UNL A   1      48.332  27.470  29.991  1.00  0.00     0.037 A 
BRANCH  56  70
ATOM     70  C   UNL A   1      45.597  24.603  34.744  1.00  0.00     0.064 A 
ATOM     71  C   UNL A   1      45.156  23.291  34.516  1.00  0.00     0.173 A 
ATOM     72  C   UNL A   1      46.113  24.909  36.014  1.00  0.00     0.173 A 
ATOM     73  F   UNL A   1      44.631  22.952  33.329  1.00  0.00    -0.203 F 
ATOM     74  C   UNL A   1      45.202  22.334  35.527  1.00  0.00     0.198 A 
ATOM     75  C   UNL A   1      46.192  23.941  37.011  1.00  0.00     0.198 A 
ATOM     76  F   UNL A   1      46.544  26.149  36.289  1.00  0.00    -0.203 F 
ATOM     77  F   UNL A   1      44.719  21.104  35.305  1.00  0.00    -0.200 F 
ATOM     78  C   UNL A   1      45.726  22.657  36.770  1.00  0.00     0.200 A 
ATOM     79  F   UNL A   1      46.709  24.252  38.207  1.00  0.00    -0.200 F 
ATOM     80  F   UNL A   1      45.776  21.733  37.739  1.00  0.00    -0.200 F 
ENDBRANCH  56  70
BRANCH  57  81
ATOM     81  C   UNL A   1      45.084  32.331  28.393  1.00  0.00     0.064 A 
ATOM     82  C   UNL A   1      44.334  32.144  27.218  1.00  0.00     0.173 A 
ATOM     83  C   UNL A   1      45.726  33.568  28.545  1.00  0.00     0.173 A 
ATOM     84  F   UNL A   1      43.722  30.971  26.992  1.00  0.00    -0.203 F 
ATOM     85  C   UNL A   1      44.248  33.135  26.239  1.00  0.00     0.198 A 
ATOM     86  C   UNL A   1      45.594  34.579  27.593  1.00  0.00     0.198 A 
ATOM     87  F   UNL A   1      46.491  33.801  29.621  1.00  0.00    -0.203 F 
ATOM     88  F   UNL A   1      43.584  32.894  25.100  1.00  0.00    -0.200 F 
ATOM     89  C   UNL A   1      44.866  34.358  26.434  1.00  0.00     0.200 A 
ATOM     90  F   UNL A   1      46.186  35.764  27.793  1.00  0.00    -0.200 F 
ATOM     91  F   UNL A   1      44.774  35.316  25.501  1.00  0.00    -0.200 F 
ENDBRANCH  57  81
BRANCH  69  92
ATOM     92  C   UNL A   1      49.632  27.136  29.316  1.00  0.00     0.064 A 
ATOM     93  C   UNL A   1      49.698  26.216  28.258  1.00  0.00     0.173 A 
ATOM     94  C   UNL A   1      50.820  27.764  29.715  1.00  0.00     0.173 A 
ATOM     95  F   UNL A   1      48.591  25.577  27.848  1.00  0.00    -0.203 F 
ATOM     96  C   UNL A   1      50.911  25.912  27.649  1.00  0.00     0.198 A 
ATOM     97  C   UNL A   1      52.027  27.484  29.081  1.00  0.00     0.198 A 
ATOM     98  F   UNL A   1      50.810  28.658  30.716  1.00  0.00    -0.203 F 
ATOM     99  F   UNL A   1      50.961  24.987  26.680  1.00  0.00    -0.200 F 
ATOM    100  C   UNL A   1      52.073  26.551  28.055  1.00  0.00     0.200 A 
ATOM    101  F   UNL A   1      53.146  28.113  29.465  1.00  0.00    -0.200 F 
ATOM    102  F   UNL A   1      53.241  26.260  27.466  1.00  0.00    -0.200 F 
ENDBRANCH  69  92
ENDBRANCH  43  44
ENDBRANCH  36  38
ENDBRANCH  35  36
ENDBRANCH  34  35
ENDBRANCH  33  34
ENDBRANCH  32  33
ENDBRANCH  31  32
ENDBRANCH  30  31
ENDBRANCH  29  30
ENDBRANCH   1  29
TORSDOF 25
ENDMDL
MODEL 3
REMARK VINA RESULT:      -8.3      5.057      9.959
REMARK SMILES Cc1ccc([C@H]2CC(c3cccs3)=NN2C(=O)CCC(=O)OCCOCCOCCOCCOC(=O)c2ccc(-c3c4nc(c(-c5c(F)c(F)c(F)c(F)c5F)c5ccc([nH]5)c(-c5c(F)c(F)c(F)c(F)c5F)c5nc(c(-c6c(F)c(F)c(F)c(F)c6F)c6ccc3[nH]6)C=C5)C=C4)cc2)o1
REMARK SMILES IDX 27 1 26 2 25 3 24 4 23 5 22 6 20 7 21 8 19 9 18 10 16 11
REMARK SMILES IDX 17 12 15 13 6 14 7 15 8 16 14 17 5 18 1 19 2 20 3 21 100 22
REMARK SMILES IDX 4 23 9 24 10 25 13 26 11 27 12 28 28 29 29 30 30 31 31 32
REMARK SMILES IDX 32 33 33 34 34 35 35 36 36 37 37 38 38 39 99 40 39 41 98 42
REMARK SMILES IDX 40 43 41 44 42 45 92 46 43 47 97 48 91 49 93 50 44 51 96 52
REMARK SMILES IDX 90 53 89 54 45 56 77 57 57 58 76 59 58 60 61 61 75 62 94 63
REMARK SMILES IDX 59 64 60 65 74 67 95 68 62 69 46 70 47 71 55 72 48 73 49 74
REMARK SMILES IDX 53 75 56 76 50 77 51 78 54 79 52 80 78 81 79 82 87 83 80 84
REMARK SMILES IDX 81 85 85 86 88 87 82 88 83 89 86 90 84 91 63 92 64 93 72 94
REMARK SMILES IDX 65 95 66 96 70 97 73 98 67 99 68 100 71 101 69 102
REMARK H PARENT 93 55 61 66
REMARK Flexibility Score: inf
ROOT
ATOM      1  C   UNL A   1      33.712  36.138  30.811  1.00  0.00     0.188 C 
ENDROOT
BRANCH   1   2
ATOM      2  C   UNL A   1      32.933  36.167  29.459  1.00  0.00     0.188 C 
BRANCH   2   3
ATOM      3  O   UNL A   1      33.329  35.092  28.608  1.00  0.00    -0.376 OA
BRANCH   3   4
ATOM      4  C   UNL A   1      33.720  33.776  29.044  1.00  0.00     0.202 C 
BRANCH   4   5
ATOM      5  C   UNL A   1      34.279  32.635  27.883  1.00  0.00     0.261 C 
BRANCH   5   6
ATOM      6  O   UNL A   1      33.699  31.166  27.269  1.00  0.00    -0.463 OA
BRANCH   6   7
ATOM      7  C   UNL A   1      32.976  29.988  27.034  1.00  0.00     0.306 C 
ATOM      8  O   UNL A   1      31.783  30.144  26.734  1.00  0.00    -0.252 OA
BRANCH   7   9
ATOM      9  C   UNL A   1      33.518  28.419  26.899  1.00  0.00     0.132 C 
BRANCH   9  10
ATOM     10  C   UNL A   1      32.666  27.133  26.636  1.00  0.00     0.114 C 
BRANCH  10  11
ATOM     11  C   UNL A   1      33.293  26.378  25.533  1.00  0.00     0.243 C 
ATOM     12  O   UNL A   1      34.363  25.793  25.599  1.00  0.00    -0.273 OA
BRANCH  11  13
ATOM     13  N   UNL A   1      32.492  26.522  24.440  1.00  0.00    -0.222 N 
ATOM     14  C   UNL A   1      32.710  25.794  23.161  1.00  0.00     0.183 C 
ATOM     15  C   UNL A   1      32.080  26.911  22.270  1.00  0.00     0.095 C 
ATOM     16  C   UNL A   1      31.209  27.694  23.195  1.00  0.00     0.081 C 
ATOM     17  N   UNL A   1      31.551  27.552  24.428  1.00  0.00    -0.173 NA
BRANCH  14  18
ATOM     18  C   UNL A   1      32.488  24.009  23.065  1.00  0.00     0.129 A 
ATOM     19  C   UNL A   1      32.041  21.081  25.249  1.00  0.00     0.087 C 
ATOM     20  C   UNL A   1      32.136  21.980  24.074  1.00  0.00     0.101 A 
ATOM     21  C   UNL A   1      32.611  21.662  22.844  1.00  0.00     0.045 A 
ATOM     22  O   UNL A   1      31.914  23.349  24.179  1.00  0.00    -0.464 OA
ATOM     23  C   UNL A   1      32.792  22.896  22.213  1.00  0.00     0.048 A 
ENDBRANCH  14  18
BRANCH  16  24
ATOM     24  C   UNL A   1      30.157  28.544  22.679  1.00  0.00     0.050 A 
ATOM     25  C   UNL A   1      30.226  29.735  21.975  1.00  0.00     0.022 A 
ATOM     26  S   UNL A   1      28.547  28.198  23.126  1.00  0.00    -0.142 S 
ATOM     27  C   UNL A   1      28.936  30.314  21.746  1.00  0.00     0.012 A 
ATOM     28  C   UNL A   1      27.926  29.525  22.246  1.00  0.00     0.065 A 
ENDBRANCH  16  24
ENDBRANCH  11  13
ENDBRANCH  10  11
ENDBRANCH   9  10
ENDBRANCH   7   9
ENDBRANCH   6   7
ENDBRANCH   5   6
ENDBRANCH   4   5
ENDBRANCH   3   4
ENDBRANCH   2   3
ENDBRANCH   1   2
BRANCH   1  29
ATOM     29  O   UNL A   1      32.987  35.830  31.997  1.00  0.00    -0.377 OA
BRANCH  29  30
ATOM     30  C   UNL A   1      33.540  34.894  32.907  1.00  0.00     0.188 C 
BRANCH  30  31
ATOM     31  C   UNL A   1      34.788  34.125  32.471  1.00  0.00     0.188 C 
BRANCH  31  32
ATOM     32  O   UNL A   1      34.812  32.708  32.481  1.00  0.00    -0.376 OA
BRANCH  32  33
ATOM     33  C   UNL A   1      35.485  32.032  31.437  1.00  0.00     0.202 C 
BRANCH  33  34
ATOM     34  C   UNL A   1      36.343  30.856  31.925  1.00  0.00     0.261 C 
BRANCH  34  35
ATOM     35  O   UNL A   1      37.590  31.222  32.540  1.00  0.00    -0.460 OA
BRANCH  35  36
ATOM     36  C   UNL A   1      38.424  30.187  32.834  1.00  0.00     0.338 C 
ATOM     37  O   UNL A   1      38.192  29.211  33.508  1.00  0.00    -0.246 OA
BRANCH  36  38
ATOM     38  C   UNL A   1      39.712  30.382  32.126  1.00  0.00     0.060 A 
ATOM     39  C   UNL A   1      40.885  30.559  32.872  1.00  0.00     0.016 A 
ATOM     40  C   UNL A   1      39.738  30.492  30.736  1.00  0.00     0.016 A 
ATOM     41  C   UNL A   1      42.075  30.906  32.227  1.00  0.00     0.010 A 
ATOM     42  C   UNL A   1      40.922  30.873  30.093  1.00  0.00     0.010 A 
ATOM     43  C   UNL A   1      42.083  31.127  30.841  1.00  0.00    -0.014 A 
BRANCH  43  44
ATOM     44  C   UNL A   1      43.226  31.861  30.233  1.00  0.00     0.031 A 
ATOM     45  C   UNL A   1      44.440  31.074  29.842  1.00  0.00     0.074 A 
ATOM     46  C   UNL A   1      43.208  33.190  30.041  1.00  0.00     0.049 A 
ATOM     47  N   UNL A   1      45.555  31.492  29.305  1.00  0.00    -0.248 NA
ATOM     48  C   UNL A   1      44.428  29.640  30.178  1.00  0.00     0.031 C 
ATOM     49  C   UNL A   1      42.168  34.075  30.530  1.00  0.00     0.029 A 
ATOM     50  N   UNL A   1      44.060  34.026  29.358  1.00  0.00    -0.354 N 
ATOM     51  C   UNL A   1      46.412  30.403  29.335  1.00  0.00     0.074 A 
ATOM     52  C   UNL A   1      45.674  29.292  29.894  1.00  0.00     0.031 C 
ATOM     53  C   UNL A   1      42.339  35.295  29.995  1.00  0.00     0.029 A 
ATOM     54  C   UNL A   1      43.562  35.303  29.202  1.00  0.00     0.049 A 
ATOM     55  H   UNL A   1      44.938  33.742  29.015  1.00  0.00     0.167 HD
ATOM     56  C   UNL A   1      47.718  30.364  28.982  1.00  0.00     0.037 A 
ATOM     57  C   UNL A   1      44.049  36.345  28.495  1.00  0.00     0.037 A 
ATOM     58  C   UNL A   1      48.434  31.485  28.430  1.00  0.00     0.049 A 
ATOM     59  C   UNL A   1      45.447  36.220  27.940  1.00  0.00     0.074 A 
ATOM     60  C   UNL A   1      49.753  31.546  28.019  1.00  0.00     0.029 A 
ATOM     61  N   UNL A   1      47.891  32.745  28.219  1.00  0.00    -0.354 N 
ATOM     62  N   UNL A   1      46.248  35.181  27.944  1.00  0.00    -0.248 NA
ATOM     63  C   UNL A   1      46.041  37.432  27.358  1.00  0.00     0.031 C 
ATOM     64  C   UNL A   1      50.022  32.854  27.605  1.00  0.00     0.029 A 
ATOM     65  C   UNL A   1      48.852  33.592  27.690  1.00  0.00     0.049 A 
ATOM     66  H   UNL A   1      46.961  33.000  28.417  1.00  0.00     0.167 HD
ATOM     67  C   UNL A   1      47.449  35.624  27.412  1.00  0.00     0.074 A 
ATOM     68  C   UNL A   1      47.247  37.002  27.014  1.00  0.00     0.031 C 
ATOM     69  C   UNL A   1      48.629  34.964  27.307  1.00  0.00     0.037 A 
BRANCH  56  70
ATOM     70  C   UNL A   1      48.467  29.096  29.266  1.00  0.00     0.064 A 
ATOM     71  C   UNL A   1      49.177  28.896  30.459  1.00  0.00     0.173 A 
ATOM     72  C   UNL A   1      48.476  28.061  28.317  1.00  0.00     0.173 A 
ATOM     73  F   UNL A   1      49.223  29.862  31.389  1.00  0.00    -0.203 F 
ATOM     74  C   UNL A   1      49.892  27.720  30.678  1.00  0.00     0.198 A 
ATOM     75  C   UNL A   1      49.160  26.873  28.554  1.00  0.00     0.198 A 
ATOM     76  F   UNL A   1      47.818  28.201  27.156  1.00  0.00    -0.203 F 
ATOM     77  F   UNL A   1      50.613  27.575  31.798  1.00  0.00    -0.200 F 
ATOM     78  C   UNL A   1      49.876  26.708  29.730  1.00  0.00     0.200 A 
ATOM     79  F   UNL A   1      49.134  25.892  27.642  1.00  0.00    -0.200 F 
ATOM     80  F   UNL A   1      50.559  25.575  29.945  1.00  0.00    -0.200 F 
ENDBRANCH  56  70
BRANCH  57  81
ATOM     81  C   UNL A   1      43.252  37.590  28.270  1.00  0.00     0.064 A 
ATOM     82  C   UNL A   1      43.296  38.636  29.210  1.00  0.00     0.173 A 
ATOM     83  C   UNL A   1      42.416  37.770  27.160  1.00  0.00     0.173 A 
ATOM     84  F   UNL A   1      44.049  38.514  30.314  1.00  0.00    -0.203 F 
ATOM     85  C   UNL A   1      42.528  39.791  29.056  1.00  0.00     0.198 A 
ATOM     86  C   UNL A   1      41.691  38.948  26.978  1.00  0.00     0.198 A 
ATOM     87  F   UNL A   1      42.293  36.797  26.245  1.00  0.00    -0.203 F 
ATOM     88  F   UNL A   1      42.540  40.734  30.008  1.00  0.00    -0.200 F 
ATOM     89  C   UNL A   1      41.737  39.953  27.931  1.00  0.00     0.200 A 
ATOM     90  F   UNL A   1      40.935  39.102  25.882  1.00  0.00    -0.200 F 
ATOM     91  F   UNL A   1      41.008  41.066  27.775  1.00  0.00    -0.200 F 
ENDBRANCH  57  81
BRANCH  69  92
ATOM     92  C   UNL A   1      49.788  35.730  26.735  1.00  0.00     0.064 A 
ATOM     93  C   UNL A   1      50.005  35.814  25.351  1.00  0.00     0.173 A 
ATOM     94  C   UNL A   1      50.675  36.411  27.581  1.00  0.00     0.173 A 
ATOM     95  F   UNL A   1      49.193  35.169  24.499  1.00  0.00    -0.203 F 
ATOM     96  C   UNL A   1      51.088  36.522  24.838  1.00  0.00     0.198 A 
ATOM     97  C   UNL A   1      51.736  37.147  27.064  1.00  0.00     0.198 A 
ATOM     98  F   UNL A   1      50.506  36.369  28.912  1.00  0.00    -0.203 F 
ATOM     99  F   UNL A   1      51.310  36.540  23.516  1.00  0.00    -0.200 F 
ATOM    100  C   UNL A   1      51.948  37.194  25.694  1.00  0.00     0.200 A 
ATOM    101  F   UNL A   1      52.558  37.807  27.891  1.00  0.00    -0.200 F 
ATOM    102  F   UNL A   1      52.989  37.878  25.199  1.00  0.00    -0.200 F 
ENDBRANCH  69  92
ENDBRANCH  43  44
ENDBRANCH  36  38
ENDBRANCH  35  36
ENDBRANCH  34  35
ENDBRANCH  33  34
ENDBRANCH  32  33
ENDBRANCH  31  32
ENDBRANCH  30  31
ENDBRANCH  29  30
ENDBRANCH   1  29
TORSDOF 25
ENDMDL
