MODEL 1
REMARK VINA RESULT:      -8.8      0.000      0.000
REMARK SMILES CC(C)(C)N(CCC(=O)OCCOCCOCCOCCOC(=O)c1ccc(-c2c3nc(c(-c4c(F)c(F)c(F)c(F)c4F)c4ccc([nH]4)c(-c4c(F)c(F)c(F)c(F)c4F)c4nc(c(-c5c(F)c(F)c(F)c(F)c5F)c5ccc2[nH]5)C=C4)C=C3)cc1)C(=O)N1CC[N@@H+]2CCC[C@H]2C1
REMARK SMILES IDX 15 1 14 2 13 3 12 4 11 5 10 6 8 7 9 8 7 9 6 10 5 11 2 12
REMARK SMILES IDX 1 13 3 14 4 15 88 16 89 17 90 18 91 19 98 20 92 21 97 22
REMARK SMILES IDX 93 23 96 24 94 25 95 27 16 28 17 29 18 30 19 31 20 32 21 33
REMARK SMILES IDX 22 34 23 35 24 36 25 37 26 38 87 39 27 40 86 41 28 42 29 43
REMARK SMILES IDX 30 44 80 45 31 46 85 47 79 48 81 49 32 50 84 51 78 52 77 53
REMARK SMILES IDX 33 55 65 56 45 57 64 58 46 59 49 60 63 61 82 62 47 63 48 64
REMARK SMILES IDX 62 66 83 67 50 68 34 69 35 70 43 71 36 72 37 73 41 74 44 75
REMARK SMILES IDX 38 76 39 77 42 78 40 79 66 80 67 81 75 82 68 83 69 84 73 85
REMARK SMILES IDX 76 86 70 87 71 88 74 89 72 90 51 91 52 92 60 93 53 94 54 95
REMARK SMILES IDX 58 96 61 97 55 98 56 99 59 100 57 101
REMARK H PARENT 93 26 81 54 49 65
REMARK Flexibility Score: inf
ROOT
ATOM      1  C   UNL A   1      35.065  34.844  33.433  1.00  0.00     0.188 C 
ENDROOT
BRANCH   1   2
ATOM      2  C   UNL A   1      36.366  34.240  34.033  1.00  0.00     0.188 C 
BRANCH   2   3
ATOM      3  O   UNL A   1      37.786  34.875  33.874  1.00  0.00    -0.376 OA
BRANCH   3   4
ATOM      4  C   UNL A   1      39.705  34.776  33.864  1.00  0.00     0.202 C 
BRANCH   4   5
ATOM      5  C   UNL A   1      40.834  34.845  32.592  1.00  0.00     0.261 C 
BRANCH   5   6
ATOM      6  O   UNL A   1      41.366  33.650  31.970  1.00  0.00    -0.463 OA
BRANCH   6   7
ATOM      7  C   UNL A   1      41.278  33.461  30.642  1.00  0.00     0.307 C 
ATOM      8  O   UNL A   1      40.636  34.179  29.886  1.00  0.00    -0.252 OA
BRANCH   7   9
ATOM      9  C   UNL A   1      42.152  32.313  30.165  1.00  0.00     0.144 C 
BRANCH   9  10
ATOM     10  C   UNL A   1      43.623  32.565  29.808  1.00  0.00     0.133 C 
BRANCH  10  11
ATOM     11  N   UNL A   1      44.088  32.213  28.469  1.00  0.00    -0.319 N 
BRANCH  11  12
ATOM     12  C   UNL A   1      44.435  33.351  27.511  1.00  0.00     0.036 C 
ATOM     13  C   UNL A   1      44.168  32.989  26.021  1.00  0.00     0.034 C 
ATOM     14  C   UNL A   1      45.924  33.700  27.655  1.00  0.00     0.034 C 
ATOM     15  C   UNL A   1      43.585  34.635  27.728  1.00  0.00     0.034 C 
ENDBRANCH  11  12
BRANCH  11  16
ATOM     16  C   UNL A   1      44.062  30.900  27.989  1.00  0.00     0.320 C 
ATOM     17  O   UNL A   1      42.998  30.349  27.685  1.00  0.00    -0.248 OA
BRANCH  16  18
ATOM     18  N   UNL A   1      45.244  30.176  27.792  1.00  0.00    -0.313 N 
ATOM     19  C   UNL A   1      46.310  29.855  26.218  1.00  0.00     0.183 C 
ATOM     20  C   UNL A   1      45.778  29.345  29.408  1.00  0.00     0.186 C 
ATOM     21  C   UNL A   1      47.704  28.443  26.346  1.00  0.00     0.284 C 
ATOM     22  C   UNL A   1      46.971  27.840  29.249  1.00  0.00     0.204 C 
ATOM     23  N   UNL A   1      48.174  27.752  27.940  1.00  0.00    -0.330 N 
ATOM     24  C   UNL A   1      47.702  27.032  30.282  1.00  0.00     0.073 C 
ATOM     25  C   UNL A   1      48.347  26.300  27.908  1.00  0.00     0.262 C 
ATOM     26  H   UNL A   1      49.003  28.320  28.114  1.00  0.00     0.348 HD
ATOM     27  C   UNL A   1      48.261  25.859  29.400  1.00  0.00     0.068 C 
ENDBRANCH  16  18
ENDBRANCH  11  16
ENDBRANCH  10  11
ENDBRANCH   9  10
ENDBRANCH   7   9
ENDBRANCH   6   7
ENDBRANCH   5   6
ENDBRANCH   4   5
ENDBRANCH   3   4
ENDBRANCH   2   3
ENDBRANCH   1   2
BRANCH   1  28
ATOM     28  O   UNL A   1      35.122  36.213  33.040  1.00  0.00    -0.377 OA
BRANCH  28  29
ATOM     29  C   UNL A   1      33.852  36.810  32.878  1.00  0.00     0.188 C 
BRANCH  29  30
ATOM     30  C   UNL A   1      33.289  36.729  31.453  1.00  0.00     0.188 C 
BRANCH  30  31
ATOM     31  O   UNL A   1      32.949  35.455  30.959  1.00  0.00    -0.376 OA
BRANCH  31  32
ATOM     32  C   UNL A   1      33.747  34.944  29.901  1.00  0.00     0.202 C 
BRANCH  32  33
ATOM     33  C   UNL A   1      33.748  33.450  29.453  1.00  0.00     0.261 C 
BRANCH  33  34
ATOM     34  O   UNL A   1      33.829  33.106  28.053  1.00  0.00    -0.460 OA
BRANCH  34  35
ATOM     35  C   UNL A   1      33.855  31.788  27.723  1.00  0.00     0.338 C 
ATOM     36  O   UNL A   1      32.989  31.168  27.143  1.00  0.00    -0.246 OA
BRANCH  35  37
ATOM     37  C   UNL A   1      35.226  31.248  27.972  1.00  0.00     0.060 A 
ATOM     38  C   UNL A   1      35.392  29.883  28.278  1.00  0.00     0.016 A 
ATOM     39  C   UNL A   1      36.334  32.092  27.969  1.00  0.00     0.016 A 
ATOM     40  C   UNL A   1      36.644  29.374  28.639  1.00  0.00     0.010 A 
ATOM     41  C   UNL A   1      37.580  31.595  28.376  1.00  0.00     0.010 A 
ATOM     42  C   UNL A   1      37.728  30.249  28.769  1.00  0.00    -0.014 A 
BRANCH  42  43
ATOM     43  C   UNL A   1      38.881  29.876  29.634  1.00  0.00     0.031 A 
ATOM     44  C   UNL A   1      39.849  28.860  29.078  1.00  0.00     0.074 A 
ATOM     45  C   UNL A   1      39.077  30.382  30.864  1.00  0.00     0.049 A 
ATOM     46  N   UNL A   1      40.835  28.228  29.663  1.00  0.00    -0.248 NA
ATOM     47  C   UNL A   1      39.663  28.499  27.663  1.00  0.00     0.031 C 
ATOM     48  C   UNL A   1      38.267  31.418  31.496  1.00  0.00     0.029 A 
ATOM     49  N   UNL A   1      40.021  30.062  31.812  1.00  0.00    -0.354 N 
ATOM     50  C   UNL A   1      41.361  27.378  28.697  1.00  0.00     0.074 A 
ATOM     51  C   UNL A   1      40.578  27.559  27.496  1.00  0.00     0.031 C 
ATOM     52  C   UNL A   1      38.729  31.628  32.744  1.00  0.00     0.029 A 
ATOM     53  C   UNL A   1      39.838  30.710  33.010  1.00  0.00     0.049 A 
ATOM     54  H   UNL A   1      40.757  29.430  31.647  1.00  0.00     0.167 HD
ATOM     55  C   UNL A   1      42.405  26.522  28.797  1.00  0.00     0.037 A 
ATOM     56  C   UNL A   1      40.469  30.546  34.192  1.00  0.00     0.037 A 
ATOM     57  C   UNL A   1      43.181  26.338  29.994  1.00  0.00     0.049 A 
ATOM     58  C   UNL A   1      41.577  29.524  34.308  1.00  0.00     0.074 A 
ATOM     59  C   UNL A   1      44.259  25.498  30.202  1.00  0.00     0.029 A 
ATOM     60  N   UNL A   1      42.952  27.001  31.190  1.00  0.00    -0.354 N 
ATOM     61  N   UNL A   1      42.073  28.723  33.395  1.00  0.00    -0.248 NA
ATOM     62  C   UNL A   1      42.214  29.384  35.627  1.00  0.00     0.031 C 
ATOM     63  C   UNL A   1      44.645  25.608  31.543  1.00  0.00     0.029 A 
ATOM     64  C   UNL A   1      43.855  26.571  32.148  1.00  0.00     0.049 A 
ATOM     65  H   UNL A   1      42.251  27.678  31.336  1.00  0.00     0.167 HD
ATOM     66  C   UNL A   1      43.099  28.018  34.015  1.00  0.00     0.074 A 
ATOM     67  C   UNL A   1      43.163  28.493  35.380  1.00  0.00     0.031 C 
ATOM     68  C   UNL A   1      43.917  27.066  33.500  1.00  0.00     0.037 A 
BRANCH  55  69
ATOM     69  C   UNL A   1      42.735  25.686  27.593  1.00  0.00     0.064 A 
ATOM     70  C   UNL A   1      42.078  24.475  27.327  1.00  0.00     0.173 A 
ATOM     71  C   UNL A   1      43.714  26.114  26.684  1.00  0.00     0.173 A 
ATOM     72  F   UNL A   1      41.148  24.010  28.174  1.00  0.00    -0.203 F 
ATOM     73  C   UNL A   1      42.412  23.708  26.213  1.00  0.00     0.198 A 
ATOM     74  C   UNL A   1      44.020  25.363  25.552  1.00  0.00     0.198 A 
ATOM     75  F   UNL A   1      44.373  27.265  26.888  1.00  0.00    -0.203 F 
ATOM     76  F   UNL A   1      41.813  22.527  26.011  1.00  0.00    -0.200 F 
ATOM     77  C   UNL A   1      43.375  24.157  25.322  1.00  0.00     0.200 A 
ATOM     78  F   UNL A   1      44.941  25.806  24.684  1.00  0.00    -0.200 F 
ATOM     79  F   UNL A   1      43.690  23.423  24.246  1.00  0.00    -0.200 F 
ENDBRANCH  55  69
BRANCH  56  80
ATOM     80  C   UNL A   1      40.060  31.348  35.378  1.00  0.00     0.064 A 
ATOM     81  C   UNL A   1      40.868  32.388  35.863  1.00  0.00     0.173 A 
ATOM     82  C   UNL A   1      38.877  31.067  36.078  1.00  0.00     0.173 A 
ATOM     83  F   UNL A   1      42.027  32.674  35.255  1.00  0.00    -0.203 F 
ATOM     84  C   UNL A   1      40.519  33.100  37.010  1.00  0.00     0.198 A 
ATOM     85  C   UNL A   1      38.511  31.801  37.205  1.00  0.00     0.198 A 
ATOM     86  F   UNL A   1      38.073  30.075  35.668  1.00  0.00    -0.203 F 
ATOM     87  F   UNL A   1      41.340  34.046  37.485  1.00  0.00    -0.200 F 
ATOM     88  C   UNL A   1      39.337  32.810  37.676  1.00  0.00     0.200 A 
ATOM     89  F   UNL A   1      37.365  31.524  37.842  1.00  0.00    -0.200 F 
ATOM     90  F   UNL A   1      39.002  33.495  38.778  1.00  0.00    -0.200 F 
ENDBRANCH  56  80
BRANCH  68  91
ATOM     91  C   UNL A   1      44.998  26.517  34.393  1.00  0.00     0.064 A 
ATOM     92  C   UNL A   1      46.261  27.119  34.491  1.00  0.00     0.173 A 
ATOM     93  C   UNL A   1      44.746  25.391  35.194  1.00  0.00     0.173 A 
ATOM     94  F   UNL A   1      46.559  28.192  33.743  1.00  0.00    -0.203 F 
ATOM     95  C   UNL A   1      47.242  26.593  35.331  1.00  0.00     0.198 A 
ATOM     96  C   UNL A   1      45.715  24.891  36.058  1.00  0.00     0.198 A 
ATOM     97  F   UNL A   1      43.551  24.783  35.150  1.00  0.00    -0.203 F 
ATOM     98  F   UNL A   1      48.459  27.151  35.364  1.00  0.00    -0.200 F 
ATOM     99  C   UNL A   1      46.966  25.486  36.118  1.00  0.00     0.200 A 
ATOM    100  F   UNL A   1      45.439  23.833  36.834  1.00  0.00    -0.200 F 
ATOM    101  F   UNL A   1      47.908  24.986  36.930  1.00  0.00    -0.200 F 
ENDBRANCH  68  91
ENDBRANCH  42  43
ENDBRANCH  35  37
ENDBRANCH  34  35
ENDBRANCH  33  34
ENDBRANCH  32  33
ENDBRANCH  31  32
ENDBRANCH  30  31
ENDBRANCH  29  30
ENDBRANCH  28  29
ENDBRANCH   1  28
TORSDOF 25
ENDMDL
MODEL 2
REMARK VINA RESULT:      -8.4      5.002     11.825
REMARK SMILES CC(C)(C)N(CCC(=O)OCCOCCOCCOCCOC(=O)c1ccc(-c2c3nc(c(-c4c(F)c(F)c(F)c(F)c4F)c4ccc([nH]4)c(-c4c(F)c(F)c(F)c(F)c4F)c4nc(c(-c5c(F)c(F)c(F)c(F)c5F)c5ccc2[nH]5)C=C4)C=C3)cc1)C(=O)N1CC[N@@H+]2CCC[C@H]2C1
REMARK SMILES IDX 15 1 14 2 13 3 12 4 11 5 10 6 8 7 9 8 7 9 6 10 5 11 2 12
REMARK SMILES IDX 1 13 3 14 4 15 88 16 89 17 90 18 91 19 98 20 92 21 97 22
REMARK SMILES IDX 93 23 96 24 94 25 95 27 16 28 17 29 18 30 19 31 20 32 21 33
REMARK SMILES IDX 22 34 23 35 24 36 25 37 26 38 87 39 27 40 86 41 28 42 29 43
REMARK SMILES IDX 30 44 80 45 31 46 85 47 79 48 81 49 32 50 84 51 78 52 77 53
REMARK SMILES IDX 33 55 65 56 45 57 64 58 46 59 49 60 63 61 82 62 47 63 48 64
REMARK SMILES IDX 62 66 83 67 50 68 34 69 35 70 43 71 36 72 37 73 41 74 44 75
REMARK SMILES IDX 38 76 39 77 42 78 40 79 66 80 67 81 75 82 68 83 69 84 73 85
REMARK SMILES IDX 76 86 70 87 71 88 74 89 72 90 51 91 52 92 60 93 53 94 54 95
REMARK SMILES IDX 58 96 61 97 55 98 56 99 59 100 57 101
REMARK H PARENT 93 26 81 54 49 65
REMARK Flexibility Score: inf
ROOT
ATOM      1  C   UNL A   1      42.528  20.665  27.326  1.00  0.00     0.188 C 
ENDROOT
BRANCH   1   2
ATOM      2  C   UNL A   1      41.589  21.752  27.922  1.00  0.00     0.188 C 
BRANCH   2   3
ATOM      3  O   UNL A   1      40.246  22.209  27.267  1.00  0.00    -0.376 OA
BRANCH   3   4
ATOM      4  C   UNL A   1      39.104  23.532  26.467  1.00  0.00     0.202 C 
BRANCH   4   5
ATOM      5  C   UNL A   1      37.428  23.548  26.169  1.00  0.00     0.261 C 
BRANCH   5   6
ATOM      6  O   UNL A   1      36.885  23.686  24.834  1.00  0.00    -0.463 OA
BRANCH   6   7
ATOM      7  C   UNL A   1      36.276  22.656  24.223  1.00  0.00     0.307 C 
ATOM      8  O   UNL A   1      36.370  21.489  24.583  1.00  0.00    -0.252 OA
BRANCH   7   9
ATOM      9  C   UNL A   1      35.371  23.112  23.090  1.00  0.00     0.144 C 
BRANCH   9  10
ATOM     10  C   UNL A   1      33.850  22.953  23.214  1.00  0.00     0.133 C 
BRANCH  10  11
ATOM     11  N   UNL A   1      33.217  23.247  24.497  1.00  0.00    -0.319 N 
BRANCH  11  12
ATOM     12  C   UNL A   1      32.458  22.120  25.195  1.00  0.00     0.036 C 
ATOM     13  C   UNL A   1      33.214  21.559  26.434  1.00  0.00     0.034 C 
ATOM     14  C   UNL A   1      32.244  20.964  24.207  1.00  0.00     0.034 C 
ATOM     15  C   UNL A   1      31.084  22.556  25.779  1.00  0.00     0.034 C 
ENDBRANCH  11  12
BRANCH  11  16
ATOM     16  C   UNL A   1      33.138  24.544  25.013  1.00  0.00     0.320 C 
ATOM     17  O   UNL A   1      33.447  24.789  26.184  1.00  0.00    -0.248 OA
BRANCH  16  18
ATOM     18  N   UNL A   1      32.748  25.623  24.208  1.00  0.00    -0.313 N 
ATOM     19  C   UNL A   1      33.759  27.030  23.364  1.00  0.00     0.183 C 
ATOM     20  C   UNL A   1      30.862  25.655  24.029  1.00  0.00     0.186 C 
ATOM     21  C   UNL A   1      32.728  28.565  22.631  1.00  0.00     0.284 C 
ATOM     22  C   UNL A   1      30.076  27.339  23.519  1.00  0.00     0.204 C 
ATOM     23  N   UNL A   1      30.939  28.475  22.456  1.00  0.00    -0.330 N 
ATOM     24  C   UNL A   1      28.668  27.712  23.154  1.00  0.00     0.073 C 
ATOM     25  C   UNL A   1      30.260  29.705  22.864  1.00  0.00     0.262 C 
ATOM     26  H   UNL A   1      30.895  28.219  21.470  1.00  0.00     0.348 HD
ATOM     27  C   UNL A   1      28.781  29.278  23.104  1.00  0.00     0.068 C 
ENDBRANCH  16  18
ENDBRANCH  11  16
ENDBRANCH  10  11
ENDBRANCH   9  10
ENDBRANCH   7   9
ENDBRANCH   6   7
ENDBRANCH   5   6
ENDBRANCH   4   5
ENDBRANCH   3   4
ENDBRANCH   2   3
ENDBRANCH   1   2
BRANCH   1  28
ATOM     28  O   UNL A   1      42.160  20.133  26.055  1.00  0.00    -0.377 OA
BRANCH  28  29
ATOM     29  C   UNL A   1      43.144  19.298  25.483  1.00  0.00     0.188 C 
BRANCH  29  30
ATOM     30  C   UNL A   1      44.353  20.044  24.905  1.00  0.00     0.188 C 
BRANCH  30  31
ATOM     31  O   UNL A   1      44.098  21.127  24.041  1.00  0.00    -0.376 OA
BRANCH  31  32
ATOM     32  C   UNL A   1      45.141  22.078  23.879  1.00  0.00     0.202 C 
BRANCH  32  33
ATOM     33  C   UNL A   1      45.899  22.751  25.065  1.00  0.00     0.261 C 
BRANCH  33  34
ATOM     34  O   UNL A   1      45.171  23.475  26.081  1.00  0.00    -0.460 OA
BRANCH  34  35
ATOM     35  C   UNL A   1      45.733  24.608  26.578  1.00  0.00     0.338 C 
ATOM     36  O   UNL A   1      46.830  25.051  26.312  1.00  0.00    -0.246 OA
BRANCH  35  37
ATOM     37  C   UNL A   1      44.700  25.374  27.339  1.00  0.00     0.060 A 
ATOM     38  C   UNL A   1      44.772  26.780  27.390  1.00  0.00     0.016 A 
ATOM     39  C   UNL A   1      43.705  24.709  28.054  1.00  0.00     0.016 A 
ATOM     40  C   UNL A   1      43.896  27.516  28.195  1.00  0.00     0.010 A 
ATOM     41  C   UNL A   1      42.858  25.441  28.897  1.00  0.00     0.010 A 
ATOM     42  C   UNL A   1      42.989  26.840  29.017  1.00  0.00    -0.014 A 
BRANCH  42  43
ATOM     43  C   UNL A   1      42.447  27.511  30.230  1.00  0.00     0.031 A 
ATOM     44  C   UNL A   1      41.148  28.264  30.071  1.00  0.00     0.074 A 
ATOM     45  C   UNL A   1      43.062  27.487  31.425  1.00  0.00     0.049 A 
ATOM     46  N   UNL A   1      40.536  29.072  30.897  1.00  0.00    -0.248 NA
ATOM     47  C   UNL A   1      40.453  28.085  28.784  1.00  0.00     0.031 C 
ATOM     48  C   UNL A   1      44.278  26.745  31.741  1.00  0.00     0.029 A 
ATOM     49  N   UNL A   1      42.746  28.137  32.596  1.00  0.00    -0.354 N 
ATOM     50  C   UNL A   1      39.407  29.518  30.220  1.00  0.00     0.074 A 
ATOM     51  C   UNL A   1      39.425  28.907  28.911  1.00  0.00     0.031 C 
ATOM     52  C   UNL A   1      44.626  27.006  33.016  1.00  0.00     0.029 A 
ATOM     53  C   UNL A   1      43.681  27.968  33.588  1.00  0.00     0.049 A 
ATOM     54  H   UNL A   1      41.928  28.673  32.711  1.00  0.00     0.167 HD
ATOM     55  C   UNL A   1      38.438  30.361  30.647  1.00  0.00     0.037 A 
ATOM     56  C   UNL A   1      43.780  28.554  34.800  1.00  0.00     0.037 A 
ATOM     57  C   UNL A   1      38.422  30.973  31.949  1.00  0.00     0.049 A 
ATOM     58  C   UNL A   1      42.733  29.558  35.227  1.00  0.00     0.074 A 
ATOM     59  C   UNL A   1      37.487  31.840  32.483  1.00  0.00     0.029 A 
ATOM     60  N   UNL A   1      39.397  30.788  32.917  1.00  0.00    -0.354 N 
ATOM     61  N   UNL A   1      41.668  29.977  34.587  1.00  0.00    -0.248 NA
ATOM     62  C   UNL A   1      42.906  30.172  36.553  1.00  0.00     0.031 C 
ATOM     63  C   UNL A   1      37.927  32.227  33.753  1.00  0.00     0.029 A 
ATOM     64  C   UNL A   1      39.097  31.544  34.039  1.00  0.00     0.049 A 
ATOM     65  H   UNL A   1      40.185  30.204  32.822  1.00  0.00     0.167 HD
ATOM     66  C   UNL A   1      41.027  30.867  35.442  1.00  0.00     0.074 A 
ATOM     67  C   UNL A   1      41.817  30.921  36.653  1.00  0.00     0.031 C 
ATOM     68  C   UNL A   1      39.885  31.574  35.245  1.00  0.00     0.037 A 
BRANCH  55  69
ATOM     69  C   UNL A   1      37.341  30.705  29.680  1.00  0.00     0.064 A 
ATOM     70  C   UNL A   1      36.304  29.807  29.382  1.00  0.00     0.173 A 
ATOM     71  C   UNL A   1      37.322  31.959  29.051  1.00  0.00     0.173 A 
ATOM     72  F   UNL A   1      36.285  28.587  29.940  1.00  0.00    -0.203 F 
ATOM     73  C   UNL A   1      35.307  30.141  28.469  1.00  0.00     0.198 A 
ATOM     74  C   UNL A   1      36.303  32.303  28.166  1.00  0.00     0.198 A 
ATOM     75  F   UNL A   1      38.287  32.857  29.299  1.00  0.00    -0.203 F 
ATOM     76  F   UNL A   1      34.359  29.246  28.157  1.00  0.00    -0.200 F 
ATOM     77  C   UNL A   1      35.302  31.391  27.869  1.00  0.00     0.200 A 
ATOM     78  F   UNL A   1      36.292  33.518  27.599  1.00  0.00    -0.200 F 
ATOM     79  F   UNL A   1      34.338  31.714  26.997  1.00  0.00    -0.200 F 
ENDBRANCH  55  69
BRANCH  56  80
ATOM     80  C   UNL A   1      44.924  28.234  35.698  1.00  0.00     0.064 A 
ATOM     81  C   UNL A   1      44.840  27.195  36.636  1.00  0.00     0.173 A 
ATOM     82  C   UNL A   1      46.109  28.987  35.669  1.00  0.00     0.173 A 
ATOM     83  F   UNL A   1      43.717  26.469  36.732  1.00  0.00    -0.203 F 
ATOM     84  C   UNL A   1      45.886  26.933  37.520  1.00  0.00     0.198 A 
ATOM     85  C   UNL A   1      47.167  28.702  36.530  1.00  0.00     0.198 A 
ATOM     86  F   UNL A   1      46.239  30.001  34.803  1.00  0.00    -0.203 F 
ATOM     87  F   UNL A   1      45.753  25.973  38.446  1.00  0.00    -0.200 F 
ATOM     88  C   UNL A   1      47.051  27.683  37.462  1.00  0.00     0.200 A 
ATOM     89  F   UNL A   1      48.294  29.424  36.467  1.00  0.00    -0.200 F 
ATOM     90  F   UNL A   1      48.056  27.430  38.312  1.00  0.00    -0.200 F 
ENDBRANCH  56  80
BRANCH  68  91
ATOM     91  C   UNL A   1      39.382  32.418  36.384  1.00  0.00     0.064 A 
ATOM     92  C   UNL A   1      39.901  33.693  36.653  1.00  0.00     0.173 A 
ATOM     93  C   UNL A   1      38.331  31.955  37.193  1.00  0.00     0.173 A 
ATOM     94  F   UNL A   1      40.910  34.182  35.917  1.00  0.00    -0.203 F 
ATOM     95  C   UNL A   1      39.411  34.457  37.711  1.00  0.00     0.198 A 
ATOM     96  C   UNL A   1      37.820  32.736  38.226  1.00  0.00     0.198 A 
ATOM     97  F   UNL A   1      37.788  30.749  36.973  1.00  0.00    -0.203 F 
ATOM     98  F   UNL A   1      39.962  35.647  37.986  1.00  0.00    -0.200 F 
ATOM     99  C   UNL A   1      38.367  33.982  38.491  1.00  0.00     0.200 A 
ATOM    100  F   UNL A   1      36.797  32.284  38.964  1.00  0.00    -0.200 F 
ATOM    101  F   UNL A   1      37.893  34.721  39.503  1.00  0.00    -0.200 F 
ENDBRANCH  68  91
ENDBRANCH  42  43
ENDBRANCH  35  37
ENDBRANCH  34  35
ENDBRANCH  33  34
ENDBRANCH  32  33
ENDBRANCH  31  32
ENDBRANCH  30  31
ENDBRANCH  29  30
ENDBRANCH  28  29
ENDBRANCH   1  28
TORSDOF 25
ENDMDL
MODEL 3
REMARK VINA RESULT:      -8.4      1.667      3.268
REMARK SMILES CC(C)(C)N(CCC(=O)OCCOCCOCCOCCOC(=O)c1ccc(-c2c3nc(c(-c4c(F)c(F)c(F)c(F)c4F)c4ccc([nH]4)c(-c4c(F)c(F)c(F)c(F)c4F)c4nc(c(-c5c(F)c(F)c(F)c(F)c5F)c5ccc2[nH]5)C=C4)C=C3)cc1)C(=O)N1CC[N@@H+]2CCC[C@H]2C1
REMARK SMILES IDX 15 1 14 2 13 3 12 4 11 5 10 6 8 7 9 8 7 9 6 10 5 11 2 12
REMARK SMILES IDX 1 13 3 14 4 15 88 16 89 17 90 18 91 19 98 20 92 21 97 22
REMARK SMILES IDX 93 23 96 24 94 25 95 27 16 28 17 29 18 30 19 31 20 32 21 33
REMARK SMILES IDX 22 34 23 35 24 36 25 37 26 38 87 39 27 40 86 41 28 42 29 43
REMARK SMILES IDX 30 44 80 45 31 46 85 47 79 48 81 49 32 50 84 51 78 52 77 53
REMARK SMILES IDX 33 55 65 56 45 57 64 58 46 59 49 60 63 61 82 62 47 63 48 64
REMARK SMILES IDX 62 66 83 67 50 68 34 69 35 70 43 71 36 72 37 73 41 74 44 75
REMARK SMILES IDX 38 76 39 77 42 78 40 79 66 80 67 81 75 82 68 83 69 84 73 85
REMARK SMILES IDX 76 86 70 87 71 88 74 89 72 90 51 91 52 92 60 93 53 94 54 95
REMARK SMILES IDX 58 96 61 97 55 98 56 99 59 100 57 101
REMARK H PARENT 93 26 81 54 49 65
REMARK Flexibility Score: inf
ROOT
ATOM      1  C   UNL A   1      34.919  34.813  33.395  1.00  0.00     0.188 C 
ENDROOT
BRANCH   1   2
ATOM      2  C   UNL A   1      36.197  34.336  34.141  1.00  0.00     0.188 C 
BRANCH   2   3
ATOM      3  O   UNL A   1      37.611  34.978  33.962  1.00  0.00    -0.376 OA
BRANCH   3   4
ATOM      4  C   UNL A   1      39.530  34.891  33.941  1.00  0.00     0.202 C 
BRANCH   4   5
ATOM      5  C   UNL A   1      40.652  34.977  32.663  1.00  0.00     0.261 C 
BRANCH   5   6
ATOM      6  O   UNL A   1      41.146  33.793  31.991  1.00  0.00    -0.463 OA
BRANCH   6   7
ATOM      7  C   UNL A   1      41.079  33.675  30.655  1.00  0.00     0.307 C 
ATOM      8  O   UNL A   1      40.569  34.507  29.914  1.00  0.00    -0.252 OA
BRANCH   7   9
ATOM      9  C   UNL A   1      41.803  32.438  30.149  1.00  0.00     0.144 C 
BRANCH   9  10
ATOM     10  C   UNL A   1      42.755  31.673  31.078  1.00  0.00     0.133 C 
BRANCH  10  11
ATOM     11  N   UNL A   1      44.182  31.977  31.021  1.00  0.00    -0.319 N 
BRANCH  11  12
ATOM     12  C   UNL A   1      45.103  30.965  30.341  1.00  0.00     0.036 C 
ATOM     13  C   UNL A   1      45.708  29.934  31.337  1.00  0.00     0.034 C 
ATOM     14  C   UNL A   1      46.264  31.708  29.664  1.00  0.00     0.034 C 
ATOM     15  C   UNL A   1      44.385  30.071  29.289  1.00  0.00     0.034 C 
ENDBRANCH  11  12
BRANCH  11  16
ATOM     16  C   UNL A   1      44.745  33.058  31.705  1.00  0.00     0.320 C 
ATOM     17  O   UNL A   1      44.533  34.223  31.351  1.00  0.00    -0.248 OA
BRANCH  16  18
ATOM     18  N   UNL A   1      45.536  32.864  32.845  1.00  0.00    -0.313 N 
ATOM     19  C   UNL A   1      47.437  32.639  33.069  1.00  0.00     0.183 C 
ATOM     20  C   UNL A   1      44.442  32.750  34.387  1.00  0.00     0.186 C 
ATOM     21  C   UNL A   1      48.066  32.007  34.847  1.00  0.00     0.284 C 
ATOM     22  C   UNL A   1      45.212  31.884  35.927  1.00  0.00     0.204 C 
ATOM     23  N   UNL A   1      46.957  31.985  36.264  1.00  0.00    -0.330 N 
ATOM     24  C   UNL A   1      44.718  31.730  37.336  1.00  0.00     0.073 C 
ATOM     25  C   UNL A   1      47.086  30.775  37.076  1.00  0.00     0.262 C 
ATOM     26  H   UNL A   1      47.236  32.869  36.690  1.00  0.00     0.348 HD
ATOM     27  C   UNL A   1      45.772  30.717  37.910  1.00  0.00     0.068 C 
ENDBRANCH  16  18
ENDBRANCH  11  16
ENDBRANCH  10  11
ENDBRANCH   9  10
ENDBRANCH   7   9
ENDBRANCH   6   7
ENDBRANCH   5   6
ENDBRANCH   4   5
ENDBRANCH   3   4
ENDBRANCH   2   3
ENDBRANCH   1   2
BRANCH   1  28
ATOM     28  O   UNL A   1      34.798  36.216  33.171  1.00  0.00    -0.377 OA
BRANCH  28  29
ATOM     29  C   UNL A   1      33.478  36.635  32.892  1.00  0.00     0.188 C 
BRANCH  29  30
ATOM     30  C   UNL A   1      33.120  36.650  31.400  1.00  0.00     0.188 C 
BRANCH  30  31
ATOM     31  O   UNL A   1      32.806  35.419  30.794  1.00  0.00    -0.376 OA
BRANCH  31  32
ATOM     32  C   UNL A   1      33.532  35.079  29.621  1.00  0.00     0.202 C 
BRANCH  32  33
ATOM     33  C   UNL A   1      34.027  33.637  29.289  1.00  0.00     0.261 C 
BRANCH  33  34
ATOM     34  O   UNL A   1      33.916  33.116  27.946  1.00  0.00    -0.460 OA
BRANCH  34  35
ATOM     35  C   UNL A   1      33.918  31.767  27.787  1.00  0.00     0.338 C 
ATOM     36  O   UNL A   1      33.041  31.095  27.287  1.00  0.00    -0.246 OA
BRANCH  35  37
ATOM     37  C   UNL A   1      35.277  31.237  28.107  1.00  0.00     0.060 A 
ATOM     38  C   UNL A   1      35.422  29.903  28.534  1.00  0.00     0.016 A 
ATOM     39  C   UNL A   1      36.396  32.067  28.050  1.00  0.00     0.016 A 
ATOM     40  C   UNL A   1      36.662  29.415  28.962  1.00  0.00     0.010 A 
ATOM     41  C   UNL A   1      37.628  31.594  28.521  1.00  0.00     0.010 A 
ATOM     42  C   UNL A   1      37.753  30.287  29.034  1.00  0.00    -0.014 A 
BRANCH  42  43
ATOM     43  C   UNL A   1      38.887  29.980  29.949  1.00  0.00     0.031 A 
ATOM     44  C   UNL A   1      39.934  29.019  29.439  1.00  0.00     0.074 A 
ATOM     45  C   UNL A   1      39.001  30.497  31.185  1.00  0.00     0.049 A 
ATOM     46  N   UNL A   1      40.927  28.444  30.068  1.00  0.00    -0.248 NA
ATOM     47  C   UNL A   1      39.830  28.648  28.018  1.00  0.00     0.031 C 
ATOM     48  C   UNL A   1      38.107  31.486  31.779  1.00  0.00     0.029 A 
ATOM     49  N   UNL A   1      39.919  30.231  32.174  1.00  0.00    -0.354 N 
ATOM     50  C   UNL A   1      41.542  27.625  29.128  1.00  0.00     0.074 A 
ATOM     51  C   UNL A   1      40.803  27.761  27.894  1.00  0.00     0.031 C 
ATOM     52  C   UNL A   1      38.502  31.722  33.044  1.00  0.00     0.029 A 
ATOM     53  C   UNL A   1      39.648  30.868  33.361  1.00  0.00     0.049 A 
ATOM     54  H   UNL A   1      40.696  29.641  32.044  1.00  0.00     0.167 HD
ATOM     55  C   UNL A   1      42.626  26.829  29.276  1.00  0.00     0.037 A 
ATOM     56  C   UNL A   1      40.235  30.740  34.569  1.00  0.00     0.037 A 
ATOM     57  C   UNL A   1      43.359  26.689  30.506  1.00  0.00     0.049 A 
ATOM     58  C   UNL A   1      41.393  29.782  34.737  1.00  0.00     0.074 A 
ATOM     59  C   UNL A   1      44.472  25.911  30.763  1.00  0.00     0.029 A 
ATOM     60  N   UNL A   1      43.041  27.339  31.689  1.00  0.00    -0.354 N 
ATOM     61  N   UNL A   1      41.972  29.010  33.849  1.00  0.00    -0.248 NA
ATOM     62  C   UNL A   1      41.979  29.679  36.083  1.00  0.00     0.031 C 
ATOM     63  C   UNL A   1      44.792  26.043  32.119  1.00  0.00     0.029 A 
ATOM     64  C   UNL A   1      43.924  26.960  32.687  1.00  0.00     0.049 A 
ATOM     65  H   UNL A   1      42.298  27.975  31.803  1.00  0.00     0.167 HD
ATOM     66  C   UNL A   1      43.008  28.364  34.515  1.00  0.00     0.074 A 
ATOM     67  C   UNL A   1      42.986  28.842  35.880  1.00  0.00     0.031 C 
ATOM     68  C   UNL A   1      43.900  27.459  34.039  1.00  0.00     0.037 A 
BRANCH  55  69
ATOM     69  C   UNL A   1      43.055  26.012  28.090  1.00  0.00     0.064 A 
ATOM     70  C   UNL A   1      43.746  26.579  27.008  1.00  0.00     0.173 A 
ATOM     71  C   UNL A   1      42.780  24.637  28.043  1.00  0.00     0.173 A 
ATOM     72  F   UNL A   1      44.017  27.893  26.993  1.00  0.00    -0.203 F 
ATOM     73  C   UNL A   1      44.119  25.807  25.911  1.00  0.00     0.198 A 
ATOM     74  C   UNL A   1      43.186  23.860  26.960  1.00  0.00     0.198 A 
ATOM     75  F   UNL A   1      42.123  24.042  29.049  1.00  0.00    -0.203 F 
ATOM     76  F   UNL A   1      44.727  26.382  24.864  1.00  0.00    -0.200 F 
ATOM     77  C   UNL A   1      43.847  24.447  25.892  1.00  0.00     0.200 A 
ATOM     78  F   UNL A   1      42.935  22.543  26.951  1.00  0.00    -0.200 F 
ATOM     79  F   UNL A   1      44.213  23.703  24.840  1.00  0.00    -0.200 F 
ENDBRANCH  55  69
BRANCH  56  80
ATOM     80  C   UNL A   1      39.731  31.519  35.735  1.00  0.00     0.064 A 
ATOM     81  C   UNL A   1      40.440  32.622  36.231  1.00  0.00     0.173 A 
ATOM     82  C   UNL A   1      38.553  31.152  36.404  1.00  0.00     0.173 A 
ATOM     83  F   UNL A   1      41.591  32.993  35.652  1.00  0.00    -0.203 F 
ATOM     84  C   UNL A   1      40.004  33.315  37.359  1.00  0.00     0.198 A 
ATOM     85  C   UNL A   1      38.099  31.866  37.512  1.00  0.00     0.198 A 
ATOM     86  F   UNL A   1      37.841  30.097  35.983  1.00  0.00    -0.203 F 
ATOM     87  F   UNL A   1      40.734  34.328  37.846  1.00  0.00    -0.200 F 
ATOM     88  C   UNL A   1      38.829  32.940  37.995  1.00  0.00     0.200 A 
ATOM     89  F   UNL A   1      36.960  31.506  38.120  1.00  0.00    -0.200 F 
ATOM     90  F   UNL A   1      38.410  33.607  39.079  1.00  0.00    -0.200 F 
ENDBRANCH  56  80
BRANCH  68  91
ATOM     91  C   UNL A   1      44.969  26.972  34.979  1.00  0.00     0.064 A 
ATOM     92  C   UNL A   1      44.828  25.790  35.722  1.00  0.00     0.173 A 
ATOM     93  C   UNL A   1      46.175  27.682  35.104  1.00  0.00     0.173 A 
ATOM     94  F   UNL A   1      43.695  25.077  35.647  1.00  0.00    -0.203 F 
ATOM     95  C   UNL A   1      45.837  25.359  36.581  1.00  0.00     0.198 A 
ATOM     96  C   UNL A   1      47.195  27.228  35.935  1.00  0.00     0.198 A 
ATOM     97  F   UNL A   1      46.370  28.811  34.407  1.00  0.00    -0.203 F 
ATOM     98  F   UNL A   1      45.655  24.259  37.324  1.00  0.00    -0.200 F 
ATOM     99  C   UNL A   1      47.021  26.073  36.681  1.00  0.00     0.200 A 
ATOM    100  F   UNL A   1      48.347  27.909  36.013  1.00  0.00    -0.200 F 
ATOM    101  F   UNL A   1      47.993  25.652  37.502  1.00  0.00    -0.200 F 
ENDBRANCH  68  91
ENDBRANCH  42  43
ENDBRANCH  35  37
ENDBRANCH  34  35
ENDBRANCH  33  34
ENDBRANCH  32  33
ENDBRANCH  31  32
ENDBRANCH  30  31
ENDBRANCH  29  30
ENDBRANCH  28  29
ENDBRANCH   1  28
TORSDOF 25
ENDMDL
