MODEL 1
REMARK VINA RESULT:      -8.6      0.000      0.000
REMARK SMILES COc1ccc(Br)cc1S(=O)(=O)N(C)CC(=O)OCCOCCOCCOCCOC(=O)c1ccc(-c2c3nc(c(-c4c(F)c(F)c(F)c(F)c4F)c4ccc([nH]4)c(-c4c(F)c(F)c(F)c(F)c4F)c4nc(c(-c5c(F)c(F)c(F)c(F)c5F)c5ccc2[nH]5)C=C4)C=C3)cc1
REMARK SMILES IDX 23 1 22 2 21 3 20 4 19 5 18 6 16 7 17 8 15 9 13 10 14 11
REMARK SMILES IDX 10 12 11 13 12 14 9 15 3 16 4 17 5 18 8 19 6 20 7 21 2 22
REMARK SMILES IDX 1 23 24 24 25 25 26 26 27 27 28 28 29 29 30 30 31 31 32 32
REMARK SMILES IDX 33 33 34 34 95 35 35 36 94 37 36 38 37 39 38 40 88 41 39 42
REMARK SMILES IDX 93 43 87 44 89 45 40 46 92 47 86 48 85 49 41 51 73 52 53 53
REMARK SMILES IDX 72 54 54 55 57 56 71 57 90 58 55 59 56 60 70 62 91 63 58 64
REMARK SMILES IDX 42 65 43 66 51 67 44 68 45 69 49 70 52 71 46 72 47 73 50 74
REMARK SMILES IDX 48 75 74 76 75 77 83 78 76 79 77 80 81 81 84 82 78 83 79 84
REMARK SMILES IDX 82 85 80 86 59 87 60 88 68 89 61 90 62 91 66 92 69 93 63 94
REMARK SMILES IDX 64 95 67 96 65 97
REMARK H PARENT 89 50 57 61
REMARK Flexibility Score: inf
ROOT
ATOM      1  C   UNL A   1      35.299  31.431  29.398  1.00  0.00     0.188 C 
ENDROOT
BRANCH   1   2
ATOM      2  C   UNL A   1      35.300  30.787  28.013  1.00  0.00     0.188 C 
BRANCH   2   3
ATOM      3  O   UNL A   1      34.064  30.332  27.482  1.00  0.00    -0.376 OA
BRANCH   3   4
ATOM      4  C   UNL A   1      33.752  28.940  27.557  1.00  0.00     0.202 C 
BRANCH   4   5
ATOM      5  C   UNL A   1      33.154  28.253  26.313  1.00  0.00     0.261 C 
BRANCH   5   6
ATOM      6  O   UNL A   1      32.079  28.982  25.657  1.00  0.00    -0.462 OA
BRANCH   6   7
ATOM      7  C   UNL A   1      31.767  28.619  24.387  1.00  0.00     0.321 C 
ATOM      8  O   UNL A   1      31.447  29.436  23.524  1.00  0.00    -0.251 OA
BRANCH   7   9
ATOM      9  C   UNL A   1      31.810  27.135  24.061  1.00  0.00     0.224 C 
BRANCH   9  10
ATOM     10  N   UNL A   1      30.694  26.142  23.956  1.00  0.00    -0.190 NA
ATOM     11  C   UNL A   1      29.359  26.678  24.227  1.00  0.00     0.125 C 
BRANCH  10  12
ATOM     12  S   UNL A   1      31.066  24.543  24.379  1.00  0.00     0.247 S 
ATOM     13  O   UNL A   1      30.282  23.694  23.510  1.00  0.00    -0.207 OA
ATOM     14  O   UNL A   1      30.944  24.410  25.815  1.00  0.00    -0.207 OA
BRANCH  12  15
ATOM     15  C   UNL A   1      32.730  24.070  23.981  1.00  0.00     0.125 A 
ATOM     16  C   UNL A   1      33.250  23.909  22.700  1.00  0.00     0.138 A 
ATOM     17  C   UNL A   1      34.527  23.335  22.573  1.00  0.00     0.049 A 
ATOM     18  C   UNL A   1      35.265  22.932  23.696  1.00  0.00     0.019 A 
ATOM     19  C   UNL A   1      33.500  23.718  25.113  1.00  0.00     0.041 A 
ATOM     20  C   UNL A   1      34.751  23.140  24.966  1.00  0.00     0.019 A 
ATOM     21  Br  UNL A   1      35.724  22.601  26.492  1.00  0.00    -0.051 Br
BRANCH  16  22
ATOM     22  O   UNL A   1      32.522  24.352  21.636  1.00  0.00    -0.495 OA
ATOM     23  C   UNL A   1      32.899  25.614  21.092  1.00  0.00     0.278 C 
ENDBRANCH  16  22
ENDBRANCH  12  15
ENDBRANCH  10  12
ENDBRANCH   9  10
ENDBRANCH   7   9
ENDBRANCH   6   7
ENDBRANCH   5   6
ENDBRANCH   4   5
ENDBRANCH   3   4
ENDBRANCH   2   3
ENDBRANCH   1   2
BRANCH   1  24
ATOM     24  O   UNL A   1      34.292  32.417  29.554  1.00  0.00    -0.377 OA
BRANCH  24  25
ATOM     25  C   UNL A   1      34.693  33.773  29.619  1.00  0.00     0.188 C 
BRANCH  25  26
ATOM     26  C   UNL A   1      33.678  34.700  30.288  1.00  0.00     0.188 C 
BRANCH  26  27
ATOM     27  O   UNL A   1      34.185  35.246  31.503  1.00  0.00    -0.376 OA
BRANCH  27  28
ATOM     28  C   UNL A   1      33.737  34.650  32.718  1.00  0.00     0.202 C 
BRANCH  28  29
ATOM     29  C   UNL A   1      34.807  34.041  33.640  1.00  0.00     0.261 C 
BRANCH  29  30
ATOM     30  O   UNL A   1      35.861  33.300  32.994  1.00  0.00    -0.460 OA
BRANCH  30  31
ATOM     31  C   UNL A   1      37.125  33.744  33.152  1.00  0.00     0.338 C 
ATOM     32  O   UNL A   1      37.528  34.577  33.930  1.00  0.00    -0.246 OA
BRANCH  31  33
ATOM     33  C   UNL A   1      38.001  32.906  32.305  1.00  0.00     0.060 A 
ATOM     34  C   UNL A   1      38.934  32.073  32.931  1.00  0.00     0.016 A 
ATOM     35  C   UNL A   1      37.934  32.978  30.912  1.00  0.00     0.016 A 
ATOM     36  C   UNL A   1      39.839  31.342  32.162  1.00  0.00     0.010 A 
ATOM     37  C   UNL A   1      38.851  32.255  30.142  1.00  0.00     0.010 A 
ATOM     38  C   UNL A   1      39.830  31.463  30.765  1.00  0.00    -0.014 A 
BRANCH  38  39
ATOM     39  C   UNL A   1      40.960  30.903  29.984  1.00  0.00     0.031 A 
ATOM     40  C   UNL A   1      42.154  31.778  29.717  1.00  0.00     0.074 A 
ATOM     41  C   UNL A   1      40.950  29.628  29.560  1.00  0.00     0.049 A 
ATOM     42  N   UNL A   1      43.266  31.502  29.085  1.00  0.00    -0.248 NA
ATOM     43  C   UNL A   1      42.083  33.154  30.235  1.00  0.00     0.031 C 
ATOM     44  C   UNL A   1      39.868  28.674  29.786  1.00  0.00     0.029 A 
ATOM     45  N   UNL A   1      41.886  28.918  28.851  1.00  0.00    -0.354 N 
ATOM     46  C   UNL A   1      44.027  32.661  29.136  1.00  0.00     0.074 A 
ATOM     47  C   UNL A   1      43.237  33.658  29.825  1.00  0.00     0.031 C 
ATOM     48  C   UNL A   1      40.200  27.499  29.221  1.00  0.00     0.029 A 
ATOM     49  C   UNL A   1      41.507  27.628  28.577  1.00  0.00     0.049 A 
ATOM     50  H   UNL A   1      42.749  29.298  28.566  1.00  0.00     0.167 HD
ATOM     51  C   UNL A   1      45.278  32.874  28.662  1.00  0.00     0.037 A 
ATOM     52  C   UNL A   1      42.140  26.666  27.876  1.00  0.00     0.037 A 
ATOM     53  C   UNL A   1      46.061  31.885  27.970  1.00  0.00     0.049 A 
ATOM     54  C   UNL A   1      43.504  26.948  27.297  1.00  0.00     0.074 A 
ATOM     55  C   UNL A   1      47.345  31.997  27.466  1.00  0.00     0.029 A 
ATOM     56  N   UNL A   1      45.625  30.602  27.675  1.00  0.00    -0.354 N 
ATOM     57  N   UNL A   1      44.231  28.036  27.381  1.00  0.00    -0.248 NA
ATOM     58  C   UNL A   1      44.136  25.864  26.531  1.00  0.00     0.031 C 
ATOM     59  C   UNL A   1      47.666  30.800  26.818  1.00  0.00     0.029 A 
ATOM     60  C   UNL A   1      46.604  29.921  26.967  1.00  0.00     0.049 A 
ATOM     61  H   UNL A   1      44.751  30.229  27.930  1.00  0.00     0.167 HD
ATOM     62  C   UNL A   1      45.413  27.761  26.705  1.00  0.00     0.074 A 
ATOM     63  C   UNL A   1      45.311  26.398  26.227  1.00  0.00     0.031 C 
ATOM     64  C   UNL A   1      46.487  28.564  26.499  1.00  0.00     0.037 A 
BRANCH  51  65
ATOM     65  C   UNL A   1      45.864  34.243  28.854  1.00  0.00     0.064 A 
ATOM     66  C   UNL A   1      46.625  34.568  29.988  1.00  0.00     0.173 A 
ATOM     67  C   UNL A   1      45.675  35.237  27.883  1.00  0.00     0.173 A 
ATOM     68  F   UNL A   1      46.821  33.658  30.953  1.00  0.00    -0.203 F 
ATOM     69  C   UNL A   1      47.150  35.846  30.154  1.00  0.00     0.198 A 
ATOM     70  C   UNL A   1      46.226  36.506  28.039  1.00  0.00     0.198 A 
ATOM     71  F   UNL A   1      44.957  34.978  26.780  1.00  0.00    -0.203 F 
ATOM     72  F   UNL A   1      47.831  36.150  31.269  1.00  0.00    -0.200 F 
ATOM     73  C   UNL A   1      46.956  36.813  29.177  1.00  0.00     0.200 A 
ATOM     74  F   UNL A   1      46.046  37.435  27.090  1.00  0.00    -0.200 F 
ATOM     75  F   UNL A   1      47.465  38.042  29.338  1.00  0.00    -0.200 F 
ENDBRANCH  51  65
BRANCH  52  76
ATOM     76  C   UNL A   1      41.489  25.345  27.678  1.00  0.00     0.064 A 
ATOM     77  C   UNL A   1      40.434  25.184  26.770  1.00  0.00     0.173 A 
ATOM     78  C   UNL A   1      41.903  24.217  28.403  1.00  0.00     0.173 A 
ATOM     79  F   UNL A   1      39.984  26.236  26.072  1.00  0.00    -0.203 F 
ATOM     80  C   UNL A   1      39.808  23.949  26.606  1.00  0.00     0.198 A 
ATOM     81  C   UNL A   1      41.295  22.978  28.218  1.00  0.00     0.198 A 
ATOM     82  F   UNL A   1      42.907  24.319  29.288  1.00  0.00    -0.203 F 
ATOM     83  F   UNL A   1      38.774  23.831  25.762  1.00  0.00    -0.200 F 
ATOM     84  C   UNL A   1      40.244  22.845  27.325  1.00  0.00     0.200 A 
ATOM     85  F   UNL A   1      41.728  21.913  28.907  1.00  0.00    -0.200 F 
ATOM     86  F   UNL A   1      39.646  21.657  27.161  1.00  0.00    -0.200 F 
ENDBRANCH  52  76
BRANCH  64  87
ATOM     87  C   UNL A   1      47.650  27.983  25.747  1.00  0.00     0.064 A 
ATOM     88  C   UNL A   1      48.792  27.508  26.409  1.00  0.00     0.173 A 
ATOM     89  C   UNL A   1      47.602  27.859  24.349  1.00  0.00     0.173 A 
ATOM     90  F   UNL A   1      48.892  27.615  27.742  1.00  0.00    -0.203 F 
ATOM     91  C   UNL A   1      49.854  26.956  25.697  1.00  0.00     0.198 A 
ATOM     92  C   UNL A   1      48.653  27.279  23.644  1.00  0.00     0.198 A 
ATOM     93  F   UNL A   1      46.530  28.289  23.668  1.00  0.00    -0.203 F 
ATOM     94  F   UNL A   1      50.955  26.553  26.347  1.00  0.00    -0.200 F 
ATOM     95  C   UNL A   1      49.781  26.835  24.317  1.00  0.00     0.200 A 
ATOM     96  F   UNL A   1      48.574  27.150  22.313  1.00  0.00    -0.200 F 
ATOM     97  F   UNL A   1      50.802  26.297  23.635  1.00  0.00    -0.200 F 
ENDBRANCH  64  87
ENDBRANCH  38  39
ENDBRANCH  31  33
ENDBRANCH  30  31
ENDBRANCH  29  30
ENDBRANCH  28  29
ENDBRANCH  27  28
ENDBRANCH  26  27
ENDBRANCH  25  26
ENDBRANCH  24  25
ENDBRANCH   1  24
TORSDOF 24
ENDMDL
MODEL 2
REMARK VINA RESULT:      -8.5      7.047     12.578
REMARK SMILES COc1ccc(Br)cc1S(=O)(=O)N(C)CC(=O)OCCOCCOCCOCCOC(=O)c1ccc(-c2c3nc(c(-c4c(F)c(F)c(F)c(F)c4F)c4ccc([nH]4)c(-c4c(F)c(F)c(F)c(F)c4F)c4nc(c(-c5c(F)c(F)c(F)c(F)c5F)c5ccc2[nH]5)C=C4)C=C3)cc1
REMARK SMILES IDX 23 1 22 2 21 3 20 4 19 5 18 6 16 7 17 8 15 9 13 10 14 11
REMARK SMILES IDX 10 12 11 13 12 14 9 15 3 16 4 17 5 18 8 19 6 20 7 21 2 22
REMARK SMILES IDX 1 23 24 24 25 25 26 26 27 27 28 28 29 29 30 30 31 31 32 32
REMARK SMILES IDX 33 33 34 34 95 35 35 36 94 37 36 38 37 39 38 40 88 41 39 42
REMARK SMILES IDX 93 43 87 44 89 45 40 46 92 47 86 48 85 49 41 51 73 52 53 53
REMARK SMILES IDX 72 54 54 55 57 56 71 57 90 58 55 59 56 60 70 62 91 63 58 64
REMARK SMILES IDX 42 65 43 66 51 67 44 68 45 69 49 70 52 71 46 72 47 73 50 74
REMARK SMILES IDX 48 75 74 76 75 77 83 78 76 79 77 80 81 81 84 82 78 83 79 84
REMARK SMILES IDX 82 85 80 86 59 87 60 88 68 89 61 90 62 91 66 92 69 93 63 94
REMARK SMILES IDX 64 95 67 96 65 97
REMARK H PARENT 89 50 57 61
REMARK Flexibility Score: inf
ROOT
ATOM      1  C   UNL A   1      44.890  22.844  34.861  1.00  0.00     0.188 C 
ENDROOT
BRANCH   1   2
ATOM      2  C   UNL A   1      43.904  22.993  33.704  1.00  0.00     0.188 C 
BRANCH   2   3
ATOM      3  O   UNL A   1      44.425  23.110  32.388  1.00  0.00    -0.376 OA
BRANCH   3   4
ATOM      4  C   UNL A   1      44.431  24.393  31.759  1.00  0.00     0.202 C 
BRANCH   4   5
ATOM      5  C   UNL A   1      45.388  24.625  30.572  1.00  0.00     0.261 C 
BRANCH   5   6
ATOM      6  O   UNL A   1      45.102  23.839  29.382  1.00  0.00    -0.462 OA
BRANCH   6   7
ATOM      7  C   UNL A   1      45.022  24.507  28.202  1.00  0.00     0.321 C 
ATOM      8  O   UNL A   1      44.997  25.736  28.137  1.00  0.00    -0.251 OA
BRANCH   7   9
ATOM      9  C   UNL A   1      44.942  23.668  26.936  1.00  0.00     0.224 C 
BRANCH   9  10
ATOM     10  N   UNL A   1      46.024  23.260  25.986  1.00  0.00    -0.190 NA
ATOM     11  C   UNL A   1      47.040  24.281  25.726  1.00  0.00     0.125 C 
BRANCH  10  12
ATOM     12  S   UNL A   1      45.580  22.177  24.759  1.00  0.00     0.247 S 
ATOM     13  O   UNL A   1      46.799  21.545  24.306  1.00  0.00    -0.207 OA
ATOM     14  O   UNL A   1      44.738  22.878  23.813  1.00  0.00    -0.207 OA
BRANCH  12  15
ATOM     15  C   UNL A   1      44.623  20.798  25.339  1.00  0.00     0.125 A 
ATOM     16  C   UNL A   1      45.023  19.465  25.331  1.00  0.00     0.138 A 
ATOM     17  C   UNL A   1      44.062  18.486  25.639  1.00  0.00     0.049 A 
ATOM     18  C   UNL A   1      42.738  18.829  25.946  1.00  0.00     0.019 A 
ATOM     19  C   UNL A   1      43.304  21.145  25.707  1.00  0.00     0.041 A 
ATOM     20  C   UNL A   1      42.368  20.164  25.992  1.00  0.00     0.019 A 
ATOM     21  Br  UNL A   1      40.588  20.650  26.398  1.00  0.00    -0.051 Br
BRANCH  16  22
ATOM     22  O   UNL A   1      46.329  19.173  25.071  1.00  0.00    -0.495 OA
ATOM     23  C   UNL A   1      46.875  18.048  25.755  1.00  0.00     0.278 C 
ENDBRANCH  16  22
ENDBRANCH  12  15
ENDBRANCH  10  12
ENDBRANCH   9  10
ENDBRANCH   7   9
ENDBRANCH   6   7
ENDBRANCH   5   6
ENDBRANCH   4   5
ENDBRANCH   3   4
ENDBRANCH   2   3
ENDBRANCH   1   2
BRANCH   1  24
ATOM     24  O   UNL A   1      45.838  21.810  34.655  1.00  0.00    -0.377 OA
BRANCH  24  25
ATOM     25  C   UNL A   1      46.624  21.400  35.759  1.00  0.00     0.188 C 
BRANCH  25  26
ATOM     26  C   UNL A   1      48.131  21.406  35.499  1.00  0.00     0.188 C 
BRANCH  26  27
ATOM     27  O   UNL A   1      48.680  22.716  35.619  1.00  0.00    -0.376 OA
BRANCH  27  28
ATOM     28  C   UNL A   1      48.314  23.469  36.772  1.00  0.00     0.202 C 
BRANCH  28  29
ATOM     29  C   UNL A   1      48.759  24.940  36.822  1.00  0.00     0.261 C 
BRANCH  29  30
ATOM     30  O   UNL A   1      47.981  25.870  36.044  1.00  0.00    -0.460 OA
BRANCH  30  31
ATOM     31  C   UNL A   1      47.131  26.683  36.707  1.00  0.00     0.338 C 
ATOM     32  O   UNL A   1      47.242  27.116  37.830  1.00  0.00    -0.246 OA
BRANCH  31  33
ATOM     33  C   UNL A   1      46.085  27.108  35.753  1.00  0.00     0.060 A 
ATOM     34  C   UNL A   1      46.299  28.270  35.003  1.00  0.00     0.016 A 
ATOM     35  C   UNL A   1      44.889  26.396  35.636  1.00  0.00     0.016 A 
ATOM     36  C   UNL A   1      45.293  28.751  34.165  1.00  0.00     0.010 A 
ATOM     37  C   UNL A   1      43.876  26.887  34.806  1.00  0.00     0.010 A 
ATOM     38  C   UNL A   1      44.061  28.086  34.095  1.00  0.00    -0.014 A 
BRANCH  38  39
ATOM     39  C   UNL A   1      42.918  28.751  33.423  1.00  0.00     0.031 A 
ATOM     40  C   UNL A   1      42.618  28.396  31.993  1.00  0.00     0.074 A 
ATOM     41  C   UNL A   1      42.131  29.618  34.083  1.00  0.00     0.049 A 
ATOM     42  N   UNL A   1      41.660  28.823  31.211  1.00  0.00    -0.248 NA
ATOM     43  C   UNL A   1      43.523  27.424  31.359  1.00  0.00     0.031 C 
ATOM     44  C   UNL A   1      42.299  30.016  35.477  1.00  0.00     0.029 A 
ATOM     45  N   UNL A   1      41.029  30.318  33.661  1.00  0.00    -0.354 N 
ATOM     46  C   UNL A   1      41.841  28.169  30.000  1.00  0.00     0.074 A 
ATOM     47  C   UNL A   1      43.023  27.346  30.134  1.00  0.00     0.031 C 
ATOM     48  C   UNL A   1      41.334  30.896  35.797  1.00  0.00     0.029 A 
ATOM     49  C   UNL A   1      40.495  31.138  34.623  1.00  0.00     0.049 A 
ATOM     50  H   UNL A   1      40.655  30.240  32.752  1.00  0.00     0.167 HD
ATOM     51  C   UNL A   1      41.085  28.238  28.879  1.00  0.00     0.037 A 
ATOM     52  C   UNL A   1      39.456  31.993  34.558  1.00  0.00     0.037 A 
ATOM     53  C   UNL A   1      39.913  29.063  28.742  1.00  0.00     0.049 A 
ATOM     54  C   UNL A   1      38.669  32.106  33.276  1.00  0.00     0.074 A 
ATOM     55  C   UNL A   1      39.068  29.191  27.654  1.00  0.00     0.029 A 
ATOM     56  N   UNL A   1      39.429  29.911  29.726  1.00  0.00    -0.354 N 
ATOM     57  N   UNL A   1      38.827  31.457  32.147  1.00  0.00    -0.248 NA
ATOM     58  C   UNL A   1      37.556  33.066  33.263  1.00  0.00     0.031 C 
ATOM     59  C   UNL A   1      38.104  30.157  27.959  1.00  0.00     0.029 A 
ATOM     60  C   UNL A   1      38.314  30.590  29.259  1.00  0.00     0.049 A 
ATOM     61  H   UNL A   1      39.819  30.017  30.624  1.00  0.00     0.167 HD
ATOM     62  C   UNL A   1      37.820  31.908  31.302  1.00  0.00     0.074 A 
ATOM     63  C   UNL A   1      37.050  32.878  32.052  1.00  0.00     0.031 C 
ATOM     64  C   UNL A   1      37.558  31.552  30.019  1.00  0.00     0.037 A 
BRANCH  51  65
ATOM     65  C   UNL A   1      41.522  27.418  27.700  1.00  0.00     0.064 A 
ATOM     66  C   UNL A   1      42.342  27.950  26.693  1.00  0.00     0.173 A 
ATOM     67  C   UNL A   1      41.128  26.077  27.585  1.00  0.00     0.173 A 
ATOM     68  F   UNL A   1      42.732  29.232  26.748  1.00  0.00    -0.203 F 
ATOM     69  C   UNL A   1      42.727  27.178  25.601  1.00  0.00     0.198 A 
ATOM     70  C   UNL A   1      41.539  25.299  26.506  1.00  0.00     0.198 A 
ATOM     71  F   UNL A   1      40.346  25.518  28.521  1.00  0.00    -0.203 F 
ATOM     72  F   UNL A   1      43.468  27.722  24.626  1.00  0.00    -0.200 F 
ATOM     73  C   UNL A   1      42.331  25.851  25.511  1.00  0.00     0.200 A 
ATOM     74  F   UNL A   1      41.164  24.014  26.426  1.00  0.00    -0.200 F 
ATOM     75  F   UNL A   1      42.705  25.108  24.461  1.00  0.00    -0.200 F 
ENDBRANCH  51  65
BRANCH  52  76
ATOM     76  C   UNL A   1      39.099  32.817  35.743  1.00  0.00     0.064 A 
ATOM     77  C   UNL A   1      39.591  34.120  35.897  1.00  0.00     0.173 A 
ATOM     78  C   UNL A   1      38.267  32.311  36.753  1.00  0.00     0.173 A 
ATOM     79  F   UNL A   1      40.412  34.640  34.972  1.00  0.00    -0.203 F 
ATOM     80  C   UNL A   1      39.277  34.880  37.022  1.00  0.00     0.198 A 
ATOM     81  C   UNL A   1      37.930  33.081  37.863  1.00  0.00     0.198 A 
ATOM     82  F   UNL A   1      37.772  31.067  36.655  1.00  0.00    -0.203 F 
ATOM     83  F   UNL A   1      39.794  36.107  37.165  1.00  0.00    -0.200 F 
ATOM     84  C   UNL A   1      38.440  34.362  38.001  1.00  0.00     0.200 A 
ATOM     85  F   UNL A   1      37.113  32.581  38.800  1.00  0.00    -0.200 F 
ATOM     86  F   UNL A   1      38.133  35.096  39.079  1.00  0.00    -0.200 F 
ENDBRANCH  52  76
BRANCH  64  87
ATOM     87  C   UNL A   1      36.373  32.192  29.354  1.00  0.00     0.064 A 
ATOM     88  C   UNL A   1      35.238  31.449  28.997  1.00  0.00     0.173 A 
ATOM     89  C   UNL A   1      36.356  33.574  29.109  1.00  0.00     0.173 A 
ATOM     90  F   UNL A   1      35.210  30.122  29.197  1.00  0.00    -0.203 F 
ATOM     91  C   UNL A   1      34.142  32.061  28.396  1.00  0.00     0.198 A 
ATOM     92  C   UNL A   1      35.246  34.188  28.535  1.00  0.00     0.198 A 
ATOM     93  F   UNL A   1      37.413  34.333  29.438  1.00  0.00    -0.203 F 
ATOM     94  F   UNL A   1      33.087  31.323  28.020  1.00  0.00    -0.200 F 
ATOM     95  C   UNL A   1      34.142  33.430  28.173  1.00  0.00     0.200 A 
ATOM     96  F   UNL A   1      35.244  35.512  28.334  1.00  0.00    -0.200 F 
ATOM     97  F   UNL A   1      33.083  34.019  27.600  1.00  0.00    -0.200 F 
ENDBRANCH  64  87
ENDBRANCH  38  39
ENDBRANCH  31  33
ENDBRANCH  30  31
ENDBRANCH  29  30
ENDBRANCH  28  29
ENDBRANCH  27  28
ENDBRANCH  26  27
ENDBRANCH  25  26
ENDBRANCH  24  25
ENDBRANCH   1  24
TORSDOF 24
ENDMDL
MODEL 3
REMARK VINA RESULT:      -8.5      6.961     12.960
REMARK SMILES COc1ccc(Br)cc1S(=O)(=O)N(C)CC(=O)OCCOCCOCCOCCOC(=O)c1ccc(-c2c3nc(c(-c4c(F)c(F)c(F)c(F)c4F)c4ccc([nH]4)c(-c4c(F)c(F)c(F)c(F)c4F)c4nc(c(-c5c(F)c(F)c(F)c(F)c5F)c5ccc2[nH]5)C=C4)C=C3)cc1
REMARK SMILES IDX 23 1 22 2 21 3 20 4 19 5 18 6 16 7 17 8 15 9 13 10 14 11
REMARK SMILES IDX 10 12 11 13 12 14 9 15 3 16 4 17 5 18 8 19 6 20 7 21 2 22
REMARK SMILES IDX 1 23 24 24 25 25 26 26 27 27 28 28 29 29 30 30 31 31 32 32
REMARK SMILES IDX 33 33 34 34 95 35 35 36 94 37 36 38 37 39 38 40 88 41 39 42
REMARK SMILES IDX 93 43 87 44 89 45 40 46 92 47 86 48 85 49 41 51 73 52 53 53
REMARK SMILES IDX 72 54 54 55 57 56 71 57 90 58 55 59 56 60 70 62 91 63 58 64
REMARK SMILES IDX 42 65 43 66 51 67 44 68 45 69 49 70 52 71 46 72 47 73 50 74
REMARK SMILES IDX 48 75 74 76 75 77 83 78 76 79 77 80 81 81 84 82 78 83 79 84
REMARK SMILES IDX 82 85 80 86 59 87 60 88 68 89 61 90 62 91 66 92 69 93 63 94
REMARK SMILES IDX 64 95 67 96 65 97
REMARK H PARENT 89 50 57 61
REMARK Flexibility Score: inf
ROOT
ATOM      1  C   UNL A   1      44.910  22.899  34.990  1.00  0.00     0.188 C 
ENDROOT
BRANCH   1   2
ATOM      2  C   UNL A   1      43.926  23.187  33.858  1.00  0.00     0.188 C 
BRANCH   2   3
ATOM      3  O   UNL A   1      44.449  23.537  32.585  1.00  0.00    -0.376 OA
BRANCH   3   4
ATOM      4  C   UNL A   1      44.647  24.918  32.277  1.00  0.00     0.202 C 
BRANCH   4   5
ATOM      5  C   UNL A   1      45.590  25.283  31.113  1.00  0.00     0.261 C 
BRANCH   5   6
ATOM      6  O   UNL A   1      45.044  25.072  29.781  1.00  0.00    -0.462 OA
BRANCH   6   7
ATOM      7  C   UNL A   1      45.331  26.004  28.838  1.00  0.00     0.321 C 
ATOM      8  O   UNL A   1      45.880  27.072  29.107  1.00  0.00    -0.251 OA
BRANCH   7   9
ATOM      9  C   UNL A   1      44.926  25.688  27.406  1.00  0.00     0.224 C 
BRANCH   9  10
ATOM     10  N   UNL A   1      45.590  24.810  26.392  1.00  0.00    -0.190 NA
ATOM     11  C   UNL A   1      46.979  25.157  26.085  1.00  0.00     0.125 C 
BRANCH  10  12
ATOM     12  S   UNL A   1      44.592  24.167  25.183  1.00  0.00     0.247 S 
ATOM     13  O   UNL A   1      45.455  23.822  24.075  1.00  0.00    -0.207 OA
ATOM     14  O   UNL A   1      43.483  25.074  24.975  1.00  0.00    -0.207 OA
BRANCH  12  15
ATOM     15  C   UNL A   1      43.871  22.602  25.612  1.00  0.00     0.125 A 
ATOM     16  C   UNL A   1      44.513  21.368  25.569  1.00  0.00     0.138 A 
ATOM     17  C   UNL A   1      43.733  20.211  25.747  1.00  0.00     0.049 A 
ATOM     18  C   UNL A   1      42.350  20.286  25.962  1.00  0.00     0.019 A 
ATOM     19  C   UNL A   1      42.487  22.677  25.887  1.00  0.00     0.041 A 
ATOM     20  C   UNL A   1      41.734  21.525  26.045  1.00  0.00     0.019 A 
ATOM     21  Br  UNL A   1      39.871  21.650  26.328  1.00  0.00    -0.051 Br
BRANCH  16  22
ATOM     22  O   UNL A   1      45.866  21.336  25.402  1.00  0.00    -0.495 OA
ATOM     23  C   UNL A   1      46.410  20.133  24.867  1.00  0.00     0.278 C 
ENDBRANCH  16  22
ENDBRANCH  12  15
ENDBRANCH  10  12
ENDBRANCH   9  10
ENDBRANCH   7   9
ENDBRANCH   6   7
ENDBRANCH   5   6
ENDBRANCH   4   5
ENDBRANCH   3   4
ENDBRANCH   2   3
ENDBRANCH   1   2
BRANCH   1  24
ATOM     24  O   UNL A   1      45.885  21.928  34.647  1.00  0.00    -0.377 OA
BRANCH  24  25
ATOM     25  C   UNL A   1      46.834  21.562  35.632  1.00  0.00     0.188 C 
BRANCH  25  26
ATOM     26  C   UNL A   1      48.289  21.634  35.166  1.00  0.00     0.188 C 
BRANCH  26  27
ATOM     27  O   UNL A   1      48.760  22.978  35.119  1.00  0.00    -0.376 OA
BRANCH  27  28
ATOM     28  C   UNL A   1      48.502  23.796  36.257  1.00  0.00     0.202 C 
BRANCH  28  29
ATOM     29  C   UNL A   1      49.015  25.246  36.214  1.00  0.00     0.261 C 
BRANCH  29  30
ATOM     30  O   UNL A   1      48.181  26.199  35.527  1.00  0.00    -0.460 OA
BRANCH  30  31
ATOM     31  C   UNL A   1      47.602  27.169  36.265  1.00  0.00     0.338 C 
ATOM     32  O   UNL A   1      48.010  27.668  37.287  1.00  0.00    -0.246 OA
BRANCH  31  33
ATOM     33  C   UNL A   1      46.426  27.658  35.514  1.00  0.00     0.060 A 
ATOM     34  C   UNL A   1      46.603  28.711  34.610  1.00  0.00     0.016 A 
ATOM     35  C   UNL A   1      45.157  27.116  35.735  1.00  0.00     0.016 A 
ATOM     36  C   UNL A   1      45.500  29.259  33.957  1.00  0.00     0.010 A 
ATOM     37  C   UNL A   1      44.050  27.676  35.090  1.00  0.00     0.010 A 
ATOM     38  C   UNL A   1      44.213  28.772  34.226  1.00  0.00    -0.014 A 
BRANCH  38  39
ATOM     39  C   UNL A   1      43.036  29.535  33.743  1.00  0.00     0.031 A 
ATOM     40  C   UNL A   1      42.336  29.066  32.497  1.00  0.00     0.074 A 
ATOM     41  C   UNL A   1      42.567  30.597  34.421  1.00  0.00     0.049 A 
ATOM     42  N   UNL A   1      41.276  29.552  31.902  1.00  0.00    -0.248 NA
ATOM     43  C   UNL A   1      42.911  27.885  31.831  1.00  0.00     0.031 C 
ATOM     44  C   UNL A   1      43.137  31.126  35.656  1.00  0.00     0.029 A 
ATOM     45  N   UNL A   1      41.498  31.417  34.162  1.00  0.00    -0.354 N 
ATOM     46  C   UNL A   1      41.053  28.735  30.802  1.00  0.00     0.074 A 
ATOM     47  C   UNL A   1      42.109  27.746  30.786  1.00  0.00     0.031 C 
ATOM     48  C   UNL A   1      42.412  32.189  36.049  1.00  0.00     0.029 A 
ATOM     49  C   UNL A   1      41.342  32.425  35.080  1.00  0.00     0.049 A 
ATOM     50  H   UNL A   1      40.898  31.294  33.391  1.00  0.00     0.167 HD
ATOM     51  C   UNL A   1      40.052  28.796  29.892  1.00  0.00     0.037 A 
ATOM     52  C   UNL A   1      40.445  33.430  35.124  1.00  0.00     0.037 A 
ATOM     53  C   UNL A   1      39.006  29.784  29.903  1.00  0.00     0.049 A 
ATOM     54  C   UNL A   1      39.380  33.518  34.060  1.00  0.00     0.074 A 
ATOM     55  C   UNL A   1      37.937  29.920  29.036  1.00  0.00     0.029 A 
ATOM     56  N   UNL A   1      38.907  30.814  30.826  1.00  0.00    -0.354 N 
ATOM     57  N   UNL A   1      39.156  32.721  33.044  1.00  0.00    -0.248 NA
ATOM     58  C   UNL A   1      38.439  34.644  34.155  1.00  0.00     0.031 C 
ATOM     59  C   UNL A   1      37.221  31.065  29.401  1.00  0.00     0.029 A 
ATOM     60  C   UNL A   1      37.812  31.611  30.530  1.00  0.00     0.049 A 
ATOM     61  H   UNL A   1      39.524  30.960  31.580  1.00  0.00     0.167 HD
ATOM     62  C   UNL A   1      38.037  33.230  32.396  1.00  0.00     0.074 A 
ATOM     63  C   UNL A   1      37.621  34.399  33.141  1.00  0.00     0.031 C 
ATOM     64  C   UNL A   1      37.410  32.772  31.283  1.00  0.00     0.037 A 
BRANCH  51  65
ATOM     65  C   UNL A   1      40.060  27.776  28.790  1.00  0.00     0.064 A 
ATOM     66  C   UNL A   1      39.403  26.543  28.921  1.00  0.00     0.173 A 
ATOM     67  C   UNL A   1      40.719  28.044  27.582  1.00  0.00     0.173 A 
ATOM     68  F   UNL A   1      38.772  26.232  30.063  1.00  0.00    -0.203 F 
ATOM     69  C   UNL A   1      39.431  25.604  27.893  1.00  0.00     0.198 A 
ATOM     70  C   UNL A   1      40.720  27.115  26.545  1.00  0.00     0.198 A 
ATOM     71  F   UNL A   1      41.361  29.208  27.404  1.00  0.00    -0.203 F 
ATOM     72  F   UNL A   1      38.840  24.412  28.059  1.00  0.00    -0.200 F 
ATOM     73  C   UNL A   1      40.084  25.893  26.703  1.00  0.00     0.200 A 
ATOM     74  F   UNL A   1      41.344  27.400  25.393  1.00  0.00    -0.200 F 
ATOM     75  F   UNL A   1      40.108  24.990  25.714  1.00  0.00    -0.200 F 
ENDBRANCH  51  65
BRANCH  52  76
ATOM     76  C   UNL A   1      40.516  34.439  36.213  1.00  0.00     0.064 A 
ATOM     77  C   UNL A   1      39.652  34.380  37.316  1.00  0.00     0.173 A 
ATOM     78  C   UNL A   1      41.442  35.491  36.167  1.00  0.00     0.173 A 
ATOM     79  F   UNL A   1      38.731  33.408  37.394  1.00  0.00    -0.203 F 
ATOM     80  C   UNL A   1      39.703  35.342  38.323  1.00  0.00     0.198 A 
ATOM     81  C   UNL A   1      41.511  36.437  37.187  1.00  0.00     0.198 A 
ATOM     82  F   UNL A   1      42.289  35.595  35.131  1.00  0.00    -0.203 F 
ATOM     83  F   UNL A   1      38.839  35.287  39.345  1.00  0.00    -0.200 F 
ATOM     84  C   UNL A   1      40.638  36.366  38.261  1.00  0.00     0.200 A 
ATOM     85  F   UNL A   1      42.423  37.417  37.128  1.00  0.00    -0.200 F 
ATOM     86  F   UNL A   1      40.691  37.288  39.232  1.00  0.00    -0.200 F 
ENDBRANCH  52  76
BRANCH  64  87
ATOM     87  C   UNL A   1      36.192  33.517  30.819  1.00  0.00     0.064 A 
ATOM     88  C   UNL A   1      35.060  33.659  31.636  1.00  0.00     0.173 A 
ATOM     89  C   UNL A   1      36.174  34.134  29.558  1.00  0.00     0.173 A 
ATOM     90  F   UNL A   1      35.022  33.078  32.844  1.00  0.00    -0.203 F 
ATOM     91  C   UNL A   1      33.946  34.369  31.196  1.00  0.00     0.198 A 
ATOM     92  C   UNL A   1      35.070  34.868  29.135  1.00  0.00     0.198 A 
ATOM     93  F   UNL A   1      37.234  34.036  28.742  1.00  0.00    -0.203 F 
ATOM     94  F   UNL A   1      32.857  34.452  31.974  1.00  0.00    -0.200 F 
ATOM     95  C   UNL A   1      33.954  34.980  29.950  1.00  0.00     0.200 A 
ATOM     96  F   UNL A   1      35.086  35.469  27.937  1.00  0.00    -0.200 F 
ATOM     97  F   UNL A   1      32.883  35.668  29.532  1.00  0.00    -0.200 F 
ENDBRANCH  64  87
ENDBRANCH  38  39
ENDBRANCH  31  33
ENDBRANCH  30  31
ENDBRANCH  29  30
ENDBRANCH  28  29
ENDBRANCH  27  28
ENDBRANCH  26  27
ENDBRANCH  25  26
ENDBRANCH  24  25
ENDBRANCH   1  24
TORSDOF 24
ENDMDL
