MODEL 1
REMARK VINA RESULT:     -10.4      0.000      0.000
REMARK SMILES O=C(OCCOCCOCCOCCOC(=O)c1nnn(-c2ccc(C(F)(F)F)cc2)c1-c1cccc(Cl)c1)c1ccc(-c2c3nc(c(-c4c(F)c(F)c(F)c(F)c4F)c4ccc([nH]4)c(-c4c(F)c(F)c(F)c(F)c4F)c4nc(c(-c5c(F)c(F)c(F)c(F)c5F)c5ccc2[nH]5)C=C4)C=C3)cc1
REMARK SMILES IDX 9 1 8 2 7 3 6 4 5 5 4 6 3 7 2 8 1 9 40 10 41 11 102 12 42 13
REMARK SMILES IDX 101 14 43 15 44 16 45 17 95 18 46 19 100 20 94 21 96 22
REMARK SMILES IDX 47 23 99 24 93 25 92 26 48 28 80 29 60 30 79 31 61 32 64 33
REMARK SMILES IDX 78 34 97 35 62 36 63 37 77 39 98 40 65 41 49 42 50 43 58 44
REMARK SMILES IDX 51 45 52 46 56 47 59 48 53 49 54 50 57 51 55 52 81 53 82 54
REMARK SMILES IDX 90 55 83 56 84 57 88 58 91 59 85 60 86 61 89 62 87 63 66 64
REMARK SMILES IDX 67 65 75 66 68 67 69 68 73 69 76 70 70 71 71 72 74 73 72 74
REMARK SMILES IDX 10 75 11 76 12 77 13 78 14 79 15 80 16 81 17 82 18 83 19 84
REMARK SMILES IDX 32 85 20 86 21 87 33 88 34 89 39 90 35 91 37 92 36 93 38 94
REMARK SMILES IDX 22 95 23 96 31 97 24 98 30 99 25 100 26 101 27 102 28 103
REMARK SMILES IDX 29 104
REMARK H PARENT 96 27 64 38
REMARK Flexibility Score: inf
ROOT
ATOM      1  O   UNL A   1      34.109  27.925  26.357  1.00  0.00    -0.377 OA
ENDROOT
BRANCH   1   2
ATOM      2  C   UNL A   1      33.077  28.886  26.250  1.00  0.00     0.188 C 
BRANCH   2   3
ATOM      3  C   UNL A   1      33.292  30.182  27.047  1.00  0.00     0.188 C 
BRANCH   3   4
ATOM      4  O   UNL A   1      34.522  30.613  27.619  1.00  0.00    -0.376 OA
BRANCH   4   5
ATOM      5  C   UNL A   1      34.995  31.936  27.742  1.00  0.00     0.202 C 
BRANCH   5   6
ATOM      6  C   UNL A   1      34.570  32.843  28.898  1.00  0.00     0.261 C 
BRANCH   6   7
ATOM      7  O   UNL A   1      34.445  32.213  30.170  1.00  0.00    -0.460 OA
BRANCH   7   8
ATOM      8  C   UNL A   1      35.394  31.854  31.058  1.00  0.00     0.338 C 
ATOM      9  O   UNL A   1      35.299  32.294  32.204  1.00  0.00    -0.246 OA
BRANCH   8  10
ATOM     10  C   UNL A   1      36.564  30.988  30.745  1.00  0.00     0.060 A 
ATOM     11  C   UNL A   1      36.591  29.593  30.756  1.00  0.00     0.016 A 
ATOM     12  C   UNL A   1      37.753  31.677  30.432  1.00  0.00     0.016 A 
ATOM     13  C   UNL A   1      37.788  28.913  30.634  1.00  0.00     0.010 A 
ATOM     14  C   UNL A   1      38.951  31.002  30.273  1.00  0.00     0.010 A 
ATOM     15  C   UNL A   1      38.968  29.626  30.451  1.00  0.00    -0.014 A 
BRANCH  15  16
ATOM     16  C   UNL A   1      40.198  28.857  30.450  1.00  0.00     0.031 A 
ATOM     17  C   UNL A   1      40.895  28.753  31.757  1.00  0.00     0.074 A 
ATOM     18  C   UNL A   1      40.663  28.269  29.334  1.00  0.00     0.049 A 
ATOM     19  N   UNL A   1      42.089  29.152  32.055  1.00  0.00    -0.248 NA
ATOM     20  C   UNL A   1      40.135  28.216  32.894  1.00  0.00     0.031 C 
ATOM     21  C   UNL A   1      39.972  28.079  28.058  1.00  0.00     0.029 A 
ATOM     22  N   UNL A   1      41.849  27.627  29.148  1.00  0.00    -0.354 N 
ATOM     23  C   UNL A   1      42.299  28.774  33.379  1.00  0.00     0.074 A 
ATOM     24  C   UNL A   1      41.031  28.307  33.877  1.00  0.00     0.031 C 
ATOM     25  C   UNL A   1      40.658  27.182  27.315  1.00  0.00     0.029 A 
ATOM     26  C   UNL A   1      41.892  26.846  28.005  1.00  0.00     0.049 A 
ATOM     27  H   UNL A   1      42.607  27.711  29.770  1.00  0.00     0.167 HD
ATOM     28  C   UNL A   1      43.554  28.686  33.897  1.00  0.00     0.037 A 
ATOM     29  C   UNL A   1      42.842  25.933  27.693  1.00  0.00     0.037 A 
ATOM     30  C   UNL A   1      44.485  29.495  33.153  1.00  0.00     0.049 A 
ATOM     31  C   UNL A   1      44.052  26.244  28.491  1.00  0.00     0.074 A 
ATOM     32  C   UNL A   1      44.579  30.843  32.865  1.00  0.00     0.029 A 
ATOM     33  N   UNL A   1      45.361  28.877  32.298  1.00  0.00    -0.354 N 
ATOM     34  N   UNL A   1      44.818  27.279  28.290  1.00  0.00    -0.248 NA
ATOM     35  C   UNL A   1      44.191  25.611  29.794  1.00  0.00     0.031 C 
ATOM     36  C   UNL A   1      45.117  30.904  31.545  1.00  0.00     0.029 A 
ATOM     37  C   UNL A   1      45.358  29.595  31.131  1.00  0.00     0.049 A 
ATOM     38  H   UNL A   1      45.892  28.070  32.486  1.00  0.00     0.167 HD
ATOM     39  C   UNL A   1      45.199  27.685  29.559  1.00  0.00     0.074 A 
ATOM     40  C   UNL A   1      44.879  26.560  30.432  1.00  0.00     0.031 C 
ATOM     41  C   UNL A   1      45.477  28.995  29.826  1.00  0.00     0.037 A 
BRANCH  28  42
ATOM     42  C   UNL A   1      44.004  27.591  34.838  1.00  0.00     0.064 A 
ATOM     43  C   UNL A   1      43.835  26.245  34.453  1.00  0.00     0.173 A 
ATOM     44  C   UNL A   1      44.283  27.798  36.207  1.00  0.00     0.173 A 
ATOM     45  F   UNL A   1      43.563  25.925  33.178  1.00  0.00    -0.203 F 
ATOM     46  C   UNL A   1      43.833  25.203  35.384  1.00  0.00     0.198 A 
ATOM     47  C   UNL A   1      44.332  26.749  37.124  1.00  0.00     0.198 A 
ATOM     48  F   UNL A   1      44.410  29.019  36.736  1.00  0.00    -0.203 F 
ATOM     49  F   UNL A   1      43.523  23.961  34.991  1.00  0.00    -0.200 F 
ATOM     50  C   UNL A   1      44.068  25.459  36.722  1.00  0.00     0.200 A 
ATOM     51  F   UNL A   1      44.551  27.019  38.419  1.00  0.00    -0.200 F 
ATOM     52  F   UNL A   1      43.993  24.475  37.627  1.00  0.00    -0.200 F 
ENDBRANCH  28  42
BRANCH  29  53
ATOM     53  C   UNL A   1      42.676  24.657  26.962  1.00  0.00     0.064 A 
ATOM     54  C   UNL A   1      43.233  24.480  25.687  1.00  0.00     0.173 A 
ATOM     55  C   UNL A   1      42.202  23.497  27.608  1.00  0.00     0.173 A 
ATOM     56  F   UNL A   1      43.746  25.527  25.023  1.00  0.00    -0.203 F 
ATOM     57  C   UNL A   1      43.337  23.214  25.104  1.00  0.00     0.198 A 
ATOM     58  C   UNL A   1      42.294  22.238  27.020  1.00  0.00     0.198 A 
ATOM     59  F   UNL A   1      41.728  23.549  28.861  1.00  0.00    -0.203 F 
ATOM     60  F   UNL A   1      43.938  23.075  23.914  1.00  0.00    -0.200 F 
ATOM     61  C   UNL A   1      42.876  22.093  25.774  1.00  0.00     0.200 A 
ATOM     62  F   UNL A   1      41.875  21.158  27.694  1.00  0.00    -0.200 F 
ATOM     63  F   UNL A   1      43.031  20.873  25.242  1.00  0.00    -0.200 F 
ENDBRANCH  29  53
BRANCH  41  64
ATOM     64  C   UNL A   1      45.662  29.925  28.663  1.00  0.00     0.064 A 
ATOM     65  C   UNL A   1      44.606  30.540  27.970  1.00  0.00     0.173 A 
ATOM     66  C   UNL A   1      46.967  30.312  28.327  1.00  0.00     0.173 A 
ATOM     67  F   UNL A   1      43.329  30.308  28.306  1.00  0.00    -0.203 F 
ATOM     68  C   UNL A   1      44.851  31.459  26.951  1.00  0.00     0.198 A 
ATOM     69  C   UNL A   1      47.208  31.259  27.337  1.00  0.00     0.198 A 
ATOM     70  F   UNL A   1      48.014  29.801  28.996  1.00  0.00    -0.203 F 
ATOM     71  F   UNL A   1      43.827  32.021  26.291  1.00  0.00    -0.200 F 
ATOM     72  C   UNL A   1      46.152  31.822  26.640  1.00  0.00     0.200 A 
ATOM     73  F   UNL A   1      48.465  31.647  27.076  1.00  0.00    -0.200 F 
ATOM     74  F   UNL A   1      46.386  32.736  25.688  1.00  0.00    -0.200 F 
ENDBRANCH  41  64
ENDBRANCH  15  16
ENDBRANCH   8  10
ENDBRANCH   7   8
ENDBRANCH   6   7
ENDBRANCH   5   6
ENDBRANCH   4   5
ENDBRANCH   3   4
ENDBRANCH   2   3
ENDBRANCH   1   2
BRANCH   1  75
ATOM     75  C   UNL A   1      34.196  27.038  25.267  1.00  0.00     0.188 C 
BRANCH  75  76
ATOM     76  C   UNL A   1      34.854  25.681  25.593  1.00  0.00     0.188 C 
BRANCH  76  77
ATOM     77  O   UNL A   1      34.106  24.499  25.871  1.00  0.00    -0.376 OA
BRANCH  77  78
ATOM     78  C   UNL A   1      34.332  23.282  25.185  1.00  0.00     0.202 C 
BRANCH  78  79
ATOM     79  C   UNL A   1      35.226  23.341  23.946  1.00  0.00     0.261 C 
BRANCH  79  80
ATOM     80  O   UNL A   1      34.722  24.168  22.898  1.00  0.00    -0.458 OA
BRANCH  80  81
ATOM     81  C   UNL A   1      33.563  23.740  22.305  1.00  0.00     0.361 C 
ATOM     82  O   UNL A   1      33.260  22.589  22.089  1.00  0.00    -0.244 OA
BRANCH  81  83
ATOM     83  C   UNL A   1      32.731  24.876  21.944  1.00  0.00     0.198 A 
ATOM     84  N   UNL A   1      32.734  25.489  20.713  1.00  0.00    -0.122 NA
ATOM     85  C   UNL A   1      31.749  25.432  22.734  1.00  0.00     0.109 A 
ATOM     86  N   UNL A   1      31.771  26.408  20.711  1.00  0.00    -0.061 NA
ATOM     87  N   UNL A   1      31.303  26.500  21.976  1.00  0.00    -0.212 N 
BRANCH  85  88
ATOM     88  C   UNL A   1      31.278  25.051  24.061  1.00  0.00     0.004 A 
ATOM     89  C   UNL A   1      30.912  23.727  24.345  1.00  0.00     0.010 A 
ATOM     90  C   UNL A   1      31.231  26.010  25.079  1.00  0.00     0.031 A 
ATOM     91  C   UNL A   1      30.495  23.374  25.629  1.00  0.00     0.002 A 
ATOM     92  C   UNL A   1      30.823  25.648  26.359  1.00  0.00     0.041 A 
ATOM     93  C   UNL A   1      30.452  24.336  26.639  1.00  0.00     0.020 A 
ATOM     94  Cl  UNL A   1      30.789  26.837  27.601  1.00  0.00    -0.084 Cl
ENDBRANCH  85  88
BRANCH  87  95
ATOM     95  C   UNL A   1      30.630  27.639  22.450  1.00  0.00     0.067 A 
ATOM     96  C   UNL A   1      31.275  28.872  22.541  1.00  0.00     0.029 A 
ATOM     97  C   UNL A   1      29.271  27.509  22.762  1.00  0.00     0.029 A 
ATOM     98  C   UNL A   1      30.508  30.004  22.836  1.00  0.00     0.015 A 
ATOM     99  C   UNL A   1      28.525  28.630  23.089  1.00  0.00     0.015 A 
ATOM    100  C   UNL A   1      29.124  29.895  23.090  1.00  0.00     0.056 A 
BRANCH 100 101
ATOM    101  C   UNL A   1      28.280  31.124  23.323  1.00  0.00     0.416 C 
ATOM    102  F   UNL A   1      28.942  32.098  24.002  1.00  0.00    -0.166 F 
ATOM    103  F   UNL A   1      27.864  31.689  22.156  1.00  0.00    -0.166 F 
ATOM    104  F   UNL A   1      27.146  30.872  24.035  1.00  0.00    -0.166 F 
ENDBRANCH 100 101
ENDBRANCH  87  95
ENDBRANCH  81  83
ENDBRANCH  80  81
ENDBRANCH  79  80
ENDBRANCH  78  79
ENDBRANCH  77  78
ENDBRANCH  76  77
ENDBRANCH  75  76
ENDBRANCH   1  75
TORSDOF 23
ENDMDL
MODEL 2
REMARK VINA RESULT:      -9.9      6.131     13.598
REMARK SMILES O=C(OCCOCCOCCOCCOC(=O)c1nnn(-c2ccc(C(F)(F)F)cc2)c1-c1cccc(Cl)c1)c1ccc(-c2c3nc(c(-c4c(F)c(F)c(F)c(F)c4F)c4ccc([nH]4)c(-c4c(F)c(F)c(F)c(F)c4F)c4nc(c(-c5c(F)c(F)c(F)c(F)c5F)c5ccc2[nH]5)C=C4)C=C3)cc1
REMARK SMILES IDX 9 1 8 2 7 3 6 4 5 5 4 6 3 7 2 8 1 9 40 10 41 11 102 12 42 13
REMARK SMILES IDX 101 14 43 15 44 16 45 17 95 18 46 19 100 20 94 21 96 22
REMARK SMILES IDX 47 23 99 24 93 25 92 26 48 28 80 29 60 30 79 31 61 32 64 33
REMARK SMILES IDX 78 34 97 35 62 36 63 37 77 39 98 40 65 41 49 42 50 43 58 44
REMARK SMILES IDX 51 45 52 46 56 47 59 48 53 49 54 50 57 51 55 52 81 53 82 54
REMARK SMILES IDX 90 55 83 56 84 57 88 58 91 59 85 60 86 61 89 62 87 63 66 64
REMARK SMILES IDX 67 65 75 66 68 67 69 68 73 69 76 70 70 71 71 72 74 73 72 74
REMARK SMILES IDX 10 75 11 76 12 77 13 78 14 79 15 80 16 81 17 82 18 83 19 84
REMARK SMILES IDX 32 85 20 86 21 87 33 88 34 89 39 90 35 91 37 92 36 93 38 94
REMARK SMILES IDX 22 95 23 96 31 97 24 98 30 99 25 100 26 101 27 102 28 103
REMARK SMILES IDX 29 104
REMARK H PARENT 96 27 64 38
REMARK Flexibility Score: inf
ROOT
ATOM      1  O   UNL A   1      46.768  23.748  26.808  1.00  0.00    -0.377 OA
ENDROOT
BRANCH   1   2
ATOM      2  C   UNL A   1      46.075  23.377  25.632  1.00  0.00     0.188 C 
BRANCH   2   3
ATOM      3  C   UNL A   1      46.015  21.869  25.345  1.00  0.00     0.188 C 
BRANCH   3   4
ATOM      4  O   UNL A   1      44.878  21.156  24.873  1.00  0.00    -0.376 OA
BRANCH   4   5
ATOM      5  C   UNL A   1      43.616  21.040  25.496  1.00  0.00     0.202 C 
BRANCH   5   6
ATOM      6  C   UNL A   1      42.596  22.179  25.471  1.00  0.00     0.261 C 
BRANCH   6   7
ATOM      7  O   UNL A   1      41.343  21.908  26.093  1.00  0.00    -0.460 OA
BRANCH   7   8
ATOM      8  C   UNL A   1      40.464  22.746  26.676  1.00  0.00     0.338 C 
ATOM      9  O   UNL A   1      39.297  22.368  26.779  1.00  0.00    -0.246 OA
BRANCH   8  10
ATOM     10  C   UNL A   1      40.796  24.108  27.178  1.00  0.00     0.060 A 
ATOM     11  C   UNL A   1      41.744  24.426  28.150  1.00  0.00     0.016 A 
ATOM     12  C   UNL A   1      40.044  25.156  26.609  1.00  0.00     0.016 A 
ATOM     13  C   UNL A   1      41.820  25.708  28.664  1.00  0.00     0.010 A 
ATOM     14  C   UNL A   1      40.139  26.450  27.092  1.00  0.00     0.010 A 
ATOM     15  C   UNL A   1      40.976  26.697  28.171  1.00  0.00    -0.014 A 
BRANCH  15  16
ATOM     16  C   UNL A   1      41.028  27.985  28.835  1.00  0.00     0.031 A 
ATOM     17  C   UNL A   1      42.166  28.860  28.459  1.00  0.00     0.074 A 
ATOM     18  C   UNL A   1      40.092  28.359  29.725  1.00  0.00     0.049 A 
ATOM     19  N   UNL A   1      43.096  29.329  29.227  1.00  0.00    -0.248 NA
ATOM     20  C   UNL A   1      42.338  29.181  27.036  1.00  0.00     0.031 C 
ATOM     21  C   UNL A   1      38.804  27.722  30.005  1.00  0.00     0.029 A 
ATOM     22  N   UNL A   1      40.070  29.470  30.512  1.00  0.00    -0.354 N 
ATOM     23  C   UNL A   1      43.888  30.140  28.417  1.00  0.00     0.074 A 
ATOM     24  C   UNL A   1      43.445  29.923  27.064  1.00  0.00     0.031 C 
ATOM     25  C   UNL A   1      38.039  28.571  30.725  1.00  0.00     0.029 A 
ATOM     26  C   UNL A   1      38.829  29.742  31.065  1.00  0.00     0.049 A 
ATOM     27  H   UNL A   1      40.864  30.029  30.673  1.00  0.00     0.167 HD
ATOM     28  C   UNL A   1      44.711  31.082  28.952  1.00  0.00     0.037 A 
ATOM     29  C   UNL A   1      38.464  30.885  31.691  1.00  0.00     0.037 A 
ATOM     30  C   UNL A   1      45.044  30.771  30.318  1.00  0.00     0.049 A 
ATOM     31  C   UNL A   1      39.699  31.583  32.123  1.00  0.00     0.074 A 
ATOM     32  C   UNL A   1      45.670  29.709  30.944  1.00  0.00     0.029 A 
ATOM     33  N   UNL A   1      44.441  31.482  31.323  1.00  0.00    -0.354 N 
ATOM     34  N   UNL A   1      40.477  31.170  33.084  1.00  0.00    -0.248 NA
ATOM     35  C   UNL A   1      40.298  32.541  31.206  1.00  0.00     0.031 C 
ATOM     36  C   UNL A   1      45.002  29.568  32.195  1.00  0.00     0.029 A 
ATOM     37  C   UNL A   1      44.043  30.578  32.273  1.00  0.00     0.049 A 
ATOM     38  H   UNL A   1      44.317  32.458  31.357  1.00  0.00     0.167 HD
ATOM     39  C   UNL A   1      41.759  31.465  32.648  1.00  0.00     0.074 A 
ATOM     40  C   UNL A   1      41.581  32.404  31.546  1.00  0.00     0.031 C 
ATOM     41  C   UNL A   1      42.826  30.706  33.034  1.00  0.00     0.037 A 
BRANCH  28  42
ATOM     42  C   UNL A   1      44.913  32.459  28.362  1.00  0.00     0.064 A 
ATOM     43  C   UNL A   1      46.220  32.884  28.046  1.00  0.00     0.173 A 
ATOM     44  C   UNL A   1      43.938  33.480  28.399  1.00  0.00     0.173 A 
ATOM     45  F   UNL A   1      47.232  32.004  27.984  1.00  0.00    -0.203 F 
ATOM     46  C   UNL A   1      46.544  34.235  27.893  1.00  0.00     0.198 A 
ATOM     47  C   UNL A   1      44.256  34.822  28.194  1.00  0.00     0.198 A 
ATOM     48  F   UNL A   1      42.667  33.246  28.741  1.00  0.00    -0.203 F 
ATOM     49  F   UNL A   1      47.823  34.599  27.740  1.00  0.00    -0.200 F 
ATOM     50  C   UNL A   1      45.562  35.204  27.981  1.00  0.00     0.200 A 
ATOM     51  F   UNL A   1      43.291  35.748  28.294  1.00  0.00    -0.200 F 
ATOM     52  F   UNL A   1      45.878  36.504  27.910  1.00  0.00    -0.200 F 
ENDBRANCH  28  42
BRANCH  29  53
ATOM     53  C   UNL A   1      37.137  31.541  31.692  1.00  0.00     0.064 A 
ATOM     54  C   UNL A   1      36.513  31.900  32.896  1.00  0.00     0.173 A 
ATOM     55  C   UNL A   1      36.579  32.072  30.513  1.00  0.00     0.173 A 
ATOM     56  F   UNL A   1      37.008  31.472  34.067  1.00  0.00    -0.203 F 
ATOM     57  C   UNL A   1      35.413  32.762  32.922  1.00  0.00     0.198 A 
ATOM     58  C   UNL A   1      35.475  32.922  30.538  1.00  0.00     0.198 A 
ATOM     59  F   UNL A   1      37.152  31.857  29.320  1.00  0.00    -0.203 F 
ATOM     60  F   UNL A   1      34.886  33.137  34.096  1.00  0.00    -0.200 F 
ATOM     61  C   UNL A   1      34.901  33.280  31.743  1.00  0.00     0.200 A 
ATOM     62  F   UNL A   1      35.011  33.442  29.393  1.00  0.00    -0.200 F 
ATOM     63  F   UNL A   1      33.886  34.154  31.771  1.00  0.00    -0.200 F 
ENDBRANCH  29  53
BRANCH  41  64
ATOM     64  C   UNL A   1      42.632  29.750  34.174  1.00  0.00     0.064 A 
ATOM     65  C   UNL A   1      41.997  28.502  34.055  1.00  0.00     0.173 A 
ATOM     66  C   UNL A   1      43.234  30.054  35.403  1.00  0.00     0.173 A 
ATOM     67  F   UNL A   1      41.494  28.089  32.884  1.00  0.00    -0.203 F 
ATOM     68  C   UNL A   1      41.924  27.626  35.137  1.00  0.00     0.198 A 
ATOM     69  C   UNL A   1      43.194  29.160  36.469  1.00  0.00     0.198 A 
ATOM     70  F   UNL A   1      43.906  31.206  35.556  1.00  0.00    -0.203 F 
ATOM     71  F   UNL A   1      41.297  26.446  35.006  1.00  0.00    -0.200 F 
ATOM     72  C   UNL A   1      42.528  27.953  36.340  1.00  0.00     0.200 A 
ATOM     73  F   UNL A   1      43.826  29.458  37.613  1.00  0.00    -0.200 F 
ATOM     74  F   UNL A   1      42.492  27.092  37.367  1.00  0.00    -0.200 F 
ENDBRANCH  41  64
ENDBRANCH  15  16
ENDBRANCH   8  10
ENDBRANCH   7   8
ENDBRANCH   6   7
ENDBRANCH   5   6
ENDBRANCH   4   5
ENDBRANCH   3   4
ENDBRANCH   2   3
ENDBRANCH   1   2
BRANCH   1  75
ATOM     75  C   UNL A   1      47.663  24.823  26.644  1.00  0.00     0.188 C 
BRANCH  75  76
ATOM     76  C   UNL A   1      47.717  25.801  27.836  1.00  0.00     0.188 C 
BRANCH  76  77
ATOM     77  O   UNL A   1      46.935  25.634  29.018  1.00  0.00    -0.376 OA
BRANCH  77  78
ATOM     78  C   UNL A   1      47.174  26.383  30.195  1.00  0.00     0.202 C 
BRANCH  78  79
ATOM     79  C   UNL A   1      48.621  26.790  30.474  1.00  0.00     0.261 C 
BRANCH  79  80
ATOM     80  O   UNL A   1      49.346  25.862  31.280  1.00  0.00    -0.458 OA
BRANCH  80  81
ATOM     81  C   UNL A   1      49.584  26.252  32.572  1.00  0.00     0.361 C 
ATOM     82  O   UNL A   1      49.852  27.373  32.938  1.00  0.00    -0.244 OA
BRANCH  81  83
ATOM     83  C   UNL A   1      49.486  25.112  33.469  1.00  0.00     0.198 A 
ATOM     84  N   UNL A   1      50.556  24.505  34.083  1.00  0.00    -0.122 NA
ATOM     85  C   UNL A   1      48.314  24.545  33.919  1.00  0.00     0.109 A 
ATOM     86  N   UNL A   1      50.081  23.580  34.914  1.00  0.00    -0.061 NA
ATOM     87  N   UNL A   1      48.754  23.478  34.682  1.00  0.00    -0.212 N 
BRANCH  85  88
ATOM     88  C   UNL A   1      46.927  24.916  33.660  1.00  0.00     0.004 A 
ATOM     89  C   UNL A   1      46.353  26.039  34.275  1.00  0.00     0.010 A 
ATOM     90  C   UNL A   1      46.170  24.167  32.753  1.00  0.00     0.031 A 
ATOM     91  C   UNL A   1      45.034  26.397  33.990  1.00  0.00     0.002 A 
ATOM     92  C   UNL A   1      44.860  24.537  32.467  1.00  0.00     0.041 A 
ATOM     93  C   UNL A   1      44.287  25.646  33.084  1.00  0.00     0.020 A 
ATOM     94  Cl  UNL A   1      43.951  23.615  31.335  1.00  0.00    -0.084 Cl
ENDBRANCH  85  88
BRANCH  87  95
ATOM     95  C   UNL A   1      48.014  22.332  35.022  1.00  0.00     0.067 A 
ATOM     96  C   UNL A   1      47.119  22.342  36.091  1.00  0.00     0.029 A 
ATOM     97  C   UNL A   1      48.157  21.201  34.209  1.00  0.00     0.029 A 
ATOM     98  C   UNL A   1      46.276  21.238  36.263  1.00  0.00     0.015 A 
ATOM     99  C   UNL A   1      47.343  20.097  34.407  1.00  0.00     0.015 A 
ATOM    100  C   UNL A   1      46.366  20.119  35.409  1.00  0.00     0.056 A 
BRANCH 100 101
ATOM    101  C   UNL A   1      45.401  18.966  35.539  1.00  0.00     0.416 C 
ATOM    102  F   UNL A   1      45.210  18.580  36.829  1.00  0.00    -0.166 F 
ATOM    103  F   UNL A   1      44.169  19.271  35.047  1.00  0.00    -0.166 F 
ATOM    104  F   UNL A   1      45.800  17.850  34.868  1.00  0.00    -0.166 F 
ENDBRANCH 100 101
ENDBRANCH  87  95
ENDBRANCH  81  83
ENDBRANCH  80  81
ENDBRANCH  79  80
ENDBRANCH  78  79
ENDBRANCH  77  78
ENDBRANCH  76  77
ENDBRANCH  75  76
ENDBRANCH   1  75
TORSDOF 23
ENDMDL
MODEL 3
REMARK VINA RESULT:      -9.9      3.607      8.598
REMARK SMILES O=C(OCCOCCOCCOCCOC(=O)c1nnn(-c2ccc(C(F)(F)F)cc2)c1-c1cccc(Cl)c1)c1ccc(-c2c3nc(c(-c4c(F)c(F)c(F)c(F)c4F)c4ccc([nH]4)c(-c4c(F)c(F)c(F)c(F)c4F)c4nc(c(-c5c(F)c(F)c(F)c(F)c5F)c5ccc2[nH]5)C=C4)C=C3)cc1
REMARK SMILES IDX 9 1 8 2 7 3 6 4 5 5 4 6 3 7 2 8 1 9 40 10 41 11 102 12 42 13
REMARK SMILES IDX 101 14 43 15 44 16 45 17 95 18 46 19 100 20 94 21 96 22
REMARK SMILES IDX 47 23 99 24 93 25 92 26 48 28 80 29 60 30 79 31 61 32 64 33
REMARK SMILES IDX 78 34 97 35 62 36 63 37 77 39 98 40 65 41 49 42 50 43 58 44
REMARK SMILES IDX 51 45 52 46 56 47 59 48 53 49 54 50 57 51 55 52 81 53 82 54
REMARK SMILES IDX 90 55 83 56 84 57 88 58 91 59 85 60 86 61 89 62 87 63 66 64
REMARK SMILES IDX 67 65 75 66 68 67 69 68 73 69 76 70 70 71 71 72 74 73 72 74
REMARK SMILES IDX 10 75 11 76 12 77 13 78 14 79 15 80 16 81 17 82 18 83 19 84
REMARK SMILES IDX 32 85 20 86 21 87 33 88 34 89 39 90 35 91 37 92 36 93 38 94
REMARK SMILES IDX 22 95 23 96 31 97 24 98 30 99 25 100 26 101 27 102 28 103
REMARK SMILES IDX 29 104
REMARK H PARENT 96 27 64 38
REMARK Flexibility Score: inf
ROOT
ATOM      1  O   UNL A   1      34.672  22.121  23.758  1.00  0.00    -0.377 OA
ENDROOT
BRANCH   1   2
ATOM      2  C   UNL A   1      35.009  21.500  24.983  1.00  0.00     0.188 C 
BRANCH   2   3
ATOM      3  C   UNL A   1      35.686  20.126  24.865  1.00  0.00     0.188 C 
BRANCH   3   4
ATOM      4  O   UNL A   1      37.075  19.864  25.035  1.00  0.00    -0.376 OA
BRANCH   4   5
ATOM      5  C   UNL A   1      38.132  20.798  25.031  1.00  0.00     0.202 C 
BRANCH   5   6
ATOM      6  C   UNL A   1      39.260  20.747  26.063  1.00  0.00     0.261 C 
BRANCH   6   7
ATOM      7  O   UNL A   1      39.701  22.005  26.567  1.00  0.00    -0.460 OA
BRANCH   7   8
ATOM      8  C   UNL A   1      39.124  23.220  26.492  1.00  0.00     0.338 C 
ATOM      9  O   UNL A   1      38.037  23.303  25.922  1.00  0.00    -0.246 OA
BRANCH   8  10
ATOM     10  C   UNL A   1      39.722  24.476  27.024  1.00  0.00     0.060 A 
ATOM     11  C   UNL A   1      41.079  24.731  27.221  1.00  0.00     0.016 A 
ATOM     12  C   UNL A   1      38.796  25.479  27.374  1.00  0.00     0.016 A 
ATOM     13  C   UNL A   1      41.490  25.864  27.900  1.00  0.00     0.010 A 
ATOM     14  C   UNL A   1      39.201  26.634  28.023  1.00  0.00     0.010 A 
ATOM     15  C   UNL A   1      40.542  26.778  28.347  1.00  0.00    -0.014 A 
BRANCH  15  16
ATOM     16  C   UNL A   1      41.032  27.880  29.153  1.00  0.00     0.031 A 
ATOM     17  C   UNL A   1      42.167  28.645  28.578  1.00  0.00     0.074 A 
ATOM     18  C   UNL A   1      40.480  28.189  30.339  1.00  0.00     0.049 A 
ATOM     19  N   UNL A   1      43.349  28.810  29.076  1.00  0.00    -0.248 NA
ATOM     20  C   UNL A   1      41.988  29.228  27.241  1.00  0.00     0.031 C 
ATOM     21  C   UNL A   1      39.225  27.693  30.908  1.00  0.00     0.029 A 
ATOM     22  N   UNL A   1      40.901  29.103  31.255  1.00  0.00    -0.354 N 
ATOM     23  C   UNL A   1      44.022  29.652  28.195  1.00  0.00     0.074 A 
ATOM     24  C   UNL A   1      43.181  29.785  27.034  1.00  0.00     0.031 C 
ATOM     25  C   UNL A   1      38.878  28.473  31.955  1.00  0.00     0.029 A 
ATOM     26  C   UNL A   1      39.947  29.425  32.207  1.00  0.00     0.049 A 
ATOM     27  H   UNL A   1      41.802  29.499  31.243  1.00  0.00     0.167 HD
ATOM     28  C   UNL A   1      45.132  30.337  28.582  1.00  0.00     0.037 A 
ATOM     29  C   UNL A   1      40.006  30.453  33.086  1.00  0.00     0.037 A 
ATOM     30  C   UNL A   1      45.771  29.705  29.708  1.00  0.00     0.049 A 
ATOM     31  C   UNL A   1      41.425  30.865  33.209  1.00  0.00     0.074 A 
ATOM     32  C   UNL A   1      46.327  28.459  29.931  1.00  0.00     0.029 A 
ATOM     33  N   UNL A   1      45.630  30.269  30.950  1.00  0.00    -0.354 N 
ATOM     34  N   UNL A   1      42.347  30.157  33.800  1.00  0.00    -0.248 NA
ATOM     35  C   UNL A   1      41.916  31.900  32.310  1.00  0.00     0.031 C 
ATOM     36  C   UNL A   1      46.026  28.157  31.292  1.00  0.00     0.029 A 
ATOM     37  C   UNL A   1      45.347  29.252  31.824  1.00  0.00     0.049 A 
ATOM     38  H   UNL A   1      45.715  31.224  31.172  1.00  0.00     0.167 HD
ATOM     39  C   UNL A   1      43.484  30.354  33.033  1.00  0.00     0.074 A 
ATOM     40  C   UNL A   1      43.190  31.517  32.203  1.00  0.00     0.031 C 
ATOM     41  C   UNL A   1      44.446  29.389  32.940  1.00  0.00     0.037 A 
BRANCH  28  42
ATOM     42  C   UNL A   1      45.426  31.765  28.180  1.00  0.00     0.064 A 
ATOM     43  C   UNL A   1      44.424  32.743  28.349  1.00  0.00     0.173 A 
ATOM     44  C   UNL A   1      46.505  32.142  27.351  1.00  0.00     0.173 A 
ATOM     45  F   UNL A   1      43.347  32.498  29.112  1.00  0.00    -0.203 F 
ATOM     46  C   UNL A   1      44.447  33.955  27.653  1.00  0.00     0.198 A 
ATOM     47  C   UNL A   1      46.550  33.374  26.700  1.00  0.00     0.198 A 
ATOM     48  F   UNL A   1      47.502  31.305  27.047  1.00  0.00    -0.203 F 
ATOM     49  F   UNL A   1      43.401  34.787  27.733  1.00  0.00    -0.200 F 
ATOM     50  C   UNL A   1      45.504  34.262  26.818  1.00  0.00     0.200 A 
ATOM     51  F   UNL A   1      47.579  33.648  25.886  1.00  0.00    -0.200 F 
ATOM     52  F   UNL A   1      45.495  35.388  26.092  1.00  0.00    -0.200 F 
ENDBRANCH  28  42
BRANCH  29  53
ATOM     53  C   UNL A   1      38.891  31.274  33.607  1.00  0.00     0.064 A 
ATOM     54  C   UNL A   1      38.586  31.288  34.976  1.00  0.00     0.173 A 
ATOM     55  C   UNL A   1      38.276  32.265  32.817  1.00  0.00     0.173 A 
ATOM     56  F   UNL A   1      39.163  30.405  35.805  1.00  0.00    -0.203 F 
ATOM     57  C   UNL A   1      37.740  32.254  35.528  1.00  0.00     0.198 A 
ATOM     58  C   UNL A   1      37.422  33.220  33.365  1.00  0.00     0.198 A 
ATOM     59  F   UNL A   1      38.566  32.388  31.513  1.00  0.00    -0.203 F 
ATOM     60  F   UNL A   1      37.527  32.278  36.851  1.00  0.00    -0.200 F 
ATOM     61  C   UNL A   1      37.166  33.225  34.724  1.00  0.00     0.200 A 
ATOM     62  F   UNL A   1      36.901  34.173  32.580  1.00  0.00    -0.200 F 
ATOM     63  F   UNL A   1      36.404  34.187  35.261  1.00  0.00    -0.200 F 
ENDBRANCH  29  53
BRANCH  41  64
ATOM     64  C   UNL A   1      44.399  28.253  33.920  1.00  0.00     0.064 A 
ATOM     65  C   UNL A   1      43.578  27.121  33.774  1.00  0.00     0.173 A 
ATOM     66  C   UNL A   1      45.321  28.251  34.976  1.00  0.00     0.173 A 
ATOM     67  F   UNL A   1      42.750  26.997  32.729  1.00  0.00    -0.203 F 
ATOM     68  C   UNL A   1      43.644  26.063  34.679  1.00  0.00     0.198 A 
ATOM     69  C   UNL A   1      45.412  27.176  35.854  1.00  0.00     0.198 A 
ATOM     70  F   UNL A   1      46.171  29.279  35.129  1.00  0.00    -0.203 F 
ATOM     71  F   UNL A   1      42.839  25.000  34.531  1.00  0.00    -0.200 F 
ATOM     72  C   UNL A   1      44.566  26.089  35.714  1.00  0.00     0.200 A 
ATOM     73  F   UNL A   1      46.341  27.181  36.821  1.00  0.00    -0.200 F 
ATOM     74  F   UNL A   1      44.656  25.053  36.560  1.00  0.00    -0.200 F 
ENDBRANCH  41  64
ENDBRANCH  15  16
ENDBRANCH   8  10
ENDBRANCH   7   8
ENDBRANCH   6   7
ENDBRANCH   5   6
ENDBRANCH   4   5
ENDBRANCH   3   4
ENDBRANCH   2   3
ENDBRANCH   1   2
BRANCH   1  75
ATOM     75  C   UNL A   1      33.341  21.914  23.346  1.00  0.00     0.188 C 
BRANCH  75  76
ATOM     76  C   UNL A   1      32.618  23.184  22.849  1.00  0.00     0.188 C 
BRANCH  76  77
ATOM     77  O   UNL A   1      33.100  23.984  21.771  1.00  0.00    -0.376 OA
BRANCH  77  78
ATOM     78  C   UNL A   1      33.052  25.399  21.800  1.00  0.00     0.202 C 
BRANCH  78  79
ATOM     79  C   UNL A   1      31.668  26.046  21.763  1.00  0.00     0.261 C 
BRANCH  79  80
ATOM     80  O   UNL A   1      31.270  26.648  22.994  1.00  0.00    -0.458 OA
BRANCH  80  81
ATOM     81  C   UNL A   1      30.724  27.901  22.897  1.00  0.00     0.361 C 
ATOM     82  O   UNL A   1      29.990  28.290  22.017  1.00  0.00    -0.244 OA
BRANCH  81  83
ATOM     83  C   UNL A   1      31.164  28.731  24.006  1.00  0.00     0.198 A 
ATOM     84  N   UNL A   1      30.747  30.022  24.232  1.00  0.00    -0.122 NA
ATOM     85  C   UNL A   1      31.968  28.318  25.045  1.00  0.00     0.109 A 
ATOM     86  N   UNL A   1      31.262  30.422  25.392  1.00  0.00    -0.061 NA
ATOM     87  N   UNL A   1      32.138  29.472  25.789  1.00  0.00    -0.212 N 
BRANCH  85  88
ATOM     88  C   UNL A   1      32.551  27.010  25.324  1.00  0.00     0.004 A 
ATOM     89  C   UNL A   1      33.875  26.718  24.962  1.00  0.00     0.010 A 
ATOM     90  C   UNL A   1      31.795  26.047  26.000  1.00  0.00     0.031 A 
ATOM     91  C   UNL A   1      34.426  25.472  25.266  1.00  0.00     0.002 A 
ATOM     92  C   UNL A   1      32.355  24.811  26.307  1.00  0.00     0.041 A 
ATOM     93  C   UNL A   1      33.665  24.517  25.941  1.00  0.00     0.020 A 
ATOM     94  Cl  UNL A   1      31.415  23.646  27.154  1.00  0.00    -0.084 Cl
ENDBRANCH  85  88
BRANCH  87  95
ATOM     95  C   UNL A   1      33.180  29.738  26.695  1.00  0.00     0.067 A 
ATOM     96  C   UNL A   1      34.187  28.803  26.929  1.00  0.00     0.029 A 
ATOM     97  C   UNL A   1      33.209  31.000  27.300  1.00  0.00     0.029 A 
ATOM     98  C   UNL A   1      35.294  29.196  27.690  1.00  0.00     0.015 A 
ATOM     99  C   UNL A   1      34.292  31.369  28.082  1.00  0.00     0.015 A 
ATOM    100  C   UNL A   1      35.365  30.487  28.253  1.00  0.00     0.056 A 
BRANCH 100 101
ATOM    101  C   UNL A   1      36.595  30.940  29.000  1.00  0.00     0.416 C 
ATOM    102  F   UNL A   1      37.030  32.168  28.607  1.00  0.00    -0.166 F 
ATOM    103  F   UNL A   1      36.378  31.025  30.342  1.00  0.00    -0.166 F 
ATOM    104  F   UNL A   1      37.658  30.100  28.851  1.00  0.00    -0.166 F 
ENDBRANCH 100 101
ENDBRANCH  87  95
ENDBRANCH  81  83
ENDBRANCH  80  81
ENDBRANCH  79  80
ENDBRANCH  78  79
ENDBRANCH  77  78
ENDBRANCH  76  77
ENDBRANCH  75  76
ENDBRANCH   1  75
TORSDOF 23
ENDMDL
