MODEL 1
REMARK VINA RESULT:      -9.7      0.000      0.000
REMARK SMILES CCN(c1cccc(C)c1)c1nc(OCC(=O)OCCOCCOCCOCCOC(=O)c2ccc(-c3c4nc(c(-c5c(F)c(F)c(F)c(F)c5F)c5ccc([nH]5)c(-c5c(F)c(F)c(F)c(F)c5F)c5nc(c(-c6c(F)c(F)c(F)c(F)c6F)c6ccc3[nH]6)C=C5)C=C4)cc2)cc(-c2ccc(C)cc2)n1
REMARK SMILES IDX 23 1 22 2 21 3 20 4 19 5 18 6 16 7 17 8 15 9 14 10 13 11
REMARK SMILES IDX 11 12 12 13 105 14 97 15 96 16 3 17 2 18 1 19 4 20 5 21
REMARK SMILES IDX 10 22 6 23 8 24 7 25 9 26 98 27 99 28 104 29 100 30 103 31
REMARK SMILES IDX 101 32 102 33 24 34 25 35 26 36 27 37 28 38 29 39 30 40
REMARK SMILES IDX 31 41 32 42 33 43 34 44 95 45 35 46 94 47 36 48 37 49 38 50
REMARK SMILES IDX 88 51 39 52 93 53 87 54 89 55 40 56 92 57 86 58 85 59 41 61
REMARK SMILES IDX 73 62 53 63 72 64 54 65 57 66 71 67 90 68 55 69 56 70 70 72
REMARK SMILES IDX 91 73 58 74 42 75 43 76 51 77 44 78 45 79 49 80 52 81 46 82
REMARK SMILES IDX 47 83 50 84 48 85 74 86 75 87 83 88 76 89 77 90 81 91 84 92
REMARK SMILES IDX 78 93 79 94 82 95 80 96 59 97 60 98 68 99 61 100 62 101
REMARK SMILES IDX 66 102 69 103 63 104 64 105 67 106 65 107
REMARK H PARENT 89 60 57 71
REMARK Flexibility Score: inf
ROOT
ATOM      1  C   UNL A   1      35.546  31.847  28.673  1.00  0.00     0.188 C 
ENDROOT
BRANCH   1   2
ATOM      2  C   UNL A   1      35.209  30.525  27.936  1.00  0.00     0.188 C 
BRANCH   2   3
ATOM      3  O   UNL A   1      33.967  30.434  27.188  1.00  0.00    -0.376 OA
BRANCH   3   4
ATOM      4  C   UNL A   1      33.503  29.483  26.154  1.00  0.00     0.202 C 
BRANCH   4   5
ATOM      5  C   UNL A   1      32.351  29.319  24.816  1.00  0.00     0.261 C 
BRANCH   5   6
ATOM      6  O   UNL A   1      31.833  28.173  23.526  1.00  0.00    -0.461 OA
BRANCH   6   7
ATOM      7  C   UNL A   1      32.122  27.240  22.394  1.00  0.00     0.344 C 
ATOM      8  O   UNL A   1      31.196  26.750  21.723  1.00  0.00    -0.248 OA
BRANCH   7   9
ATOM      9  C   UNL A   1      33.633  26.528  21.986  1.00  0.00     0.353 C 
BRANCH   9  10
ATOM     10  O   UNL A   1      34.382  25.324  22.283  1.00  0.00    -0.466 OA
BRANCH  10  11
ATOM     11  C   UNL A   1      34.529  24.821  23.558  1.00  0.00     0.219 A 
ATOM     12  C   UNL A   1      35.848  23.612  25.075  1.00  0.00     0.233 A 
ATOM     13  N   UNL A   1      35.732  24.274  23.886  1.00  0.00    -0.177 NA
ATOM     14  N   UNL A   1      34.756  23.358  25.835  1.00  0.00    -0.212 NA
ATOM     15  C   UNL A   1      33.596  23.970  25.496  1.00  0.00     0.080 A 
ATOM     16  C   UNL A   1      33.492  24.819  24.422  1.00  0.00     0.097 A 
BRANCH  12  17
ATOM     17  N   UNL A   1      37.120  23.138  25.501  1.00  0.00    -0.311 N 
BRANCH  17  18
ATOM     18  C   UNL A   1      38.133  24.150  25.862  1.00  0.00     0.122 C 
ATOM     19  C   UNL A   1      38.065  24.658  27.296  1.00  0.00     0.028 C 
ENDBRANCH  17  18
BRANCH  17  20
ATOM     20  C   UNL A   1      37.638  21.822  25.363  1.00  0.00     0.044 A 
ATOM     21  C   UNL A   1      36.834  20.744  24.942  1.00  0.00     0.026 A 
ATOM     22  C   UNL A   1      38.960  21.523  25.730  1.00  0.00     0.029 A 
ATOM     23  C   UNL A   1      37.306  19.425  24.937  1.00  0.00     0.002 A 
ATOM     24  C   UNL A   1      39.448  20.200  25.731  1.00  0.00    -0.049 A 
ATOM     25  C   UNL A   1      38.607  19.152  25.343  1.00  0.00     0.003 A 
ATOM     26  C   UNL A   1      40.851  19.916  26.182  1.00  0.00     0.044 C 
ENDBRANCH  17  20
ENDBRANCH  12  17
BRANCH  15  27
ATOM     27  C   UNL A   1      32.329  23.537  26.118  1.00  0.00     0.000 A 
ATOM     28  C   UNL A   1      31.341  24.520  26.362  1.00  0.00     0.010 A 
ATOM     29  C   UNL A   1      32.017  22.228  26.476  1.00  0.00     0.010 A 
ATOM     30  C   UNL A   1      30.057  24.213  26.780  1.00  0.00     0.004 A 
ATOM     31  C   UNL A   1      30.739  21.919  26.981  1.00  0.00     0.004 A 
ATOM     32  C   UNL A   1      29.739  22.900  27.076  1.00  0.00    -0.051 A 
ATOM     33  C   UNL A   1      28.347  22.602  27.540  1.00  0.00     0.044 C 
ENDBRANCH  15  27
ENDBRANCH  10  11
ENDBRANCH   9  10
ENDBRANCH   7   9
ENDBRANCH   6   7
ENDBRANCH   5   6
ENDBRANCH   4   5
ENDBRANCH   3   4
ENDBRANCH   2   3
ENDBRANCH   1   2
BRANCH   1  34
ATOM     34  O   UNL A   1      35.729  32.982  27.847  1.00  0.00    -0.377 OA
BRANCH  34  35
ATOM     35  C   UNL A   1      35.217  34.203  28.374  1.00  0.00     0.188 C 
BRANCH  35  36
ATOM     36  C   UNL A   1      33.749  34.476  28.019  1.00  0.00     0.188 C 
BRANCH  36  37
ATOM     37  O   UNL A   1      32.898  34.378  29.166  1.00  0.00    -0.376 OA
BRANCH  37  38
ATOM     38  C   UNL A   1      32.942  35.521  30.028  1.00  0.00     0.202 C 
BRANCH  38  39
ATOM     39  C   UNL A   1      33.487  35.213  31.432  1.00  0.00     0.261 C 
BRANCH  39  40
ATOM     40  O   UNL A   1      34.066  33.895  31.539  1.00  0.00    -0.460 OA
BRANCH  40  41
ATOM     41  C   UNL A   1      34.332  33.465  32.805  1.00  0.00     0.338 C 
ATOM     42  O   UNL A   1      33.510  33.027  33.583  1.00  0.00    -0.246 OA
BRANCH  41  43
ATOM     43  C   UNL A   1      35.744  33.828  33.147  1.00  0.00     0.060 A 
ATOM     44  C   UNL A   1      36.424  34.809  32.443  1.00  0.00     0.016 A 
ATOM     45  C   UNL A   1      36.489  32.970  33.944  1.00  0.00     0.016 A 
ATOM     46  C   UNL A   1      37.837  34.768  32.411  1.00  0.00     0.010 A 
ATOM     47  C   UNL A   1      37.845  32.796  33.671  1.00  0.00     0.010 A 
ATOM     48  C   UNL A   1      38.563  33.620  32.823  1.00  0.00    -0.014 A 
BRANCH  48  49
ATOM     49  C   UNL A   1      40.119  33.330  32.631  1.00  0.00     0.031 A 
ATOM     50  C   UNL A   1      39.821  31.962  31.537  1.00  0.00     0.074 A 
ATOM     51  C   UNL A   1      41.427  33.839  33.403  1.00  0.00     0.049 A 
ATOM     52  N   UNL A   1      40.172  30.701  31.709  1.00  0.00    -0.248 NA
ATOM     53  C   UNL A   1      38.954  32.011  30.341  1.00  0.00     0.031 C 
ATOM     54  C   UNL A   1      43.031  33.405  33.451  1.00  0.00     0.029 A 
ATOM     55  N   UNL A   1      41.695  34.668  34.591  1.00  0.00    -0.354 N 
ATOM     56  C   UNL A   1      40.198  30.079  30.492  1.00  0.00     0.074 A 
ATOM     57  C   UNL A   1      39.139  30.789  29.810  1.00  0.00     0.031 C 
ATOM     58  C   UNL A   1      43.758  33.784  34.492  1.00  0.00     0.029 A 
ATOM     59  C   UNL A   1      42.792  34.149  35.429  1.00  0.00     0.049 A 
ATOM     60  H   UNL A   1      41.192  35.487  34.804  1.00  0.00     0.167 HD
ATOM     61  C   UNL A   1      41.287  29.324  30.084  1.00  0.00     0.037 A 
ATOM     62  C   UNL A   1      42.775  33.417  36.601  1.00  0.00     0.037 A 
ATOM     63  C   UNL A   1      42.430  29.271  31.085  1.00  0.00     0.049 A 
ATOM     64  C   UNL A   1      43.270  31.896  36.504  1.00  0.00     0.074 A 
ATOM     65  C   UNL A   1      43.741  29.756  31.035  1.00  0.00     0.029 A 
ATOM     66  N   UNL A   1      42.270  28.894  32.431  1.00  0.00    -0.354 N 
ATOM     67  N   UNL A   1      43.583  31.242  35.395  1.00  0.00    -0.248 NA
ATOM     68  C   UNL A   1      43.351  30.987  37.654  1.00  0.00     0.031 C 
ATOM     69  C   UNL A   1      44.319  29.755  32.339  1.00  0.00     0.029 A 
ATOM     70  C   UNL A   1      43.397  29.230  33.223  1.00  0.00     0.049 A 
ATOM     71  H   UNL A   1      41.467  28.448  32.783  1.00  0.00     0.167 HD
ATOM     72  C   UNL A   1      43.619  29.863  35.625  1.00  0.00     0.074 A 
ATOM     73  C   UNL A   1      43.639  29.801  37.081  1.00  0.00     0.031 C 
ATOM     74  C   UNL A   1      43.492  28.866  34.657  1.00  0.00     0.037 A 
BRANCH  61  75
ATOM     75  C   UNL A   1      41.511  28.996  28.578  1.00  0.00     0.064 A 
ATOM     76  C   UNL A   1      40.808  27.966  27.906  1.00  0.00     0.173 A 
ATOM     77  C   UNL A   1      42.447  29.651  27.745  1.00  0.00     0.173 A 
ATOM     78  F   UNL A   1      39.738  27.373  28.447  1.00  0.00    -0.203 F 
ATOM     79  C   UNL A   1      41.134  27.529  26.609  1.00  0.00     0.198 A 
ATOM     80  C   UNL A   1      42.806  29.192  26.468  1.00  0.00     0.198 A 
ATOM     81  F   UNL A   1      42.979  30.827  28.085  1.00  0.00    -0.203 F 
ATOM     82  F   UNL A   1      40.432  26.537  26.042  1.00  0.00    -0.200 F 
ATOM     83  C   UNL A   1      42.161  28.117  25.905  1.00  0.00     0.200 A 
ATOM     84  F   UNL A   1      43.769  29.826  25.781  1.00  0.00    -0.200 F 
ATOM     85  F   UNL A   1      42.484  27.694  24.673  1.00  0.00    -0.200 F 
ENDBRANCH  61  75
BRANCH  62  86
ATOM     86  C   UNL A   1      42.003  34.055  37.715  1.00  0.00     0.064 A 
ATOM     87  C   UNL A   1      42.685  35.018  38.494  1.00  0.00     0.173 A 
ATOM     88  C   UNL A   1      40.619  33.965  37.917  1.00  0.00     0.173 A 
ATOM     89  F   UNL A   1      44.022  35.121  38.407  1.00  0.00    -0.203 F 
ATOM     90  C   UNL A   1      42.014  35.933  39.304  1.00  0.00     0.198 A 
ATOM     91  C   UNL A   1      39.940  34.905  38.708  1.00  0.00     0.198 A 
ATOM     92  F   UNL A   1      39.892  33.028  37.289  1.00  0.00    -0.203 F 
ATOM     93  F   UNL A   1      42.704  36.901  39.927  1.00  0.00    -0.200 F 
ATOM     94  C   UNL A   1      40.636  35.895  39.388  1.00  0.00     0.200 A 
ATOM     95  F   UNL A   1      38.600  34.886  38.768  1.00  0.00    -0.200 F 
ATOM     96  F   UNL A   1      39.977  36.834  40.085  1.00  0.00    -0.200 F 
ENDBRANCH  62  86
BRANCH  74  97
ATOM     97  C   UNL A   1      43.477  27.357  34.927  1.00  0.00     0.064 A 
ATOM     98  C   UNL A   1      44.484  26.456  34.551  1.00  0.00     0.173 A 
ATOM     99  C   UNL A   1      42.432  26.785  35.709  1.00  0.00     0.173 A 
ATOM    100  F   UNL A   1      45.608  26.879  33.957  1.00  0.00    -0.203 F 
ATOM    101  C   UNL A   1      44.401  25.085  34.834  1.00  0.00     0.198 A 
ATOM    102  C   UNL A   1      42.395  25.436  36.060  1.00  0.00     0.198 A 
ATOM    103  F   UNL A   1      41.415  27.526  36.171  1.00  0.00    -0.203 F 
ATOM    104  F   UNL A   1      45.353  24.256  34.382  1.00  0.00    -0.200 F 
ATOM    105  C   UNL A   1      43.364  24.576  35.595  1.00  0.00     0.200 A 
ATOM    106  F   UNL A   1      41.419  24.979  36.860  1.00  0.00    -0.200 F 
ATOM    107  F   UNL A   1      43.310  23.272  35.894  1.00  0.00    -0.200 F 
ENDBRANCH  74  97
ENDBRANCH  48  49
ENDBRANCH  41  43
ENDBRANCH  40  41
ENDBRANCH  39  40
ENDBRANCH  38  39
ENDBRANCH  37  38
ENDBRANCH  36  37
ENDBRANCH  35  36
ENDBRANCH  34  35
ENDBRANCH   1  34
TORSDOF 26
ENDMDL
MODEL 2
REMARK VINA RESULT:      -9.6      4.233     11.321
REMARK SMILES CCN(c1cccc(C)c1)c1nc(OCC(=O)OCCOCCOCCOCCOC(=O)c2ccc(-c3c4nc(c(-c5c(F)c(F)c(F)c(F)c5F)c5ccc([nH]5)c(-c5c(F)c(F)c(F)c(F)c5F)c5nc(c(-c6c(F)c(F)c(F)c(F)c6F)c6ccc3[nH]6)C=C5)C=C4)cc2)cc(-c2ccc(C)cc2)n1
REMARK SMILES IDX 23 1 22 2 21 3 20 4 19 5 18 6 16 7 17 8 15 9 14 10 13 11
REMARK SMILES IDX 11 12 12 13 105 14 97 15 96 16 3 17 2 18 1 19 4 20 5 21
REMARK SMILES IDX 10 22 6 23 8 24 7 25 9 26 98 27 99 28 104 29 100 30 103 31
REMARK SMILES IDX 101 32 102 33 24 34 25 35 26 36 27 37 28 38 29 39 30 40
REMARK SMILES IDX 31 41 32 42 33 43 34 44 95 45 35 46 94 47 36 48 37 49 38 50
REMARK SMILES IDX 88 51 39 52 93 53 87 54 89 55 40 56 92 57 86 58 85 59 41 61
REMARK SMILES IDX 73 62 53 63 72 64 54 65 57 66 71 67 90 68 55 69 56 70 70 72
REMARK SMILES IDX 91 73 58 74 42 75 43 76 51 77 44 78 45 79 49 80 52 81 46 82
REMARK SMILES IDX 47 83 50 84 48 85 74 86 75 87 83 88 76 89 77 90 81 91 84 92
REMARK SMILES IDX 78 93 79 94 82 95 80 96 59 97 60 98 68 99 61 100 62 101
REMARK SMILES IDX 66 102 69 103 63 104 64 105 67 106 65 107
REMARK H PARENT 89 60 57 71
REMARK Flexibility Score: inf
ROOT
ATOM      1  C   UNL A   1      41.308  29.189  35.854  1.00  0.00     0.188 C 
ENDROOT
BRANCH   1   2
ATOM      2  C   UNL A   1      41.492  30.533  35.102  1.00  0.00     0.188 C 
BRANCH   2   3
ATOM      3  O   UNL A   1      40.316  31.235  34.618  1.00  0.00    -0.376 OA
BRANCH   3   4
ATOM      4  C   UNL A   1      38.918  30.795  34.412  1.00  0.00     0.202 C 
BRANCH   4   5
ATOM      5  C   UNL A   1      37.382  31.302  33.684  1.00  0.00     0.261 C 
BRANCH   5   6
ATOM      6  O   UNL A   1      36.628  32.661  32.773  1.00  0.00    -0.461 OA
BRANCH   6   7
ATOM      7  C   UNL A   1      35.494  33.276  32.018  1.00  0.00     0.344 C 
ATOM      8  O   UNL A   1      34.939  34.308  32.435  1.00  0.00    -0.248 OA
BRANCH   7   9
ATOM      9  C   UNL A   1      34.645  32.608  30.680  1.00  0.00     0.353 C 
BRANCH   9  10
ATOM     10  O   UNL A   1      34.663  32.687  29.233  1.00  0.00    -0.466 OA
BRANCH  10  11
ATOM     11  C   UNL A   1      35.033  31.634  28.423  1.00  0.00     0.219 A 
ATOM     12  C   UNL A   1      34.360  29.852  27.055  1.00  0.00     0.233 A 
ATOM     13  N   UNL A   1      34.051  31.003  27.722  1.00  0.00    -0.177 NA
ATOM     14  N   UNL A   1      35.567  29.260  27.219  1.00  0.00    -0.212 NA
ATOM     15  C   UNL A   1      36.526  29.955  27.878  1.00  0.00     0.080 A 
ATOM     16  C   UNL A   1      36.315  31.214  28.381  1.00  0.00     0.097 A 
BRANCH  12  17
ATOM     17  N   UNL A   1      33.390  29.237  26.216  1.00  0.00    -0.311 N 
BRANCH  17  18
ATOM     18  C   UNL A   1      32.434  30.124  25.525  1.00  0.00     0.122 C 
ATOM     19  C   UNL A   1      31.424  30.823  26.425  1.00  0.00     0.028 C 
ENDBRANCH  17  18
BRANCH  17  20
ATOM     20  C   UNL A   1      33.043  27.860  26.167  1.00  0.00     0.044 A 
ATOM     21  C   UNL A   1      34.011  26.852  25.983  1.00  0.00     0.026 A 
ATOM     22  C   UNL A   1      31.700  27.451  26.211  1.00  0.00     0.029 A 
ATOM     23  C   UNL A   1      33.658  25.509  25.798  1.00  0.00     0.002 A 
ATOM     24  C   UNL A   1      31.330  26.102  26.025  1.00  0.00    -0.049 A 
ATOM     25  C   UNL A   1      32.318  25.138  25.807  1.00  0.00     0.003 A 
ATOM     26  C   UNL A   1      29.880  25.714  26.025  1.00  0.00     0.044 C 
ENDBRANCH  17  20
ENDBRANCH  12  17
BRANCH  15  27
ATOM     27  C   UNL A   1      37.761  29.271  28.311  1.00  0.00     0.000 A 
ATOM     28  C   UNL A   1      38.906  29.387  27.488  1.00  0.00     0.010 A 
ATOM     29  C   UNL A   1      37.898  28.527  29.481  1.00  0.00     0.010 A 
ATOM     30  C   UNL A   1      40.159  28.937  27.870  1.00  0.00     0.004 A 
ATOM     31  C   UNL A   1      39.152  27.994  29.836  1.00  0.00     0.004 A 
ATOM     32  C   UNL A   1      40.296  28.250  29.063  1.00  0.00    -0.051 A 
ATOM     33  C   UNL A   1      41.660  27.764  29.440  1.00  0.00     0.044 C 
ENDBRANCH  15  27
ENDBRANCH  10  11
ENDBRANCH   9  10
ENDBRANCH   7   9
ENDBRANCH   6   7
ENDBRANCH   5   6
ENDBRANCH   4   5
ENDBRANCH   3   4
ENDBRANCH   2   3
ENDBRANCH   1   2
BRANCH   1  34
ATOM     34  O   UNL A   1      41.130  28.048  35.036  1.00  0.00    -0.377 OA
BRANCH  34  35
ATOM     35  C   UNL A   1      41.464  26.805  35.650  1.00  0.00     0.188 C 
BRANCH  35  36
ATOM     36  C   UNL A   1      42.148  26.942  37.017  1.00  0.00     0.188 C 
BRANCH  36  37
ATOM     37  O   UNL A   1      42.692  25.696  37.466  1.00  0.00    -0.376 OA
BRANCH  37  38
ATOM     38  C   UNL A   1      43.832  25.252  36.723  1.00  0.00     0.202 C 
BRANCH  38  39
ATOM     39  C   UNL A   1      43.593  23.945  35.949  1.00  0.00     0.261 C 
BRANCH  39  40
ATOM     40  O   UNL A   1      44.679  23.004  36.079  1.00  0.00    -0.460 OA
BRANCH  40  41
ATOM     41  C   UNL A   1      44.994  22.304  34.952  1.00  0.00     0.338 C 
ATOM     42  O   UNL A   1      44.816  21.114  34.794  1.00  0.00    -0.246 OA
BRANCH  41  43
ATOM     43  C   UNL A   1      45.788  23.191  34.043  1.00  0.00     0.060 A 
ATOM     44  C   UNL A   1      47.092  23.548  34.348  1.00  0.00     0.016 A 
ATOM     45  C   UNL A   1      45.128  23.922  33.066  1.00  0.00     0.016 A 
ATOM     46  C   UNL A   1      47.614  24.744  33.804  1.00  0.00     0.010 A 
ATOM     47  C   UNL A   1      45.566  25.213  32.773  1.00  0.00     0.010 A 
ATOM     48  C   UNL A   1      46.778  25.722  33.203  1.00  0.00    -0.014 A 
BRANCH  48  49
ATOM     49  C   UNL A   1      47.172  27.203  32.762  1.00  0.00     0.031 A 
ATOM     50  C   UNL A   1      46.272  27.939  34.106  1.00  0.00     0.074 A 
ATOM     51  C   UNL A   1      47.820  27.808  31.428  1.00  0.00     0.049 A 
ATOM     52  N   UNL A   1      45.258  28.780  34.032  1.00  0.00    -0.248 NA
ATOM     53  C   UNL A   1      46.418  27.557  35.527  1.00  0.00     0.031 C 
ATOM     54  C   UNL A   1      48.022  29.325  30.780  1.00  0.00     0.029 A 
ATOM     55  N   UNL A   1      48.211  27.277  30.110  1.00  0.00    -0.354 N 
ATOM     56  C   UNL A   1      45.164  29.463  35.213  1.00  0.00     0.074 A 
ATOM     57  C   UNL A   1      45.623  28.455  36.140  1.00  0.00     0.031 C 
ATOM     58  C   UNL A   1      48.248  29.432  29.479  1.00  0.00     0.029 A 
ATOM     59  C   UNL A   1      47.874  28.179  28.993  1.00  0.00     0.049 A 
ATOM     60  H   UNL A   1      48.654  26.406  29.988  1.00  0.00     0.167 HD
ATOM     61  C   UNL A   1      45.061  30.846  35.246  1.00  0.00     0.037 A 
ATOM     62  C   UNL A   1      46.825  28.165  28.095  1.00  0.00     0.037 A 
ATOM     63  C   UNL A   1      45.084  31.515  33.881  1.00  0.00     0.049 A 
ATOM     64  C   UNL A   1      45.735  29.330  28.245  1.00  0.00     0.074 A 
ATOM     65  C   UNL A   1      46.003  32.381  33.278  1.00  0.00     0.029 A 
ATOM     66  N   UNL A   1      44.226  31.160  32.825  1.00  0.00    -0.354 N 
ATOM     67  N   UNL A   1      45.680  30.233  29.213  1.00  0.00    -0.248 NA
ATOM     68  C   UNL A   1      44.577  29.486  27.356  1.00  0.00     0.031 C 
ATOM     69  C   UNL A   1      45.755  32.467  31.877  1.00  0.00     0.029 A 
ATOM     70  C   UNL A   1      44.650  31.692  31.582  1.00  0.00     0.049 A 
ATOM     71  H   UNL A   1      43.421  30.605  32.937  1.00  0.00     0.167 HD
ATOM     72  C   UNL A   1      44.427  30.854  29.244  1.00  0.00     0.074 A 
ATOM     73  C   UNL A   1      43.866  30.463  27.957  1.00  0.00     0.031 C 
ATOM     74  C   UNL A   1      43.865  31.515  30.336  1.00  0.00     0.037 A 
BRANCH  61  75
ATOM     75  C   UNL A   1      45.395  31.639  36.545  1.00  0.00     0.064 A 
ATOM     76  C   UNL A   1      44.494  31.739  37.633  1.00  0.00     0.173 A 
ATOM     77  C   UNL A   1      46.591  32.361  36.758  1.00  0.00     0.173 A 
ATOM     78  F   UNL A   1      43.407  30.964  37.723  1.00  0.00    -0.203 F 
ATOM     79  C   UNL A   1      44.695  32.605  38.724  1.00  0.00     0.198 A 
ATOM     80  C   UNL A   1      46.778  33.259  37.821  1.00  0.00     0.198 A 
ATOM     81  F   UNL A   1      47.676  32.151  36.008  1.00  0.00    -0.203 F 
ATOM     82  F   UNL A   1      43.790  32.656  39.712  1.00  0.00    -0.200 F 
ATOM     83  C   UNL A   1      45.820  33.395  38.797  1.00  0.00     0.200 A 
ATOM     84  F   UNL A   1      47.913  33.970  37.898  1.00  0.00    -0.200 F 
ATOM     85  F   UNL A   1      46.009  34.232  39.829  1.00  0.00    -0.200 F 
ENDBRANCH  61  75
BRANCH  62  86
ATOM     86  C   UNL A   1      46.694  26.888  27.322  1.00  0.00     0.064 A 
ATOM     87  C   UNL A   1      45.582  26.069  27.625  1.00  0.00     0.173 A 
ATOM     88  C   UNL A   1      47.427  26.537  26.179  1.00  0.00     0.173 A 
ATOM     89  F   UNL A   1      44.868  26.300  28.740  1.00  0.00    -0.203 F 
ATOM     90  C   UNL A   1      45.138  25.065  26.766  1.00  0.00     0.198 A 
ATOM     91  C   UNL A   1      46.964  25.546  25.298  1.00  0.00     0.198 A 
ATOM     92  F   UNL A   1      48.547  27.198  25.851  1.00  0.00    -0.203 F 
ATOM     93  F   UNL A   1      44.008  24.400  27.046  1.00  0.00    -0.200 F 
ATOM     94  C   UNL A   1      45.814  24.823  25.585  1.00  0.00     0.200 A 
ATOM     95  F   UNL A   1      47.603  25.331  24.139  1.00  0.00    -0.200 F 
ATOM     96  F   UNL A   1      45.336  23.929  24.706  1.00  0.00    -0.200 F 
ENDBRANCH  62  86
BRANCH  74  97
ATOM     97  C   UNL A   1      42.468  32.144  30.377  1.00  0.00     0.064 A 
ATOM     98  C   UNL A   1      42.140  33.423  29.905  1.00  0.00     0.173 A 
ATOM     99  C   UNL A   1      41.356  31.374  30.824  1.00  0.00     0.173 A 
ATOM    100  F   UNL A   1      43.053  34.196  29.302  1.00  0.00    -0.203 F 
ATOM    101  C   UNL A   1      40.835  33.932  29.975  1.00  0.00     0.198 A 
ATOM    102  C   UNL A   1      40.045  31.852  30.815  1.00  0.00     0.198 A 
ATOM    103  F   UNL A   1      41.505  30.120  31.274  1.00  0.00    -0.203 F 
ATOM    104  F   UNL A   1      40.592  35.190  29.582  1.00  0.00    -0.200 F 
ATOM    105  C   UNL A   1      39.788  33.146  30.420  1.00  0.00     0.200 A 
ATOM    106  F   UNL A   1      39.036  31.048  31.183  1.00  0.00    -0.200 F 
ATOM    107  F   UNL A   1      38.537  33.625  30.450  1.00  0.00    -0.200 F 
ENDBRANCH  74  97
ENDBRANCH  48  49
ENDBRANCH  41  43
ENDBRANCH  40  41
ENDBRANCH  39  40
ENDBRANCH  38  39
ENDBRANCH  37  38
ENDBRANCH  36  37
ENDBRANCH  35  36
ENDBRANCH  34  35
ENDBRANCH   1  34
TORSDOF 26
ENDMDL
MODEL 3
REMARK VINA RESULT:      -9.6     10.089     15.134
REMARK SMILES CCN(c1cccc(C)c1)c1nc(OCC(=O)OCCOCCOCCOCCOC(=O)c2ccc(-c3c4nc(c(-c5c(F)c(F)c(F)c(F)c5F)c5ccc([nH]5)c(-c5c(F)c(F)c(F)c(F)c5F)c5nc(c(-c6c(F)c(F)c(F)c(F)c6F)c6ccc3[nH]6)C=C5)C=C4)cc2)cc(-c2ccc(C)cc2)n1
REMARK SMILES IDX 23 1 22 2 21 3 20 4 19 5 18 6 16 7 17 8 15 9 14 10 13 11
REMARK SMILES IDX 11 12 12 13 105 14 97 15 96 16 3 17 2 18 1 19 4 20 5 21
REMARK SMILES IDX 10 22 6 23 8 24 7 25 9 26 98 27 99 28 104 29 100 30 103 31
REMARK SMILES IDX 101 32 102 33 24 34 25 35 26 36 27 37 28 38 29 39 30 40
REMARK SMILES IDX 31 41 32 42 33 43 34 44 95 45 35 46 94 47 36 48 37 49 38 50
REMARK SMILES IDX 88 51 39 52 93 53 87 54 89 55 40 56 92 57 86 58 85 59 41 61
REMARK SMILES IDX 73 62 53 63 72 64 54 65 57 66 71 67 90 68 55 69 56 70 70 72
REMARK SMILES IDX 91 73 58 74 42 75 43 76 51 77 44 78 45 79 49 80 52 81 46 82
REMARK SMILES IDX 47 83 50 84 48 85 74 86 75 87 83 88 76 89 77 90 81 91 84 92
REMARK SMILES IDX 78 93 79 94 82 95 80 96 59 97 60 98 68 99 61 100 62 101
REMARK SMILES IDX 66 102 69 103 63 104 64 105 67 106 65 107
REMARK H PARENT 89 60 57 71
REMARK Flexibility Score: inf
ROOT
ATOM      1  C   UNL A   1      47.640  38.749  26.077  1.00  0.00     0.188 C 
ENDROOT
BRANCH   1   2
ATOM      2  C   UNL A   1      46.456  39.499  25.412  1.00  0.00     0.188 C 
BRANCH   2   3
ATOM      3  O   UNL A   1      45.427  40.077  26.258  1.00  0.00    -0.376 OA
BRANCH   3   4
ATOM      4  C   UNL A   1      43.951  40.108  26.140  1.00  0.00     0.202 C 
BRANCH   4   5
ATOM      5  C   UNL A   1      42.592  41.204  25.834  1.00  0.00     0.261 C 
BRANCH   5   6
ATOM      6  O   UNL A   1      41.854  42.216  24.539  1.00  0.00    -0.461 OA
BRANCH   6   7
ATOM      7  C   UNL A   1      41.771  42.700  23.126  1.00  0.00     0.344 C 
ATOM      8  O   UNL A   1      40.704  42.624  22.491  1.00  0.00    -0.248 OA
BRANCH   7   9
ATOM      9  C   UNL A   1      43.070  43.183  22.109  1.00  0.00     0.353 C 
BRANCH   9  10
ATOM     10  O   UNL A   1      44.226  42.590  21.468  1.00  0.00    -0.466 OA
BRANCH  10  11
ATOM     11  C   UNL A   1      44.934  43.211  20.460  1.00  0.00     0.219 A 
ATOM     12  C   UNL A   1      46.982  44.082  19.719  1.00  0.00     0.233 A 
ATOM     13  N   UNL A   1      46.283  43.319  20.611  1.00  0.00    -0.177 NA
ATOM     14  N   UNL A   1      46.336  44.846  18.808  1.00  0.00    -0.212 NA
ATOM     15  C   UNL A   1      45.002  44.660  18.660  1.00  0.00     0.080 A 
ATOM     16  C   UNL A   1      44.296  43.742  19.397  1.00  0.00     0.097 A 
BRANCH  12  17
ATOM     17  N   UNL A   1      48.402  44.115  19.777  1.00  0.00    -0.311 N 
BRANCH  17  18
ATOM     18  C   UNL A   1      49.057  43.307  20.825  1.00  0.00     0.122 C 
ATOM     19  C   UNL A   1      49.574  44.089  22.025  1.00  0.00     0.028 C 
ENDBRANCH  17  18
BRANCH  17  20
ATOM     20  C   UNL A   1      49.268  45.041  19.134  1.00  0.00     0.044 A 
ATOM     21  C   UNL A   1      50.147  44.648  18.103  1.00  0.00     0.026 A 
ATOM     22  C   UNL A   1      49.349  46.375  19.563  1.00  0.00     0.029 A 
ATOM     23  C   UNL A   1      51.096  45.526  17.563  1.00  0.00     0.002 A 
ATOM     24  C   UNL A   1      50.300  47.270  19.029  1.00  0.00    -0.049 A 
ATOM     25  C   UNL A   1      51.180  46.831  18.034  1.00  0.00     0.003 A 
ATOM     26  C   UNL A   1      50.391  48.673  19.554  1.00  0.00     0.044 C 
ENDBRANCH  17  20
ENDBRANCH  12  17
BRANCH  15  27
ATOM     27  C   UNL A   1      44.207  45.630  17.879  1.00  0.00     0.000 A 
ATOM     28  C   UNL A   1      42.845  45.328  17.638  1.00  0.00     0.010 A 
ATOM     29  C   UNL A   1      44.686  46.834  17.369  1.00  0.00     0.010 A 
ATOM     30  C   UNL A   1      41.962  46.231  17.071  1.00  0.00     0.004 A 
ATOM     31  C   UNL A   1      43.811  47.722  16.716  1.00  0.00     0.004 A 
ATOM     32  C   UNL A   1      42.436  47.450  16.620  1.00  0.00    -0.051 A 
ATOM     33  C   UNL A   1      41.459  48.397  15.998  1.00  0.00     0.044 C 
ENDBRANCH  15  27
ENDBRANCH  10  11
ENDBRANCH   9  10
ENDBRANCH   7   9
ENDBRANCH   6   7
ENDBRANCH   5   6
ENDBRANCH   4   5
ENDBRANCH   3   4
ENDBRANCH   2   3
ENDBRANCH   1   2
BRANCH   1  34
ATOM     34  O   UNL A   1      47.493  37.346  26.190  1.00  0.00    -0.377 OA
BRANCH  34  35
ATOM     35  C   UNL A   1      46.170  36.896  26.470  1.00  0.00     0.188 C 
BRANCH  35  36
ATOM     36  C   UNL A   1      46.103  35.518  27.143  1.00  0.00     0.188 C 
BRANCH  36  37
ATOM     37  O   UNL A   1      47.396  34.911  27.240  1.00  0.00    -0.376 OA
BRANCH  37  38
ATOM     38  C   UNL A   1      47.757  34.508  28.565  1.00  0.00     0.202 C 
BRANCH  38  39
ATOM     39  C   UNL A   1      48.052  35.686  29.509  1.00  0.00     0.261 C 
BRANCH  39  40
ATOM     40  O   UNL A   1      47.455  35.530  30.813  1.00  0.00    -0.460 OA
BRANCH  40  41
ATOM     41  C   UNL A   1      46.303  36.228  31.025  1.00  0.00     0.338 C 
ATOM     42  O   UNL A   1      46.096  37.366  30.657  1.00  0.00    -0.246 OA
BRANCH  41  43
ATOM     43  C   UNL A   1      45.437  35.449  31.966  1.00  0.00     0.060 A 
ATOM     44  C   UNL A   1      45.968  34.462  32.780  1.00  0.00     0.016 A 
ATOM     45  C   UNL A   1      44.060  35.478  31.800  1.00  0.00     0.016 A 
ATOM     46  C   UNL A   1      45.120  33.426  33.235  1.00  0.00     0.010 A 
ATOM     47  C   UNL A   1      43.323  34.318  32.030  1.00  0.00     0.010 A 
ATOM     48  C   UNL A   1      43.838  33.203  32.667  1.00  0.00    -0.014 A 
BRANCH  48  49
ATOM     49  C   UNL A   1      42.872  31.956  32.900  1.00  0.00     0.031 A 
ATOM     50  C   UNL A   1      42.975  31.445  31.201  1.00  0.00     0.074 A 
ATOM     51  C   UNL A   1      41.903  31.535  34.104  1.00  0.00     0.049 A 
ATOM     52  N   UNL A   1      41.989  31.341  30.330  1.00  0.00    -0.248 NA
ATOM     53  C   UNL A   1      44.236  31.240  30.457  1.00  0.00     0.031 C 
ATOM     54  C   UNL A   1      40.688  30.424  34.327  1.00  0.00     0.029 A 
ATOM     55  N   UNL A   1      41.474  32.146  35.374  1.00  0.00    -0.354 N 
ATOM     56  C   UNL A   1      42.373  30.494  29.328  1.00  0.00     0.074 A 
ATOM     57  C   UNL A   1      43.791  30.767  29.278  1.00  0.00     0.031 C 
ATOM     58  C   UNL A   1      39.833  30.612  35.322  1.00  0.00     0.029 A 
ATOM     59  C   UNL A   1      40.040  31.950  35.661  1.00  0.00     0.049 A 
ATOM     60  H   UNL A   1      42.082  32.637  35.972  1.00  0.00     0.167 HD
ATOM     61  C   UNL A   1      41.565  29.444  28.915  1.00  0.00     0.037 A 
ATOM     62  C   UNL A   1      38.956  32.790  35.504  1.00  0.00     0.037 A 
ATOM     63  C   UNL A   1      40.256  29.315  29.677  1.00  0.00     0.049 A 
ATOM     64  C   UNL A   1      37.906  32.403  34.357  1.00  0.00     0.074 A 
ATOM     65  C   UNL A   1      39.766  28.324  30.533  1.00  0.00     0.029 A 
ATOM     66  N   UNL A   1      39.342  30.372  29.838  1.00  0.00    -0.354 N 
ATOM     67  N   UNL A   1      38.036  31.425  33.473  1.00  0.00    -0.248 NA
ATOM     68  C   UNL A   1      36.682  33.163  34.077  1.00  0.00     0.031 C 
ATOM     69  C   UNL A   1      38.639  28.811  31.259  1.00  0.00     0.029 A 
ATOM     70  C   UNL A   1      38.376  30.102  30.839  1.00  0.00     0.049 A 
ATOM     71  H   UNL A   1      39.371  31.206  29.316  1.00  0.00     0.167 HD
ATOM     72  C   UNL A   1      37.140  31.590  32.412  1.00  0.00     0.074 A 
ATOM     73  C   UNL A   1      36.221  32.587  32.948  1.00  0.00     0.031 C 
ATOM     74  C   UNL A   1      37.263  31.036  31.138  1.00  0.00     0.037 A 
BRANCH  61  75
ATOM     75  C   UNL A   1      42.161  28.247  28.116  1.00  0.00     0.064 A 
ATOM     76  C   UNL A   1      42.304  28.261  26.707  1.00  0.00     0.173 A 
ATOM     77  C   UNL A   1      42.580  27.027  28.694  1.00  0.00     0.173 A 
ATOM     78  F   UNL A   1      42.168  29.386  25.996  1.00  0.00    -0.203 F 
ATOM     79  C   UNL A   1      42.654  27.125  25.955  1.00  0.00     0.198 A 
ATOM     80  C   UNL A   1      42.888  25.878  27.948  1.00  0.00     0.198 A 
ATOM     81  F   UNL A   1      42.815  26.920  30.004  1.00  0.00    -0.203 F 
ATOM     82  F   UNL A   1      42.756  27.213  24.621  1.00  0.00    -0.200 F 
ATOM     83  C   UNL A   1      42.908  25.922  26.574  1.00  0.00     0.200 A 
ATOM     84  F   UNL A   1      43.192  24.736  28.582  1.00  0.00    -0.200 F 
ATOM     85  F   UNL A   1      43.229  24.833  25.860  1.00  0.00    -0.200 F 
ENDBRANCH  61  75
BRANCH  62  86
ATOM     86  C   UNL A   1      39.087  34.104  36.213  1.00  0.00     0.064 A 
ATOM     87  C   UNL A   1      38.583  34.170  37.532  1.00  0.00     0.173 A 
ATOM     88  C   UNL A   1      39.858  35.196  35.791  1.00  0.00     0.173 A 
ATOM     89  F   UNL A   1      37.781  33.193  37.990  1.00  0.00    -0.203 F 
ATOM     90  C   UNL A   1      38.950  35.179  38.421  1.00  0.00     0.198 A 
ATOM     91  C   UNL A   1      40.252  36.197  36.693  1.00  0.00     0.198 A 
ATOM     92  F   UNL A   1      40.313  35.270  34.531  1.00  0.00    -0.203 F 
ATOM     93  F   UNL A   1      38.537  35.126  39.697  1.00  0.00    -0.200 F 
ATOM     94  C   UNL A   1      39.809  36.180  38.009  1.00  0.00     0.200 A 
ATOM     95  F   UNL A   1      41.109  37.151  36.302  1.00  0.00    -0.200 F 
ATOM     96  F   UNL A   1      40.246  37.097  38.886  1.00  0.00    -0.200 F 
ENDBRANCH  62  86
BRANCH  74  97
ATOM     97  C   UNL A   1      36.304  31.269  29.966  1.00  0.00     0.064 A 
ATOM     98  C   UNL A   1      36.080  32.499  29.332  1.00  0.00     0.173 A 
ATOM     99  C   UNL A   1      35.636  30.162  29.365  1.00  0.00     0.173 A 
ATOM    100  F   UNL A   1      36.768  33.595  29.682  1.00  0.00    -0.203 F 
ATOM    101  C   UNL A   1      35.185  32.635  28.261  1.00  0.00     0.198 A 
ATOM    102  C   UNL A   1      34.810  30.287  28.247  1.00  0.00     0.198 A 
ATOM    103  F   UNL A   1      35.776  28.916  29.837  1.00  0.00    -0.203 F 
ATOM    104  F   UNL A   1      34.950  33.849  27.744  1.00  0.00    -0.200 F 
ATOM    105  C   UNL A   1      34.558  31.531  27.713  1.00  0.00     0.200 A 
ATOM    106  F   UNL A   1      34.270  29.194  27.688  1.00  0.00    -0.200 F 
ATOM    107  F   UNL A   1      33.733  31.662  26.667  1.00  0.00    -0.200 F 
ENDBRANCH  74  97
ENDBRANCH  48  49
ENDBRANCH  41  43
ENDBRANCH  40  41
ENDBRANCH  39  40
ENDBRANCH  38  39
ENDBRANCH  37  38
ENDBRANCH  36  37
ENDBRANCH  35  36
ENDBRANCH  34  35
ENDBRANCH   1  34
TORSDOF 26
ENDMDL
