MODEL 1
REMARK VINA RESULT:      -8.4      0.000      0.000
REMARK SMILES C[NH+](C)CC[NH2+][C@@H](C(=O)OCCOCCOCCOCCOC(=O)c1ccc(-c2c3nc(c(-c4c(F)c(F)c(F)c(F)c4F)c4ccc([nH]4)c(-c4c(F)c(F)c(F)c(F)c4F)c4nc(c(-c5c(F)c(F)c(F)c(F)c5F)c5ccc2[nH]5)C=C4)C=C3)cc1)c1cccc(C2CC2)c1
REMARK SMILES IDX 15 1 14 2 13 3 12 4 11 5 10 6 8 7 9 8 7 9 6 10 5 13 4 14
REMARK SMILES IDX 2 15 1 16 3 17 88 19 89 20 96 21 90 22 92 23 91 24 93 25
REMARK SMILES IDX 94 26 95 27 16 28 17 29 18 30 19 31 20 32 21 33 22 34 23 35
REMARK SMILES IDX 24 36 25 37 26 38 87 39 27 40 86 41 28 42 29 43 30 44 80 45
REMARK SMILES IDX 31 46 85 47 79 48 81 49 32 50 84 51 78 52 77 53 33 55 65 56
REMARK SMILES IDX 45 57 64 58 46 59 49 60 63 61 82 62 47 63 48 64 62 66 83 67
REMARK SMILES IDX 50 68 34 69 35 70 43 71 36 72 37 73 41 74 44 75 38 76 39 77
REMARK SMILES IDX 42 78 40 79 66 80 67 81 75 82 68 83 69 84 73 85 76 86 70 87
REMARK SMILES IDX 71 88 74 89 72 90 51 91 52 92 60 93 53 94 54 95 58 96 61 97
REMARK SMILES IDX 55 98 56 99 59 100 57 101
REMARK H PARENT 6 11 6 12 2 18 81 54 49 65
REMARK Flexibility Score: inf
ROOT
ATOM      1  C   UNL A   1      40.125  25.066  26.907  1.00  0.00     0.188 C 
ENDROOT
BRANCH   1   2
ATOM      2  C   UNL A   1      39.088  23.932  27.013  1.00  0.00     0.188 C 
BRANCH   2   3
ATOM      3  O   UNL A   1      39.491  22.579  26.854  1.00  0.00    -0.376 OA
BRANCH   3   4
ATOM      4  C   UNL A   1      38.942  21.793  25.807  1.00  0.00     0.202 C 
BRANCH   4   5
ATOM      5  C   UNL A   1      37.497  22.013  25.311  1.00  0.00     0.261 C 
BRANCH   5   6
ATOM      6  O   UNL A   1      37.258  23.157  24.461  1.00  0.00    -0.459 OA
BRANCH   6   7
ATOM      7  C   UNL A   1      36.222  23.065  23.592  1.00  0.00     0.369 C 
ATOM      8  O   UNL A   1      36.394  22.953  22.376  1.00  0.00    -0.245 OA
BRANCH   7   9
ATOM      9  C   UNL A   1      34.786  23.086  24.205  1.00  0.00     0.324 C 
BRANCH   9  10
ATOM     10  N   UNL A   1      33.721  22.153  23.773  1.00  0.00    -0.326 N 
ATOM     11  H   UNL A   1      33.391  22.499  22.872  1.00  0.00     0.347 HD
ATOM     12  H   UNL A   1      34.199  21.254  23.822  1.00  0.00     0.347 HD
BRANCH  10  13
ATOM     13  C   UNL A   1      32.533  21.900  24.568  1.00  0.00     0.323 C 
BRANCH  13  14
ATOM     14  C   UNL A   1      32.570  20.454  25.177  1.00  0.00     0.323 C 
BRANCH  14  15
ATOM     15  N   UNL A   1      33.170  19.323  24.440  1.00  0.00    -0.335 N 
ATOM     16  C   UNL A   1      34.595  19.113  24.626  1.00  0.00     0.332 C 
ATOM     17  C   UNL A   1      32.403  18.093  24.540  1.00  0.00     0.332 C 
ATOM     18  H   UNL A   1      33.104  19.638  23.472  1.00  0.00     0.347 HD
ENDBRANCH  14  15
ENDBRANCH  13  14
ENDBRANCH  10  13
ENDBRANCH   9  10
BRANCH   9  19
ATOM     19  C   UNL A   1      34.243  24.533  24.157  1.00  0.00     0.021 A 
ATOM     20  C   UNL A   1      33.747  25.036  22.950  1.00  0.00     0.010 A 
ATOM     21  C   UNL A   1      34.148  25.364  25.302  1.00  0.00     0.014 A 
ATOM     22  C   UNL A   1      33.208  26.319  22.887  1.00  0.00     0.001 A 
ATOM     23  C   UNL A   1      33.603  26.662  25.277  1.00  0.00    -0.044 A 
ATOM     24  C   UNL A   1      33.148  27.118  24.032  1.00  0.00     0.004 A 
BRANCH  23  25
ATOM     25  C   UNL A   1      33.469  27.555  26.501  1.00  0.00     0.019 C 
ATOM     26  C   UNL A   1      33.389  29.063  26.443  1.00  0.00     0.009 C 
ATOM     27  C   UNL A   1      32.162  28.264  26.773  1.00  0.00     0.009 C 
ENDBRANCH  23  25
ENDBRANCH   9  19
ENDBRANCH   7   9
ENDBRANCH   6   7
ENDBRANCH   5   6
ENDBRANCH   4   5
ENDBRANCH   3   4
ENDBRANCH   2   3
ENDBRANCH   1   2
BRANCH   1  28
ATOM     28  O   UNL A   1      41.458  24.640  26.699  1.00  0.00    -0.377 OA
BRANCH  28  29
ATOM     29  C   UNL A   1      42.113  24.048  27.807  1.00  0.00     0.188 C 
BRANCH  29  30
ATOM     30  C   UNL A   1      42.978  22.808  27.532  1.00  0.00     0.188 C 
BRANCH  30  31
ATOM     31  O   UNL A   1      43.106  22.519  26.145  1.00  0.00    -0.376 OA
BRANCH  31  32
ATOM     32  C   UNL A   1      43.845  21.379  25.741  1.00  0.00     0.202 C 
BRANCH  32  33
ATOM     33  C   UNL A   1      45.360  21.525  25.516  1.00  0.00     0.261 C 
BRANCH  33  34
ATOM     34  O   UNL A   1      45.992  22.693  26.055  1.00  0.00    -0.460 OA
BRANCH  34  35
ATOM     35  C   UNL A   1      46.105  23.776  25.261  1.00  0.00     0.338 C 
ATOM     36  O   UNL A   1      46.416  23.792  24.082  1.00  0.00    -0.246 OA
BRANCH  35  37
ATOM     37  C   UNL A   1      45.592  24.945  26.011  1.00  0.00     0.060 A 
ATOM     38  C   UNL A   1      44.866  25.921  25.318  1.00  0.00     0.016 A 
ATOM     39  C   UNL A   1      45.816  25.079  27.385  1.00  0.00     0.016 A 
ATOM     40  C   UNL A   1      44.415  27.062  25.982  1.00  0.00     0.010 A 
ATOM     41  C   UNL A   1      45.378  26.232  28.047  1.00  0.00     0.010 A 
ATOM     42  C   UNL A   1      44.718  27.251  27.337  1.00  0.00    -0.014 A 
BRANCH  42  43
ATOM     43  C   UNL A   1      44.557  28.606  27.926  1.00  0.00     0.031 A 
ATOM     44  C   UNL A   1      45.697  29.581  27.787  1.00  0.00     0.074 A 
ATOM     45  C   UNL A   1      43.408  28.996  28.507  1.00  0.00     0.049 A 
ATOM     46  N   UNL A   1      45.790  30.823  28.189  1.00  0.00    -0.248 NA
ATOM     47  C   UNL A   1      46.897  29.085  27.093  1.00  0.00     0.031 C 
ATOM     48  C   UNL A   1      42.216  28.169  28.662  1.00  0.00     0.029 A 
ATOM     49  N   UNL A   1      43.061  30.200  29.070  1.00  0.00    -0.354 N 
ATOM     50  C   UNL A   1      47.054  31.251  27.802  1.00  0.00     0.074 A 
ATOM     51  C   UNL A   1      47.709  30.126  27.170  1.00  0.00     0.031 C 
ATOM     52  C   UNL A   1      41.263  28.891  29.279  1.00  0.00     0.029 A 
ATOM     53  C   UNL A   1      41.790  30.220  29.590  1.00  0.00     0.049 A 
ATOM     54  H   UNL A   1      43.666  30.976  29.099  1.00  0.00     0.167 HD
ATOM     55  C   UNL A   1      47.615  32.475  27.942  1.00  0.00     0.037 A 
ATOM     56  C   UNL A   1      41.137  31.196  30.252  1.00  0.00     0.037 A 
ATOM     57  C   UNL A   1      46.966  33.595  28.571  1.00  0.00     0.049 A 
ATOM     58  C   UNL A   1      41.818  32.525  30.476  1.00  0.00     0.074 A 
ATOM     59  C   UNL A   1      47.446  34.880  28.752  1.00  0.00     0.029 A 
ATOM     60  N   UNL A   1      45.699  33.559  29.134  1.00  0.00    -0.354 N 
ATOM     61  N   UNL A   1      43.000  32.931  30.080  1.00  0.00    -0.248 NA
ATOM     62  C   UNL A   1      41.066  33.534  31.236  1.00  0.00     0.031 C 
ATOM     63  C   UNL A   1      46.497  35.602  29.483  1.00  0.00     0.029 A 
ATOM     64  C   UNL A   1      45.395  34.790  29.692  1.00  0.00     0.049 A 
ATOM     65  H   UNL A   1      45.104  32.774  29.137  1.00  0.00     0.167 HD
ATOM     66  C   UNL A   1      43.117  34.249  30.506  1.00  0.00     0.074 A 
ATOM     67  C   UNL A   1      41.879  34.579  31.180  1.00  0.00     0.031 C 
ATOM     68  C   UNL A   1      44.153  35.111  30.352  1.00  0.00     0.037 A 
BRANCH  55  69
ATOM     69  C   UNL A   1      49.019  32.655  27.435  1.00  0.00     0.064 A 
ATOM     70  C   UNL A   1      50.126  32.117  28.110  1.00  0.00     0.173 A 
ATOM     71  C   UNL A   1      49.257  33.361  26.246  1.00  0.00     0.173 A 
ATOM     72  F   UNL A   1      49.957  31.447  29.260  1.00  0.00    -0.203 F 
ATOM     73  C   UNL A   1      51.420  32.308  27.630  1.00  0.00     0.198 A 
ATOM     74  C   UNL A   1      50.548  33.518  25.751  1.00  0.00     0.198 A 
ATOM     75  F   UNL A   1      48.235  33.894  25.560  1.00  0.00    -0.203 F 
ATOM     76  F   UNL A   1      52.466  31.836  28.323  1.00  0.00    -0.200 F 
ATOM     77  C   UNL A   1      51.629  33.002  26.448  1.00  0.00     0.200 A 
ATOM     78  F   UNL A   1      50.746  34.177  24.600  1.00  0.00    -0.200 F 
ATOM     79  F   UNL A   1      52.874  33.180  25.985  1.00  0.00    -0.200 F 
ENDBRANCH  55  69
BRANCH  56  80
ATOM     80  C   UNL A   1      39.758  30.961  30.763  1.00  0.00     0.064 A 
ATOM     81  C   UNL A   1      38.639  31.118  29.932  1.00  0.00     0.173 A 
ATOM     82  C   UNL A   1      39.529  30.613  32.103  1.00  0.00     0.173 A 
ATOM     83  F   UNL A   1      38.802  31.478  28.651  1.00  0.00    -0.203 F 
ATOM     84  C   UNL A   1      37.345  30.961  30.428  1.00  0.00     0.198 A 
ATOM     85  C   UNL A   1      38.237  30.423  32.588  1.00  0.00     0.198 A 
ATOM     86  F   UNL A   1      40.563  30.455  32.942  1.00  0.00    -0.203 F 
ATOM     87  F   UNL A   1      36.293  31.175  29.626  1.00  0.00    -0.200 F 
ATOM     88  C   UNL A   1      37.145  30.608  31.753  1.00  0.00     0.200 A 
ATOM     89  F   UNL A   1      38.050  30.070  33.868  1.00  0.00    -0.200 F 
ATOM     90  F   UNL A   1      35.902  30.456  32.229  1.00  0.00    -0.200 F 
ENDBRANCH  56  80
BRANCH  68  91
ATOM     91  C   UNL A   1      43.979  36.511  30.873  1.00  0.00     0.064 A 
ATOM     92  C   UNL A   1      44.169  36.831  32.226  1.00  0.00     0.173 A 
ATOM     93  C   UNL A   1      43.651  37.557  29.995  1.00  0.00     0.173 A 
ATOM     94  F   UNL A   1      44.474  35.870  33.111  1.00  0.00    -0.203 F 
ATOM     95  C   UNL A   1      44.001  38.136  32.684  1.00  0.00     0.198 A 
ATOM     96  C   UNL A   1      43.522  38.866  30.450  1.00  0.00     0.198 A 
ATOM     97  F   UNL A   1      43.469  37.312  28.689  1.00  0.00    -0.203 F 
ATOM     98  F   UNL A   1      44.128  38.406  33.991  1.00  0.00    -0.200 F 
ATOM     99  C   UNL A   1      43.685  39.153  31.797  1.00  0.00     0.200 A 
ATOM    100  F   UNL A   1      43.236  39.850  29.586  1.00  0.00    -0.200 F 
ATOM    101  F   UNL A   1      43.530  40.408  32.239  1.00  0.00    -0.200 F 
ENDBRANCH  68  91
ENDBRANCH  42  43
ENDBRANCH  35  37
ENDBRANCH  34  35
ENDBRANCH  33  34
ENDBRANCH  32  33
ENDBRANCH  31  32
ENDBRANCH  30  31
ENDBRANCH  29  30
ENDBRANCH  28  29
ENDBRANCH   1  28
TORSDOF 26
ENDMDL
MODEL 2
REMARK VINA RESULT:      -8.4      1.081      7.710
REMARK SMILES C[NH+](C)CC[NH2+][C@@H](C(=O)OCCOCCOCCOCCOC(=O)c1ccc(-c2c3nc(c(-c4c(F)c(F)c(F)c(F)c4F)c4ccc([nH]4)c(-c4c(F)c(F)c(F)c(F)c4F)c4nc(c(-c5c(F)c(F)c(F)c(F)c5F)c5ccc2[nH]5)C=C4)C=C3)cc1)c1cccc(C2CC2)c1
REMARK SMILES IDX 15 1 14 2 13 3 12 4 11 5 10 6 8 7 9 8 7 9 6 10 5 13 4 14
REMARK SMILES IDX 2 15 1 16 3 17 88 19 89 20 96 21 90 22 92 23 91 24 93 25
REMARK SMILES IDX 94 26 95 27 16 28 17 29 18 30 19 31 20 32 21 33 22 34 23 35
REMARK SMILES IDX 24 36 25 37 26 38 87 39 27 40 86 41 28 42 29 43 30 44 80 45
REMARK SMILES IDX 31 46 85 47 79 48 81 49 32 50 84 51 78 52 77 53 33 55 65 56
REMARK SMILES IDX 45 57 64 58 46 59 49 60 63 61 82 62 47 63 48 64 62 66 83 67
REMARK SMILES IDX 50 68 34 69 35 70 43 71 36 72 37 73 41 74 44 75 38 76 39 77
REMARK SMILES IDX 42 78 40 79 66 80 67 81 75 82 68 83 69 84 73 85 76 86 70 87
REMARK SMILES IDX 71 88 74 89 72 90 51 91 52 92 60 93 53 94 54 95 58 96 61 97
REMARK SMILES IDX 55 98 56 99 59 100 57 101
REMARK H PARENT 6 11 6 12 2 18 81 54 49 65
REMARK Flexibility Score: inf
ROOT
ATOM      1  C   UNL A   1      40.110  25.473  26.989  1.00  0.00     0.188 C 
ENDROOT
BRANCH   1   2
ATOM      2  C   UNL A   1      38.865  24.565  26.976  1.00  0.00     0.188 C 
BRANCH   2   3
ATOM      3  O   UNL A   1      38.907  23.306  26.320  1.00  0.00    -0.376 OA
BRANCH   3   4
ATOM      4  C   UNL A   1      37.774  22.839  25.604  1.00  0.00     0.202 C 
BRANCH   4   5
ATOM      5  C   UNL A   1      36.346  23.287  25.982  1.00  0.00     0.261 C 
BRANCH   5   6
ATOM      6  O   UNL A   1      35.737  24.310  25.163  1.00  0.00    -0.459 OA
BRANCH   6   7
ATOM      7  C   UNL A   1      34.936  23.885  24.154  1.00  0.00     0.369 C 
ATOM      8  O   UNL A   1      35.368  23.671  23.020  1.00  0.00    -0.245 OA
BRANCH   7   9
ATOM      9  C   UNL A   1      33.430  23.659  24.501  1.00  0.00     0.324 C 
BRANCH   9  10
ATOM     10  N   UNL A   1      32.885  23.863  25.862  1.00  0.00    -0.326 N 
ATOM     11  H   UNL A   1      32.676  22.933  26.224  1.00  0.00     0.347 HD
ATOM     12  H   UNL A   1      33.620  24.420  26.298  1.00  0.00     0.347 HD
BRANCH  10  13
ATOM     13  C   UNL A   1      31.708  24.671  26.120  1.00  0.00     0.323 C 
BRANCH  13  14
ATOM     14  C   UNL A   1      32.098  26.182  26.291  1.00  0.00     0.323 C 
BRANCH  14  15
ATOM     15  N   UNL A   1      32.356  27.048  25.123  1.00  0.00    -0.335 N 
ATOM     16  C   UNL A   1      31.339  28.037  24.812  1.00  0.00     0.332 C 
ATOM     17  C   UNL A   1      33.701  27.599  25.094  1.00  0.00     0.332 C 
ATOM     18  H   UNL A   1      32.287  26.390  24.348  1.00  0.00     0.347 HD
ENDBRANCH  14  15
ENDBRANCH  13  14
ENDBRANCH  10  13
ENDBRANCH   9  10
BRANCH   9  19
ATOM     19  C   UNL A   1      33.003  22.264  23.987  1.00  0.00     0.021 A 
ATOM     20  C   UNL A   1      32.303  22.167  22.780  1.00  0.00     0.010 A 
ATOM     21  C   UNL A   1      33.352  21.056  24.642  1.00  0.00     0.014 A 
ATOM     22  C   UNL A   1      31.947  20.921  22.268  1.00  0.00     0.001 A 
ATOM     23  C   UNL A   1      33.014  19.780  24.151  1.00  0.00    -0.044 A 
ATOM     24  C   UNL A   1      32.291  19.751  22.950  1.00  0.00     0.004 A 
BRANCH  23  25
ATOM     25  C   UNL A   1      33.404  18.475  24.827  1.00  0.00     0.019 C 
ATOM     26  C   UNL A   1      32.426  17.377  25.175  1.00  0.00     0.009 C 
ATOM     27  C   UNL A   1      33.386  17.186  24.037  1.00  0.00     0.009 C 
ENDBRANCH  23  25
ENDBRANCH   9  19
ENDBRANCH   7   9
ENDBRANCH   6   7
ENDBRANCH   5   6
ENDBRANCH   4   5
ENDBRANCH   3   4
ENDBRANCH   2   3
ENDBRANCH   1   2
BRANCH   1  28
ATOM     28  O   UNL A   1      41.326  24.825  26.671  1.00  0.00    -0.377 OA
BRANCH  28  29
ATOM     29  C   UNL A   1      42.093  24.345  27.761  1.00  0.00     0.188 C 
BRANCH  29  30
ATOM     30  C   UNL A   1      42.815  23.002  27.577  1.00  0.00     0.188 C 
BRANCH  30  31
ATOM     31  O   UNL A   1      43.025  22.670  26.210  1.00  0.00    -0.376 OA
BRANCH  31  32
ATOM     32  C   UNL A   1      43.661  21.445  25.884  1.00  0.00     0.202 C 
BRANCH  32  33
ATOM     33  C   UNL A   1      45.125  21.478  25.411  1.00  0.00     0.261 C 
BRANCH  33  34
ATOM     34  O   UNL A   1      45.957  22.522  25.932  1.00  0.00    -0.460 OA
BRANCH  34  35
ATOM     35  C   UNL A   1      46.231  23.573  25.135  1.00  0.00     0.338 C 
ATOM     36  O   UNL A   1      46.628  23.534  23.982  1.00  0.00    -0.246 OA
BRANCH  35  37
ATOM     37  C   UNL A   1      45.777  24.799  25.827  1.00  0.00     0.060 A 
ATOM     38  C   UNL A   1      45.073  25.762  25.094  1.00  0.00     0.016 A 
ATOM     39  C   UNL A   1      46.036  25.001  27.187  1.00  0.00     0.016 A 
ATOM     40  C   UNL A   1      44.678  26.955  25.702  1.00  0.00     0.010 A 
ATOM     41  C   UNL A   1      45.654  26.206  27.792  1.00  0.00     0.010 A 
ATOM     42  C   UNL A   1      45.017  27.207  27.038  1.00  0.00    -0.014 A 
BRANCH  42  43
ATOM     43  C   UNL A   1      44.919  28.598  27.553  1.00  0.00     0.031 A 
ATOM     44  C   UNL A   1      43.639  29.018  28.227  1.00  0.00     0.074 A 
ATOM     45  C   UNL A   1      45.957  29.451  27.495  1.00  0.00     0.049 A 
ATOM     46  N   UNL A   1      43.319  30.161  28.779  1.00  0.00    -0.248 NA
ATOM     47  C   UNL A   1      42.574  28.004  28.289  1.00  0.00     0.031 C 
ATOM     48  C   UNL A   1      47.264  29.155  26.914  1.00  0.00     0.029 A 
ATOM     49  N   UNL A   1      46.070  30.746  27.940  1.00  0.00    -0.354 N 
ATOM     50  C   UNL A   1      42.021  30.003  29.248  1.00  0.00     0.074 A 
ATOM     51  C   UNL A   1      41.595  28.670  28.880  1.00  0.00     0.031 C 
ATOM     52  C   UNL A   1      48.051  30.238  27.041  1.00  0.00     0.029 A 
ATOM     53  C   UNL A   1      47.294  31.314  27.683  1.00  0.00     0.049 A 
ATOM     54  H   UNL A   1      45.343  31.222  28.401  1.00  0.00     0.167 HD
ATOM     55  C   UNL A   1      41.256  30.881  29.939  1.00  0.00     0.037 A 
ATOM     56  C   UNL A   1      47.742  32.561  27.927  1.00  0.00     0.037 A 
ATOM     57  C   UNL A   1      41.677  32.207  30.304  1.00  0.00     0.049 A 
ATOM     58  C   UNL A   1      46.837  33.553  28.618  1.00  0.00     0.074 A 
ATOM     59  C   UNL A   1      40.980  33.169  31.014  1.00  0.00     0.029 A 
ATOM     60  N   UNL A   1      42.905  32.764  29.977  1.00  0.00    -0.354 N 
ATOM     61  N   UNL A   1      45.623  33.386  29.086  1.00  0.00    -0.248 NA
ATOM     62  C   UNL A   1      47.373  34.906  28.822  1.00  0.00     0.031 C 
ATOM     63  C   UNL A   1      41.758  34.330  31.057  1.00  0.00     0.029 A 
ATOM     64  C   UNL A   1      42.971  34.068  30.441  1.00  0.00     0.049 A 
ATOM     65  H   UNL A   1      43.622  32.302  29.486  1.00  0.00     0.167 HD
ATOM     66  C   UNL A   1      45.267  34.596  29.670  1.00  0.00     0.074 A 
ATOM     67  C   UNL A   1      46.399  35.484  29.511  1.00  0.00     0.031 C 
ATOM     68  C   UNL A   1      44.108  34.941  30.286  1.00  0.00     0.037 A 
BRANCH  55  69
ATOM     69  C   UNL A   1      39.867  30.444  30.312  1.00  0.00     0.064 A 
ATOM     70  C   UNL A   1      38.763  30.691  29.482  1.00  0.00     0.173 A 
ATOM     71  C   UNL A   1      39.643  29.749  31.510  1.00  0.00     0.173 A 
ATOM     72  F   UNL A   1      38.918  31.366  28.332  1.00  0.00    -0.203 F 
ATOM     73  C   UNL A   1      37.482  30.290  29.855  1.00  0.00     0.198 A 
ATOM     74  C   UNL A   1      38.367  29.318  31.862  1.00  0.00     0.198 A 
ATOM     75  F   UNL A   1      40.662  29.483  32.340  1.00  0.00    -0.203 F 
ATOM     76  F   UNL A   1      36.434  30.591  29.075  1.00  0.00    -0.200 F 
ATOM     77  C   UNL A   1      37.286  29.598  31.040  1.00  0.00     0.200 A 
ATOM     78  F   UNL A   1      38.183  28.635  33.001  1.00  0.00    -0.200 F 
ATOM     79  F   UNL A   1      36.054  29.207  31.394  1.00  0.00    -0.200 F 
ENDBRANCH  55  69
BRANCH  56  80
ATOM     80  C   UNL A   1      49.115  32.959  27.510  1.00  0.00     0.064 A 
ATOM     81  C   UNL A   1      49.343  33.617  26.293  1.00  0.00     0.173 A 
ATOM     82  C   UNL A   1      50.232  32.655  28.303  1.00  0.00     0.173 A 
ATOM     83  F   UNL A   1      48.312  33.905  25.485  1.00  0.00    -0.203 F 
ATOM     84  C   UNL A   1      50.635  33.932  25.874  1.00  0.00     0.198 A 
ATOM     85  C   UNL A   1      51.519  33.000  27.899  1.00  0.00     0.198 A 
ATOM     86  F   UNL A   1      50.072  32.021  29.475  1.00  0.00    -0.203 F 
ATOM     87  F   UNL A   1      50.828  34.507  24.679  1.00  0.00    -0.200 F 
ATOM     88  C   UNL A   1      51.722  33.628  26.680  1.00  0.00     0.200 A 
ATOM     89  F   UNL A   1      52.566  32.716  28.687  1.00  0.00    -0.200 F 
ATOM     90  F   UNL A   1      52.963  33.932  26.277  1.00  0.00    -0.200 F 
ENDBRANCH  56  80
BRANCH  68  91
ATOM     91  C   UNL A   1      44.020  36.318  30.883  1.00  0.00     0.064 A 
ATOM     92  C   UNL A   1      43.733  37.450  30.104  1.00  0.00     0.173 A 
ATOM     93  C   UNL A   1      44.191  36.504  32.265  1.00  0.00     0.173 A 
ATOM     94  F   UNL A   1      43.570  37.333  28.778  1.00  0.00    -0.203 F 
ATOM     95  C   UNL A   1      43.657  38.716  30.680  1.00  0.00     0.198 A 
ATOM     96  C   UNL A   1      44.076  37.764  32.842  1.00  0.00     0.198 A 
ATOM     97  F   UNL A   1      44.456  35.456  33.060  1.00  0.00    -0.203 F 
ATOM     98  F   UNL A   1      43.441  39.789  29.907  1.00  0.00    -0.200 F 
ATOM     99  C   UNL A   1      43.821  38.872  32.048  1.00  0.00     0.200 A 
ATOM    100  F   UNL A   1      44.215  37.909  34.167  1.00  0.00    -0.200 F 
ATOM    101  F   UNL A   1      43.741  40.090  32.600  1.00  0.00    -0.200 F 
ENDBRANCH  68  91
ENDBRANCH  42  43
ENDBRANCH  35  37
ENDBRANCH  34  35
ENDBRANCH  33  34
ENDBRANCH  32  33
ENDBRANCH  31  32
ENDBRANCH  30  31
ENDBRANCH  29  30
ENDBRANCH  28  29
ENDBRANCH   1  28
TORSDOF 26
ENDMDL
MODEL 3
REMARK VINA RESULT:      -8.3      0.898      7.096
REMARK SMILES C[NH+](C)CC[NH2+][C@@H](C(=O)OCCOCCOCCOCCOC(=O)c1ccc(-c2c3nc(c(-c4c(F)c(F)c(F)c(F)c4F)c4ccc([nH]4)c(-c4c(F)c(F)c(F)c(F)c4F)c4nc(c(-c5c(F)c(F)c(F)c(F)c5F)c5ccc2[nH]5)C=C4)C=C3)cc1)c1cccc(C2CC2)c1
REMARK SMILES IDX 15 1 14 2 13 3 12 4 11 5 10 6 8 7 9 8 7 9 6 10 5 13 4 14
REMARK SMILES IDX 2 15 1 16 3 17 88 19 89 20 96 21 90 22 92 23 91 24 93 25
REMARK SMILES IDX 94 26 95 27 16 28 17 29 18 30 19 31 20 32 21 33 22 34 23 35
REMARK SMILES IDX 24 36 25 37 26 38 87 39 27 40 86 41 28 42 29 43 30 44 80 45
REMARK SMILES IDX 31 46 85 47 79 48 81 49 32 50 84 51 78 52 77 53 33 55 65 56
REMARK SMILES IDX 45 57 64 58 46 59 49 60 63 61 82 62 47 63 48 64 62 66 83 67
REMARK SMILES IDX 50 68 34 69 35 70 43 71 36 72 37 73 41 74 44 75 38 76 39 77
REMARK SMILES IDX 42 78 40 79 66 80 67 81 75 82 68 83 69 84 73 85 76 86 70 87
REMARK SMILES IDX 71 88 74 89 72 90 51 91 52 92 60 93 53 94 54 95 58 96 61 97
REMARK SMILES IDX 55 98 56 99 59 100 57 101
REMARK H PARENT 6 11 6 12 2 18 81 54 49 65
REMARK Flexibility Score: inf
ROOT
ATOM      1  C   UNL A   1      40.315  24.864  26.736  1.00  0.00     0.188 C 
ENDROOT
BRANCH   1   2
ATOM      2  C   UNL A   1      38.889  24.282  26.786  1.00  0.00     0.188 C 
BRANCH   2   3
ATOM      3  O   UNL A   1      38.595  23.058  26.128  1.00  0.00    -0.376 OA
BRANCH   3   4
ATOM      4  C   UNL A   1      37.396  22.923  25.379  1.00  0.00     0.202 C 
BRANCH   4   5
ATOM      5  C   UNL A   1      36.124  23.715  25.753  1.00  0.00     0.261 C 
BRANCH   5   6
ATOM      6  O   UNL A   1      35.406  24.356  24.674  1.00  0.00    -0.459 OA
BRANCH   6   7
ATOM      7  C   UNL A   1      34.461  23.613  24.047  1.00  0.00     0.369 C 
ATOM      8  O   UNL A   1      34.683  23.032  22.983  1.00  0.00    -0.245 OA
BRANCH   7   9
ATOM      9  C   UNL A   1      33.069  23.510  24.748  1.00  0.00     0.324 C 
BRANCH   9  10
ATOM     10  N   UNL A   1      32.101  22.433  24.443  1.00  0.00    -0.326 N 
ATOM     11  H   UNL A   1      31.177  22.821  24.634  1.00  0.00     0.347 HD
ATOM     12  H   UNL A   1      32.357  22.187  23.487  1.00  0.00     0.347 HD
BRANCH  10  13
ATOM     13  C   UNL A   1      32.138  21.139  25.100  1.00  0.00     0.323 C 
BRANCH  13  14
ATOM     14  C   UNL A   1      33.032  20.131  24.294  1.00  0.00     0.323 C 
BRANCH  14  15
ATOM     15  N   UNL A   1      34.076  19.327  24.958  1.00  0.00    -0.335 N 
ATOM     16  C   UNL A   1      34.162  17.929  24.571  1.00  0.00     0.332 C 
ATOM     17  C   UNL A   1      35.375  19.979  24.998  1.00  0.00     0.332 C 
ATOM     18  H   UNL A   1      33.736  19.282  25.919  1.00  0.00     0.347 HD
ENDBRANCH  14  15
ENDBRANCH  13  14
ENDBRANCH  10  13
ENDBRANCH   9  10
BRANCH   9  19
ATOM     19  C   UNL A   1      32.355  24.878  24.645  1.00  0.00     0.021 A 
ATOM     20  C   UNL A   1      31.685  25.210  23.462  1.00  0.00     0.010 A 
ATOM     21  C   UNL A   1      32.274  25.794  25.724  1.00  0.00     0.014 A 
ATOM     22  C   UNL A   1      30.992  26.414  23.357  1.00  0.00     0.001 A 
ATOM     23  C   UNL A   1      31.578  27.016  25.655  1.00  0.00    -0.044 A 
ATOM     24  C   UNL A   1      30.950  27.302  24.435  1.00  0.00     0.004 A 
BRANCH  23  25
ATOM     25  C   UNL A   1      31.460  27.997  26.811  1.00  0.00     0.019 C 
ATOM     26  C   UNL A   1      32.634  28.496  27.621  1.00  0.00     0.009 C 
ATOM     27  C   UNL A   1      31.957  29.415  26.646  1.00  0.00     0.009 C 
ENDBRANCH  23  25
ENDBRANCH   9  19
ENDBRANCH   7   9
ENDBRANCH   6   7
ENDBRANCH   5   6
ENDBRANCH   4   5
ENDBRANCH   3   4
ENDBRANCH   2   3
ENDBRANCH   1   2
BRANCH   1  28
ATOM     28  O   UNL A   1      41.340  23.917  26.506  1.00  0.00    -0.377 OA
BRANCH  28  29
ATOM     29  C   UNL A   1      41.859  23.255  27.645  1.00  0.00     0.188 C 
BRANCH  29  30
ATOM     30  C   UNL A   1      42.766  22.040  27.402  1.00  0.00     0.188 C 
BRANCH  30  31
ATOM     31  O   UNL A   1      43.187  21.927  26.048  1.00  0.00    -0.376 OA
BRANCH  31  32
ATOM     32  C   UNL A   1      44.126  20.924  25.696  1.00  0.00     0.202 C 
BRANCH  32  33
ATOM     33  C   UNL A   1      45.602  21.323  25.527  1.00  0.00     0.261 C 
BRANCH  33  34
ATOM     34  O   UNL A   1      45.985  22.624  25.992  1.00  0.00    -0.460 OA
BRANCH  34  35
ATOM     35  C   UNL A   1      46.046  23.627  25.094  1.00  0.00     0.338 C 
ATOM     36  O   UNL A   1      46.276  23.528  23.900  1.00  0.00    -0.246 OA
BRANCH  35  37
ATOM     37  C   UNL A   1      45.588  24.865  25.763  1.00  0.00     0.060 A 
ATOM     38  C   UNL A   1      44.937  25.840  24.997  1.00  0.00     0.016 A 
ATOM     39  C   UNL A   1      45.790  25.065  27.132  1.00  0.00     0.016 A 
ATOM     40  C   UNL A   1      44.541  27.042  25.585  1.00  0.00     0.010 A 
ATOM     41  C   UNL A   1      45.408  26.279  27.717  1.00  0.00     0.010 A 
ATOM     42  C   UNL A   1      44.825  27.292  26.933  1.00  0.00    -0.014 A 
BRANCH  42  43
ATOM     43  C   UNL A   1      44.733  28.686  27.440  1.00  0.00     0.031 A 
ATOM     44  C   UNL A   1      43.464  29.108  28.133  1.00  0.00     0.074 A 
ATOM     45  C   UNL A   1      45.770  29.540  27.359  1.00  0.00     0.049 A 
ATOM     46  N   UNL A   1      43.152  30.255  28.682  1.00  0.00    -0.248 NA
ATOM     47  C   UNL A   1      42.402  28.094  28.220  1.00  0.00     0.031 C 
ATOM     48  C   UNL A   1      47.067  29.242  26.759  1.00  0.00     0.029 A 
ATOM     49  N   UNL A   1      45.887  30.838  27.794  1.00  0.00    -0.354 N 
ATOM     50  C   UNL A   1      41.862  30.098  29.174  1.00  0.00     0.074 A 
ATOM     51  C   UNL A   1      41.433  28.763  28.822  1.00  0.00     0.031 C 
ATOM     52  C   UNL A   1      47.855  30.328  26.865  1.00  0.00     0.029 A 
ATOM     53  C   UNL A   1      47.106  31.406  27.512  1.00  0.00     0.049 A 
ATOM     54  H   UNL A   1      45.167  31.316  28.264  1.00  0.00     0.167 HD
ATOM     55  C   UNL A   1      41.107  30.980  29.871  1.00  0.00     0.037 A 
ATOM     56  C   UNL A   1      47.556  32.656  27.740  1.00  0.00     0.037 A 
ATOM     57  C   UNL A   1      41.533  32.309  30.221  1.00  0.00     0.049 A 
ATOM     58  C   UNL A   1      46.662  33.651  28.440  1.00  0.00     0.074 A 
ATOM     59  C   UNL A   1      40.845  33.275  30.935  1.00  0.00     0.029 A 
ATOM     60  N   UNL A   1      42.753  32.866  29.869  1.00  0.00    -0.354 N 
ATOM     61  N   UNL A   1      45.456  33.485  28.928  1.00  0.00    -0.248 NA
ATOM     62  C   UNL A   1      47.198  35.007  28.625  1.00  0.00     0.031 C 
ATOM     63  C   UNL A   1      41.623  34.437  30.957  1.00  0.00     0.029 A 
ATOM     64  C   UNL A   1      42.825  34.173  30.323  1.00  0.00     0.049 A 
ATOM     65  H   UNL A   1      43.463  32.401  29.369  1.00  0.00     0.167 HD
ATOM     66  C   UNL A   1      45.107  34.699  29.510  1.00  0.00     0.074 A 
ATOM     67  C   UNL A   1      46.235  35.587  29.326  1.00  0.00     0.031 C 
ATOM     68  C   UNL A   1      43.958  35.046  30.143  1.00  0.00     0.037 A 
BRANCH  55  69
ATOM     69  C   UNL A   1      39.726  30.543  30.271  1.00  0.00     0.064 A 
ATOM     70  C   UNL A   1      38.669  30.486  29.348  1.00  0.00     0.173 A 
ATOM     71  C   UNL A   1      39.460  30.158  31.594  1.00  0.00     0.173 A 
ATOM     72  F   UNL A   1      38.864  30.858  28.073  1.00  0.00    -0.203 F 
ATOM     73  C   UNL A   1      37.393  30.092  29.743  1.00  0.00     0.198 A 
ATOM     74  C   UNL A   1      38.193  29.730  31.976  1.00  0.00     0.198 A 
ATOM     75  F   UNL A   1      40.434  30.190  32.516  1.00  0.00    -0.203 F 
ATOM     76  F   UNL A   1      36.386  30.103  28.858  1.00  0.00    -0.200 F 
ATOM     77  C   UNL A   1      37.158  29.708  31.054  1.00  0.00     0.200 A 
ATOM     78  F   UNL A   1      37.971  29.344  33.241  1.00  0.00    -0.200 F 
ATOM     79  F   UNL A   1      35.930  29.323  31.432  1.00  0.00    -0.200 F 
ENDBRANCH  55  69
BRANCH  56  80
ATOM     80  C   UNL A   1      48.922  33.052  27.298  1.00  0.00     0.064 A 
ATOM     81  C   UNL A   1      49.116  33.813  26.136  1.00  0.00     0.173 A 
ATOM     82  C   UNL A   1      50.062  32.647  28.007  1.00  0.00     0.173 A 
ATOM     83  F   UNL A   1      48.061  34.202  25.405  1.00  0.00    -0.203 F 
ATOM     84  C   UNL A   1      50.398  34.130  25.687  1.00  0.00     0.198 A 
ATOM     85  C   UNL A   1      51.341  32.993  27.577  1.00  0.00     0.198 A 
ATOM     86  F   UNL A   1      49.934  31.914  29.124  1.00  0.00    -0.203 F 
ATOM     87  F   UNL A   1      50.556  34.806  24.542  1.00  0.00    -0.200 F 
ATOM     88  C   UNL A   1      51.509  33.725  26.411  1.00  0.00     0.200 A 
ATOM     89  F   UNL A   1      52.411  32.610  28.287  1.00  0.00    -0.200 F 
ATOM     90  F   UNL A   1      52.741  34.030  25.980  1.00  0.00    -0.200 F 
ENDBRANCH  56  80
BRANCH  68  91
ATOM     91  C   UNL A   1      43.878  36.428  30.732  1.00  0.00     0.064 A 
ATOM     92  C   UNL A   1      44.132  36.674  32.090  1.00  0.00     0.173 A 
ATOM     93  C   UNL A   1      43.575  37.529  29.915  1.00  0.00     0.173 A 
ATOM     94  F   UNL A   1      44.417  35.658  32.918  1.00  0.00    -0.203 F 
ATOM     95  C   UNL A   1      44.051  37.963  32.612  1.00  0.00     0.198 A 
ATOM     96  C   UNL A   1      43.532  38.820  30.432  1.00  0.00     0.198 A 
ATOM     97  F   UNL A   1      43.333  37.355  28.607  1.00  0.00    -0.203 F 
ATOM     98  F   UNL A   1      44.239  38.165  33.924  1.00  0.00    -0.200 F 
ATOM     99  C   UNL A   1      43.759  39.035  31.783  1.00  0.00     0.200 A 
ATOM    100  F   UNL A   1      43.269  39.857  29.625  1.00  0.00    -0.200 F 
ATOM    101  F   UNL A   1      43.687  40.275  32.287  1.00  0.00    -0.200 F 
ENDBRANCH  68  91
ENDBRANCH  42  43
ENDBRANCH  35  37
ENDBRANCH  34  35
ENDBRANCH  33  34
ENDBRANCH  32  33
ENDBRANCH  31  32
ENDBRANCH  30  31
ENDBRANCH  29  30
ENDBRANCH  28  29
ENDBRANCH   1  28
TORSDOF 26
ENDMDL
